# generated using pymatgen
data_AgSbTe2
_symmetry_space_group_name_H-M   'P 1'
_cell_length_a   18.34296965
_cell_length_b   18.34011190
_cell_length_c   18.34099318
_cell_angle_alpha   90.00313453
_cell_angle_beta   89.99976910
_cell_angle_gamma   89.99754823
_symmetry_Int_Tables_number   1
_chemical_formula_structural   AgSbTe2
_chemical_formula_sum   'Ag54 Sb54 Te108'
_cell_volume   6170.13230936
_cell_formula_units_Z   54
loop_
 _symmetry_equiv_pos_site_id
 _symmetry_equiv_pos_as_xyz
  1  'x, y, z'
loop_
 _atom_site_type_symbol
 _atom_site_label
 _atom_site_symmetry_multiplicity
 _atom_site_fract_x
 _atom_site_fract_y
 _atom_site_fract_z
 _atom_site_occupancy
  Ag  Ag0  1  0.66356805  0.67230207  0.32827939  1
  Ag  Ag1  1  0.33060504  0.49706787  0.50671224  1
  Ag  Ag2  1  0.16653494  0.50016485  0.67355465  1
  Ag  Ag3  1  0.66404992  0.84267099  0.17016629  1
  Ag  Ag4  1  0.33297095  0.84541596  0.82788213  1
  Ag  Ag5  1  0.00026901  0.32259265  0.67602207  1
  Ag  Ag6  1  0.65971548  0.16662302  0.16424724  1
  Ag  Ag7  1  0.00166361  0.16913174  0.82811100  1
  Ag  Ag8  1  0.33416867  0.33226885  -0.00489881  1
  Ag  Ag9  1  0.66922224  0.16833245  0.83860496  1
  Ag  Ag10  1  0.16182778  0.16252303  0.32594515  1
  Ag  Ag11  1  0.49559372  0.49113631  -0.00139116  1
  Ag  Ag12  1  0.66025878  0.33308729  0.00244493  1
  Ag  Ag13  1  0.49975451  0.82919451  0.00901771  1
  Ag  Ag14  1  -0.00101781  0.84702798  0.17328426  1
  Ag  Ag15  1  0.50126487  0.16643041  0.66632182  1
  Ag  Ag16  1  0.16736750  0.83840906  0.66168043  1
  Ag  Ag17  1  0.00681354  0.00528516  0.33702441  1
  Ag  Ag18  1  0.32552911  0.48685382  0.82996315  1
  Ag  Ag19  1  0.17161815  0.48808026  -0.00900131  1
  Ag  Ag20  1  0.00205383  0.16807280  0.50355940  1
  Ag  Ag21  1  0.16846118  0.00401301  0.17415855  1
  Ag  Ag22  1  -0.00105830  0.32298514  0.33422379  1
  Ag  Ag23  1  0.83192009  0.66634985  0.83383942  1
  Ag  Ag24  1  0.16973059  0.84132482  0.34002718  1
  Ag  Ag25  1  0.33256207  0.83473835  0.50181127  1
  Ag  Ag26  1  0.65340646  0.83390441  0.49138737  1
  Ag  Ag27  1  0.00876498  0.48638107  0.82790289  1
  Ag  Ag28  1  0.00794051  0.48614479  0.50779375  1
  Ag  Ag29  1  0.49694144  0.16467949  0.32777906  1
  Ag  Ag30  1  0.00809511  0.84088098  0.49554158  1
  Ag  Ag31  1  0.49860996  0.33144178  0.49869864  1
  Ag  Ag32  1  0.16619411  0.16819155  -0.00338491  1
  Ag  Ag33  1  0.49501376  0.00769452  0.16805926  1
  Ag  Ag34  1  0.32697987  0.00012208  0.66760385  1
  Ag  Ag35  1  0.50044010  0.66940743  0.49835551  1
  Ag  Ag36  1  0.84597431  0.33002083  0.83893456  1
  Ag  Ag37  1  0.66483553  0.32900473  0.32501555  1
  Ag  Ag38  1  0.50591010  0.32599778  0.16263659  1
  Ag  Ag39  1  0.49544464  0.33058868  0.84024748  1
  Ag  Ag40  1  0.32609110  0.00210647  0.33688147  1
  Ag  Ag41  1  0.33352444  0.16494224  0.16336630  1
  Ag  Ag42  1  0.84423491  0.01278455  0.82909172  1
  Ag  Ag43  1  0.66385979  0.66064870  0.00318138  1
  Ag  Ag44  1  0.16176092  0.32733947  0.83603996  1
  Ag  Ag45  1  0.00759897  0.16440523  0.17166228  1
  Ag  Ag46  1  0.00887727  0.33150592  -0.00914449  1
  Ag  Ag47  1  0.32708160  0.16826864  0.83634748  1
  Ag  Ag48  1  0.66166012  0.00436896  0.66842627  1
  Ag  Ag49  1  0.49903051  0.84311506  0.33251039  1
  Ag  Ag50  1  0.16632461  0.01037542  0.83428683  1
  Ag  Ag51  1  0.00509492  0.00492131  0.66519207  1
  Ag  Ag52  1  0.82870299  0.32890776  0.15805376  1
  Ag  Ag53  1  0.84112440  0.16440143  0.67209482  1
  Sb  Sb54  1  0.49573976  0.00672742  0.83651239  1
  Sb  Sb55  1  0.83542841  0.16765012  0.33409476  1
  Sb  Sb56  1  0.83456779  0.33163851  0.50124029  1
  Sb  Sb57  1  0.83208161  0.83489177  0.33341213  1
  Sb  Sb58  1  0.84075247  0.49217119  0.66926271  1
  Sb  Sb59  1  0.16991576  0.66862609  0.49952771  1
  Sb  Sb60  1  0.66517900  0.67668080  0.66748908  1
  Sb  Sb61  1  0.16587618  0.16376266  0.67057365  1
  Sb  Sb62  1  0.49526416  0.17014761  0.00217897  1
  Sb  Sb63  1  0.49333059  0.49051864  0.66855588  1
  Sb  Sb64  1  0.00249954  0.48774335  0.16479568  1
  Sb  Sb65  1  0.66893236  0.32668111  0.66928885  1
  Sb  Sb66  1  0.33627091  0.84286777  0.16759353  1
  Sb  Sb67  1  0.33361744  0.32601416  0.33184577  1
  Sb  Sb68  1  0.49501453  0.84194058  0.66279773  1
  Sb  Sb69  1  0.49778756  0.49577202  0.33154407  1
  Sb  Sb70  1  0.33808983  0.67603674  0.33585763  1
  Sb  Sb71  1  0.33381379  0.67148330  0.66705639  1
  Sb  Sb72  1  0.66401673  0.00651021  -0.00222824  1
  Sb  Sb73  1  0.83833655  0.83997464  0.66858185  1
  Sb  Sb74  1  0.82986846  0.83216021  -0.00065948  1
  Sb  Sb75  1  0.33002751  0.32770503  0.67255392  1
  Sb  Sb76  1  0.32992334  0.16500877  0.50113577  1
  Sb  Sb77  1  0.00459709  0.83843007  0.83304160  1
  Sb  Sb78  1  0.16637357  0.32251935  0.15863206  1
  Sb  Sb79  1  0.66616455  0.00290644  0.33384804  1
  Sb  Sb80  1  0.17113882  0.83836216  -0.00150002  1
  Sb  Sb81  1  0.83863572  0.16947019  -0.00533716  1
  Sb  Sb82  1  0.66277239  0.83966417  0.83540300  1
  Sb  Sb83  1  0.50208518  0.66903971  0.16918187  1
  Sb  Sb84  1  0.00238731  0.00689271  -0.00185583  1
  Sb  Sb85  1  0.83005380  0.66842123  0.50402585  1
  Sb  Sb86  1  0.16747012  0.49375613  0.33375914  1
  Sb  Sb87  1  0.33442573  0.00652882  0.00001085  1
  Sb  Sb88  1  0.66615607  0.49094288  0.83476458  1
  Sb  Sb89  1  0.16588190  0.33271995  0.50525654  1
  Sb  Sb90  1  0.33697739  0.66085967  -0.00060049  1
  Sb  Sb91  1  0.00036797  0.66771421  0.66737736  1
  Sb  Sb92  1  -0.00258133  0.67013585  0.33494571  1
  Sb  Sb93  1  0.66263185  0.50134275  0.49963302  1
  Sb  Sb94  1  0.66467969  0.49298579  0.16508870  1
  Sb  Sb95  1  0.16474144  0.00077511  0.49948869  1
  Sb  Sb96  1  -0.00360368  0.66071139  -0.00103956  1
  Sb  Sb97  1  0.16553497  0.67663863  0.16679505  1
  Sb  Sb98  1  0.33350710  0.48643006  0.16336614  1
  Sb  Sb99  1  0.83288024  0.49405272  -0.00220624  1
  Sb  Sb100  1  0.83090464  0.66491608  0.16355973  1
  Sb  Sb101  1  0.83638218  0.00042119  0.50460111  1
  Sb  Sb102  1  0.50152938  0.66334982  0.83219277  1
  Sb  Sb103  1  0.83299082  0.49665006  0.33444304  1
  Sb  Sb104  1  0.66771057  0.16438079  0.49960908  1
  Sb  Sb105  1  0.16581358  0.66422671  0.83317299  1
  Sb  Sb106  1  0.83553975  0.00607359  0.16216370  1
  Sb  Sb107  1  0.49883071  0.00263237  0.49574977  1
  Te  Te108  1  0.16751056  0.16308170  0.16685795  1
  Te  Te109  1  0.16193429  0.16917875  0.48950163  1
  Te  Te110  1  0.16616133  0.16763575  0.83213925  1
  Te  Te111  1  0.16719657  0.50451484  0.16482290  1
  Te  Te112  1  0.16836516  0.50055177  0.50128587  1
  Te  Te113  1  0.16778220  0.50217536  0.83339455  1
  Te  Te114  1  0.16406977  0.84307281  0.16741163  1
  Te  Te115  1  0.16888793  0.83257089  0.49933263  1
  Te  Te116  1  0.17331477  0.83192224  0.83251014  1
  Te  Te117  1  0.50017424  0.16554300  0.16652526  1
  Te  Te118  1  0.49983027  0.17108348  0.49791004  1
  Te  Te119  1  0.50079905  0.16952455  0.83479105  1
  Te  Te120  1  0.49831800  0.49619651  0.16075983  1
  Te  Te121  1  0.49412223  0.49450638  0.50004638  1
  Te  Te122  1  0.49713899  0.49579301  0.83673519  1
  Te  Te123  1  0.50329686  0.83436396  0.17046779  1
  Te  Te124  1  0.49690983  0.83559021  0.49792966  1
  Te  Te125  1  0.49270825  0.83145347  0.83137619  1
  Te  Te126  1  0.82980282  0.16974079  0.16709269  1
  Te  Te127  1  0.83948995  0.16684656  0.50696217  1
  Te  Te128  1  0.83366825  0.16835799  0.83332550  1
  Te  Te129  1  0.83426923  0.49120346  0.16703340  1
  Te  Te130  1  0.84345783  0.50138034  0.50240960  1
  Te  Te131  1  0.83596265  0.49255193  0.83294842  1
  Te  Te132  1  0.83240430  0.83397854  0.16585959  1
  Te  Te133  1  0.83768121  0.83188334  0.50160503  1
  Te  Te134  1  0.83263268  0.83126670  0.83366144  1
  Te  Te135  1  0.16816003  0.00467143  -0.00452126  1
  Te  Te136  1  0.16549001  -0.00001205  0.33368235  1
  Te  Te137  1  0.16648102  -0.00193608  0.67041195  1
  Te  Te138  1  0.16787115  0.33043727  -0.00110302  1
  Te  Te139  1  0.16340383  0.32711052  0.33131239  1
  Te  Te140  1  0.16069149  0.33642086  0.67177913  1
  Te  Te141  1  0.16641100  0.66220808  0.00197970  1
  Te  Te142  1  0.16633113  0.67643299  0.33219814  1
  Te  Te143  1  0.16770058  0.66929384  0.66623730  1
  Te  Te144  1  0.49969818  -0.01093508  0.00683151  1
  Te  Te145  1  0.50170713  0.00207762  0.32925346  1
  Te  Te146  1  0.49941849  0.00724406  0.66845688  1
  Te  Te147  1  0.49912777  0.33229463  0.00152060  1
  Te  Te148  1  0.49866920  0.32962938  0.33267963  1
  Te  Te149  1  0.50069605  0.32600045  0.66369189  1
  Te  Te150  1  0.50527685  0.66885580  -0.00083180  1
  Te  Te151  1  0.50442460  0.66722457  0.33664242  1
  Te  Te152  1  0.50098973  0.66454346  0.65932223  1
  Te  Te153  1  0.83301636  -0.00133133  -0.01123726  1
  Te  Te154  1  0.84436664  0.00036920  0.33189211  1
  Te  Te155  1  0.83915199  0.00451279  0.67138429  1
  Te  Te156  1  0.82929606  0.33389915  -0.00081782  1
  Te  Te157  1  0.83151080  0.33351228  0.33264213  1
  Te  Te158  1  0.83756245  0.32628311  0.67066697  1
  Te  Te159  1  0.82610111  0.66446543  -0.00398001  1
  Te  Te160  1  0.82393482  0.66521303  0.33389972  1
  Te  Te161  1  0.83166308  0.66686420  0.67400105  1
  Te  Te162  1  0.00400893  0.17182333  0.00035733  1
  Te  Te163  1  -0.00255594  0.16523917  0.33217339  1
  Te  Te164  1  0.00388591  0.16521058  0.66703905  1
  Te  Te165  1  0.00298414  0.49377872  -0.00303292  1
  Te  Te166  1  0.00115915  0.50159377  0.33509591  1
  Te  Te167  1  0.00538768  0.50203588  0.66673971  1
  Te  Te168  1  0.00140905  0.83004958  0.00407348  1
  Te  Te169  1  -0.00054225  0.83557367  0.33222837  1
  Te  Te170  1  0.00646581  0.83677049  0.66586172  1
  Te  Te171  1  0.32905302  0.17106231  -0.00183573  1
  Te  Te172  1  0.33723163  0.16119082  0.33419911  1
  Te  Te173  1  0.33642476  0.16032454  0.66931860  1
  Te  Te174  1  0.33331911  0.49452917  -0.00310580  1
  Te  Te175  1  0.33170532  0.50350002  0.33863477  1
  Te  Te176  1  0.32774290  0.49921961  0.66751417  1
  Te  Te177  1  0.33851391  0.82909843  -0.00043908  1
  Te  Te178  1  0.33479286  0.84080289  0.33461957  1
  Te  Te179  1  0.33002143  0.83732128  0.66580948  1
  Te  Te180  1  0.66601066  0.17212314  0.00034018  1
  Te  Te181  1  0.66483053  0.17086335  0.33090363  1
  Te  Te182  1  0.66209212  0.16243871  0.66488466  1
  Te  Te183  1  0.66203364  0.49781677  -0.00013503  1
  Te  Te184  1  0.66553878  0.49616045  0.33364265  1
  Te  Te185  1  0.66706094  0.50171787  0.66562844  1
  Te  Te186  1  0.66203060  0.83599345  0.00195585  1
  Te  Te187  1  0.66465025  0.83528387  0.33289633  1
  Te  Te188  1  0.66799145  0.84357768  0.66515482  1
  Te  Te189  1  0.00039856  0.00305389  0.16424017  1
  Te  Te190  1  -0.00008040  0.00090596  0.50217720  1
  Te  Te191  1  0.00392077  0.00386295  0.83180197  1
  Te  Te192  1  -0.00094894  0.32641631  0.17379040  1
  Te  Te193  1  -0.00017888  0.33072717  0.49430623  1
  Te  Te194  1  0.00355597  0.33140662  0.83341765  1
  Te  Te195  1  -0.00249912  0.67199816  0.16666171  1
  Te  Te196  1  -0.00074080  0.67227587  0.49941399  1
  Te  Te197  1  -0.00608794  0.66816598  0.83494641  1
  Te  Te198  1  0.33229269  0.00637549  0.16693859  1
  Te  Te199  1  0.33338882  -0.00379243  0.50234884  1
  Te  Te200  1  0.33025877  0.00370759  0.83295292  1
  Te  Te201  1  0.33822439  0.32399745  0.16297982  1
  Te  Te202  1  0.33612798  0.33596131  0.50175773  1
  Te  Te203  1  0.33490995  0.33043461  0.83193297  1
  Te  Te204  1  0.33303310  0.66355706  0.16735727  1
  Te  Te205  1  0.33916812  0.66921365  0.50052175  1
  Te  Te206  1  0.33358890  0.66634460  0.83386458  1
  Te  Te207  1  0.66655599  0.00292848  0.16657125  1
  Te  Te208  1  0.66771217  -0.00561312  0.50363485  1
  Te  Te209  1  0.66437085  0.00773187  0.82939044  1
  Te  Te210  1  0.66697609  0.33159724  0.16613599  1
  Te  Te211  1  0.66316999  0.33470702  0.49723229  1
  Te  Te212  1  0.65871609  0.32706254  0.83485749  1
  Te  Te213  1  0.66756320  0.67058112  0.16590496  1
  Te  Te214  1  0.66216588  0.67104216  0.49770325  1
  Te  Te215  1  0.66987190  0.66763611  0.83721248  1
