# generated using pymatgen
data_AgSbTe2
_symmetry_space_group_name_H-M   'P 1'
_cell_length_a   18.31131317
_cell_length_b   18.30982951
_cell_length_c   18.31172209
_cell_angle_alpha   90.00381069
_cell_angle_beta   90.00211009
_cell_angle_gamma   90.00000083
_symmetry_Int_Tables_number   1
_chemical_formula_structural   AgSbTe2
_chemical_formula_sum   'Ag54 Sb54 Te108'
_cell_volume   6139.49963666
_cell_formula_units_Z   54
loop_
 _symmetry_equiv_pos_site_id
 _symmetry_equiv_pos_as_xyz
  1  'x, y, z'
loop_
 _atom_site_type_symbol
 _atom_site_label
 _atom_site_symmetry_multiplicity
 _atom_site_fract_x
 _atom_site_fract_y
 _atom_site_fract_z
 _atom_site_occupancy
  Ag  Ag0  1  0.49513155  0.67154607  0.16082394  1
  Ag  Ag1  1  0.00049985  -0.00140283  0.65986476  1
  Ag  Ag2  1  0.00885123  0.66896218  -0.00546469  1
  Ag  Ag3  1  0.67138587  0.50519417  0.82725359  1
  Ag  Ag4  1  0.50145956  0.67025743  0.83958709  1
  Ag  Ag5  1  0.50841122  0.16989753  0.32768168  1
  Ag  Ag6  1  0.66513351  0.82789092  0.83267489  1
  Ag  Ag7  1  -0.00262480  0.49910360  0.50123777  1
  Ag  Ag8  1  -0.00718194  0.00100135  0.34114175  1
  Ag  Ag9  1  0.67241167  0.17445514  0.49393584  1
  Ag  Ag10  1  0.65945186  0.00325807  0.00631282  1
  Ag  Ag11  1  0.33434999  0.33080229  0.65791887  1
  Ag  Ag12  1  0.33157892  0.83081598  0.15994633  1
  Ag  Ag13  1  0.32618455  0.00197523  0.66738074  1
  Ag  Ag14  1  0.84119574  0.83371436  0.66339980  1
  Ag  Ag15  1  0.17188075  0.33162056  0.17603363  1
  Ag  Ag16  1  0.49683265  0.32231670  0.17517590  1
  Ag  Ag17  1  0.50634029  0.15747757  0.00908300  1
  Ag  Ag18  1  0.32934463  0.67175670  0.00016171  1
  Ag  Ag19  1  0.83728894  0.00155487  0.50014983  1
  Ag  Ag20  1  0.16280686  0.65977949  0.50180329  1
  Ag  Ag21  1  0.16235396  0.66688031  0.83731704  1
  Ag  Ag22  1  0.83444688  0.66480451  0.83111366  1
  Ag  Ag23  1  0.50025554  0.33193302  0.49396699  1
  Ag  Ag24  1  -0.00258209  0.16074294  0.17164509  1
  Ag  Ag25  1  0.66821078  0.66389491  0.33373298  1
  Ag  Ag26  1  0.66795308  0.33324296  0.65888291  1
  Ag  Ag27  1  0.15654191  0.16395882  0.66043499  1
  Ag  Ag28  1  0.83273175  0.49677199  0.66291260  1
  Ag  Ag29  1  -0.00410678  0.16197598  0.50222514  1
  Ag  Ag30  1  -0.00151379  0.83804700  0.50422571  1
  Ag  Ag31  1  0.17149181  0.33528983  0.49725121  1
  Ag  Ag32  1  0.66278664  0.32529103  0.34070868  1
  Ag  Ag33  1  0.00410505  0.83599147  0.17173302  1
  Ag  Ag34  1  0.67211290  0.00616912  0.33034476  1
  Ag  Ag35  1  0.16625387  0.50675159  0.00026826  1
  Ag  Ag36  1  0.33996533  -0.00876396  -0.00041278  1
  Ag  Ag37  1  -0.00246352  0.16640443  0.82098079  1
  Ag  Ag38  1  0.83468809  0.83324581  0.33968708  1
  Ag  Ag39  1  0.83041453  0.50319465  0.34491772  1
  Ag  Ag40  1  0.15867187  0.83487510  0.66507860  1
  Ag  Ag41  1  0.49579556  0.83664130  0.00229803  1
  Ag  Ag42  1  0.16866482  0.66746534  0.16208802  1
  Ag  Ag43  1  0.33902919  0.33181391  0.33917677  1
  Ag  Ag44  1  0.00022776  0.67428653  0.66785532  1
  Ag  Ag45  1  0.32656960  0.49349502  0.50125443  1
  Ag  Ag46  1  0.33658957  0.82975140  0.84026984  1
  Ag  Ag47  1  0.66266104  0.16546278  0.17500038  1
  Ag  Ag48  1  0.16495587  0.17011516  0.33711864  1
  Ag  Ag49  1  0.83124773  0.16465156  -0.00465645  1
  Ag  Ag50  1  0.50142152  0.00600778  0.16357292  1
  Ag  Ag51  1  0.67269488  0.49197398  0.50080621  1
  Ag  Ag52  1  0.83848983  0.16684494  0.66704507  1
  Ag  Ag53  1  0.83116039  0.33469701  0.82865503  1
  Sb  Sb54  1  0.33414592  0.00415484  0.33405369  1
  Sb  Sb55  1  0.66600219  0.83774595  0.16503824  1
  Sb  Sb56  1  0.16943310  -0.00119555  0.16685032  1
  Sb  Sb57  1  0.83017590  0.00176423  0.17229758  1
  Sb  Sb58  1  0.67192889  0.16681913  0.83268814  1
  Sb  Sb59  1  0.16089262  0.50000611  0.66533653  1
  Sb  Sb60  1  0.83087415  0.83703452  -0.00223701  1
  Sb  Sb61  1  -0.00327199  0.67185793  0.33573003  1
  Sb  Sb62  1  0.00060882  0.33443542  0.00122660  1
  Sb  Sb63  1  0.67022984  0.00369071  0.66469688  1
  Sb  Sb64  1  0.16533428  0.17005759  0.00108047  1
  Sb  Sb65  1  0.67389975  0.66279372  0.66617312  1
  Sb  Sb66  1  0.66457724  0.67129500  -0.00069047  1
  Sb  Sb67  1  0.16038136  0.83645472  0.33719380  1
  Sb  Sb68  1  0.16350330  0.33662524  0.82961153  1
  Sb  Sb69  1  0.66575662  0.32736010  0.00147416  1
  Sb  Sb70  1  0.33639639  0.66235489  0.32924420  1
  Sb  Sb71  1  0.15974708  0.00495103  0.50146169  1
  Sb  Sb72  1  0.32980115  0.16202014  0.83175073  1
  Sb  Sb73  1  0.83399054  -0.00013886  0.82734872  1
  Sb  Sb74  1  0.32912909  0.17232765  0.50037272  1
  Sb  Sb75  1  0.49786507  0.66171125  0.49866291  1
  Sb  Sb76  1  0.50509874  0.83783408  0.32741268  1
  Sb  Sb77  1  0.83048564  0.33182697  0.50384297  1
  Sb  Sb78  1  0.33529904  0.50553743  0.82910521  1
  Sb  Sb79  1  0.00006355  -0.00132919  0.00048676  1
  Sb  Sb80  1  -0.00011513  0.83266681  0.82908126  1
  Sb  Sb81  1  0.83975466  0.66619388  0.50463543  1
  Sb  Sb82  1  0.50554669  0.49182315  0.33431149  1
  Sb  Sb83  1  0.50560836  0.49954130  0.66548109  1
  Sb  Sb84  1  0.16185322  0.49566715  0.33456464  1
  Sb  Sb85  1  0.50483498  0.00683076  0.49522209  1
  Sb  Sb86  1  0.32510635  0.66777073  0.67120203  1
  Sb  Sb87  1  -0.00496703  0.50091066  0.82711884  1
  Sb  Sb88  1  0.50181664  0.16775009  0.66473721  1
  Sb  Sb89  1  0.32576956  0.82955390  0.50140434  1
  Sb  Sb90  1  0.50502546  0.33678739  0.83278671  1
  Sb  Sb91  1  0.49966138  0.83392420  0.67202689  1
  Sb  Sb92  1  0.16715234  -0.00666432  0.82974226  1
  Sb  Sb93  1  0.83190818  0.16528545  0.33851294  1
  Sb  Sb94  1  0.33601204  0.16418116  0.16688933  1
  Sb  Sb95  1  0.00178813  0.50107461  0.17172683  1
  Sb  Sb96  1  0.33435555  0.33361202  0.00170203  1
  Sb  Sb97  1  0.17173787  0.82749859  -0.00352246  1
  Sb  Sb98  1  0.66564140  0.49590793  0.17053315  1
  Sb  Sb99  1  0.83223182  0.32908573  0.16624272  1
  Sb  Sb100  1  0.50011092  -0.00435354  0.84107505  1
  Sb  Sb101  1  -0.00168383  0.32690117  0.33609789  1
  Sb  Sb102  1  0.83434910  0.66823389  0.16435324  1
  Sb  Sb103  1  0.83634278  0.49819727  -0.00419932  1
  Sb  Sb104  1  0.33195096  0.50230552  0.17030786  1
  Sb  Sb105  1  0.49749989  0.50303092  0.00040860  1
  Sb  Sb106  1  -0.00252831  0.32895790  0.66323104  1
  Sb  Sb107  1  0.67316183  0.83326315  0.50219282  1
  Te  Te108  1  0.16519260  0.16956328  0.16841365  1
  Te  Te109  1  0.16321208  0.17059099  0.50014591  1
  Te  Te110  1  0.16050565  0.16820287  0.83130149  1
  Te  Te111  1  0.16583854  0.50125722  0.16443881  1
  Te  Te112  1  0.16392629  0.49872440  0.50017728  1
  Te  Te113  1  0.16589845  0.50517165  0.83670119  1
  Te  Te114  1  0.16564617  0.83072776  0.16902704  1
  Te  Te115  1  0.16129820  0.82772893  0.50432696  1
  Te  Te116  1  0.16944700  0.82684024  0.82613006  1
  Te  Te117  1  0.50051124  0.16620717  0.16687290  1
  Te  Te118  1  0.50599081  0.17180863  0.49660893  1
  Te  Te119  1  0.49979967  0.16809821  0.83849995  1
  Te  Te120  1  0.49958030  0.50497529  0.16649202  1
  Te  Te121  1  0.50370559  0.49428494  0.49973265  1
  Te  Te122  1  0.50711439  0.50592198  0.83337171  1
  Te  Te123  1  0.49879366  0.83087264  0.16349119  1
  Te  Te124  1  0.49831860  0.83282190  0.49976825  1
  Te  Te125  1  0.49976453  0.82941677  0.83721573  1
  Te  Te126  1  0.83487648  0.16702588  0.16148743  1
  Te  Te127  1  0.83469522  0.16581221  0.50340619  1
  Te  Te128  1  0.83615404  0.16695571  0.83041226  1
  Te  Te129  1  0.83398519  0.49834853  0.16912339  1
  Te  Te130  1  0.83303583  0.50027443  0.50237504  1
  Te  Te131  1  0.82985489  0.50082208  0.83062247  1
  Te  Te132  1  0.83873213  0.83401382  0.16926726  1
  Te  Te133  1  0.83768353  0.83307117  0.50159906  1
  Te  Te134  1  0.83084732  0.82962535  0.83031347  1
  Te  Te135  1  0.17399212  0.00038315  -0.00156213  1
  Te  Te136  1  0.16456459  0.00803228  0.33388127  1
  Te  Te137  1  0.16530667  0.00162943  0.66620142  1
  Te  Te138  1  0.16861868  0.34018821  0.00189529  1
  Te  Te139  1  0.16562831  0.33056133  0.33379018  1
  Te  Te140  1  0.16977959  0.33034468  0.66423513  1
  Te  Te141  1  0.16700034  0.66724758  0.00178421  1
  Te  Te142  1  0.16659317  0.66675339  0.33092341  1
  Te  Te143  1  0.16143751  0.66732647  0.66476370  1
  Te  Te144  1  0.49955217  -0.00091379  0.00313596  1
  Te  Te145  1  0.50266413  0.00623308  0.32784237  1
  Te  Te146  1  0.49471486  0.00112724  0.66580737  1
  Te  Te147  1  0.49855413  0.33094613  0.00555354  1
  Te  Te148  1  0.50086979  0.33042510  0.33344226  1
  Te  Te149  1  0.49974728  0.33270629  0.66401513  1
  Te  Te150  1  0.49799457  0.66932513  -0.00008374  1
  Te  Te151  1  0.50496506  0.66848083  0.32957592  1
  Te  Te152  1  0.49884764  0.66755989  0.67214495  1
  Te  Te153  1  0.83039436  0.00517539  -0.00065366  1
  Te  Te154  1  0.83309603  -0.00191486  0.33771415  1
  Te  Te155  1  0.83559058  0.00051206  0.66110314  1
  Te  Te156  1  0.83323188  0.32783923  -0.00655338  1
  Te  Te157  1  0.82642944  0.33910739  0.33269661  1
  Te  Te158  1  0.83129366  0.33286119  0.66907025  1
  Te  Te159  1  0.83577979  0.66725086  -0.00610678  1
  Te  Te160  1  0.82923437  0.66783895  0.33237875  1
  Te  Te161  1  0.83762546  0.66865444  0.67064994  1
  Te  Te162  1  -0.00280455  0.16588431  0.00649649  1
  Te  Te163  1  -0.00158446  0.16145785  0.33383348  1
  Te  Te164  1  -0.00034262  0.16589220  0.66347767  1
  Te  Te165  1  0.00370642  0.50581414  0.00060932  1
  Te  Te166  1  -0.00748657  0.50041244  0.33976528  1
  Te  Te167  1  -0.00631456  0.50358624  0.66102014  1
  Te  Te168  1  -0.00049325  0.83013159  0.00360104  1
  Te  Te169  1  -0.00391563  0.83899566  0.33415113  1
  Te  Te170  1  -0.00057555  0.83538790  0.66722354  1
  Te  Te171  1  0.33610946  0.16294292  -0.00116103  1
  Te  Te172  1  0.32957908  0.17149211  0.33358356  1
  Te  Te173  1  0.33163695  0.16552078  0.66730682  1
  Te  Te174  1  0.32909023  0.50514151  -0.00144167  1
  Te  Te175  1  0.33273743  0.49369310  0.34024410  1
  Te  Te176  1  0.33347744  0.49608199  0.66087401  1
  Te  Te177  1  0.33427360  0.83226188  0.00063820  1
  Te  Te178  1  0.33332021  0.83374430  0.32952501  1
  Te  Te179  1  0.33080956  0.83660340  0.66832342  1
  Te  Te180  1  0.66710564  0.16275833  0.00002069  1
  Te  Te181  1  0.66880098  0.16609526  0.33419928  1
  Te  Te182  1  0.67002473  0.17071010  0.66357603  1
  Te  Te183  1  0.66759472  0.49962079  -0.00483916  1
  Te  Te184  1  0.67082041  0.50151233  0.33541841  1
  Te  Te185  1  0.67154721  0.49689532  0.66490802  1
  Te  Te186  1  0.66258784  0.83891843  -0.00342267  1
  Te  Te187  1  0.67291793  0.83693994  0.33360316  1
  Te  Te188  1  0.67042411  0.83398436  0.67079160  1
  Te  Te189  1  0.00101834  -0.00025821  0.16823956  1
  Te  Te190  1  -0.00126025  0.00028224  0.50045525  1
  Te  Te191  1  0.00063995  0.00594272  0.83087766  1
  Te  Te192  1  0.00546157  0.32874768  0.16801983  1
  Te  Te193  1  0.00674984  0.33399999  0.49933711  1
  Te  Te194  1  -0.00524472  0.32851966  0.83336742  1
  Te  Te195  1  0.00299885  0.66919702  0.16523160  1
  Te  Te196  1  0.00373493  0.66717641  0.50186429  1
  Te  Te197  1  0.00070372  0.66630833  0.83263606  1
  Te  Te198  1  0.33787931  -0.00620637  0.16552015  1
  Te  Te199  1  0.33497803  -0.00093731  0.50493980  1
  Te  Te200  1  0.33362348  -0.00620156  0.83196575  1
  Te  Te201  1  0.33285134  0.33412345  0.17002717  1
  Te  Te202  1  0.33300138  0.33375620  0.50002786  1
  Te  Te203  1  0.33436190  0.33506585  0.82752132  1
  Te  Te204  1  0.33223150  0.66872181  0.16377385  1
  Te  Te205  1  0.32818952  0.66012305  0.49941465  1
  Te  Te206  1  0.33270842  0.66950066  0.83724411  1
  Te  Te207  1  0.66377728  0.00377893  0.16733902  1
  Te  Te208  1  0.67201402  0.00150989  0.49603135  1
  Te  Te209  1  0.66689536  -0.00529380  0.83455191  1
  Te  Te210  1  0.66273908  0.32792486  0.16991945  1
  Te  Te211  1  0.66679419  0.33321212  0.50017446  1
  Te  Te212  1  0.66996079  0.33637977  0.83015519  1
  Te  Te213  1  0.66494537  0.66636781  0.17056861  1
  Te  Te214  1  0.66451170  0.66398972  0.49500642  1
  Te  Te215  1  0.66794114  0.66712669  0.83281726  1
