# generated using pymatgen
data_AgSbTe2
_symmetry_space_group_name_H-M   'P 1'
_cell_length_a   18.33495037
_cell_length_b   18.33001546
_cell_length_c   18.33550605
_cell_angle_alpha   90.00072683
_cell_angle_beta   90.00109332
_cell_angle_gamma   90.00428191
_symmetry_Int_Tables_number   1
_chemical_formula_structural   AgSbTe2
_chemical_formula_sum   'Ag54 Sb54 Te108'
_cell_volume   6162.19545629
_cell_formula_units_Z   54
loop_
 _symmetry_equiv_pos_site_id
 _symmetry_equiv_pos_as_xyz
  1  'x, y, z'
loop_
 _atom_site_type_symbol
 _atom_site_label
 _atom_site_symmetry_multiplicity
 _atom_site_fract_x
 _atom_site_fract_y
 _atom_site_fract_z
 _atom_site_occupancy
  Ag  Ag0  1  0.51074868  0.33610692  0.84381184  1
  Ag  Ag1  1  0.50196953  0.48850990  -0.00164567  1
  Ag  Ag2  1  0.49959689  0.82940647  0.66726641  1
  Ag  Ag3  1  0.16699931  -0.00291312  0.15891563  1
  Ag  Ag4  1  0.16819658  0.15972445  0.00304164  1
  Ag  Ag5  1  0.49881906  0.83914793  0.33378032  1
  Ag  Ag6  1  0.50786653  0.32806159  0.15429972  1
  Ag  Ag7  1  -0.00192230  0.82686558  0.15758409  1
  Ag  Ag8  1  0.84044087  0.66462064  0.16266682  1
  Ag  Ag9  1  0.16824762  0.67361441  0.83951849  1
  Ag  Ag10  1  0.66724387  0.00470552  0.67113845  1
  Ag  Ag11  1  0.66839077  0.84254155  0.16210297  1
  Ag  Ag12  1  0.00847395  0.83038975  0.83958589  1
  Ag  Ag13  1  0.00383495  0.67067281  -0.00077039  1
  Ag  Ag14  1  0.83054015  0.00908303  0.49852160  1
  Ag  Ag15  1  0.50324759  0.33473560  0.50205931  1
  Ag  Ag16  1  0.65889096  0.32219550  -0.00957096  1
  Ag  Ag17  1  0.16848174  0.83081308  0.68205625  1
  Ag  Ag18  1  0.83790865  0.83397541  0.00172298  1
  Ag  Ag19  1  0.66991150  0.32883149  0.67877475  1
  Ag  Ag20  1  -0.00505725  0.16692743  0.83640860  1
  Ag  Ag21  1  0.16264933  0.67432939  0.15539242  1
  Ag  Ag22  1  0.33124466  0.66706907  0.00060497  1
  Ag  Ag23  1  0.66463754  0.66712897  -0.00028304  1
  Ag  Ag24  1  0.16111456  0.83277194  -0.00364271  1
  Ag  Ag25  1  0.82800111  0.33076485  0.15832705  1
  Ag  Ag26  1  0.33419570  0.67238869  0.32870508  1
  Ag  Ag27  1  0.66081453  0.16445019  0.15874531  1
  Ag  Ag28  1  0.32185505  0.83051655  0.83557811  1
  Ag  Ag29  1  0.82748774  0.33037965  0.50952570  1
  Ag  Ag30  1  0.82325307  0.16763569  0.00361014  1
  Ag  Ag31  1  0.00124360  0.50053232  0.50177826  1
  Ag  Ag32  1  0.82679518  0.16639076  0.32489614  1
  Ag  Ag33  1  0.16657394  -0.01384438  0.84254929  1
  Ag  Ag34  1  0.66512898  0.48701428  0.83714187  1
  Ag  Ag35  1  0.49776696  0.66680890  0.83687810  1
  Ag  Ag36  1  0.34472935  0.33159090  0.00049596  1
  Ag  Ag37  1  0.17922607  0.16234917  0.32177481  1
  Ag  Ag38  1  0.33521500  0.17071943  0.48831692  1
  Ag  Ag39  1  0.83453687  0.49505672  0.66697307  1
  Ag  Ag40  1  0.66935543  0.17504186  0.84667905  1
  Ag  Ag41  1  -0.00185105  0.50713221  0.16347617  1
  Ag  Ag42  1  0.33358649  0.50019571  0.49862484  1
  Ag  Ag43  1  0.50926097  0.17586838  0.00625090  1
  Ag  Ag44  1  0.00171937  0.66409210  0.67616948  1
  Ag  Ag45  1  0.49406200  0.66275497  0.50366455  1
  Ag  Ag46  1  -0.01143419  0.34147380  0.66850051  1
  Ag  Ag47  1  0.34245985  0.16723854  0.16709103  1
  Ag  Ag48  1  0.82258800  0.33130828  0.83593573  1
  Ag  Ag49  1  0.49917188  0.16399313  0.32535370  1
  Ag  Ag50  1  0.66197875  0.00415523  0.32368496  1
  Ag  Ag51  1  0.66659297  0.01177226  0.00059848  1
  Ag  Ag52  1  0.33850588  0.00266362  0.33204646  1
  Ag  Ag53  1  0.17413519  0.66661807  0.50036666  1
  Sb  Sb54  1  -0.00454509  0.50140572  0.83441869  1
  Sb  Sb55  1  0.50109703  0.83352148  0.00043271  1
  Sb  Sb56  1  0.49992016  0.00590846  0.16717035  1
  Sb  Sb57  1  0.82832573  0.83838299  0.32517786  1
  Sb  Sb58  1  0.66552779  0.83468613  0.49718954  1
  Sb  Sb59  1  0.33708363  -0.00195916  0.66282117  1
  Sb  Sb60  1  0.16979191  0.50518514  0.00016003  1
  Sb  Sb61  1  0.00617008  0.66718352  0.32785282  1
  Sb  Sb62  1  0.33328336  0.00024310  0.00423744  1
  Sb  Sb63  1  -0.00068822  0.00113308  0.33159703  1
  Sb  Sb64  1  0.49899356  0.49796861  0.33086303  1
  Sb  Sb65  1  0.00089907  0.82657575  0.50270376  1
  Sb  Sb66  1  0.16783291  0.33609921  0.50139098  1
  Sb  Sb67  1  0.16836611  0.49905031  0.33301715  1
  Sb  Sb68  1  -0.00177951  0.16664629  0.16020165  1
  Sb  Sb69  1  0.66397827  0.16729523  0.49787528  1
  Sb  Sb70  1  0.16040426  0.50746876  0.66611640  1
  Sb  Sb71  1  0.33486208  0.83617027  0.16326736  1
  Sb  Sb72  1  0.33477379  0.83145672  0.50160193  1
  Sb  Sb73  1  0.82848745  0.49875738  -0.00231340  1
  Sb  Sb74  1  0.83468490  0.00564709  0.83315883  1
  Sb  Sb75  1  0.00058729  0.17179087  0.50402826  1
  Sb  Sb76  1  0.16717768  0.33429369  0.83526525  1
  Sb  Sb77  1  0.50377499  0.00132868  0.49741371  1
  Sb  Sb78  1  0.66986363  0.49587543  0.15851842  1
  Sb  Sb79  1  0.83208189  0.17304192  0.67030885  1
  Sb  Sb80  1  0.83333191  0.66361861  0.84103549  1
  Sb  Sb81  1  0.66036077  0.67383251  0.32558813  1
  Sb  Sb82  1  0.33604959  0.32847657  0.32912520  1
  Sb  Sb83  1  0.50263814  0.16608063  0.66842858  1
  Sb  Sb84  1  0.66564742  0.32649740  0.32786081  1
  Sb  Sb85  1  0.50398919  0.50228665  0.67125233  1
  Sb  Sb86  1  0.33908571  0.50486048  0.83304669  1
  Sb  Sb87  1  -0.00168952  0.33194785  0.33498759  1
  Sb  Sb88  1  0.66550185  0.49674574  0.50723208  1
  Sb  Sb89  1  0.16558545  0.33104314  0.16406342  1
  Sb  Sb90  1  0.33766700  0.33327279  0.66956282  1
  Sb  Sb91  1  -0.00422851  0.33524131  -0.00322307  1
  Sb  Sb92  1  0.49845252  -0.00048286  0.83435705  1
  Sb  Sb93  1  0.83325761  0.66374709  0.49578084  1
  Sb  Sb94  1  0.49846413  0.66265476  0.16173199  1
  Sb  Sb95  1  0.33528700  0.16426214  0.84065454  1
  Sb  Sb96  1  0.66775996  0.83645658  0.84082964  1
  Sb  Sb97  1  -0.00404326  -0.00229065  0.66955790  1
  Sb  Sb98  1  0.16633607  0.16139531  0.67097252  1
  Sb  Sb99  1  -0.00125199  -0.00571084  -0.00066087  1
  Sb  Sb100  1  0.66926246  0.66624781  0.67302689  1
  Sb  Sb101  1  0.17126535  0.83526105  0.32789593  1
  Sb  Sb102  1  0.83354333  0.83055022  0.67331332  1
  Sb  Sb103  1  0.83296277  0.49421212  0.33483476  1
  Sb  Sb104  1  0.33059891  0.49793366  0.16769167  1
  Sb  Sb105  1  0.83315892  0.00166246  0.16666778  1
  Sb  Sb106  1  0.16423228  -0.00321619  0.49919215  1
  Sb  Sb107  1  0.32863832  0.66711030  0.66883894  1
  Te  Te108  1  0.16309953  0.16532311  0.16513220  1
  Te  Te109  1  0.17002849  0.16629793  0.49901347  1
  Te  Te110  1  0.16655108  0.16637134  0.83778649  1
  Te  Te111  1  0.16060335  0.50470000  0.16830001  1
  Te  Te112  1  0.16663261  0.50446741  0.49947698  1
  Te  Te113  1  0.16826025  0.50883468  0.83240261  1
  Te  Te114  1  0.16748299  0.83342105  0.16392123  1
  Te  Te115  1  0.16631817  0.82744666  0.49905049  1
  Te  Te116  1  0.16518333  0.83002491  0.83714805  1
  Te  Te117  1  0.50091634  0.16857568  0.16654208  1
  Te  Te118  1  0.49677394  0.16904031  0.49970040  1
  Te  Te119  1  0.50198487  0.16935756  0.83593344  1
  Te  Te120  1  0.49933730  0.49070032  0.16240977  1
  Te  Te121  1  0.49861665  0.50149676  0.50027241  1
  Te  Te122  1  0.50344598  0.50122449  0.83679311  1
  Te  Te123  1  0.50416336  0.83146445  0.17142058  1
  Te  Te124  1  0.49986087  0.82862008  0.49973142  1
  Te  Te125  1  0.50015432  0.83121922  0.83159501  1
  Te  Te126  1  0.83351036  0.16800832  0.16462956  1
  Te  Te127  1  0.83449890  0.17032783  0.49799698  1
  Te  Te128  1  0.83308388  0.17024923  0.83689934  1
  Te  Te129  1  0.83699683  0.49840503  0.16715738  1
  Te  Te130  1  0.83617788  0.49541363  0.50237974  1
  Te  Te131  1  0.82826907  0.49535963  0.83022741  1
  Te  Te132  1  0.83199884  0.83431123  0.16151254  1
  Te  Te133  1  0.83396391  0.83447278  0.49954032  1
  Te  Te134  1  0.83909256  0.83474783  0.84007386  1
  Te  Te135  1  0.16706572  -0.00208712  0.00016736  1
  Te  Te136  1  0.17015380  0.00318115  0.33362644  1
  Te  Te137  1  0.16629562  -0.00738847  0.66776405  1
  Te  Te138  1  0.16728117  0.33023142  -0.00039580  1
  Te  Te139  1  0.16696229  0.32302635  0.33274344  1
  Te  Te140  1  0.16293274  0.33312841  0.66761332  1
  Te  Te141  1  0.16817990  0.66716317  -0.00042600  1
  Te  Te142  1  0.17308776  0.66754268  0.33857466  1
  Te  Te143  1  0.16233673  0.67172926  0.66536825  1
  Te  Te144  1  0.50451443  0.00461371  -0.00021266  1
  Te  Te145  1  0.50036426  0.00139757  0.33306177  1
  Te  Te146  1  0.50597513  -0.00648951  0.66590110  1
  Te  Te147  1  0.50027995  0.33245657  -0.00083531  1
  Te  Te148  1  0.49999654  0.32894208  0.34259932  1
  Te  Te149  1  0.50537247  0.33404442  0.66167711  1
  Te  Te150  1  0.49671040  0.66950039  -0.00217202  1
  Te  Te151  1  0.49466672  0.66656212  0.33380580  1
  Te  Te152  1  0.50123679  0.66936927  0.66801693  1
  Te  Te153  1  0.82820359  0.00216718  -0.00017831  1
  Te  Te154  1  0.82876247  0.00494717  0.33573070  1
  Te  Te155  1  0.82797354  -0.00162186  0.66239092  1
  Te  Te156  1  0.83186973  0.33206529  -0.00181222  1
  Te  Te157  1  0.83220488  0.32677982  0.33146933  1
  Te  Te158  1  0.83069861  0.33377764  0.66828361  1
  Te  Te159  1  0.83426757  0.66603329  0.00396497  1
  Te  Te160  1  0.83122070  0.66764604  0.32544555  1
  Te  Te161  1  0.83840571  0.66249427  0.66526825  1
  Te  Te162  1  0.00537788  0.16721524  -0.00445965  1
  Te  Te163  1  -0.00501086  0.16627544  0.33370216  1
  Te  Te164  1  0.00078509  0.16936059  0.67351527  1
  Te  Te165  1  0.00046361  0.50624269  0.00244041  1
  Te  Te166  1  0.00028408  0.49973412  0.33677151  1
  Te  Te167  1  -0.00429028  0.50156295  0.66714645  1
  Te  Te168  1  -0.00006483  0.83117430  0.00029943  1
  Te  Te169  1  -0.00161451  0.83421890  0.32814977  1
  Te  Te170  1  0.00253029  0.82871868  0.67065622  1
  Te  Te171  1  0.32933659  0.16682401  0.00387284  1
  Te  Te172  1  0.33671531  0.16643521  0.32911720  1
  Te  Te173  1  0.33351844  0.16603501  0.65948686  1
  Te  Te174  1  0.33833805  0.50169920  0.00065635  1
  Te  Te175  1  0.33338673  0.50700965  0.33815542  1
  Te  Te176  1  0.33287903  0.49876672  0.65793259  1
  Te  Te177  1  0.33123908  0.83140266  -0.00325311  1
  Te  Te178  1  0.33821450  0.83454841  0.33298945  1
  Te  Te179  1  0.33467846  0.83413134  0.67182016  1
  Te  Te180  1  0.66789718  0.16756340  0.00237285  1
  Te  Te181  1  0.66538686  0.16224624  0.33202031  1
  Te  Te182  1  0.66635892  0.16623380  0.66783592  1
  Te  Te183  1  0.66256239  0.50628019  -0.00390653  1
  Te  Te184  1  0.66631358  0.50165376  0.33296450  1
  Te  Te185  1  0.67138584  0.49673114  0.67379414  1
  Te  Te186  1  0.66836775  0.82668867  0.00390679  1
  Te  Te187  1  0.66101798  0.84165197  0.32730662  1
  Te  Te188  1  0.66421927  0.83534147  0.66758439  1
  Te  Te189  1  0.00653217  -0.00576513  0.16690006  1
  Te  Te190  1  -0.00750891  -0.00009920  0.50047241  1
  Te  Te191  1  0.00521037  0.00125075  0.83253751  1
  Te  Te192  1  -0.00469227  0.33891026  0.16636282  1
  Te  Te193  1  -0.00168917  0.33870695  0.50566170  1
  Te  Te194  1  -0.00008008  0.33265922  0.82890901  1
  Te  Te195  1  0.00166882  0.66770136  0.16560517  1
  Te  Te196  1  -0.00029037  0.66111060  0.49874047  1
  Te  Te197  1  -0.00000299  0.66758042  0.83599274  1
  Te  Te198  1  0.32810521  0.00418783  0.17106770  1
  Te  Te199  1  0.33286515  0.00487181  0.49422048  1
  Te  Te200  1  0.32796584  -0.00442698  0.83209762  1
  Te  Te201  1  0.33355520  0.32981204  0.16151726  1
  Te  Te202  1  0.33518408  0.33416944  0.50064595  1
  Te  Te203  1  0.33754234  0.33383571  0.83799473  1
  Te  Te204  1  0.32994052  0.66585008  0.16510345  1
  Te  Te205  1  0.33474707  0.66669954  0.50169731  1
  Te  Te206  1  0.33538972  0.66912482  0.83523222  1
  Te  Te207  1  0.66715562  0.00240298  0.16403325  1
  Te  Te208  1  0.67117760  0.00054074  0.50338570  1
  Te  Te209  1  0.66635360  0.00459760  0.83534101  1
  Te  Te210  1  0.66748532  0.32963091  0.16281164  1
  Te  Te211  1  0.66829064  0.33347928  0.49888202  1
  Te  Te212  1  0.66640595  0.33122260  0.83412957  1
  Te  Te213  1  0.66756482  0.66594305  0.16125266  1
  Te  Te214  1  0.66108791  0.66566445  0.49886480  1
  Te  Te215  1  0.66348594  0.66826880  0.83797605  1
