# generated using pymatgen
data_AgSbTe2
_symmetry_space_group_name_H-M   'P 1'
_cell_length_a   18.31769692
_cell_length_b   18.32634513
_cell_length_c   18.32157760
_cell_angle_alpha   89.99941950
_cell_angle_beta   89.99994574
_cell_angle_gamma   90.00091756
_symmetry_Int_Tables_number   1
_chemical_formula_structural   AgSbTe2
_chemical_formula_sum   'Ag54 Sb54 Te108'
_cell_volume   6150.48829585
_cell_formula_units_Z   54
loop_
 _symmetry_equiv_pos_site_id
 _symmetry_equiv_pos_as_xyz
  1  'x, y, z'
loop_
 _atom_site_type_symbol
 _atom_site_label
 _atom_site_symmetry_multiplicity
 _atom_site_fract_x
 _atom_site_fract_y
 _atom_site_fract_z
 _atom_site_occupancy
  Ag  Ag0  1  0.33219276  -0.00193189  0.33631162  1
  Ag  Ag1  1  0.17256555  0.83414228  0.32935783  1
  Ag  Ag2  1  0.01006079  0.33740505  -0.00533209  1
  Ag  Ag3  1  0.33663499  0.66755633  0.66859333  1
  Ag  Ag4  1  0.82936175  0.50577725  0.66131357  1
  Ag  Ag5  1  0.00137194  0.00583945  0.66246025  1
  Ag  Ag6  1  0.66985595  0.66749897  -0.01183971  1
  Ag  Ag7  1  0.82421732  0.50506746  0.33870166  1
  Ag  Ag8  1  0.82865398  0.82676124  0.66076456  1
  Ag  Ag9  1  0.50824494  0.50128480  0.33596868  1
  Ag  Ag10  1  0.66634314  0.51310131  0.83194401  1
  Ag  Ag11  1  0.33071183  -0.00075494  0.00539646  1
  Ag  Ag12  1  0.49958574  0.16805685  0.66446360  1
  Ag  Ag13  1  0.32930120  0.83837123  0.15944773  1
  Ag  Ag14  1  0.49080543  0.00271993  0.49932519  1
  Ag  Ag15  1  0.82664050  0.83121614  0.33876450  1
  Ag  Ag16  1  0.82699904  0.16017002  0.33542597  1
  Ag  Ag17  1  0.16675343  0.67182824  0.15908871  1
  Ag  Ag18  1  0.82204701  0.66840257  0.83415163  1
  Ag  Ag19  1  0.66096111  0.82460541  0.82888907  1
  Ag  Ag20  1  0.17337217  -0.00687719  0.16592453  1
  Ag  Ag21  1  0.16944233  0.67076935  0.83938445  1
  Ag  Ag22  1  0.66914938  0.33902017  0.66212586  1
  Ag  Ag23  1  0.66687717  0.33798022  0.33974777  1
  Ag  Ag24  1  0.66745375  0.50451787  0.17514137  1
  Ag  Ag25  1  0.49544555  0.32886107  0.50075379  1
  Ag  Ag26  1  0.00885461  0.16490737  0.50147949  1
  Ag  Ag27  1  0.66944619  0.66308773  0.33280409  1
  Ag  Ag28  1  0.48892594  0.83169331  -0.00439799  1
  Ag  Ag29  1  0.17295302  -0.00567290  0.83710510  1
  Ag  Ag30  1  0.17205980  0.83236303  0.00444752  1
  Ag  Ag31  1  0.17236561  0.00264638  0.49876420  1
  Ag  Ag32  1  0.16880674  0.50585865  0.33563076  1
  Ag  Ag33  1  0.66250155  0.16872639  0.16986352  1
  Ag  Ag34  1  0.82915922  -0.00080267  0.49775366  1
  Ag  Ag35  1  0.33502284  0.84322074  0.49971521  1
  Ag  Ag36  1  0.17189149  0.16435646  -0.00033404  1
  Ag  Ag37  1  0.17303578  0.32860837  0.50060376  1
  Ag  Ag38  1  0.33325671  0.83477572  0.83688261  1
  Ag  Ag39  1  0.32813785  0.32369541  -0.00076297  1
  Ag  Ag40  1  0.66393269  0.83558083  0.50061401  1
  Ag  Ag41  1  0.66472359  -0.00234500  0.33661613  1
  Ag  Ag42  1  0.33115238  0.49738586  0.49870355  1
  Ag  Ag43  1  -0.00177948  0.33172124  0.66616728  1
  Ag  Ag44  1  0.33325910  0.15691352  0.16261160  1
  Ag  Ag45  1  0.16564647  0.50161294  0.66608655  1
  Ag  Ag46  1  0.66690648  0.66286826  0.67577055  1
  Ag  Ag47  1  0.66165018  0.16435134  0.83317069  1
  Ag  Ag48  1  0.16823263  0.50752604  -0.00063056  1
  Ag  Ag49  1  0.50867551  0.66998416  0.83304599  1
  Ag  Ag50  1  0.00894788  0.66431433  -0.00061942  1
  Ag  Ag51  1  0.33381150  0.15828215  0.83513618  1
  Ag  Ag52  1  0.33166023  0.16124246  0.50056340  1
  Ag  Ag53  1  0.82864293  0.66736003  0.16595613  1
  Sb  Sb54  1  -0.00231583  0.50137785  0.16579738  1
  Sb  Sb55  1  0.16826517  0.33486711  0.16764948  1
  Sb  Sb56  1  0.83105748  0.32978964  0.49982816  1
  Sb  Sb57  1  0.01146603  -0.00131460  -0.00534212  1
  Sb  Sb58  1  0.50043450  0.66844809  0.16277531  1
  Sb  Sb59  1  0.83503314  0.50362865  -0.00021763  1
  Sb  Sb60  1  0.00812570  0.83263480  0.16672292  1
  Sb  Sb61  1  0.00289045  0.00036305  0.33945410  1
  Sb  Sb62  1  0.00243973  0.16614432  0.82977216  1
  Sb  Sb63  1  0.33571037  0.50502707  0.83135949  1
  Sb  Sb64  1  0.49688651  0.50447360  0.00204167  1
  Sb  Sb65  1  0.33101354  0.67219431  -0.00478210  1
  Sb  Sb66  1  0.33265141  0.33570336  0.66635948  1
  Sb  Sb67  1  0.33473878  0.67103300  0.33694375  1
  Sb  Sb68  1  0.16591677  0.83052444  0.66605185  1
  Sb  Sb69  1  0.83437717  0.83018428  0.00056237  1
  Sb  Sb70  1  -0.00287680  0.66678426  0.32892970  1
  Sb  Sb71  1  0.83605110  0.16679437  0.00429600  1
  Sb  Sb72  1  0.33635478  0.32997079  0.33415081  1
  Sb  Sb73  1  0.17068120  0.16868105  0.66715527  1
  Sb  Sb74  1  0.83084328  0.33864859  0.83102068  1
  Sb  Sb75  1  0.16904883  0.66780425  0.49990170  1
  Sb  Sb76  1  0.00376166  0.83190169  0.83264232  1
  Sb  Sb77  1  0.66298971  0.83054443  0.16858421  1
  Sb  Sb78  1  -0.00280838  0.66509131  0.67189438  1
  Sb  Sb79  1  0.83017657  0.67177340  0.50054159  1
  Sb  Sb80  1  0.00578013  0.49332434  0.50184637  1
  Sb  Sb81  1  0.00264503  0.16614769  0.16986076  1
  Sb  Sb82  1  0.16782727  0.16407451  0.33336577  1
  Sb  Sb83  1  0.33401042  0.50197746  0.17019135  1
  Sb  Sb84  1  0.49237341  0.16243393  -0.00455425  1
  Sb  Sb85  1  -0.00285899  0.50151752  0.83355469  1
  Sb  Sb86  1  0.82979623  0.16647068  0.66282838  1
  Sb  Sb87  1  0.00041343  0.83994987  0.50139815  1
  Sb  Sb88  1  0.50252840  0.83469928  0.66832055  1
  Sb  Sb89  1  0.49954118  0.33518603  0.82859409  1
  Sb  Sb90  1  0.83128701  0.33897201  0.16855146  1
  Sb  Sb91  1  0.83457919  -0.00654318  0.82727681  1
  Sb  Sb92  1  0.65979835  -0.00433945  0.00422490  1
  Sb  Sb93  1  0.66942572  -0.00245578  0.66149809  1
  Sb  Sb94  1  0.50025676  0.66806510  0.50403289  1
  Sb  Sb95  1  0.49972453  0.33279626  0.17193891  1
  Sb  Sb96  1  0.32933615  -0.00372175  0.66395888  1
  Sb  Sb97  1  0.49924917  0.83094930  0.33284083  1
  Sb  Sb98  1  0.66291825  0.16230456  0.49881833  1
  Sb  Sb99  1  0.49254113  0.00003130  0.17314439  1
  Sb  Sb100  1  0.49601476  -0.00381771  0.82790244  1
  Sb  Sb101  1  0.50139937  0.49837186  0.66196026  1
  Sb  Sb102  1  0.16875693  0.33465310  0.83271950  1
  Sb  Sb103  1  0.66495548  0.33727471  -0.00108276  1
  Sb  Sb104  1  0.66329830  0.50321882  0.49883741  1
  Sb  Sb105  1  0.50300761  0.16801341  0.33847046  1
  Sb  Sb106  1  0.83507978  -0.00516645  0.17415547  1
  Sb  Sb107  1  -0.00285562  0.33298419  0.33622609  1
  Te  Te108  1  0.17044174  0.16466253  0.16494372  1
  Te  Te109  1  0.17009834  0.16652775  0.49991384  1
  Te  Te110  1  0.17044963  0.16398669  0.83579679  1
  Te  Te111  1  0.16673001  0.50389933  0.16694034  1
  Te  Te112  1  0.17081366  0.50076365  0.50075300  1
  Te  Te113  1  0.16802217  0.50295289  0.83273753  1
  Te  Te114  1  0.17001053  0.83291884  0.16885301  1
  Te  Te115  1  0.16963777  0.83632239  0.49722889  1
  Te  Te116  1  0.17022743  0.83368444  0.83198281  1
  Te  Te117  1  0.50042087  0.16626792  0.16552709  1
  Te  Te118  1  0.49655522  0.16675255  0.50242219  1
  Te  Te119  1  0.49845247  0.16619353  0.82866564  1
  Te  Te120  1  0.50514290  0.50055147  0.17287593  1
  Te  Te121  1  0.49390891  0.49767098  0.49559264  1
  Te  Te122  1  0.50495374  0.50537222  0.83319602  1
  Te  Te123  1  0.49175509  0.83397550  0.15943089  1
  Te  Te124  1  0.49815601  0.83741406  0.50067313  1
  Te  Te125  1  0.49889995  0.83107597  0.83411083  1
  Te  Te126  1  0.82983728  0.16440481  0.17330206  1
  Te  Te127  1  0.83304102  0.16193319  0.49598751  1
  Te  Te128  1  0.82844551  0.16374095  0.83407822  1
  Te  Te129  1  0.82809381  0.50621446  0.17021879  1
  Te  Te130  1  0.83510627  0.49866275  0.49943761  1
  Te  Te131  1  0.82734289  0.50603313  0.83004405  1
  Te  Te132  1  0.83252366  0.82714546  0.17201658  1
  Te  Te133  1  0.83377699  0.83751227  0.49896339  1
  Te  Te134  1  0.82875994  0.82868518  0.83231323  1
  Te  Te135  1  0.17084831  -0.00189476  -0.00201211  1
  Te  Te136  1  0.16937025  -0.00168858  0.33581489  1
  Te  Te137  1  0.16223428  -0.00027120  0.66322640  1
  Te  Te138  1  0.16780268  0.33210808  0.00029335  1
  Te  Te139  1  0.16591947  0.33619135  0.33859443  1
  Te  Te140  1  0.16471812  0.33823267  0.66299003  1
  Te  Te141  1  0.16917910  0.66766020  0.00054283  1
  Te  Te142  1  0.16543612  0.66890467  0.33081149  1
  Te  Te143  1  0.16529919  0.66261115  0.66938074  1
  Te  Te144  1  0.49209396  -0.00657625  -0.00087121  1
  Te  Te145  1  0.49962259  -0.00081897  0.33971054  1
  Te  Te146  1  0.50152607  0.00611383  0.65914654  1
  Te  Te147  1  0.49419491  0.33445997  -0.00027501  1
  Te  Te148  1  0.50432168  0.33787374  0.33886734  1
  Te  Te149  1  0.50444463  0.33085567  0.66154463  1
  Te  Te150  1  0.50450575  0.67002882  -0.00448963  1
  Te  Te151  1  0.50463043  0.66210756  0.33292103  1
  Te  Te152  1  0.50264102  0.66612970  0.67140108  1
  Te  Te153  1  0.83563024  -0.00051455  0.00175225  1
  Te  Te154  1  0.83365734  -0.00333861  0.33667733  1
  Te  Te155  1  0.83809314  -0.00335679  0.66139583  1
  Te  Te156  1  0.83998014  0.33418699  -0.00049600  1
  Te  Te157  1  0.82884845  0.34007480  0.33339802  1
  Te  Te158  1  0.83167413  0.33801449  0.66607916  1
  Te  Te159  1  0.82982869  0.66680285  -0.00042571  1
  Te  Te160  1  0.83180610  0.66671874  0.33237432  1
  Te  Te161  1  0.83047635  0.66616319  0.66884576  1
  Te  Te162  1  0.00623740  0.16966321  -0.00059090  1
  Te  Te163  1  -0.00841011  0.16824676  0.33860893  1
  Te  Te164  1  -0.00118685  0.16972501  0.66328687  1
  Te  Te165  1  0.00534118  0.49944117  -0.00048145  1
  Te  Te166  1  0.00517221  0.49866918  0.33377989  1
  Te  Te167  1  0.00011616  0.49508889  0.66780272  1
  Te  Te168  1  0.00671015  0.82877402  -0.00047511  1
  Te  Te169  1  -0.00019719  0.83306803  0.33418234  1
  Te  Te170  1  -0.00923047  0.83450863  0.66706875  1
  Te  Te171  1  0.33129945  0.16236158  -0.00094382  1
  Te  Te172  1  0.33508456  0.16178037  0.33422830  1
  Te  Te173  1  0.33690725  0.16759813  0.66620474  1
  Te  Te174  1  0.32883780  0.49597365  0.00065024  1
  Te  Te175  1  0.32801616  0.49981538  0.33603170  1
  Te  Te176  1  0.33120107  0.50348599  0.66347536  1
  Te  Te177  1  0.33018904  0.83411770  -0.00253910  1
  Te  Te178  1  0.33236555  0.83630754  0.33923267  1
  Te  Te179  1  0.33369996  0.82774453  0.66534464  1
  Te  Te180  1  0.66572680  0.16713641  0.00248190  1
  Te  Te181  1  0.66774778  0.16583330  0.33231415  1
  Te  Te182  1  0.66464301  0.16838482  0.66896426  1
  Te  Te183  1  0.66605776  0.50295377  -0.00139426  1
  Te  Te184  1  0.66714855  0.49932128  0.33623754  1
  Te  Te185  1  0.66763032  0.50128345  0.66554992  1
  Te  Te186  1  0.66642422  0.83019533  -0.00234372  1
  Te  Te187  1  0.66633796  0.83625452  0.33444812  1
  Te  Te188  1  0.66845305  0.83088977  0.66646031  1
  Te  Te189  1  0.00921396  0.00089786  0.16473995  1
  Te  Te190  1  0.00495979  0.00553675  0.50367418  1
  Te  Te191  1  0.00607356  0.00003900  0.82554035  1
  Te  Te192  1  -0.00040772  0.33274405  0.15854509  1
  Te  Te193  1  0.00450672  0.32666185  0.50351813  1
  Te  Te194  1  -0.00064254  0.33302327  0.83102047  1
  Te  Te195  1  0.00093733  0.66675548  0.15927176  1
  Te  Te196  1  -0.00045986  0.66600851  0.50116771  1
  Te  Te197  1  0.00786591  0.66649766  0.83981760  1
  Te  Te198  1  0.33078547  -0.00064607  0.16845395  1
  Te  Te199  1  0.33264876  0.00047480  0.50061450  1
  Te  Te200  1  0.33117732  -0.00157848  0.83011453  1
  Te  Te201  1  0.33349523  0.32811719  0.16267525  1
  Te  Te202  1  0.33369483  0.33239412  0.50006282  1
  Te  Te203  1  0.33423615  0.32730447  0.83693395  1
  Te  Te204  1  0.32905470  0.67071025  0.16794478  1
  Te  Te205  1  0.33469599  0.66528327  0.50584652  1
  Te  Te206  1  0.32849396  0.66923161  0.82939910  1
  Te  Te207  1  0.66598217  0.00312559  0.17269955  1
  Te  Te208  1  0.67016232  -0.00409893  0.49646019  1
  Te  Te209  1  0.66554980  0.00354651  0.83461887  1
  Te  Te210  1  0.66660382  0.33307658  0.16853250  1
  Te  Te211  1  0.66349485  0.33296652  0.50064188  1
  Te  Te212  1  0.66571926  0.32599561  0.83014782  1
  Te  Te213  1  0.66715005  0.66569702  0.17368170  1
  Te  Te214  1  0.66590222  0.67431550  0.49465236  1
  Te  Te215  1  0.66572576  0.66909784  0.83244095  1
