# generated using pymatgen
data_AgSbTe2
_symmetry_space_group_name_H-M   'P 1'
_cell_length_a   18.32162614
_cell_length_b   18.31412413
_cell_length_c   18.32456359
_cell_angle_alpha   89.99837427
_cell_angle_beta   90.00041309
_cell_angle_gamma   90.00010019
_symmetry_Int_Tables_number   1
_chemical_formula_structural   AgSbTe2
_chemical_formula_sum   'Ag54 Sb54 Te108'
_cell_volume   6148.70717080
_cell_formula_units_Z   54
loop_
 _symmetry_equiv_pos_site_id
 _symmetry_equiv_pos_as_xyz
  1  'x, y, z'
loop_
 _atom_site_type_symbol
 _atom_site_label
 _atom_site_symmetry_multiplicity
 _atom_site_fract_x
 _atom_site_fract_y
 _atom_site_fract_z
 _atom_site_occupancy
  Ag  Ag0  1  0.00291681  0.66648833  0.33104807  1
  Ag  Ag1  1  0.83512459  0.16604025  0.32261596  1
  Ag  Ag2  1  0.49729840  0.33406253  0.50190022  1
  Ag  Ag3  1  0.00018305  0.67635396  0.66564470  1
  Ag  Ag4  1  -0.00166694  0.66811103  0.00333008  1
  Ag  Ag5  1  0.66575968  0.33377206  0.00287964  1
  Ag  Ag6  1  0.66566016  0.66702489  -0.00365213  1
  Ag  Ag7  1  0.16540048  0.00666827  0.16249579  1
  Ag  Ag8  1  0.66619857  0.33406506  0.32510321  1
  Ag  Ag9  1  0.16639369  0.66240611  0.49764959  1
  Ag  Ag10  1  -0.00593078  0.83597866  0.16420062  1
  Ag  Ag11  1  0.83694534  -0.00434044  0.16390127  1
  Ag  Ag12  1  0.48993832  0.50043695  0.32843473  1
  Ag  Ag13  1  0.49421145  0.49943818  -0.00017505  1
  Ag  Ag14  1  0.16629889  0.17046912  0.00562068  1
  Ag  Ag15  1  0.50201675  0.17063910  -0.00317608  1
  Ag  Ag16  1  0.16784052  -0.00001340  0.83864603  1
  Ag  Ag17  1  0.83318413  0.83795977  -0.00010828  1
  Ag  Ag18  1  0.33564193  0.67020780  0.66934022  1
  Ag  Ag19  1  0.00112544  -0.00513961  0.66793684  1
  Ag  Ag20  1  0.50071283  0.33022302  0.83637074  1
  Ag  Ag21  1  0.32562175  0.16601943  0.16467324  1
  Ag  Ag22  1  -0.00060615  0.33197380  0.00104348  1
  Ag  Ag23  1  0.66089367  0.15717182  0.83683517  1
  Ag  Ag24  1  0.33620868  0.50557090  0.84564602  1
  Ag  Ag25  1  0.17626072  0.49759439  0.00642395  1
  Ag  Ag26  1  0.17368066  0.50117761  0.32822809  1
  Ag  Ag27  1  0.33163979  0.50305401  0.49262723  1
  Ag  Ag28  1  0.33308681  -0.00230532  0.32886950  1
  Ag  Ag29  1  -0.00910753  0.83563350  0.82896493  1
  Ag  Ag30  1  0.33148544  0.49990651  0.16654713  1
  Ag  Ag31  1  0.49927982  0.66857774  0.83404939  1
  Ag  Ag32  1  0.83421283  0.49992678  0.33035664  1
  Ag  Ag33  1  0.33405545  0.66077341  0.00038836  1
  Ag  Ag34  1  0.83290644  -0.00606236  0.83661345  1
  Ag  Ag35  1  0.83173971  0.83489151  0.67384322  1
  Ag  Ag36  1  0.67406247  0.83215534  0.51214358  1
  Ag  Ag37  1  0.67661262  0.83291865  0.15875271  1
  Ag  Ag38  1  0.00347759  0.15974514  0.16455583  1
  Ag  Ag39  1  0.32934903  0.66037752  0.33317026  1
  Ag  Ag40  1  0.66098669  0.67348299  0.67486420  1
  Ag  Ag41  1  0.49580905  0.00076578  0.15893664  1
  Ag  Ag42  1  0.83718640  -0.00311046  0.50110500  1
  Ag  Ag43  1  0.83713548  0.67714827  0.16496876  1
  Ag  Ag44  1  -0.00560939  0.83589996  0.50922060  1
  Ag  Ag45  1  0.16625332  0.32959219  0.16572044  1
  Ag  Ag46  1  0.50797877  0.83454706  0.66978995  1
  Ag  Ag47  1  0.50176627  0.00075424  0.83374806  1
  Ag  Ag48  1  0.67105559  0.83630867  0.83150448  1
  Ag  Ag49  1  0.50010065  0.15894813  0.67941755  1
  Ag  Ag50  1  -0.00044266  0.16013861  0.49521549  1
  Ag  Ag51  1  0.33380600  -0.00556596  0.66747040  1
  Ag  Ag52  1  0.83544027  0.15700337  0.00500427  1
  Ag  Ag53  1  0.16906839  0.33975081  0.49269812  1
  Sb  Sb54  1  0.00213924  -0.00387759  0.33240112  1
  Sb  Sb55  1  0.66589359  0.00323944  0.33128474  1
  Sb  Sb56  1  0.16256016  -0.00068482  0.49803202  1
  Sb  Sb57  1  0.33616590  0.33747757  0.33219280  1
  Sb  Sb58  1  0.82723667  0.32375048  0.83707988  1
  Sb  Sb59  1  0.33377846  -0.00308511  0.00008515  1
  Sb  Sb60  1  0.50244073  0.00270931  0.50279980  1
  Sb  Sb61  1  0.66238284  0.50367594  0.16646966  1
  Sb  Sb62  1  0.33165128  0.82902234  0.50296112  1
  Sb  Sb63  1  0.83887034  0.67310867  0.49430955  1
  Sb  Sb64  1  0.00586723  0.50842522  0.83707894  1
  Sb  Sb65  1  0.66846285  0.16240248  0.15899452  1
  Sb  Sb66  1  0.16969895  0.50272203  0.66647103  1
  Sb  Sb67  1  0.33722696  0.83134700  0.83227750  1
  Sb  Sb68  1  0.83794953  0.33099049  0.16567249  1
  Sb  Sb69  1  0.17007098  0.67164650  0.83212004  1
  Sb  Sb70  1  -0.00394070  0.15879891  0.83829518  1
  Sb  Sb71  1  0.49543781  0.66336949  0.50496440  1
  Sb  Sb72  1  0.00077437  0.33070152  0.67007760  1
  Sb  Sb73  1  0.33923735  0.16702117  0.83892545  1
  Sb  Sb74  1  0.17098711  0.33001177  0.83982566  1
  Sb  Sb75  1  0.83256099  0.50315363  0.00360430  1
  Sb  Sb76  1  0.33202108  0.83354048  0.16554160  1
  Sb  Sb77  1  0.50311665  0.17020168  0.32980074  1
  Sb  Sb78  1  0.49680937  0.33040964  0.16328558  1
  Sb  Sb79  1  0.66956309  0.16341604  0.50431035  1
  Sb  Sb80  1  -0.00138113  0.33623210  0.32872249  1
  Sb  Sb81  1  0.50742453  0.83252382  -0.00515436  1
  Sb  Sb82  1  0.66138675  0.50387612  0.49784183  1
  Sb  Sb83  1  0.66342421  0.33704557  0.66973651  1
  Sb  Sb84  1  0.49696823  0.50273891  0.67060632  1
  Sb  Sb85  1  0.83367171  0.51256402  0.66202157  1
  Sb  Sb86  1  0.33536446  0.33817476  0.00097821  1
  Sb  Sb87  1  0.16149037  0.83389650  0.66797086  1
  Sb  Sb88  1  -0.00094382  -0.00292275  -0.00090097  1
  Sb  Sb89  1  0.66812440  -0.00168694  -0.00205821  1
  Sb  Sb90  1  0.32976506  0.16886642  0.49549012  1
  Sb  Sb91  1  0.50070922  0.82979868  0.33632693  1
  Sb  Sb92  1  0.00577465  0.50360805  0.49762461  1
  Sb  Sb93  1  0.82910085  0.67331604  0.83952096  1
  Sb  Sb94  1  0.50152158  0.67031319  0.16108567  1
  Sb  Sb95  1  0.17037796  0.16346091  0.67098443  1
  Sb  Sb96  1  0.66078158  0.50421998  0.83648488  1
  Sb  Sb97  1  0.16000604  0.83181447  0.00067711  1
  Sb  Sb98  1  0.16298766  0.17108357  0.32673437  1
  Sb  Sb99  1  0.00436637  0.50183768  0.16624039  1
  Sb  Sb100  1  0.16469341  0.82823452  0.33245502  1
  Sb  Sb101  1  0.66591104  -0.00766434  0.66962585  1
  Sb  Sb102  1  0.16373910  0.66603517  0.16823885  1
  Sb  Sb103  1  0.66709319  0.66399028  0.33174949  1
  Sb  Sb104  1  0.82997816  0.15556192  0.67036495  1
  Sb  Sb105  1  0.33497518  0.33392170  0.66637969  1
  Sb  Sb106  1  0.83398617  0.83498336  0.33002205  1
  Sb  Sb107  1  0.83367159  0.32815312  0.49729192  1
  Te  Te108  1  0.16508848  0.16710394  0.16489016  1
  Te  Te109  1  0.16109886  0.16963179  0.49975589  1
  Te  Te110  1  0.16777720  0.16176310  0.84045394  1
  Te  Te111  1  0.16984335  0.49973160  0.16631011  1
  Te  Te112  1  0.17052823  0.50025571  0.49864830  1
  Te  Te113  1  0.17393209  0.49906292  0.83921229  1
  Te  Te114  1  0.16075362  0.84234157  0.16618123  1
  Te  Te115  1  0.15890595  0.82917078  0.49950209  1
  Te  Te116  1  0.16022585  0.84101876  0.83502707  1
  Te  Te117  1  0.49956357  0.16170879  0.16227925  1
  Te  Te118  1  0.49995155  0.17240925  0.49914485  1
  Te  Te119  1  0.49996688  0.16446346  0.83589912  1
  Te  Te120  1  0.49448772  0.50044737  0.16443824  1
  Te  Te121  1  0.49526465  0.49560483  0.49851703  1
  Te  Te122  1  0.49628256  0.50266102  0.83714825  1
  Te  Te123  1  0.50157397  0.84063398  0.16722956  1
  Te  Te124  1  0.50443598  0.83286346  0.50591690  1
  Te  Te125  1  0.50343057  0.83526465  0.82990145  1
  Te  Te126  1  0.83490014  0.16479369  0.16461281  1
  Te  Te127  1  0.83775909  0.16055862  0.50150181  1
  Te  Te128  1  0.82666726  0.15750492  0.83922620  1
  Te  Te129  1  0.83326871  0.50079426  0.17131098  1
  Te  Te130  1  0.83235471  0.49926616  0.49352312  1
  Te  Te131  1  0.83525628  0.49826279  0.83202780  1
  Te  Te132  1  0.83364051  0.83498694  0.16620754  1
  Te  Te133  1  0.83447601  0.83705880  0.49713177  1
  Te  Te134  1  0.83168111  0.83439216  0.83572349  1
  Te  Te135  1  0.16765378  0.00275602  0.00056434  1
  Te  Te136  1  0.17248948  0.00061877  0.32915934  1
  Te  Te137  1  0.16802471  0.00041728  0.66959902  1
  Te  Te138  1  0.16482160  0.33327105  0.00232161  1
  Te  Te139  1  0.16611735  0.33975319  0.33219006  1
  Te  Te140  1  0.16603295  0.33245396  0.66102441  1
  Te  Te141  1  0.16581894  0.66322984  -0.00013302  1
  Te  Te142  1  0.16760291  0.66219604  0.33433003  1
  Te  Te143  1  0.16828616  0.66754894  0.66339651  1
  Te  Te144  1  0.49974132  0.00218035  -0.00153880  1
  Te  Te145  1  0.49427480  0.00023492  0.33323961  1
  Te  Te146  1  0.49783105  -0.00078068  0.66738741  1
  Te  Te147  1  0.50236898  0.33327051  -0.00163650  1
  Te  Te148  1  0.50457748  0.33803897  0.33378649  1
  Te  Te149  1  0.50052802  0.33025314  0.66818970  1
  Te  Te150  1  0.50158191  0.66566425  -0.00366025  1
  Te  Te151  1  0.49689000  0.66107819  0.33315558  1
  Te  Te152  1  0.49837881  0.66927990  0.67079585  1
  Te  Te153  1  0.83324453  -0.00115025  0.00055215  1
  Te  Te154  1  0.83445616  0.00579911  0.32933276  1
  Te  Te155  1  0.83715368  -0.00574032  0.66738169  1
  Te  Te156  1  0.83213699  0.33267160  -0.00065714  1
  Te  Te157  1  0.82945211  0.33287290  0.33327120  1
  Te  Te158  1  0.83361786  0.33533910  0.66737190  1
  Te  Te159  1  0.83480936  0.66711696  0.00467678  1
  Te  Te160  1  0.83478547  0.66314108  0.32734163  1
  Te  Te161  1  0.83725085  0.67520396  0.66557973  1
  Te  Te162  1  -0.00164414  0.16778151  0.00197306  1
  Te  Te163  1  -0.00413772  0.16747600  0.33167983  1
  Te  Te164  1  -0.00007320  0.16171220  0.66515001  1
  Te  Te165  1  0.00158707  0.50122210  0.00024305  1
  Te  Te166  1  -0.00149008  0.50480218  0.33298600  1
  Te  Te167  1  0.00049889  0.50683729  0.66744525  1
  Te  Te168  1  -0.00509659  0.82945435  0.00317428  1
  Te  Te169  1  -0.00046301  0.82667953  0.32915686  1
  Te  Te170  1  -0.00194066  0.83445138  0.66717871  1
  Te  Te171  1  0.33364803  0.16528805  0.00536658  1
  Te  Te172  1  0.33375217  0.16171246  0.32767487  1
  Te  Te173  1  0.33865824  0.16231604  0.66488054  1
  Te  Te174  1  0.33417584  0.50195077  0.00321564  1
  Te  Te175  1  0.33341885  0.50019833  0.33141062  1
  Te  Te176  1  0.33356576  0.50517905  0.66144760  1
  Te  Te177  1  0.33295593  0.82182212  -0.00023011  1
  Te  Te178  1  0.33343173  0.83140841  0.33430411  1
  Te  Te179  1  0.33757625  0.83251341  0.66657661  1
  Te  Te180  1  0.66522733  0.16993936  -0.00327967  1
  Te  Te181  1  0.67189492  0.17255120  0.33535020  1
  Te  Te182  1  0.66132190  0.16847114  0.67252146  1
  Te  Te183  1  0.66243247  0.50084524  0.00063954  1
  Te  Te184  1  0.66784473  0.49521755  0.33321555  1
  Te  Te185  1  0.66723091  0.51211309  0.66659554  1
  Te  Te186  1  0.67143681  0.82890146  -0.00123033  1
  Te  Te187  1  0.66569401  0.83329764  0.33135727  1
  Te  Te188  1  0.66862056  0.83048703  0.66897665  1
  Te  Te189  1  -0.00102028  0.00008268  0.16791421  1
  Te  Te190  1  -0.00184007  -0.00150076  0.49947969  1
  Te  Te191  1  -0.00262829  -0.00403791  0.83000818  1
  Te  Te192  1  0.00499615  0.32964044  0.16132011  1
  Te  Te193  1  0.00378806  0.33022031  0.50180303  1
  Te  Te194  1  0.00119155  0.33336646  0.83921118  1
  Te  Te195  1  -0.00123363  0.66801439  0.16554162  1
  Te  Te196  1  0.00375683  0.66947271  0.50011561  1
  Te  Te197  1  0.00052320  0.67409777  0.83386782  1
  Te  Te198  1  0.33358649  -0.00012696  0.16688423  1
  Te  Te199  1  0.33226783  -0.00048850  0.50204126  1
  Te  Te200  1  0.33454424  -0.00085358  0.82927430  1
  Te  Te201  1  0.32809439  0.33170730  0.16699301  1
  Te  Te202  1  0.33258453  0.33696471  0.49911234  1
  Te  Te203  1  0.33925176  0.34001053  0.83225474  1
  Te  Te204  1  0.33314305  0.66481290  0.16732025  1
  Te  Te205  1  0.32909468  0.66427697  0.49801648  1
  Te  Te206  1  0.33589944  0.66530719  0.83206680  1
  Te  Te207  1  0.66804728  -0.00548474  0.16688718  1
  Te  Te208  1  0.67310886  -0.00566603  0.49918725  1
  Te  Te209  1  0.66460819  -0.00216373  0.83254034  1
  Te  Te210  1  0.66642221  0.33334205  0.16423357  1
  Te  Te211  1  0.66280064  0.33312837  0.50068584  1
  Te  Te212  1  0.66020725  0.33398238  0.83760272  1
  Te  Te213  1  0.67007119  0.67154447  0.16334392  1
  Te  Te214  1  0.66737157  0.67207964  0.50119975  1
  Te  Te215  1  0.66361438  0.67008115  0.83524576  1
