# generated using pymatgen
data_AgSbTe2
_symmetry_space_group_name_H-M   'P 1'
_cell_length_a   18.30635787
_cell_length_b   18.31282044
_cell_length_c   18.31380604
_cell_angle_alpha   90.00061641
_cell_angle_beta   89.99849454
_cell_angle_gamma   90.00123954
_symmetry_Int_Tables_number   1
_chemical_formula_structural   AgSbTe2
_chemical_formula_sum   'Ag54 Sb54 Te108'
_cell_volume   6139.53946456
_cell_formula_units_Z   54
loop_
 _symmetry_equiv_pos_site_id
 _symmetry_equiv_pos_as_xyz
  1  'x, y, z'
loop_
 _atom_site_type_symbol
 _atom_site_label
 _atom_site_symmetry_multiplicity
 _atom_site_fract_x
 _atom_site_fract_y
 _atom_site_fract_z
 _atom_site_occupancy
  Ag  Ag0  1  0.49682666  0.83113183  0.66843248  1
  Ag  Ag1  1  0.16444465  0.17257730  -0.00104924  1
  Ag  Ag2  1  -0.00065495  0.00241159  -0.00270399  1
  Ag  Ag3  1  0.00315870  0.33513687  -0.00788045  1
  Ag  Ag4  1  0.49547699  0.66720775  0.51024241  1
  Ag  Ag5  1  0.66371954  0.66458651  0.67181817  1
  Ag  Ag6  1  0.50035180  0.00410936  0.16604687  1
  Ag  Ag7  1  0.16241015  0.16417268  0.66634210  1
  Ag  Ag8  1  0.16863014  0.66374781  0.49780365  1
  Ag  Ag9  1  0.82926798  0.33656356  0.16330977  1
  Ag  Ag10  1  0.83169464  -0.00093040  0.50511559  1
  Ag  Ag11  1  0.82893844  -0.00283838  0.16308549  1
  Ag  Ag12  1  0.83560477  0.82996600  0.00102046  1
  Ag  Ag13  1  0.17148663  0.83395029  0.66292856  1
  Ag  Ag14  1  0.67739120  0.66633873  -0.00804003  1
  Ag  Ag15  1  0.50257125  0.33232655  0.16873370  1
  Ag  Ag16  1  0.50558611  0.66972052  0.82706954  1
  Ag  Ag17  1  0.83809071  0.33558098  0.83458039  1
  Ag  Ag18  1  0.49869873  0.49965119  0.33653022  1
  Ag  Ag19  1  0.16575689  0.49852398  0.00134059  1
  Ag  Ag20  1  0.33418831  0.49982697  0.16740080  1
  Ag  Ag21  1  0.33577815  0.34010299  0.32555855  1
  Ag  Ag22  1  0.16648376  0.66562044  0.16635491  1
  Ag  Ag23  1  0.33145621  -0.00234309  -0.00163443  1
  Ag  Ag24  1  0.83577350  0.66614940  0.15789889  1
  Ag  Ag25  1  -0.00512678  0.65780657  0.67269964  1
  Ag  Ag26  1  0.16853533  0.83148402  0.33831762  1
  Ag  Ag27  1  0.67414134  0.16428540  0.83525588  1
  Ag  Ag28  1  0.50542090  0.51058239  0.66337162  1
  Ag  Ag29  1  0.33531813  0.83426131  0.83366632  1
  Ag  Ag30  1  0.83030793  -0.00030427  0.83396995  1
  Ag  Ag31  1  0.66842363  0.16898881  0.16099007  1
  Ag  Ag32  1  0.34125918  -0.00324044  0.66956511  1
  Ag  Ag33  1  -0.00288718  0.66288948  -0.00628329  1
  Ag  Ag34  1  0.66216580  0.00023126  0.67044039  1
  Ag  Ag35  1  0.66514189  0.33334421  0.33122689  1
  Ag  Ag36  1  0.33447090  -0.00252561  0.33167340  1
  Ag  Ag37  1  0.50097136  -0.00492029  0.82673277  1
  Ag  Ag38  1  -0.00243986  0.49606513  0.82922404  1
  Ag  Ag39  1  0.33074645  0.66563771  0.32793342  1
  Ag  Ag40  1  0.67311349  0.33531040  0.66660982  1
  Ag  Ag41  1  0.83656168  0.50177988  0.66677357  1
  Ag  Ag42  1  0.16794918  0.16562660  0.33430280  1
  Ag  Ag43  1  0.00342583  0.17206852  0.50921704  1
  Ag  Ag44  1  -0.00480107  0.17281134  0.83141060  1
  Ag  Ag45  1  -0.00493804  0.33964921  0.67354881  1
  Ag  Ag46  1  0.83192073  0.50189767  0.33455832  1
  Ag  Ag47  1  0.32502279  0.33776202  0.00479707  1
  Ag  Ag48  1  0.83201565  0.66644323  0.83829709  1
  Ag  Ag49  1  0.16356611  0.33508249  0.49938928  1
  Ag  Ag50  1  0.32935638  0.66514894  0.00316542  1
  Ag  Ag51  1  0.83733891  0.83035500  0.32607595  1
  Ag  Ag52  1  0.50054305  -0.00401634  0.51004525  1
  Ag  Ag53  1  0.00062947  0.49698583  0.50892440  1
  Sb  Sb54  1  0.66391070  0.83451415  0.83239465  1
  Sb  Sb55  1  0.66373696  0.00507842  0.33504149  1
  Sb  Sb56  1  0.67339776  0.50054129  0.83059986  1
  Sb  Sb57  1  0.83223987  0.82969280  0.66930520  1
  Sb  Sb58  1  0.67037443  0.49941037  0.50246054  1
  Sb  Sb59  1  0.66786855  -0.00178655  -0.00458959  1
  Sb  Sb60  1  0.49932186  0.16284639  0.66760367  1
  Sb  Sb61  1  0.00155849  0.83284648  0.83308028  1
  Sb  Sb62  1  0.33157571  0.16253357  0.83458828  1
  Sb  Sb63  1  0.33477587  0.67084515  0.66854831  1
  Sb  Sb64  1  0.49609377  0.33528055  0.49657418  1
  Sb  Sb65  1  0.83914404  0.33225317  0.50165767  1
  Sb  Sb66  1  0.00053639  0.33442425  0.33391274  1
  Sb  Sb67  1  0.16668824  0.00089064  0.50066107  1
  Sb  Sb68  1  -0.00274546  0.16835937  0.16206904  1
  Sb  Sb69  1  0.00357807  0.66532013  0.33346451  1
  Sb  Sb70  1  0.32986949  0.50353349  0.83725871  1
  Sb  Sb71  1  0.16645734  0.00056760  0.83332596  1
  Sb  Sb72  1  0.33548182  0.17008141  0.16617016  1
  Sb  Sb73  1  0.50034871  0.66558075  0.16539289  1
  Sb  Sb74  1  0.49428211  0.50187604  0.00023370  1
  Sb  Sb75  1  0.50594821  0.33460567  0.83610849  1
  Sb  Sb76  1  0.00114641  0.50035602  0.16409311  1
  Sb  Sb77  1  0.15987471  0.33209812  0.83263435  1
  Sb  Sb78  1  0.66477441  0.66204142  0.33471560  1
  Sb  Sb79  1  0.83742139  0.17111129  0.66997868  1
  Sb  Sb80  1  0.16771714  0.33655725  0.16686144  1
  Sb  Sb81  1  0.33287528  0.83356076  0.50448115  1
  Sb  Sb82  1  0.83482786  0.66871313  0.50185324  1
  Sb  Sb83  1  0.84007607  0.50441948  -0.00174903  1
  Sb  Sb84  1  0.66677276  0.83331528  0.50099814  1
  Sb  Sb85  1  0.00024512  0.83164137  0.50250336  1
  Sb  Sb86  1  0.83928620  0.16267804  -0.00229281  1
  Sb  Sb87  1  -0.00135692  0.83220763  0.16506602  1
  Sb  Sb88  1  0.50190601  0.83275945  -0.00513055  1
  Sb  Sb89  1  0.33308997  0.82973530  0.16348470  1
  Sb  Sb90  1  0.33151205  0.33051840  0.66837161  1
  Sb  Sb91  1  0.16766883  -0.00336036  0.16639250  1
  Sb  Sb92  1  0.00138050  0.00117149  0.33051450  1
  Sb  Sb93  1  -0.00191647  0.00177241  0.67070140  1
  Sb  Sb94  1  0.83662119  0.16771240  0.33215649  1
  Sb  Sb95  1  0.67105653  0.33620347  -0.00083523  1
  Sb  Sb96  1  0.49561979  0.16523535  -0.00010963  1
  Sb  Sb97  1  0.67186895  0.16635778  0.50274717  1
  Sb  Sb98  1  0.66891322  0.83747451  0.16534065  1
  Sb  Sb99  1  0.16345741  0.50080646  0.66827677  1
  Sb  Sb100  1  0.16384514  0.66693332  0.83358481  1
  Sb  Sb101  1  0.32733144  0.16553811  0.49954870  1
  Sb  Sb102  1  0.16763061  0.50094378  0.33073930  1
  Sb  Sb103  1  0.66543635  0.49605126  0.16702636  1
  Sb  Sb104  1  0.16464940  0.83079211  -0.00091992  1
  Sb  Sb105  1  0.49561600  0.16998121  0.33235615  1
  Sb  Sb106  1  0.32971367  0.50233373  0.49574630  1
  Sb  Sb107  1  0.49728044  0.83105832  0.33777549  1
  Te  Te108  1  0.16580399  0.16611494  0.16757820  1
  Te  Te109  1  0.16203790  0.16746881  0.50041209  1
  Te  Te110  1  0.16100584  0.16623204  0.83339647  1
  Te  Te111  1  0.17045161  0.50522938  0.16327620  1
  Te  Te112  1  0.16157413  0.50129337  0.50012083  1
  Te  Te113  1  0.15996739  0.49958622  0.83964901  1
  Te  Te114  1  0.16630404  0.82607298  0.17359210  1
  Te  Te115  1  0.16651681  0.82827735  0.49906084  1
  Te  Te116  1  0.17338803  0.83382027  0.82732557  1
  Te  Te117  1  0.50533590  0.16636799  0.16640998  1
  Te  Te118  1  0.50084464  0.16014393  0.49972931  1
  Te  Te119  1  0.50522159  0.16254869  0.83354744  1
  Te  Te120  1  0.49630428  0.49678010  0.17043728  1
  Te  Te121  1  0.49932243  0.50282188  0.50029980  1
  Te  Te122  1  0.49919674  0.50372868  0.82886659  1
  Te  Te123  1  0.50109413  0.84139274  0.16830154  1
  Te  Te124  1  0.50024496  0.83356255  0.50560340  1
  Te  Te125  1  0.49691695  0.83392475  0.82931541  1
  Te  Te126  1  0.82937737  0.16827190  0.16571235  1
  Te  Te127  1  0.84019161  0.15971699  0.50005270  1
  Te  Te128  1  0.83428959  0.16564027  0.83364246  1
  Te  Te129  1  0.83309974  0.50037240  0.17004024  1
  Te  Te130  1  0.83942359  0.50062220  0.50099362  1
  Te  Te131  1  0.83813364  0.50182336  0.83064890  1
  Te  Te132  1  0.83347894  0.83176119  0.16657610  1
  Te  Te133  1  0.83379280  0.83988478  0.49540379  1
  Te  Te134  1  0.83430585  0.83239678  0.83674815  1
  Te  Te135  1  0.16668830  -0.00079409  0.00112280  1
  Te  Te136  1  0.17089704  -0.00229441  0.33314766  1
  Te  Te137  1  0.16800693  -0.00191890  0.66579868  1
  Te  Te138  1  0.16534069  0.33310884  0.00095221  1
  Te  Te139  1  0.16969499  0.33184249  0.33459503  1
  Te  Te140  1  0.16543108  0.33090873  0.66199347  1
  Te  Te141  1  0.16767988  0.66755859  0.00158063  1
  Te  Te142  1  0.16948553  0.66808374  0.33374252  1
  Te  Te143  1  0.16691574  0.66843425  0.66344269  1
  Te  Te144  1  0.49739967  -0.00095913  0.00128548  1
  Te  Te145  1  0.49583569  -0.00036834  0.33072068  1
  Te  Te146  1  0.50007143  0.00026469  0.66801751  1
  Te  Te147  1  0.49688294  0.33346925  0.00558224  1
  Te  Te148  1  0.49768456  0.33666541  0.33092689  1
  Te  Te149  1  0.50195122  0.33504295  0.66667608  1
  Te  Te150  1  0.49365677  0.66785534  -0.00381503  1
  Te  Te151  1  0.49638338  0.66258557  0.33444483  1
  Te  Te152  1  0.49860054  0.66766560  0.66729172  1
  Te  Te153  1  0.83339729  -0.00340965  -0.00094611  1
  Te  Te154  1  0.83268490  -0.00164699  0.32840063  1
  Te  Te155  1  0.82984487  -0.00266428  0.66984527  1
  Te  Te156  1  0.83722391  0.33528243  -0.00118231  1
  Te  Te157  1  0.83144738  0.33580290  0.33181698  1
  Te  Te158  1  0.83355134  0.33791886  0.66815874  1
  Te  Te159  1  0.83598086  0.66633160  -0.00093625  1
  Te  Te160  1  0.83291544  0.66592405  0.33303740  1
  Te  Te161  1  0.83388751  0.66437978  0.66768631  1
  Te  Te162  1  0.00502501  0.16779956  -0.00402569  1
  Te  Te163  1  0.00750440  0.16689388  0.33653610  1
  Te  Te164  1  0.00334863  0.16836230  0.66959849  1
  Te  Te165  1  0.00452327  0.50060148  -0.00217918  1
  Te  Te166  1  -0.00616367  0.50008078  0.33742330  1
  Te  Te167  1  0.00081667  0.49939934  0.66828152  1
  Te  Te168  1  -0.00323356  0.83368656  -0.00146507  1
  Te  Te169  1  0.00022543  0.83364938  0.33448108  1
  Te  Te170  1  0.00598418  0.82807916  0.66734970  1
  Te  Te171  1  0.32584756  0.16431206  -0.00014627  1
  Te  Te172  1  0.32759536  0.16419677  0.33268404  1
  Te  Te173  1  0.32462812  0.16166720  0.66736364  1
  Te  Te174  1  0.32788164  0.50076970  0.00369046  1
  Te  Te175  1  0.33474451  0.50060617  0.32982080  1
  Te  Te176  1  0.33805745  0.49766951  0.66781457  1
  Te  Te177  1  0.33262644  0.83540859  -0.00416486  1
  Te  Te178  1  0.33080055  0.83249953  0.33104473  1
  Te  Te179  1  0.33346331  0.83687970  0.67101354  1
  Te  Te180  1  0.66598409  0.16745467  -0.00149289  1
  Te  Te181  1  0.66750191  0.17396414  0.33078565  1
  Te  Te182  1  0.66724241  0.16712109  0.67049971  1
  Te  Te183  1  0.66374891  0.50777305  -0.00082329  1
  Te  Te184  1  0.66687653  0.49367526  0.33444479  1
  Te  Te185  1  0.66648068  0.49957405  0.66680810  1
  Te  Te186  1  0.67299177  0.82511418  -0.00033614  1
  Te  Te187  1  0.67345619  0.83279250  0.33317646  1
  Te  Te188  1  0.66258816  0.83317705  0.66632051  1
  Te  Te189  1  -0.00618998  0.00100487  0.15976310  1
  Te  Te190  1  -0.00471564  0.00455365  0.50078010  1
  Te  Te191  1  -0.00473311  0.00215605  0.83785184  1
  Te  Te192  1  -0.00694646  0.33389629  0.16078214  1
  Te  Te193  1  0.00337010  0.33294462  0.50142673  1
  Te  Te194  1  -0.00292242  0.33328234  0.83278631  1
  Te  Te195  1  -0.00257361  0.66534044  0.16196652  1
  Te  Te196  1  0.00263165  0.66360096  0.50406161  1
  Te  Te197  1  -0.00317227  0.66659895  0.83332634  1
  Te  Te198  1  0.33536139  0.00052595  0.16538946  1
  Te  Te199  1  0.33702432  0.00028227  0.49847255  1
  Te  Te200  1  0.33560421  -0.00144986  0.83477711  1
  Te  Te201  1  0.33467866  0.33598878  0.16555219  1
  Te  Te202  1  0.32705695  0.33351816  0.49606146  1
  Te  Te203  1  0.33583914  0.33295439  0.84104373  1
  Te  Te204  1  0.33446330  0.66363033  0.16552157  1
  Te  Te205  1  0.33292408  0.66680276  0.49520987  1
  Te  Te206  1  0.33551300  0.66906719  0.83825315  1
  Te  Te207  1  0.66726569  0.00566165  0.16610578  1
  Te  Te208  1  0.66667868  0.00127422  0.50415088  1
  Te  Te209  1  0.66796598  0.00206565  0.83112347  1
  Te  Te210  1  0.66722433  0.33031938  0.16600194  1
  Te  Te211  1  0.66631558  0.33161705  0.50323986  1
  Te  Te212  1  0.67265588  0.32865315  0.83033830  1
  Te  Te213  1  0.67085843  0.66630582  0.16494406  1
  Te  Te214  1  0.66027080  0.66623752  0.50601262  1
  Te  Te215  1  0.66777240  0.66623862  0.83144952  1
