# generated using pymatgen
data_AgSbTe2
_symmetry_space_group_name_H-M   'P 1'
_cell_length_a   18.31078689
_cell_length_b   18.31029198
_cell_length_c   18.31439374
_cell_angle_alpha   89.99768293
_cell_angle_beta   90.00038818
_cell_angle_gamma   90.00009240
_symmetry_Int_Tables_number   1
_chemical_formula_structural   AgSbTe2
_chemical_formula_sum   'Ag54 Sb54 Te108'
_cell_volume   6140.37400168
_cell_formula_units_Z   54
loop_
 _symmetry_equiv_pos_site_id
 _symmetry_equiv_pos_as_xyz
  1  'x, y, z'
loop_
 _atom_site_type_symbol
 _atom_site_label
 _atom_site_symmetry_multiplicity
 _atom_site_fract_x
 _atom_site_fract_y
 _atom_site_fract_z
 _atom_site_occupancy
  Ag  Ag0  1  0.33290839  0.83537673  0.82784598  1
  Ag  Ag1  1  0.83448399  0.66836342  0.82792429  1
  Ag  Ag2  1  0.49177348  0.16329999  0.00189779  1
  Ag  Ag3  1  0.66230353  0.67496151  0.66624196  1
  Ag  Ag4  1  0.50043090  -0.00546836  0.49906158  1
  Ag  Ag5  1  -0.00094533  0.83521695  0.17253927  1
  Ag  Ag6  1  0.65802000  -0.00725760  0.66389821  1
  Ag  Ag7  1  0.66716891  0.83558496  0.50184988  1
  Ag  Ag8  1  0.33413344  0.67653523  0.66887696  1
  Ag  Ag9  1  0.66715351  0.83533866  0.17192972  1
  Ag  Ag10  1  0.33328271  0.67323912  0.00015861  1
  Ag  Ag11  1  0.33123438  0.67495042  0.33105737  1
  Ag  Ag12  1  0.17126522  0.16783404  -0.00198581  1
  Ag  Ag13  1  0.49911482  0.83157311  0.66548306  1
  Ag  Ag14  1  0.49452592  0.33537194  0.83312955  1
  Ag  Ag15  1  0.82909547  -0.00297939  0.49937492  1
  Ag  Ag16  1  -0.00034208  0.50246723  0.16690742  1
  Ag  Ag17  1  0.00922205  0.17015119  0.83740313  1
  Ag  Ag18  1  0.66486270  0.16611524  0.16427373  1
  Ag  Ag19  1  0.66473374  0.32585925  0.00781813  1
  Ag  Ag20  1  0.33553932  0.00315724  0.00206079  1
  Ag  Ag21  1  0.17025821  0.66690048  0.16938573  1
  Ag  Ag22  1  0.49546664  0.67158238  0.16892062  1
  Ag  Ag23  1  0.82995171  0.33274052  0.17119725  1
  Ag  Ag24  1  0.49885708  0.67438344  0.50405067  1
  Ag  Ag25  1  0.16866770  0.16024614  0.32556751  1
  Ag  Ag26  1  0.50041794  -0.00162915  0.16697086  1
  Ag  Ag27  1  0.32793950  0.16075092  0.83789482  1
  Ag  Ag28  1  0.00668440  -0.00756556  0.32781107  1
  Ag  Ag29  1  0.16819379  0.16524660  0.67590496  1
  Ag  Ag30  1  0.16579349  0.49660495  -0.00425096  1
  Ag  Ag31  1  -0.00024760  0.50232667  0.50707753  1
  Ag  Ag32  1  0.32997427  -0.00256473  0.33295969  1
  Ag  Ag33  1  0.66776547  0.33308357  0.32404414  1
  Ag  Ag34  1  0.83323766  0.32920506  0.49481270  1
  Ag  Ag35  1  0.00615904  0.66488399  0.66475957  1
  Ag  Ag36  1  0.16779088  0.32986300  0.83225636  1
  Ag  Ag37  1  0.33090441  0.16102918  0.16159964  1
  Ag  Ag38  1  0.66026066  0.00358035  0.00514204  1
  Ag  Ag39  1  0.00623216  0.67298562  0.33232341  1
  Ag  Ag40  1  0.17140447  0.83025883  0.66349322  1
  Ag  Ag41  1  0.00480407  0.49849736  0.82762771  1
  Ag  Ag42  1  0.00597984  0.16076168  0.16343143  1
  Ag  Ag43  1  0.33292477  0.16129270  0.49988858  1
  Ag  Ag44  1  0.16228115  0.50426082  0.67274207  1
  Ag  Ag45  1  0.66743748  0.49587925  0.16699472  1
  Ag  Ag46  1  0.00225301  0.34198382  0.66957200  1
  Ag  Ag47  1  0.16262694  0.83600685  0.33452105  1
  Ag  Ag48  1  0.49959425  0.50464790  0.33153774  1
  Ag  Ag49  1  0.82809352  0.83212357  0.66167596  1
  Ag  Ag50  1  0.33613618  -0.00527723  0.66714866  1
  Ag  Ag51  1  0.49610154  0.66523423  0.82757073  1
  Ag  Ag52  1  0.00520149  0.00367003  0.00887461  1
  Ag  Ag53  1  0.83784159  0.83438937  0.33589711  1
  Sb  Sb54  1  0.49584483  -0.00194906  0.83462426  1
  Sb  Sb55  1  0.49442799  0.50898029  0.66417159  1
  Sb  Sb56  1  0.16849753  0.83549764  0.00089828  1
  Sb  Sb57  1  0.00513730  0.16771575  0.49879145  1
  Sb  Sb58  1  0.16198588  0.33322811  0.16258125  1
  Sb  Sb59  1  0.16766450  0.50238706  0.33197433  1
  Sb  Sb60  1  0.83715797  0.33652259  0.83390974  1
  Sb  Sb61  1  0.00377958  -0.00410834  0.66387861  1
  Sb  Sb62  1  0.66372970  0.00057017  0.33152058  1
  Sb  Sb63  1  0.84094127  0.50741558  0.66603655  1
  Sb  Sb64  1  0.66208730  0.16063752  0.49606405  1
  Sb  Sb65  1  0.49748373  0.83078215  0.33645831  1
  Sb  Sb66  1  0.33948316  0.83789109  0.50542625  1
  Sb  Sb67  1  0.49565363  0.49783401  0.00300559  1
  Sb  Sb68  1  0.16982449  -0.00081611  0.16779701  1
  Sb  Sb69  1  0.49471417  0.16637670  0.32695402  1
  Sb  Sb70  1  0.33293848  0.83564908  0.16660149  1
  Sb  Sb71  1  0.17062922  0.00058576  0.49839362  1
  Sb  Sb72  1  0.32997854  0.50005195  0.50055052  1
  Sb  Sb73  1  0.67005238  0.50423112  0.49711252  1
  Sb  Sb74  1  -0.00063635  0.32916297  -0.00229448  1
  Sb  Sb75  1  0.16875037  0.00637783  0.83316326  1
  Sb  Sb76  1  0.49277023  0.16004181  0.67179638  1
  Sb  Sb77  1  0.66235164  0.83296072  0.82916471  1
  Sb  Sb78  1  0.16957591  0.66276712  0.83299050  1
  Sb  Sb79  1  0.83373554  0.66556163  0.16518705  1
  Sb  Sb80  1  -0.00326956  0.33393520  0.33421014  1
  Sb  Sb81  1  0.00636551  0.66857943  0.00156885  1
  Sb  Sb82  1  0.83817995  0.16207550  0.33204471  1
  Sb  Sb83  1  0.83272159  0.50408788  0.33313713  1
  Sb  Sb84  1  0.83168748  0.00167408  0.17105292  1
  Sb  Sb85  1  0.33283744  0.50172922  0.16641088  1
  Sb  Sb86  1  0.67188100  0.33260497  0.66741604  1
  Sb  Sb87  1  0.66333894  0.16582587  0.83930511  1
  Sb  Sb88  1  0.33576463  0.32669922  -0.00100345  1
  Sb  Sb89  1  0.83897534  0.16123688  0.66554339  1
  Sb  Sb90  1  0.17111186  0.66818941  0.49853093  1
  Sb  Sb91  1  0.66925891  0.50150652  0.83791825  1
  Sb  Sb92  1  0.49867867  0.83758631  -0.00223645  1
  Sb  Sb93  1  0.83386359  -0.00437128  0.82875631  1
  Sb  Sb94  1  0.83110214  0.67062438  0.50323982  1
  Sb  Sb95  1  0.00418020  0.83330324  0.83461167  1
  Sb  Sb96  1  0.33685473  0.32995036  0.33221335  1
  Sb  Sb97  1  0.65964377  0.66932292  -0.00107039  1
  Sb  Sb98  1  0.83901328  0.49947067  0.00163225  1
  Sb  Sb99  1  0.16137582  0.33190306  0.50534708  1
  Sb  Sb100  1  0.83553043  0.16575538  0.00151325  1
  Sb  Sb101  1  0.50681178  0.33076338  0.16292982  1
  Sb  Sb102  1  0.66398348  0.66720402  0.33488930  1
  Sb  Sb103  1  0.50438478  0.33207594  0.50299449  1
  Sb  Sb104  1  0.83317386  0.83376575  0.00102277  1
  Sb  Sb105  1  0.32765903  0.33007278  0.66864000  1
  Sb  Sb106  1  0.32845077  0.50164366  0.83358022  1
  Sb  Sb107  1  -0.00535797  0.82990756  0.49401600  1
  Te  Te108  1  0.16534007  0.16802100  0.16508857  1
  Te  Te109  1  0.17313046  0.16707069  0.50005464  1
  Te  Te110  1  0.16642884  0.16953101  0.83500690  1
  Te  Te111  1  0.16440535  0.50204565  0.16378240  1
  Te  Te112  1  0.16002902  0.49899601  0.50408620  1
  Te  Te113  1  0.16284275  0.49600795  0.83366380  1
  Te  Te114  1  0.16355746  0.82740923  0.16938062  1
  Te  Te115  1  0.16469649  0.83358962  0.49978996  1
  Te  Te116  1  0.17206777  0.83186540  0.82849974  1
  Te  Te117  1  0.50141988  0.16384475  0.16281981  1
  Te  Te118  1  0.49402687  0.16244454  0.50072544  1
  Te  Te119  1  0.49595321  0.16963218  0.83889561  1
  Te  Te120  1  0.50169302  0.50262386  0.16955930  1
  Te  Te121  1  0.50023006  0.50193528  0.49511271  1
  Te  Te122  1  0.50018226  0.50071487  0.83339657  1
  Te  Te123  1  0.50268457  0.83407740  0.16726492  1
  Te  Te124  1  0.50542355  0.83420278  0.50238536  1
  Te  Te125  1  0.49543606  0.82778346  0.82869333  1
  Te  Te126  1  0.83253102  0.17128665  0.16794060  1
  Te  Te127  1  0.83201122  0.16673170  0.49952645  1
  Te  Te128  1  0.84184746  0.16650741  0.83230569  1
  Te  Te129  1  0.83293566  0.49638729  0.16670397  1
  Te  Te130  1  0.83844912  0.49432212  0.49944641  1
  Te  Te131  1  0.84066612  0.50564706  0.83397732  1
  Te  Te132  1  0.83383656  0.83356769  0.16981432  1
  Te  Te133  1  0.82813296  0.83574277  0.50032128  1
  Te  Te134  1  0.83490564  0.82786977  0.82795300  1
  Te  Te135  1  0.16857901  0.00448306  0.00106986  1
  Te  Te136  1  0.16851799  -0.00077348  0.33322565  1
  Te  Te137  1  0.17256721  -0.00091457  0.66516660  1
  Te  Te138  1  0.16680983  0.33230445  -0.00484291  1
  Te  Te139  1  0.16682628  0.32785030  0.33389915  1
  Te  Te140  1  0.16192354  0.33211849  0.67064276  1
  Te  Te141  1  0.17252339  0.66669893  0.00450651  1
  Te  Te142  1  0.16692403  0.66722422  0.33104173  1
  Te  Te143  1  0.16644915  0.66781445  0.66612929  1
  Te  Te144  1  0.49812074  0.00314269  0.00180033  1
  Te  Te145  1  0.49369470  -0.00050200  0.33225466  1
  Te  Te146  1  0.49817602  -0.00451765  0.66630209  1
  Te  Te147  1  0.50376659  0.33031911  -0.00498025  1
  Te  Te148  1  0.50498414  0.33878314  0.33566476  1
  Te  Te149  1  0.50178948  0.33473854  0.67267240  1
  Te  Te150  1  0.49315954  0.66673323  0.00302818  1
  Te  Te151  1  0.49774889  0.66591884  0.33008370  1
  Te  Te152  1  0.49735787  0.66958500  0.66607036  1
  Te  Te153  1  0.83056201  -0.00100309  -0.00156679  1
  Te  Te154  1  0.83619543  -0.00477510  0.33816871  1
  Te  Te155  1  0.83179229  -0.00639712  0.66114517  1
  Te  Te156  1  0.82569456  0.33344452  0.00290258  1
  Te  Te157  1  0.82969110  0.33313496  0.33291873  1
  Te  Te158  1  0.83963343  0.33181954  0.66433977  1
  Te  Te159  1  0.83175523  0.66664085  -0.00926880  1
  Te  Te160  1  0.83983676  0.67360458  0.33370962  1
  Te  Te161  1  0.83368028  0.67236647  0.66792792  1
  Te  Te162  1  0.00224929  0.16385838  0.00209770  1
  Te  Te163  1  0.00599790  0.16496333  0.32997349  1
  Te  Te164  1  0.00699622  0.16427491  0.66772476  1
  Te  Te165  1  0.00600869  0.49973659  0.00421310  1
  Te  Te166  1  0.00099456  0.50367029  0.32766576  1
  Te  Te167  1  0.00240262  0.50288720  0.66738888  1
  Te  Te168  1  0.00060163  0.84090060  0.00575287  1
  Te  Te169  1  0.00286846  0.83278735  0.33188413  1
  Te  Te170  1  0.00453965  0.82989952  0.66712639  1
  Te  Te171  1  0.33199627  0.16474496  -0.00001531  1
  Te  Te172  1  0.32933219  0.16352649  0.32896218  1
  Te  Te173  1  0.32867613  0.16353601  0.67102104  1
  Te  Te174  1  0.32675625  0.50556365  0.00035857  1
  Te  Te175  1  0.33717505  0.50365741  0.33438757  1
  Te  Te176  1  0.32525048  0.50482709  0.66565528  1
  Te  Te177  1  0.33310328  0.83630185  -0.00573741  1
  Te  Te178  1  0.32858364  0.83452747  0.33408079  1
  Te  Te179  1  0.33254932  0.83416593  0.66641022  1
  Te  Te180  1  0.66710650  0.16422284  0.00335985  1
  Te  Te181  1  0.66659320  0.17080373  0.32779514  1
  Te  Te182  1  0.66633417  0.16102254  0.66773068  1
  Te  Te183  1  0.66583304  0.49958402  0.00632155  1
  Te  Te184  1  0.66459941  0.49793098  0.32937044  1
  Te  Te185  1  0.66671243  0.50358493  0.66732318  1
  Te  Te186  1  0.66645885  0.83876728  0.00570946  1
  Te  Te187  1  0.66958951  0.83385730  0.33173621  1
  Te  Te188  1  0.66521051  0.83418499  0.66774232  1
  Te  Te189  1  -0.00175067  0.00065443  0.16804052  1
  Te  Te190  1  -0.00605424  0.00093581  0.49451548  1
  Te  Te191  1  -0.00062850  0.00353899  0.83763349  1
  Te  Te192  1  -0.00569033  0.33501275  0.16624859  1
  Te  Te193  1  -0.00564159  0.33606076  0.50338508  1
  Te  Te194  1  0.00140164  0.33365132  0.83101015  1
  Te  Te195  1  0.00004714  0.66666227  0.16670374  1
  Te  Te196  1  -0.00032738  0.66260821  0.50093130  1
  Te  Te197  1  -0.00008466  0.66518766  0.83256443  1
  Te  Te198  1  0.33694622  0.00041323  0.16623744  1
  Te  Te199  1  0.33682908  0.00277449  0.49882202  1
  Te  Te200  1  0.33464442  0.00011219  0.83327169  1
  Te  Te201  1  0.33407012  0.32515712  0.16685638  1
  Te  Te202  1  0.33501221  0.32531807  0.50063611  1
  Te  Te203  1  0.33305751  0.33000211  0.83305664  1
  Te  Te204  1  0.33410173  0.66805093  0.16892432  1
  Te  Te205  1  0.33934634  0.66559344  0.49865551  1
  Te  Te206  1  0.33573620  0.66753976  0.83139714  1
  Te  Te207  1  0.66450317  0.00010140  0.16563025  1
  Te  Te208  1  0.66338477  -0.00324678  0.50091750  1
  Te  Te209  1  0.66589836  0.00037239  0.83460673  1
  Te  Te210  1  0.66766519  0.33385205  0.16617448  1
  Te  Te211  1  0.67252758  0.33298680  0.49817512  1
  Te  Te212  1  0.66520937  0.33379701  0.83734723  1
  Te  Te213  1  0.66426329  0.66858148  0.16599275  1
  Te  Te214  1  0.66132308  0.67042289  0.50455173  1
  Te  Te215  1  0.66235464  0.66582015  0.82934700  1
