# generated using pymatgen
data_AgSbTe2
_symmetry_space_group_name_H-M   'P 1'
_cell_length_a   18.34527551
_cell_length_b   18.34498942
_cell_length_c   18.35221603
_cell_angle_alpha   89.99982033
_cell_angle_beta   89.99824830
_cell_angle_gamma   90.00358171
_symmetry_Int_Tables_number   1
_chemical_formula_structural   AgSbTe2
_chemical_formula_sum   'Ag54 Sb54 Te108'
_cell_volume   6176.32606957
_cell_formula_units_Z   54
loop_
 _symmetry_equiv_pos_site_id
 _symmetry_equiv_pos_as_xyz
  1  'x, y, z'
loop_
 _atom_site_type_symbol
 _atom_site_label
 _atom_site_symmetry_multiplicity
 _atom_site_fract_x
 _atom_site_fract_y
 _atom_site_fract_z
 _atom_site_occupancy
  Ag  Ag0  1  0.50206085  0.83069963  0.00027761  1
  Ag  Ag1  1  0.00225079  0.83175233  0.50166535  1
  Ag  Ag2  1  0.67390142  0.83406836  0.15748242  1
  Ag  Ag3  1  0.33170117  0.49572974  0.83944203  1
  Ag  Ag4  1  0.67907121  -0.00628511  0.00047205  1
  Ag  Ag5  1  0.83452678  0.33066829  0.15981036  1
  Ag  Ag6  1  0.32973283  0.33878110  0.67815689  1
  Ag  Ag7  1  0.16987789  0.49615812  0.32439410  1
  Ag  Ag8  1  0.00202625  0.17410892  0.83319125  1
  Ag  Ag9  1  0.15725745  0.82982230  0.00337327  1
  Ag  Ag10  1  0.48609138  0.49855279  0.67816563  1
  Ag  Ag11  1  0.00361856  0.49672876  0.50180999  1
  Ag  Ag12  1  0.16347903  -0.00328440  0.16644956  1
  Ag  Ag13  1  0.67224776  0.33322666  0.67202294  1
  Ag  Ag14  1  0.16779918  0.17094667  0.33437050  1
  Ag  Ag15  1  0.00082149  0.83290106  0.15762662  1
  Ag  Ag16  1  0.00345004  0.17692731  0.51020363  1
  Ag  Ag17  1  0.00252309  0.33153408  0.67550129  1
  Ag  Ag18  1  0.33424476  0.33622280  0.32702099  1
  Ag  Ag19  1  0.17006281  0.49641668  0.66912658  1
  Ag  Ag20  1  0.84574234  0.17124621  0.67755717  1
  Ag  Ag21  1  0.84777755  0.66180324  0.50265265  1
  Ag  Ag22  1  0.17007374  0.65982367  0.16498451  1
  Ag  Ag23  1  0.49161142  0.66091754  0.50215431  1
  Ag  Ag24  1  0.83666598  0.33465598  0.49952332  1
  Ag  Ag25  1  0.32913634  0.17807043  0.83923791  1
  Ag  Ag26  1  0.33513667  0.34034534  -0.00388997  1
  Ag  Ag27  1  0.67069612  0.83437975  0.84205532  1
  Ag  Ag28  1  0.83593824  0.84177598  0.00048373  1
  Ag  Ag29  1  0.01018157  0.50094831  0.15735798  1
  Ag  Ag30  1  -0.00276707  0.83572153  0.84296792  1
  Ag  Ag31  1  0.48801518  0.66328292  0.15543894  1
  Ag  Ag32  1  0.66323330  0.33428462  0.32178029  1
  Ag  Ag33  1  -0.00765836  -0.00349058  -0.00015271  1
  Ag  Ag34  1  0.48793677  0.49843171  0.33005829  1
  Ag  Ag35  1  0.16605668  0.66299379  0.49802197  1
  Ag  Ag36  1  0.49579501  0.65687399  0.83958265  1
  Ag  Ag37  1  0.83723265  0.00209681  0.84801909  1
  Ag  Ag38  1  0.17570169  0.50247896  0.00623979  1
  Ag  Ag39  1  0.33009350  0.17885393  0.15766363  1
  Ag  Ag40  1  0.16360213  0.00054429  0.49372218  1
  Ag  Ag41  1  0.83558785  0.15539177  -0.00291558  1
  Ag  Ag42  1  0.33283522  0.65341545  0.67549056  1
  Ag  Ag43  1  0.00738167  0.48986329  0.83794745  1
  Ag  Ag44  1  0.48836420  0.50022324  -0.00264121  1
  Ag  Ag45  1  0.16297680  0.17675057  0.66361419  1
  Ag  Ag46  1  0.32757549  0.01005879  0.32800229  1
  Ag  Ag47  1  0.66125773  0.33032722  -0.00182491  1
  Ag  Ag48  1  0.49551460  0.33860217  0.83730980  1
  Ag  Ag49  1  0.84201175  0.00473507  0.15792738  1
  Ag  Ag50  1  0.49930507  0.17747626  -0.00116791  1
  Ag  Ag51  1  0.32747253  0.49622957  0.15324983  1
  Ag  Ag52  1  0.33462137  0.65396581  -0.00257307  1
  Ag  Ag53  1  -0.00040401  0.33284335  -0.00495782  1
  Sb  Sb54  1  0.16141538  0.33719133  0.50159084  1
  Sb  Sb55  1  0.49076162  0.17646918  0.32665206  1
  Sb  Sb56  1  0.00561338  0.00156077  0.32677540  1
  Sb  Sb57  1  0.16092442  0.00098691  0.83819531  1
  Sb  Sb58  1  0.83256915  0.32901315  0.83585653  1
  Sb  Sb59  1  0.17177508  0.33528924  0.83304308  1
  Sb  Sb60  1  0.49936052  0.82563509  0.32572020  1
  Sb  Sb61  1  0.17115363  0.66292685  0.83653103  1
  Sb  Sb62  1  0.66338560  0.16631534  0.16167681  1
  Sb  Sb63  1  0.49616859  -0.00464151  0.16252785  1
  Sb  Sb64  1  0.00338172  0.33388920  0.33173856  1
  Sb  Sb65  1  0.00255432  0.66484831  0.33472277  1
  Sb  Sb66  1  0.83993184  0.16981990  0.32946797  1
  Sb  Sb67  1  0.83604120  0.49836941  -0.00022624  1
  Sb  Sb68  1  0.33210427  0.83125046  0.83778906  1
  Sb  Sb69  1  0.50231982  0.00167255  0.83723334  1
  Sb  Sb70  1  0.66191285  0.00615716  0.32409183  1
  Sb  Sb71  1  0.50377016  0.33942488  0.50375934  1
  Sb  Sb72  1  0.16578683  0.16955897  0.00027664  1
  Sb  Sb73  1  0.49534633  0.17717251  0.67431026  1
  Sb  Sb74  1  0.67203088  0.83127522  0.50119306  1
  Sb  Sb75  1  0.00586348  0.66594795  -0.00097289  1
  Sb  Sb76  1  0.00445138  0.16782335  0.16092605  1
  Sb  Sb77  1  0.32549582  0.16979069  0.49995795  1
  Sb  Sb78  1  0.32945110  0.00645104  0.66532427  1
  Sb  Sb79  1  0.83712267  0.49289090  0.66669020  1
  Sb  Sb80  1  0.66338718  0.50183958  0.16381020  1
  Sb  Sb81  1  0.83765438  0.49762304  0.33312910  1
  Sb  Sb82  1  0.16477138  0.83064989  0.67042584  1
  Sb  Sb83  1  0.66187259  0.65952449  0.66783265  1
  Sb  Sb84  1  0.66935297  0.00649196  0.67454420  1
  Sb  Sb85  1  0.00097364  0.00826779  0.67347636  1
  Sb  Sb86  1  0.32708885  0.49898098  0.50315506  1
  Sb  Sb87  1  0.33056226  0.00371066  0.00328755  1
  Sb  Sb88  1  0.66965510  0.49845352  0.50008296  1
  Sb  Sb89  1  0.83721805  0.83844650  0.67247260  1
  Sb  Sb90  1  0.32713292  0.82971308  0.49962768  1
  Sb  Sb91  1  0.50044285  0.82188798  0.67461347  1
  Sb  Sb92  1  0.66205687  0.50072427  0.83589139  1
  Sb  Sb93  1  0.67421535  0.16877354  0.50065174  1
  Sb  Sb94  1  0.33203424  0.66064026  0.32972034  1
  Sb  Sb95  1  0.65785989  0.67096395  0.00005603  1
  Sb  Sb96  1  0.66317196  0.66049736  0.33165809  1
  Sb  Sb97  1  0.83729837  0.66652422  0.16683406  1
  Sb  Sb98  1  0.16614697  0.33582918  0.16588279  1
  Sb  Sb99  1  0.66947297  0.16615887  0.83760799  1
  Sb  Sb100  1  0.83449520  0.83395289  0.32684366  1
  Sb  Sb101  1  0.00663221  0.65705137  0.66593410  1
  Sb  Sb102  1  0.49355942  -0.00563338  0.49794473  1
  Sb  Sb103  1  0.49950320  0.33944372  0.15762401  1
  Sb  Sb104  1  0.83092857  0.67121406  0.83197090  1
  Sb  Sb105  1  0.16611446  0.83227724  0.32829824  1
  Sb  Sb106  1  0.32828958  0.82910052  0.16309331  1
  Sb  Sb107  1  0.84387257  0.00190470  0.49777379  1
  Te  Te108  1  0.17031627  0.16347813  0.16914139  1
  Te  Te109  1  0.16261679  0.16616673  0.50066619  1
  Te  Te110  1  0.16373196  0.16464312  0.83040515  1
  Te  Te111  1  0.16714209  0.49951905  0.16622581  1
  Te  Te112  1  0.16209518  0.50239196  0.50399825  1
  Te  Te113  1  0.16721089  0.50099614  0.83112726  1
  Te  Te114  1  0.16195443  0.83328538  0.16350350  1
  Te  Te115  1  0.16225173  0.82925494  0.49996742  1
  Te  Te116  1  0.16161357  0.83286500  0.83935176  1
  Te  Te117  1  0.49213081  0.16480005  0.15988600  1
  Te  Te118  1  0.50139650  0.16378715  0.50087878  1
  Te  Te119  1  0.49573002  0.16979172  0.83921632  1
  Te  Te120  1  0.49876810  0.50426096  0.16609760  1
  Te  Te121  1  0.50203194  0.50299078  0.49583030  1
  Te  Te122  1  0.50004907  0.49923108  0.83553561  1
  Te  Te123  1  0.50131699  0.82657350  0.16227685  1
  Te  Te124  1  0.50194865  0.82598806  0.49996458  1
  Te  Te125  1  0.50197239  0.83335208  0.83873303  1
  Te  Te126  1  0.83342067  0.16800933  0.16257049  1
  Te  Te127  1  0.84155925  0.16952977  0.49925668  1
  Te  Te128  1  0.83591327  0.16343761  0.83649872  1
  Te  Te129  1  0.83967078  0.49751548  0.16775946  1
  Te  Te130  1  0.83971268  0.49954618  0.49997217  1
  Te  Te131  1  0.84133456  0.50323574  0.83232926  1
  Te  Te132  1  0.83801852  0.83222110  0.16254247  1
  Te  Te133  1  0.83836464  0.83152265  0.49990327  1
  Te  Te134  1  0.83446135  0.83685903  0.83724909  1
  Te  Te135  1  0.16280867  -0.00218802  0.00460160  1
  Te  Te136  1  0.16941462  -0.00086276  0.33163593  1
  Te  Te137  1  0.16661055  0.00040956  0.65904883  1
  Te  Te138  1  0.16434911  0.33759894  -0.00004042  1
  Te  Te139  1  0.17168878  0.33413121  0.33399316  1
  Te  Te140  1  0.16570204  0.33479041  0.66599891  1
  Te  Te141  1  0.17185320  0.66561844  0.00234941  1
  Te  Te142  1  0.16833922  0.66167967  0.33240364  1
  Te  Te143  1  0.17267193  0.66346022  0.66397672  1
  Te  Te144  1  0.50240206  -0.00512756  -0.00021346  1
  Te  Te145  1  0.49308462  0.00142276  0.33248892  1
  Te  Te146  1  0.49992289  -0.00119164  0.66536800  1
  Te  Te147  1  0.49762945  0.33504124  -0.00138644  1
  Te  Te148  1  0.50039732  0.33840183  0.33480766  1
  Te  Te149  1  0.49473893  0.33887683  0.67037617  1
  Te  Te150  1  0.49690312  0.66381822  -0.00055089  1
  Te  Te151  1  0.49908060  0.65923580  0.33879327  1
  Te  Te152  1  0.49533048  0.65903382  0.66430853  1
  Te  Te153  1  0.83466262  -0.00092696  0.00329203  1
  Te  Te154  1  0.83023017  0.00225707  0.32421459  1
  Te  Te155  1  0.83283368  0.01027325  0.66669715  1
  Te  Te156  1  0.83834453  0.33370094  0.00107483  1
  Te  Te157  1  0.82731590  0.33230216  0.33457260  1
  Te  Te158  1  0.83608340  0.32911047  0.66703749  1
  Te  Te159  1  0.83030229  0.67217572  -0.00008067  1
  Te  Te160  1  0.83100599  0.66611962  0.34290045  1
  Te  Te161  1  0.83099594  0.66784797  0.66131049  1
  Te  Te162  1  -0.00102737  0.17059852  -0.00284129  1
  Te  Te163  1  0.00775303  0.16680872  0.33916313  1
  Te  Te164  1  0.00274256  0.16970091  0.66949513  1
  Te  Te165  1  0.00134290  0.49945813  -0.00154266  1
  Te  Te166  1  0.00627285  0.49895411  0.33507635  1
  Te  Te167  1  0.00321275  0.49379443  0.66732582  1
  Te  Te168  1  0.00024140  0.82998521  0.00087957  1
  Te  Te169  1  -0.00067656  0.83415853  0.33924544  1
  Te  Te170  1  0.00022512  0.83307691  0.66241327  1
  Te  Te171  1  0.33292878  0.16851453  -0.00069058  1
  Te  Te172  1  0.32789830  0.17083269  0.33222978  1
  Te  Te173  1  0.32834482  0.17341512  0.67188696  1
  Te  Te174  1  0.33288056  0.49947143  -0.00173251  1
  Te  Te175  1  0.33049111  0.49707642  0.33584674  1
  Te  Te176  1  0.33130252  0.49819694  0.66656963  1
  Te  Te177  1  0.33741184  0.83449601  -0.00059954  1
  Te  Te178  1  0.33447298  0.84084427  0.33207627  1
  Te  Te179  1  0.33373066  0.83134984  0.66830421  1
  Te  Te180  1  0.66665656  0.16997231  0.00019221  1
  Te  Te181  1  0.66415146  0.17511610  0.33239474  1
  Te  Te182  1  0.66686404  0.17393185  0.66862359  1
  Te  Te183  1  0.66684561  0.49114506  -0.00006066  1
  Te  Te184  1  0.66526767  0.49244578  0.33208651  1
  Te  Te185  1  0.66565874  0.49191656  0.66818309  1
  Te  Te186  1  0.66581678  0.83246548  0.00076407  1
  Te  Te187  1  0.66606909  0.83600521  0.32790301  1
  Te  Te188  1  0.66814666  0.83515288  0.67195849  1
  Te  Te189  1  0.00143828  0.00052527  0.16208241  1
  Te  Te190  1  0.00445169  -0.00257359  0.49901222  1
  Te  Te191  1  -0.00347672  -0.00364361  0.83881998  1
  Te  Te192  1  -0.00376162  0.33609835  0.16483266  1
  Te  Te193  1  -0.00365126  0.33465273  0.49745100  1
  Te  Te194  1  -0.00263965  0.33307077  0.83323413  1
  Te  Te195  1  0.00438729  0.66608312  0.16807405  1
  Te  Te196  1  0.00526556  0.66313568  0.50065298  1
  Te  Te197  1  -0.00163193  0.67279178  0.83085701  1
  Te  Te198  1  0.32861552  -0.00135126  0.16918178  1
  Te  Te199  1  0.32564603  -0.00078196  0.49529925  1
  Te  Te200  1  0.33251471  0.00551095  0.83239366  1
  Te  Te201  1  0.33410527  0.33621426  0.16607938  1
  Te  Te202  1  0.33670166  0.33200861  0.49607961  1
  Te  Te203  1  0.33443601  0.33558299  0.83537481  1
  Te  Te204  1  0.33086842  0.66295975  0.16401129  1
  Te  Te205  1  0.33045930  0.66733943  0.50021925  1
  Te  Te206  1  0.33674077  0.66477320  0.83432799  1
  Te  Te207  1  0.66776112  -0.00399730  0.16117003  1
  Te  Te208  1  0.66726817  -0.00076183  0.49743330  1
  Te  Te209  1  0.67150315  -0.00414579  0.83920084  1
  Te  Te210  1  0.67060988  0.33396750  0.16277923  1
  Te  Te211  1  0.67436095  0.33237565  0.50865992  1
  Te  Te212  1  0.66218031  0.33367193  0.83568290  1
  Te  Te213  1  0.66769439  0.67243340  0.16783310  1
  Te  Te214  1  0.66413702  0.66708296  0.49998871  1
  Te  Te215  1  0.65965319  0.67213292  0.83167464  1
