# generated using pymatgen
data_AgSbTe2
_symmetry_space_group_name_H-M   'P 1'
_cell_length_a   18.35553170
_cell_length_b   18.36730115
_cell_length_c   18.36315528
_cell_angle_alpha   90.00377318
_cell_angle_beta   89.99881117
_cell_angle_gamma   89.99858796
_symmetry_Int_Tables_number   1
_chemical_formula_structural   AgSbTe2
_chemical_formula_sum   'Ag54 Sb54 Te108'
_cell_volume   6190.98314244
_cell_formula_units_Z   54
loop_
 _symmetry_equiv_pos_site_id
 _symmetry_equiv_pos_as_xyz
  1  'x, y, z'
loop_
 _atom_site_type_symbol
 _atom_site_label
 _atom_site_symmetry_multiplicity
 _atom_site_fract_x
 _atom_site_fract_y
 _atom_site_fract_z
 _atom_site_occupancy
  Ag  Ag0  1  0.50355320  0.00224854  0.82693040  1
  Ag  Ag1  1  0.49819640  0.32297195  0.49956704  1
  Ag  Ag2  1  0.49782238  0.16351187  0.00050416  1
  Ag  Ag3  1  0.82471352  0.84219019  0.66484647  1
  Ag  Ag4  1  0.66314469  0.83425240  0.17845977  1
  Ag  Ag5  1  0.66517976  0.83940818  0.82516946  1
  Ag  Ag6  1  -0.00172476  0.16806487  0.16572343  1
  Ag  Ag7  1  -0.00035089  0.33378530  0.33745873  1
  Ag  Ag8  1  0.33936261  0.16714536  0.49860091  1
  Ag  Ag9  1  0.66518248  0.67891372  0.33741242  1
  Ag  Ag10  1  0.66187986  0.15614641  0.83102044  1
  Ag  Ag11  1  0.66726630  0.50448704  0.82926140  1
  Ag  Ag12  1  0.50362803  0.00484956  0.49644839  1
  Ag  Ag13  1  0.17552137  0.16811865  0.67126137  1
  Ag  Ag14  1  -0.00429167  0.49728511  0.49970696  1
  Ag  Ag15  1  0.66581891  0.68199459  0.66694363  1
  Ag  Ag16  1  0.00206796  0.16829549  0.83042171  1
  Ag  Ag17  1  0.33956750  0.16481325  0.16968774  1
  Ag  Ag18  1  -0.01082848  0.65502692  0.33349988  1
  Ag  Ag19  1  0.82059433  0.84351886  0.33861854  1
  Ag  Ag20  1  0.66360344  -0.00050531  0.34391093  1
  Ag  Ag21  1  0.50779705  0.50394958  0.66417358  1
  Ag  Ag22  1  0.34303488  0.32558822  0.34002703  1
  Ag  Ag23  1  0.50474245  0.67792374  0.17624589  1
  Ag  Ag24  1  0.82680678  0.67162253  0.82873979  1
  Ag  Ag25  1  0.65999330  0.16206563  0.50519908  1
  Ag  Ag26  1  0.50070314  0.16153348  0.33588871  1
  Ag  Ag27  1  0.66537874  0.66598489  -0.01621250  1
  Ag  Ag28  1  0.66549965  -0.00006235  0.66407351  1
  Ag  Ag29  1  0.50456446  0.84102127  0.66372217  1
  Ag  Ag30  1  0.34775264  0.00872633  0.33553438  1
  Ag  Ag31  1  0.33476921  0.32402543  0.66656537  1
  Ag  Ag32  1  0.34779744  0.00645662  0.66856117  1
  Ag  Ag33  1  0.82236275  0.00336324  0.17519251  1
  Ag  Ag34  1  0.82034799  0.16108028  0.33154985  1
  Ag  Ag35  1  0.66572341  0.33006548  -0.00265876  1
  Ag  Ag36  1  0.17914591  0.16690963  -0.01026922  1
  Ag  Ag37  1  0.50163336  0.50061110  0.34121629  1
  Ag  Ag38  1  0.50290891  0.84606939  0.34059771  1
  Ag  Ag39  1  -0.00909075  0.48847197  0.82867025  1
  Ag  Ag40  1  0.82313145  0.00149076  0.50318398  1
  Ag  Ag41  1  -0.01400061  0.00875304  0.66814514  1
  Ag  Ag42  1  0.82145341  0.00077118  0.82292954  1
  Ag  Ag43  1  0.34612081  0.49387188  0.83032862  1
  Ag  Ag44  1  0.33962433  0.00713757  -0.01154876  1
  Ag  Ag45  1  0.33831518  0.16852555  0.83089030  1
  Ag  Ag46  1  -0.00481674  0.48671391  0.17739256  1
  Ag  Ag47  1  0.82513517  0.50220433  0.66968247  1
  Ag  Ag48  1  0.50589415  0.00023207  0.18060734  1
  Ag  Ag49  1  0.16751296  0.32787231  0.83034835  1
  Ag  Ag50  1  0.83393927  0.32348883  0.17120628  1
  Ag  Ag51  1  0.00184057  0.33053289  0.66754930  1
  Ag  Ag52  1  0.50240140  0.66793964  0.49504445  1
  Ag  Ag53  1  0.34793163  0.85178939  0.83147632  1
  Sb  Sb54  1  0.33708753  0.49384209  0.50445066  1
  Sb  Sb55  1  -0.00860924  0.66059137  0.66368533  1
  Sb  Sb56  1  -0.00352695  0.33052289  -0.00190055  1
  Sb  Sb57  1  0.82486430  0.67056850  0.50312823  1
  Sb  Sb58  1  0.34050978  0.84200567  0.50487702  1
  Sb  Sb59  1  0.83061523  0.49938903  0.33680676  1
  Sb  Sb60  1  0.33384617  0.49320789  0.16559343  1
  Sb  Sb61  1  -0.00644596  0.83820650  0.83022588  1
  Sb  Sb62  1  0.16749498  0.49715909  0.33339129  1
  Sb  Sb63  1  0.16981701  0.84298911  0.66982384  1
  Sb  Sb64  1  0.66921029  0.50355445  0.16443545  1
  Sb  Sb65  1  0.17164067  0.84070001  -0.00386334  1
  Sb  Sb66  1  0.66354090  0.32821556  0.66947667  1
  Sb  Sb67  1  0.50522597  0.84051006  -0.00240307  1
  Sb  Sb68  1  0.16655319  0.49172758  -0.00387126  1
  Sb  Sb69  1  0.66593491  0.49548759  0.50353379  1
  Sb  Sb70  1  0.49823802  0.32765180  0.82614895  1
  Sb  Sb71  1  0.17007940  0.00352959  0.50262153  1
  Sb  Sb72  1  0.16286103  0.32876869  0.16358408  1
  Sb  Sb73  1  0.16880103  0.66458028  0.16701885  1
  Sb  Sb74  1  0.82574462  0.66950864  0.16610897  1
  Sb  Sb75  1  0.34324403  0.67193596  -0.00317809  1
  Sb  Sb76  1  0.34338679  0.84335369  0.16423391  1
  Sb  Sb77  1  -0.01111498  0.83850215  0.16972939  1
  Sb  Sb78  1  0.17053472  0.00342341  0.16652304  1
  Sb  Sb79  1  0.82812082  0.83528509  -0.00338114  1
  Sb  Sb80  1  0.83305695  0.32946094  0.83418729  1
  Sb  Sb81  1  -0.00770363  0.00487304  0.33698477  1
  Sb  Sb82  1  0.50215364  0.49612798  -0.00297935  1
  Sb  Sb83  1  0.66513873  0.32809894  0.33054485  1
  Sb  Sb84  1  0.00005231  0.16865542  0.50078990  1
  Sb  Sb85  1  -0.00334901  0.83121866  0.50080033  1
  Sb  Sb86  1  0.82897929  0.16587428  0.00237814  1
  Sb  Sb87  1  0.50362366  0.32726525  0.17151249  1
  Sb  Sb88  1  0.34305432  0.66629341  0.33279618  1
  Sb  Sb89  1  0.00201447  0.00479287  -0.00458406  1
  Sb  Sb90  1  0.49510816  0.16206017  0.66183570  1
  Sb  Sb91  1  0.83387286  0.16451344  0.66469585  1
  Sb  Sb92  1  0.83149115  0.49878747  -0.00473882  1
  Sb  Sb93  1  0.17151714  0.83449868  0.33207322  1
  Sb  Sb94  1  -0.00606338  0.66364056  0.00297585  1
  Sb  Sb95  1  0.17276261  0.01002750  0.83160315  1
  Sb  Sb96  1  0.66232558  0.00084430  -0.00349701  1
  Sb  Sb97  1  0.16928402  0.33111151  0.50478655  1
  Sb  Sb98  1  0.16151957  0.65989993  0.83202522  1
  Sb  Sb99  1  0.16851079  0.66331170  0.50110034  1
  Sb  Sb100  1  0.33778094  0.32485763  -0.00382182  1
  Sb  Sb101  1  0.17210521  0.16708557  0.33449394  1
  Sb  Sb102  1  0.34256878  0.66757286  0.66804997  1
  Sb  Sb103  1  0.66521898  0.16143082  0.16606445  1
  Sb  Sb104  1  0.50869503  0.66977483  0.83200258  1
  Sb  Sb105  1  0.16655589  0.49362643  0.66891667  1
  Sb  Sb106  1  0.83136218  0.32896369  0.49777509  1
  Sb  Sb107  1  0.66344497  0.84208131  0.50121279  1
  Te  Te108  1  0.16161119  0.16566520  0.16486605  1
  Te  Te109  1  0.17343402  0.16772647  0.50787537  1
  Te  Te110  1  0.16293262  0.16926893  0.83115691  1
  Te  Te111  1  0.15601111  0.49884325  0.16480934  1
  Te  Te112  1  0.15679020  0.49965220  0.49989061  1
  Te  Te113  1  0.16087189  0.49251256  0.83426498  1
  Te  Te114  1  0.16747490  0.83244068  0.16469847  1
  Te  Te115  1  0.16942224  0.83076335  0.50020124  1
  Te  Te116  1  0.16931244  0.82945529  0.83417386  1
  Te  Te117  1  0.49900803  0.16239606  0.17221162  1
  Te  Te118  1  0.49913716  0.16481846  0.49806809  1
  Te  Te119  1  0.50149857  0.16587711  0.83362494  1
  Te  Te120  1  0.49881953  0.49780875  0.16774712  1
  Te  Te121  1  0.49958064  0.50293576  0.50214618  1
  Te  Te122  1  0.50395615  0.49965046  0.82989624  1
  Te  Te123  1  0.50359150  0.83703450  0.16665967  1
  Te  Te124  1  0.49863187  0.83009344  0.50154335  1
  Te  Te125  1  0.50354144  0.83384441  0.83139782  1
  Te  Te126  1  0.83313350  0.16397038  0.16908283  1
  Te  Te127  1  0.83292798  0.16218706  0.49247523  1
  Te  Te128  1  0.83290214  0.16110480  0.83421836  1
  Te  Te129  1  0.83818359  0.50130011  0.16706257  1
  Te  Te130  1  0.83630553  0.49991882  0.50535519  1
  Te  Te131  1  0.83042493  0.49650470  0.83020396  1
  Te  Te132  1  0.82531552  0.83794844  0.17225656  1
  Te  Te133  1  0.83501832  0.83742963  0.50010089  1
  Te  Te134  1  0.82846278  0.83700411  0.82860954  1
  Te  Te135  1  0.17371961  0.00732024  0.00001380  1
  Te  Te136  1  0.17259774  -0.00197614  0.33440435  1
  Te  Te137  1  0.16229646  0.00677752  0.66643035  1
  Te  Te138  1  0.16777447  0.32571893  -0.00658130  1
  Te  Te139  1  0.16004324  0.33411864  0.33258817  1
  Te  Te140  1  0.16667941  0.32981925  0.67016006  1
  Te  Te141  1  0.16739909  0.66699039  0.00041259  1
  Te  Te142  1  0.16180291  0.66635070  0.33331763  1
  Te  Te143  1  0.16577815  0.66982098  0.66616894  1
  Te  Te144  1  0.49741593  0.00479602  -0.00769794  1
  Te  Te145  1  0.50275842  0.00195619  0.33609761  1
  Te  Te146  1  0.50337775  -0.00170626  0.66640490  1
  Te  Te147  1  0.50515911  0.32795427  0.00260443  1
  Te  Te148  1  0.49956740  0.33460965  0.33672533  1
  Te  Te149  1  0.49727095  0.34149416  0.66072731  1
  Te  Te150  1  0.50675075  0.66444448  0.00602769  1
  Te  Te151  1  0.50300663  0.66175368  0.33341953  1
  Te  Te152  1  0.50556004  0.66407796  0.66637168  1
  Te  Te153  1  0.83566427  -0.00055891  0.00474691  1
  Te  Te154  1  0.83164662  0.00070517  0.33434129  1
  Te  Te155  1  0.82968838  0.00126117  0.66448556  1
  Te  Te156  1  0.82687825  0.33294608  0.00760030  1
  Te  Te157  1  0.83814417  0.33157253  0.33078566  1
  Te  Te158  1  0.83857902  0.33796135  0.66624381  1
  Te  Te159  1  0.82682707  0.66726457  -0.00601431  1
  Te  Te160  1  0.83123773  0.66862449  0.33451892  1
  Te  Te161  1  0.82831360  0.66557701  0.66919409  1
  Te  Te162  1  -0.00011588  0.16607285  -0.00043902  1
  Te  Te163  1  0.00398288  0.16997972  0.33184368  1
  Te  Te164  1  -0.00091266  0.16869628  0.66660009  1
  Te  Te165  1  -0.00048996  0.50044514  -0.00870092  1
  Te  Te166  1  -0.00115649  0.49806594  0.33407975  1
  Te  Te167  1  0.00008540  0.49736435  0.66945216  1
  Te  Te168  1  0.00200678  0.83258434  0.00067940  1
  Te  Te169  1  0.00233535  0.83373907  0.33278924  1
  Te  Te170  1  -0.00076781  0.83451366  0.66689542  1
  Te  Te171  1  0.33742613  0.16606958  -0.00087216  1
  Te  Te172  1  0.33329101  0.16828289  0.33318476  1
  Te  Te173  1  0.33526598  0.16622862  0.66965209  1
  Te  Te174  1  0.33347166  0.49958093  -0.00461115  1
  Te  Te175  1  0.33768184  0.49753907  0.33303508  1
  Te  Te176  1  0.33420423  0.50042155  0.67105513  1
  Te  Te177  1  0.33551480  0.84059758  -0.00704636  1
  Te  Te178  1  0.34045136  0.83520714  0.33289898  1
  Te  Te179  1  0.33746306  0.83553967  0.67275230  1
  Te  Te180  1  0.66185637  0.16790830  -0.00442873  1
  Te  Te181  1  0.66386111  0.16336440  0.33193003  1
  Te  Te182  1  0.66780430  0.16143331  0.66814081  1
  Te  Te183  1  0.66613075  0.50316840  -0.00435756  1
  Te  Te184  1  0.66240066  0.49722198  0.33352068  1
  Te  Te185  1  0.66713823  0.49228411  0.66873047  1
  Te  Te186  1  0.66802949  0.82494315  -0.00426578  1
  Te  Te187  1  0.66402765  0.83654768  0.33692955  1
  Te  Te188  1  0.66734791  0.83661588  0.66536970  1
  Te  Te189  1  -0.00129695  0.00650081  0.16785143  1
  Te  Te190  1  0.00126622  -0.00065813  0.50588242  1
  Te  Te191  1  -0.00232057  0.00335957  0.82868378  1
  Te  Te192  1  -0.00345822  0.33106760  0.16467634  1
  Te  Te193  1  -0.00058987  0.33532160  0.50158053  1
  Te  Te194  1  -0.00102163  0.32981126  0.83187316  1
  Te  Te195  1  0.00036966  0.66921379  0.17129987  1
  Te  Te196  1  0.00126296  0.66216021  0.49460142  1
  Te  Te197  1  -0.00886596  0.66671982  0.83374131  1
  Te  Te198  1  0.33644703  0.00527030  0.17309383  1
  Te  Te199  1  0.33551755  0.00570828  0.50343460  1
  Te  Te200  1  0.33434022  0.00726271  0.82958427  1
  Te  Te201  1  0.33186556  0.32763836  0.17240212  1
  Te  Te202  1  0.33538832  0.33059212  0.50087800  1
  Te  Te203  1  0.33294712  0.33163225  0.83029252  1
  Te  Te204  1  0.33939652  0.66450339  0.16416803  1
  Te  Te205  1  0.33826112  0.66526311  0.49939796  1
  Te  Te206  1  0.32943297  0.65429700  0.83493881  1
  Te  Te207  1  0.66493547  -0.00357786  0.16166283  1
  Te  Te208  1  0.66525429  0.00428854  0.50037251  1
  Te  Te209  1  0.66522727  -0.00097664  0.83548886  1
  Te  Te210  1  0.67257077  0.33421999  0.16191403  1
  Te  Te211  1  0.66225159  0.32434651  0.49921676  1
  Te  Te212  1  0.66568517  0.33388790  0.83690856  1
  Te  Te213  1  0.66318158  0.66924316  0.17822552  1
  Te  Te214  1  0.66180060  0.66028933  0.50125880  1
  Te  Te215  1  0.66858340  0.66515176  0.82736943  1
