# generated using pymatgen
data_AgSbTe2
_symmetry_space_group_name_H-M   'P 1'
_cell_length_a   18.33057627
_cell_length_b   18.32981826
_cell_length_c   18.33975628
_cell_angle_alpha   90.00039750
_cell_angle_beta   90.00021387
_cell_angle_gamma   90.00329101
_symmetry_Int_Tables_number   1
_chemical_formula_structural   AgSbTe2
_chemical_formula_sum   'Ag54 Sb54 Te108'
_cell_volume   6162.08715516
_cell_formula_units_Z   54
loop_
 _symmetry_equiv_pos_site_id
 _symmetry_equiv_pos_as_xyz
  1  'x, y, z'
loop_
 _atom_site_type_symbol
 _atom_site_label
 _atom_site_symmetry_multiplicity
 _atom_site_fract_x
 _atom_site_fract_y
 _atom_site_fract_z
 _atom_site_occupancy
  Ag  Ag0  1  0.32751816  0.32571343  0.33879675  1
  Ag  Ag1  1  0.33645763  0.00221452  -0.00202951  1
  Ag  Ag2  1  0.67035687  0.84269697  0.49989725  1
  Ag  Ag3  1  0.33762290  0.17054592  0.49806096  1
  Ag  Ag4  1  0.83859541  0.00805296  0.83166902  1
  Ag  Ag5  1  0.82966513  0.16288594  -0.01422306  1
  Ag  Ag6  1  0.17050431  0.17115017  0.33398818  1
  Ag  Ag7  1  0.83441075  0.66274559  0.16221274  1
  Ag  Ag8  1  0.16550845  0.00891450  0.83636455  1
  Ag  Ag9  1  0.50303062  0.84042585  0.66878599  1
  Ag  Ag10  1  0.84505661  0.32167171  0.82821523  1
  Ag  Ag11  1  0.83637622  0.16813758  0.33779126  1
  Ag  Ag12  1  0.33409121  0.00423459  0.66867492  1
  Ag  Ag13  1  0.82877136  0.16240198  0.67235544  1
  Ag  Ag14  1  -0.00829705  0.83570510  0.83466906  1
  Ag  Ag15  1  0.16838575  0.65702643  0.50100508  1
  Ag  Ag16  1  0.16675373  0.49875672  0.66564893  1
  Ag  Ag17  1  -0.00164367  0.33487703  0.66831963  1
  Ag  Ag18  1  0.66785545  0.00188808  0.00034352  1
  Ag  Ag19  1  0.16042698  0.49050051  0.33824268  1
  Ag  Ag20  1  0.49950922  0.16491572  0.66841145  1
  Ag  Ag21  1  0.33514498  0.16124231  0.17348036  1
  Ag  Ag22  1  0.33369431  0.66757644  0.66804420  1
  Ag  Ag23  1  0.17345377  0.00237612  0.16139420  1
  Ag  Ag24  1  0.15764266  0.49818333  -0.01139336  1
  Ag  Ag25  1  0.83291956  0.83654428  0.33367728  1
  Ag  Ag26  1  0.83168543  0.83776876  -0.00770682  1
  Ag  Ag27  1  0.67455079  0.16359913  0.50156637  1
  Ag  Ag28  1  0.83821217  0.49963900  0.00229506  1
  Ag  Ag29  1  0.83223300  0.66933280  0.83684119  1
  Ag  Ag30  1  0.49586830  0.32896188  0.82721457  1
  Ag  Ag31  1  0.49860677  0.32895211  0.50522838  1
  Ag  Ag32  1  0.32126088  0.49078481  0.82804145  1
  Ag  Ag33  1  -0.00289106  0.50084889  0.16918988  1
  Ag  Ag34  1  0.00288150  0.49059791  0.83362497  1
  Ag  Ag35  1  0.50698047  0.83997194  -0.00482300  1
  Ag  Ag36  1  0.16194685  0.33099712  0.83284707  1
  Ag  Ag37  1  0.50211759  0.66538050  0.83094298  1
  Ag  Ag38  1  0.33255080  0.16810701  0.82960436  1
  Ag  Ag39  1  0.00522243  0.49544267  0.49524982  1
  Ag  Ag40  1  0.49415137  0.00130876  0.16446526  1
  Ag  Ag41  1  0.83328632  0.32881884  0.50178849  1
  Ag  Ag42  1  -0.01015211  0.17392056  0.83187949  1
  Ag  Ag43  1  0.84199232  0.49253016  0.32629605  1
  Ag  Ag44  1  0.33240340  0.00789224  0.33146836  1
  Ag  Ag45  1  0.67821891  0.16708247  0.83070486  1
  Ag  Ag46  1  0.66884798  0.16570557  0.16635885  1
  Ag  Ag47  1  0.67889088  0.49471507  0.16571636  1
  Ag  Ag48  1  0.32296266  0.49207167  0.50452595  1
  Ag  Ag49  1  0.83143117  0.84132080  0.67567799  1
  Ag  Ag50  1  0.83159481  0.01175908  0.50532395  1
  Ag  Ag51  1  0.50435458  0.83729430  0.33569017  1
  Ag  Ag52  1  -0.00619442  0.83189157  0.16400513  1
  Ag  Ag53  1  0.00109925  0.33554217  0.33920009  1
  Sb  Sb54  1  0.00134686  0.00577267  0.33295018  1
  Sb  Sb55  1  0.83589568  0.66395948  0.50132089  1
  Sb  Sb56  1  0.32905996  0.33090246  0.66493327  1
  Sb  Sb57  1  0.50429560  0.00458029  0.49889790  1
  Sb  Sb58  1  0.32791846  0.49382263  0.16718301  1
  Sb  Sb59  1  -0.00147624  0.00004102  -0.00206795  1
  Sb  Sb60  1  0.67109112  0.67222690  -0.00079182  1
  Sb  Sb61  1  0.33277498  0.83661272  0.83146142  1
  Sb  Sb62  1  -0.00167753  0.33500294  -0.00282968  1
  Sb  Sb63  1  0.66946277  0.33026862  0.33436523  1
  Sb  Sb64  1  0.16543408  0.32983731  0.16635491  1
  Sb  Sb65  1  0.49720360  0.16358745  0.33797243  1
  Sb  Sb66  1  0.49889911  0.32632228  0.16736340  1
  Sb  Sb67  1  0.66836400  0.66791250  0.33262427  1
  Sb  Sb68  1  0.67213661  0.33027045  0.66721541  1
  Sb  Sb69  1  0.67364530  0.49312201  0.83796715  1
  Sb  Sb70  1  0.66397530  0.67052205  0.66888397  1
  Sb  Sb71  1  0.16135737  0.66734327  0.17088231  1
  Sb  Sb72  1  0.67189248  0.83701605  0.16826513  1
  Sb  Sb73  1  0.33357715  0.32795630  -0.00286923  1
  Sb  Sb74  1  0.83373886  -0.00026679  0.16433503  1
  Sb  Sb75  1  0.16383992  0.83631218  0.33326456  1
  Sb  Sb76  1  0.50398726  0.16181693  -0.00564135  1
  Sb  Sb77  1  0.16544391  0.33601887  0.50124203  1
  Sb  Sb78  1  -0.00215884  0.16807570  0.16469053  1
  Sb  Sb79  1  0.49589665  0.66479108  0.50609863  1
  Sb  Sb80  1  0.16471586  0.66198687  0.82962810  1
  Sb  Sb81  1  0.16340799  0.83214265  -0.00171110  1
  Sb  Sb82  1  0.00173085  0.66175811  0.66871620  1
  Sb  Sb83  1  0.50294410  0.50361508  -0.00279045  1
  Sb  Sb84  1  0.16747939  0.17133534  0.66664541  1
  Sb  Sb85  1  -0.00017192  0.00468327  0.66991919  1
  Sb  Sb86  1  -0.00760805  0.82936347  0.50045983  1
  Sb  Sb87  1  0.33811652  0.83682130  0.50142375  1
  Sb  Sb88  1  -0.00333021  0.17364926  0.50371397  1
  Sb  Sb89  1  0.66512998  0.00164233  0.32985985  1
  Sb  Sb90  1  -0.00147625  0.66461938  -0.00180274  1
  Sb  Sb91  1  0.16583517  0.00058060  0.50192044  1
  Sb  Sb92  1  0.66654541  0.00312836  0.67140360  1
  Sb  Sb93  1  0.84030337  0.49733658  0.67007611  1
  Sb  Sb94  1  0.49207819  0.49510982  0.66812104  1
  Sb  Sb95  1  0.83435716  0.33659305  0.16761163  1
  Sb  Sb96  1  0.49875750  0.00223396  0.83492460  1
  Sb  Sb97  1  0.49906967  0.50113805  0.33358792  1
  Sb  Sb98  1  0.33483663  0.66959693  -0.00717476  1
  Sb  Sb99  1  0.16423436  0.83075171  0.66857070  1
  Sb  Sb100  1  0.67076678  0.84115841  0.83126497  1
  Sb  Sb101  1  0.33236372  0.66590197  0.33837996  1
  Sb  Sb102  1  0.50538839  0.67336686  0.16170137  1
  Sb  Sb103  1  0.16466039  0.16784982  -0.00193144  1
  Sb  Sb104  1  0.66958068  0.32701348  -0.00147325  1
  Sb  Sb105  1  -0.00182780  0.65867674  0.33378774  1
  Sb  Sb106  1  0.67079871  0.49569079  0.49563119  1
  Sb  Sb107  1  0.33162084  0.84126734  0.16677296  1
  Te  Te108  1  0.16707001  0.16245161  0.16687010  1
  Te  Te109  1  0.17065861  0.16506630  0.49569916  1
  Te  Te110  1  0.17318907  0.16791520  0.83337126  1
  Te  Te111  1  0.16183620  0.50076182  0.17221509  1
  Te  Te112  1  0.16617383  0.49750205  0.49936903  1
  Te  Te113  1  0.16489475  0.50097922  0.83215028  1
  Te  Te114  1  0.15808894  0.83687871  0.16629266  1
  Te  Te115  1  0.16449952  0.82788520  0.50024082  1
  Te  Te116  1  0.15880155  0.83644265  0.83398069  1
  Te  Te117  1  0.50126304  0.16219955  0.16529796  1
  Te  Te118  1  0.49796855  0.16869331  0.50444290  1
  Te  Te119  1  0.49149544  0.16723408  0.82938800  1
  Te  Te120  1  0.50061575  0.50132251  0.16614755  1
  Te  Te121  1  0.50047814  0.49364560  0.49940817  1
  Te  Te122  1  0.50177550  0.49978606  0.83406426  1
  Te  Te123  1  0.50140823  0.83767546  0.16673355  1
  Te  Te124  1  0.50545009  0.83325513  0.50198047  1
  Te  Te125  1  0.50180889  0.83283264  0.83063489  1
  Te  Te126  1  0.83117808  0.16768292  0.17511305  1
  Te  Te127  1  0.83468755  0.16843625  0.49776307  1
  Te  Te128  1  0.83370665  0.16539793  0.82978006  1
  Te  Te129  1  0.83677156  0.49922525  0.16528176  1
  Te  Te130  1  0.83484359  0.49490555  0.49869303  1
  Te  Te131  1  0.83705353  0.50448708  0.83572064  1
  Te  Te132  1  0.83471277  0.83223781  0.16846298  1
  Te  Te133  1  0.83016572  0.82986977  0.49681412  1
  Te  Te134  1  0.83125148  0.83109305  0.83328846  1
  Te  Te135  1  0.17131802  0.00007043  -0.00238929  1
  Te  Te136  1  0.17071248  0.00403487  0.33328680  1
  Te  Te137  1  0.17177439  -0.00076636  0.67119878  1
  Te  Te138  1  0.16753449  0.33887558  -0.00564761  1
  Te  Te139  1  0.16696093  0.33137351  0.33177720  1
  Te  Te140  1  0.16024140  0.33740243  0.67337105  1
  Te  Te141  1  0.16912559  0.65869137  0.00201600  1
  Te  Te142  1  0.16758783  0.66367875  0.33896581  1
  Te  Te143  1  0.17154940  0.66348748  0.66294111  1
  Te  Te144  1  0.49815564  -0.00234845  0.00131195  1
  Te  Te145  1  0.49538225  -0.00362596  0.33063119  1
  Te  Te146  1  0.49612140  0.00043897  0.66655292  1
  Te  Te147  1  0.50070536  0.33399429  -0.00664191  1
  Te  Te148  1  0.49398626  0.33377637  0.33719621  1
  Te  Te149  1  0.50038785  0.32846756  0.66617941  1
  Te  Te150  1  0.50133351  0.67686844  -0.00667693  1
  Te  Te151  1  0.49969639  0.67553241  0.33247278  1
  Te  Te152  1  0.49561073  0.66904242  0.67154608  1
  Te  Te153  1  0.83218409  -0.00008707  -0.00115595  1
  Te  Te154  1  0.83391763  0.00122529  0.33345502  1
  Te  Te155  1  0.83398909  0.00115489  0.66751723  1
  Te  Te156  1  0.83239894  0.33281018  -0.00748163  1
  Te  Te157  1  0.83484975  0.33403131  0.33491337  1
  Te  Te158  1  0.83781859  0.33097947  0.66715129  1
  Te  Te159  1  0.83346548  0.66795069  -0.00008216  1
  Te  Te160  1  0.83297993  0.67004696  0.33138203  1
  Te  Te161  1  0.83249049  0.67003927  0.67023831  1
  Te  Te162  1  -0.00736597  0.16757124  -0.00521234  1
  Te  Te163  1  0.00054468  0.17283826  0.33322825  1
  Te  Te164  1  -0.00248818  0.17150583  0.67119551  1
  Te  Te165  1  -0.00161565  0.49916882  -0.00106458  1
  Te  Te166  1  -0.00038797  0.49705841  0.33339204  1
  Te  Te167  1  0.00474164  0.49619062  0.67118488  1
  Te  Te168  1  -0.00481538  0.83337399  -0.00056750  1
  Te  Te169  1  -0.00493829  0.83489977  0.33137162  1
  Te  Te170  1  -0.00621637  0.83327503  0.66961732  1
  Te  Te171  1  0.33308623  0.16183015  -0.00040883  1
  Te  Te172  1  0.33521176  0.16563862  0.33420447  1
  Te  Te173  1  0.33312642  0.16470216  0.66672828  1
  Te  Te174  1  0.33398263  0.50014707  -0.00361437  1
  Te  Te175  1  0.33052555  0.49766677  0.33634842  1
  Te  Te176  1  0.32891075  0.50058611  0.66727795  1
  Te  Te177  1  0.33494530  0.83967531  -0.00021357  1
  Te  Te178  1  0.33458590  0.83704226  0.33443915  1
  Te  Te179  1  0.33572330  0.83408711  0.66554540  1
  Te  Te180  1  0.67014158  0.16178354  0.00133208  1
  Te  Te181  1  0.67019885  0.16635506  0.33509504  1
  Te  Te182  1  0.66663422  0.16650876  0.66508463  1
  Te  Te183  1  0.67168680  0.50015766  0.00596849  1
  Te  Te184  1  0.67105679  0.49964045  0.32702583  1
  Te  Te185  1  0.66542451  0.50148818  0.66585811  1
  Te  Te186  1  0.66856727  0.84001984  0.00017864  1
  Te  Te187  1  0.66819830  0.83480122  0.33669300  1
  Te  Te188  1  0.66707135  0.83650800  0.66242443  1
  Te  Te189  1  0.00642487  -0.00155610  0.16621396  1
  Te  Te190  1  -0.00746954  -0.00123753  0.50129103  1
  Te  Te191  1  0.00000450  -0.00068109  0.83282635  1
  Te  Te192  1  0.00092897  0.33864406  0.17436059  1
  Te  Te193  1  -0.00353767  0.33678734  0.50036984  1
  Te  Te194  1  0.00109457  0.33325880  0.83392333  1
  Te  Te195  1  -0.00541335  0.66711216  0.16733418  1
  Te  Te196  1  0.00510118  0.65805302  0.50152727  1
  Te  Te197  1  -0.00366446  0.67106459  0.83218210  1
  Te  Te198  1  0.33282404  0.00239175  0.16798007  1
  Te  Te199  1  0.33333531  0.00430151  0.50150726  1
  Te  Te200  1  0.33188042  0.00129296  0.83239865  1
  Te  Te201  1  0.33373622  0.32446893  0.17177428  1
  Te  Te202  1  0.33328980  0.33271369  0.49916223  1
  Te  Te203  1  0.33355092  0.33354448  0.83315422  1
  Te  Te204  1  0.33430240  0.66618401  0.16642007  1
  Te  Te205  1  0.33055180  0.66318235  0.50552524  1
  Te  Te206  1  0.33541925  0.66598833  0.82862528  1
  Te  Te207  1  0.66330027  0.00430589  0.16241130  1
  Te  Te208  1  0.67165008  0.00268552  0.49859333  1
  Te  Te209  1  0.67182068  0.00732095  0.83887156  1
  Te  Te210  1  0.66420671  0.32977600  0.16654511  1
  Te  Te211  1  0.66640070  0.32732181  0.50052123  1
  Te  Te212  1  0.66059748  0.32593594  0.83298100  1
  Te  Te213  1  0.67292435  0.66037589  0.16602277  1
  Te  Te214  1  0.66562004  0.66942261  0.50073772  1
  Te  Te215  1  0.66630320  0.66335361  0.83346610  1
