# generated using pymatgen
data_AgSbTe2
_symmetry_space_group_name_H-M   'P 1'
_cell_length_a   18.36636034
_cell_length_b   18.37275118
_cell_length_c   18.36518923
_cell_angle_alpha   90.00117102
_cell_angle_beta   90.00386222
_cell_angle_gamma   89.99942981
_symmetry_Int_Tables_number   1
_chemical_formula_structural   AgSbTe2
_chemical_formula_sum   'Ag54 Sb54 Te108'
_cell_volume   6197.15988226
_cell_formula_units_Z   54
loop_
 _symmetry_equiv_pos_site_id
 _symmetry_equiv_pos_as_xyz
  1  'x, y, z'
loop_
 _atom_site_type_symbol
 _atom_site_label
 _atom_site_symmetry_multiplicity
 _atom_site_fract_x
 _atom_site_fract_y
 _atom_site_fract_z
 _atom_site_occupancy
  Ag  Ag0  1  0.33315597  0.49721195  0.83694620  1
  Ag  Ag1  1  0.49722052  0.32793100  0.83850901  1
  Ag  Ag2  1  0.65653962  0.32245545  0.33119992  1
  Ag  Ag3  1  -0.00846721  0.84590894  0.17540732  1
  Ag  Ag4  1  0.33980729  0.32849250  0.32964393  1
  Ag  Ag5  1  0.17174831  0.16364408  0.66086924  1
  Ag  Ag6  1  0.83384669  0.00113689  0.49884900  1
  Ag  Ag7  1  0.33076922  0.17080691  0.16797803  1
  Ag  Ag8  1  0.83185689  0.00419360  0.84286698  1
  Ag  Ag9  1  0.65498278  0.49740364  0.17283428  1
  Ag  Ag10  1  0.65995740  0.16330073  0.49813749  1
  Ag  Ag11  1  0.33660477  0.48559669  0.17111053  1
  Ag  Ag12  1  0.83602377  0.16213186  0.01342157  1
  Ag  Ag13  1  0.16802511  0.00631299  0.17560953  1
  Ag  Ag14  1  0.33269402  0.33148288  0.01541599  1
  Ag  Ag15  1  0.66835948  0.16080046  0.82708804  1
  Ag  Ag16  1  -0.00776757  0.00445752  0.00361608  1
  Ag  Ag17  1  0.33569946  0.00044918  0.65631226  1
  Ag  Ag18  1  0.49308201  0.32300246  0.49132669  1
  Ag  Ag19  1  0.00135095  0.16540210  0.16791583  1
  Ag  Ag20  1  0.82979742  0.68130367  0.49592965  1
  Ag  Ag21  1  0.49577674  0.16352351  0.65294904  1
  Ag  Ag22  1  0.67342839  0.00353378  0.01080490  1
  Ag  Ag23  1  0.50447852  0.15806258  0.33464187  1
  Ag  Ag24  1  0.33472337  0.83950196  0.82927921  1
  Ag  Ag25  1  0.50309688  0.84561249  0.33365544  1
  Ag  Ag26  1  0.83138753  0.32964140  0.16954606  1
  Ag  Ag27  1  0.34169862  0.00269003  0.33663932  1
  Ag  Ag28  1  0.00318439  0.49118286  0.50059530  1
  Ag  Ag29  1  0.66876076  0.84121462  0.17272777  1
  Ag  Ag30  1  0.49324602  0.32712391  0.17432634  1
  Ag  Ag31  1  0.65735614  0.68009875  0.33270316  1
  Ag  Ag32  1  0.82105512  0.84125885  0.33088943  1
  Ag  Ag33  1  0.65723924  0.00352638  0.65247382  1
  Ag  Ag34  1  -0.00156598  0.84417644  0.49472574  1
  Ag  Ag35  1  -0.00480084  0.16109556  0.84443794  1
  Ag  Ag36  1  0.82588872  0.16186487  0.33236284  1
  Ag  Ag37  1  0.16124717  0.00505820  0.49906902  1
  Ag  Ag38  1  0.00349875  0.32234390  0.00652914  1
  Ag  Ag39  1  0.49782351  0.00441884  0.17916867  1
  Ag  Ag40  1  0.17383341  0.84581636  0.66263756  1
  Ag  Ag41  1  0.16919928  0.49256316  0.33670207  1
  Ag  Ag42  1  -0.00086773  0.16512629  0.49623190  1
  Ag  Ag43  1  0.65844546  0.00263956  0.33410892  1
  Ag  Ag44  1  0.50449497  0.00292041  0.49446483  1
  Ag  Ag45  1  0.50156419  0.67670344  0.17661767  1
  Ag  Ag46  1  0.00457798  0.00217401  0.65344833  1
  Ag  Ag47  1  0.50444117  0.68118732  0.49018752  1
  Ag  Ag48  1  0.16889571  0.49177650  0.65546131  1
  Ag  Ag49  1  0.83396158  0.84508006  0.01468605  1
  Ag  Ag50  1  0.16961746  0.32295991  0.49563659  1
  Ag  Ag51  1  0.49532052  0.84619226  0.65206788  1
  Ag  Ag52  1  0.34174108  0.67401531  0.33257564  1
  Ag  Ag53  1  0.17897151  0.32598827  0.17620014  1
  Sb  Sb54  1  0.33426560  0.83675837  0.50206424  1
  Sb  Sb55  1  0.33334599  0.32816927  0.66169037  1
  Sb  Sb56  1  0.66199903  0.48988512  0.83782211  1
  Sb  Sb57  1  0.83435562  0.49331916  0.00272320  1
  Sb  Sb58  1  0.83639395  0.49869788  0.33294312  1
  Sb  Sb59  1  0.33438874  0.83744606  0.16626074  1
  Sb  Sb60  1  0.50596265  0.16594420  0.00496127  1
  Sb  Sb61  1  0.17113377  0.16681845  0.33455197  1
  Sb  Sb62  1  0.50261179  0.83757189  0.00619213  1
  Sb  Sb63  1  0.33019254  0.49923609  0.49409151  1
  Sb  Sb64  1  0.49958116  0.66626684  0.83136802  1
  Sb  Sb65  1  0.00188347  0.84353308  0.83059702  1
  Sb  Sb66  1  0.33376828  0.16684337  0.83590099  1
  Sb  Sb67  1  0.83858809  0.50148268  0.66390395  1
  Sb  Sb68  1  0.66855301  0.84530338  0.49100951  1
  Sb  Sb69  1  0.83431055  0.32548864  0.49332716  1
  Sb  Sb70  1  0.16247373  0.83931524  -0.00218676  1
  Sb  Sb71  1  0.33341344  0.00446145  0.00482861  1
  Sb  Sb72  1  0.00093707  0.67408536  0.66244979  1
  Sb  Sb73  1  0.16815399  0.66981596  0.49878647  1
  Sb  Sb74  1  0.83205216  0.00465464  0.16935846  1
  Sb  Sb75  1  0.00243505  0.32184240  0.66706490  1
  Sb  Sb76  1  0.17193552  0.66564862  0.17076125  1
  Sb  Sb77  1  0.66662991  0.67404498  0.00959965  1
  Sb  Sb78  1  0.66643073  0.16514908  0.17351261  1
  Sb  Sb79  1  0.16908550  0.83521712  0.33678449  1
  Sb  Sb80  1  0.33538834  0.66206185  0.00517586  1
  Sb  Sb81  1  0.82708113  0.66813241  0.17379109  1
  Sb  Sb82  1  0.66303038  0.84207662  0.83797106  1
  Sb  Sb83  1  0.50439348  0.00419153  0.82823306  1
  Sb  Sb84  1  0.00496643  0.48924220  0.82743121  1
  Sb  Sb85  1  0.33502413  0.16348542  0.49273759  1
  Sb  Sb86  1  0.49534846  0.49870810  0.33166558  1
  Sb  Sb87  1  -0.00295242  0.67310745  0.00236328  1
  Sb  Sb88  1  0.00080416  0.66782564  0.33580007  1
  Sb  Sb89  1  -0.00214917  0.00312068  0.33280569  1
  Sb  Sb90  1  0.00190201  0.32947184  0.33025348  1
  Sb  Sb91  1  0.83178006  0.84185605  0.65947025  1
  Sb  Sb92  1  0.16043598  0.16634058  0.00142203  1
  Sb  Sb93  1  0.83096845  0.67881904  0.82779153  1
  Sb  Sb94  1  0.33458024  0.66963395  0.66114614  1
  Sb  Sb95  1  0.16737706  0.66679053  0.83041385  1
  Sb  Sb96  1  0.16311718  0.00240502  0.82598602  1
  Sb  Sb97  1  0.66529131  0.32536552  0.00880465  1
  Sb  Sb98  1  0.49511640  0.49434873  0.66499709  1
  Sb  Sb99  1  0.00530541  0.49362027  0.17061626  1
  Sb  Sb100  1  0.49888408  0.49572295  0.00556745  1
  Sb  Sb101  1  0.66368336  0.32508588  0.66021814  1
  Sb  Sb102  1  0.66281898  0.67732638  0.65567805  1
  Sb  Sb103  1  0.17063221  0.33055367  0.83277683  1
  Sb  Sb104  1  0.16857396  0.49516839  0.00341241  1
  Sb  Sb105  1  0.83287213  0.16155836  0.66271426  1
  Sb  Sb106  1  0.66894823  0.49529431  0.49171119  1
  Sb  Sb107  1  0.82958776  0.32205266  0.83947545  1
  Te  Te108  1  0.16399889  0.16751000  0.16669420  1
  Te  Te109  1  0.16665621  0.16550173  0.50006580  1
  Te  Te110  1  0.16234686  0.16755949  0.82494799  1
  Te  Te111  1  0.17277590  0.49761872  0.17124077  1
  Te  Te112  1  0.16388560  0.50482782  0.49819203  1
  Te  Te113  1  0.17203789  0.49933893  0.83112104  1
  Te  Te114  1  0.16172161  0.83579950  0.16569963  1
  Te  Te115  1  0.16220771  0.83557069  0.50385078  1
  Te  Te116  1  0.17112082  0.83264422  0.82588652  1
  Te  Te117  1  0.49936612  0.16609277  0.16945600  1
  Te  Te118  1  0.49812250  0.16427771  0.49584497  1
  Te  Te119  1  0.50128826  0.16942861  0.83750703  1
  Te  Te120  1  0.49714455  0.48993916  0.16605321  1
  Te  Te121  1  0.50195184  0.49281476  0.50531196  1
  Te  Te122  1  0.49598945  0.49524233  0.83373573  1
  Te  Te123  1  0.50163728  0.83564228  0.17122084  1
  Te  Te124  1  0.50069201  0.83662405  0.49610431  1
  Te  Te125  1  0.49495108  0.83193213  0.83643759  1
  Te  Te126  1  0.83363014  0.16927704  0.16990475  1
  Te  Te127  1  0.83666292  0.16297249  0.49569846  1
  Te  Te128  1  0.83424759  0.16069745  0.82975700  1
  Te  Te129  1  0.83514390  0.49767808  0.16561027  1
  Te  Te130  1  0.84173917  0.49491442  0.50120618  1
  Te  Te131  1  0.83358212  0.50180570  0.83303200  1
  Te  Te132  1  0.83313443  0.82916199  0.17118117  1
  Te  Te133  1  0.83518132  0.83767243  0.49464923  1
  Te  Te134  1  0.83284419  0.84182879  0.83402924  1
  Te  Te135  1  0.16498621  0.00058085  0.00780492  1
  Te  Te136  1  0.17529017  -0.00088779  0.33626473  1
  Te  Te137  1  0.16777017  0.00257012  0.66506594  1
  Te  Te138  1  0.16724072  0.33222644  0.00223969  1
  Te  Te139  1  0.16714272  0.33304868  0.33435645  1
  Te  Te140  1  0.16660428  0.33328784  0.66165938  1
  Te  Te141  1  0.16598086  0.66712410  0.00010608  1
  Te  Te142  1  0.17432618  0.66397258  0.33353074  1
  Te  Te143  1  0.16710709  0.66413651  0.66621052  1
  Te  Te144  1  0.50265454  0.00006150  0.00334160  1
  Te  Te145  1  0.49777827  0.00156927  0.33388900  1
  Te  Te146  1  0.49804772  0.00264507  0.66710814  1
  Te  Te147  1  0.49586272  0.33185657  -0.00173258  1
  Te  Te148  1  0.50019383  0.33637590  0.33349693  1
  Te  Te149  1  0.50023713  0.32587783  0.66324634  1
  Te  Te150  1  0.50079694  0.66725378  0.00583211  1
  Te  Te151  1  0.49955375  0.65920677  0.33297089  1
  Te  Te152  1  0.50034689  0.67186949  0.66206117  1
  Te  Te153  1  0.83359941  0.00293263  0.00579473  1
  Te  Te154  1  0.83267772  -0.00102770  0.33607869  1
  Te  Te155  1  0.83547989  -0.00014536  0.65843284  1
  Te  Te156  1  0.83655901  0.32698133  0.00539394  1
  Te  Te157  1  0.83301285  0.33029710  0.32889101  1
  Te  Te158  1  0.83352004  0.33497023  0.66924146  1
  Te  Te159  1  0.83275504  0.67146519  -0.00352559  1
  Te  Te160  1  0.83277978  0.66788614  0.33849959  1
  Te  Te161  1  0.83164616  0.66982001  0.65820369  1
  Te  Te162  1  -0.00121856  0.16480093  0.00332635  1
  Te  Te163  1  -0.00723240  0.16790349  0.33244547  1
  Te  Te164  1  0.00070613  0.16089445  0.65680692  1
  Te  Te165  1  0.00059058  0.49861050  -0.00331775  1
  Te  Te166  1  0.00722780  0.50048700  0.33895555  1
  Te  Te167  1  0.00623893  0.50108863  0.66301355  1
  Te  Te168  1  -0.00511181  0.83898346  0.00138792  1
  Te  Te169  1  0.00254129  0.83184184  0.33321030  1
  Te  Te170  1  0.00097160  0.84108876  0.66277009  1
  Te  Te171  1  0.33262697  0.17233306  0.00403117  1
  Te  Te172  1  0.33684430  0.16626106  0.32699215  1
  Te  Te173  1  0.33411774  0.16082378  0.67078823  1
  Te  Te174  1  0.33323050  0.49380111  0.00169464  1
  Te  Te175  1  0.32795165  0.49022550  0.33148045  1
  Te  Te176  1  0.32864688  0.50119275  0.66781403  1
  Te  Te177  1  0.33255461  0.83112536  -0.00743535  1
  Te  Te178  1  0.33881727  0.83380437  0.33151953  1
  Te  Te179  1  0.33464077  0.83525361  0.66820578  1
  Te  Te180  1  0.67208653  0.16369988  -0.00650318  1
  Te  Te181  1  0.66511033  0.16440218  0.33446955  1
  Te  Te182  1  0.66294036  0.16250693  0.66382619  1
  Te  Te183  1  0.66790549  0.50106563  0.00646641  1
  Te  Te184  1  0.67241200  0.49597916  0.32845858  1
  Te  Te185  1  0.66735977  0.50145052  0.66935993  1
  Te  Te186  1  0.67187555  0.83972506  0.00592185  1
  Te  Te187  1  0.66416271  0.83513580  0.33113978  1
  Te  Te188  1  0.65993178  0.84214216  0.66964179  1
  Te  Te189  1  0.00362241  0.00264779  0.16778538  1
  Te  Te190  1  0.00259790  0.00150077  0.49691499  1
  Te  Te191  1  -0.00350232  0.00405355  0.84043962  1
  Te  Te192  1  -0.00404425  0.33181239  0.16396528  1
  Te  Te193  1  0.00466792  0.33112671  0.50027128  1
  Te  Te194  1  -0.00109021  0.32424999  0.83915006  1
  Te  Te195  1  0.00019961  0.66689869  0.16654965  1
  Te  Te196  1  -0.00490351  0.66976157  0.50069790  1
  Te  Te197  1  -0.00210587  0.66464931  0.83272655  1
  Te  Te198  1  0.33343061  0.00332878  0.16840781  1
  Te  Te199  1  0.33309859  -0.00135005  0.49951565  1
  Te  Te200  1  0.33252610  -0.00093109  0.83649958  1
  Te  Te201  1  0.33300794  0.33126576  0.16962521  1
  Te  Te202  1  0.33127418  0.33350710  0.49579145  1
  Te  Te203  1  0.33687060  0.33614507  0.82840969  1
  Te  Te204  1  0.33898945  0.66853764  0.17121121  1
  Te  Te205  1  0.34067085  0.66708887  0.49306043  1
  Te  Te206  1  0.33404066  0.65983314  0.83506062  1
  Te  Te207  1  0.66392761  -0.00021822  0.16992438  1
  Te  Te208  1  0.66545362  0.00440307  0.49630702  1
  Te  Te209  1  0.67074542  0.00336824  0.83743144  1
  Te  Te210  1  0.66739771  0.33571255  0.16967618  1
  Te  Te211  1  0.66600897  0.32712497  0.49285407  1
  Te  Te212  1  0.66142647  0.32626493  0.83332788  1
  Te  Te213  1  0.66170176  0.66280963  0.17227274  1
  Te  Te214  1  0.66628376  0.66150657  0.49346007  1
  Te  Te215  1  0.66706714  0.66308429  0.83295749  1
