# generated using pymatgen
data_AgSbTe2
_symmetry_space_group_name_H-M   'P 1'
_cell_length_a   18.32043181
_cell_length_b   18.32056768
_cell_length_c   18.32432541
_cell_angle_alpha   89.99782268
_cell_angle_beta   89.99976239
_cell_angle_gamma   89.99881267
_symmetry_Int_Tables_number   1
_chemical_formula_structural   AgSbTe2
_chemical_formula_sum   'Ag54 Sb54 Te108'
_cell_volume   6150.38960277
_cell_formula_units_Z   54
loop_
 _symmetry_equiv_pos_site_id
 _symmetry_equiv_pos_as_xyz
  1  'x, y, z'
loop_
 _atom_site_type_symbol
 _atom_site_label
 _atom_site_symmetry_multiplicity
 _atom_site_fract_x
 _atom_site_fract_y
 _atom_site_fract_z
 _atom_site_occupancy
  Ag  Ag0  1  0.16895943  0.33783416  0.82346034  1
  Ag  Ag1  1  0.32706365  0.33332256  0.65632936  1
  Ag  Ag2  1  0.83703957  0.49898715  0.00646771  1
  Ag  Ag3  1  0.16838731  0.66308831  0.16479598  1
  Ag  Ag4  1  0.34116637  0.82903014  0.17060734  1
  Ag  Ag5  1  0.83526668  0.16906270  0.33696003  1
  Ag  Ag6  1  0.16262083  0.50121035  -0.00196335  1
  Ag  Ag7  1  0.66673386  0.16892790  0.16435819  1
  Ag  Ag8  1  0.66713112  0.66749116  0.66186158  1
  Ag  Ag9  1  0.16416549  0.00851013  0.49999563  1
  Ag  Ag10  1  0.33139778  0.33427794  0.34339239  1
  Ag  Ag11  1  0.66692441  0.83515477  0.83635598  1
  Ag  Ag12  1  -0.00193002  0.00649706  0.33777955  1
  Ag  Ag13  1  0.50582006  0.17227524  0.00090962  1
  Ag  Ag14  1  0.67542655  0.49808992  0.49494770  1
  Ag  Ag15  1  0.66542348  0.83505529  0.16812562  1
  Ag  Ag16  1  0.00083102  0.17708298  0.50088186  1
  Ag  Ag17  1  0.33063263  0.17778173  0.50177445  1
  Ag  Ag18  1  0.50153317  0.16527996  0.66949809  1
  Ag  Ag19  1  0.83186134  0.65541007  0.49820101  1
  Ag  Ag20  1  0.50167300  0.33380189  0.16864143  1
  Ag  Ag21  1  0.16063305  0.82538397  0.00235646  1
  Ag  Ag22  1  0.83572945  0.49717976  0.33554429  1
  Ag  Ag23  1  0.50310163  0.84047926  0.65989999  1
  Ag  Ag24  1  0.33431337  0.50140773  0.16946153  1
  Ag  Ag25  1  0.32547387  0.49326649  0.83542476  1
  Ag  Ag26  1  0.33109972  0.00311639  0.33351112  1
  Ag  Ag27  1  -0.00173892  0.01001108  0.65776705  1
  Ag  Ag28  1  0.33778884  0.17453001  0.82509415  1
  Ag  Ag29  1  0.83114089  0.00148407  0.83876463  1
  Ag  Ag30  1  0.50710303  0.00228508  0.16591484  1
  Ag  Ag31  1  -0.00041858  0.65977158  0.00204803  1
  Ag  Ag32  1  0.00547359  0.49657557  0.83677628  1
  Ag  Ag33  1  0.49996987  0.49304769  0.00437403  1
  Ag  Ag34  1  0.82773794  0.83649829  0.32938244  1
  Ag  Ag35  1  -0.00352503  0.48953217  0.49753777  1
  Ag  Ag36  1  0.50550172  0.83707485  0.33236705  1
  Ag  Ag37  1  0.48220977  0.33311548  0.49582905  1
  Ag  Ag38  1  0.66713067  0.82813751  0.49804956  1
  Ag  Ag39  1  -0.00056445  0.33404652  0.34155377  1
  Ag  Ag40  1  0.84979789  0.33637383  0.49677597  1
  Ag  Ag41  1  0.82764363  -0.00094721  0.16716558  1
  Ag  Ag42  1  0.66821577  0.49810753  0.16647137  1
  Ag  Ag43  1  0.33146778  0.48978515  0.49429839  1
  Ag  Ag44  1  0.33305480  0.65649329  0.33177033  1
  Ag  Ag45  1  0.50196350  0.00243692  0.83557873  1
  Ag  Ag46  1  0.83235063  0.83410738  0.00720377  1
  Ag  Ag47  1  0.00741395  0.33234411  0.65530399  1
  Ag  Ag48  1  0.66620994  0.33575983  0.00364722  1
  Ag  Ag49  1  0.83221904  0.16662753  0.65983481  1
  Ag  Ag50  1  0.16581977  0.49576101  0.66952860  1
  Ag  Ag51  1  0.82835948  0.16812282  0.00268748  1
  Ag  Ag52  1  0.16578823  0.33343322  0.50304073  1
  Ag  Ag53  1  -0.00617479  0.49911078  0.16453225  1
  Sb  Sb54  1  0.66752615  0.50260386  0.83498582  1
  Sb  Sb55  1  0.67117728  0.66292534  -0.00074572  1
  Sb  Sb56  1  0.82793578  0.33320890  0.17078100  1
  Sb  Sb57  1  0.83275943  0.66892868  0.83128192  1
  Sb  Sb58  1  -0.00559534  0.83337618  0.49833490  1
  Sb  Sb59  1  0.66819731  0.00448242  0.00237699  1
  Sb  Sb60  1  -0.00318109  0.66091858  0.66823401  1
  Sb  Sb61  1  0.49644148  0.00412038  0.49745483  1
  Sb  Sb62  1  0.50318882  0.16465554  0.33183667  1
  Sb  Sb63  1  0.33890745  0.83259035  0.49240859  1
  Sb  Sb64  1  0.16644326  0.00463680  0.82841855  1
  Sb  Sb65  1  0.66433977  0.16309197  0.83808313  1
  Sb  Sb66  1  0.66924131  -0.00198318  0.66777914  1
  Sb  Sb67  1  0.83747672  0.00359500  0.49614258  1
  Sb  Sb68  1  -0.00455673  0.83251790  0.83474589  1
  Sb  Sb69  1  0.66479329  0.66776473  0.33597455  1
  Sb  Sb70  1  0.16284554  0.65986706  0.49509913  1
  Sb  Sb71  1  0.33459320  0.00037151  0.00531483  1
  Sb  Sb72  1  0.00071021  0.17168030  0.82657433  1
  Sb  Sb73  1  0.16620254  0.17166471  -0.00243253  1
  Sb  Sb74  1  0.49999078  0.66876856  0.83341662  1
  Sb  Sb75  1  0.33063858  0.00827086  0.66130293  1
  Sb  Sb76  1  0.16673150  0.83401526  0.32980527  1
  Sb  Sb77  1  0.49483715  0.32824207  0.83448172  1
  Sb  Sb78  1  0.16259267  0.16688055  0.33527502  1
  Sb  Sb79  1  -0.00447742  0.33904436  0.00214567  1
  Sb  Sb80  1  0.16584093  -0.00475311  0.17082040  1
  Sb  Sb81  1  0.66977001  -0.00170734  0.33159644  1
  Sb  Sb82  1  0.16586464  0.65825314  0.83929488  1
  Sb  Sb83  1  0.32830363  0.66274651  0.00605011  1
  Sb  Sb84  1  0.00088052  0.66231394  0.33041137  1
  Sb  Sb85  1  0.17239413  0.82967787  0.67026650  1
  Sb  Sb86  1  0.34135723  0.16984903  0.17020061  1
  Sb  Sb87  1  -0.00925503  0.17240261  0.17320252  1
  Sb  Sb88  1  0.82749562  0.83813612  0.66480424  1
  Sb  Sb89  1  0.16679860  0.17559264  0.66275041  1
  Sb  Sb90  1  0.33884393  0.83427375  0.83883253  1
  Sb  Sb91  1  0.49730777  0.66564058  0.16815507  1
  Sb  Sb92  1  0.83509657  0.66645690  0.17019237  1
  Sb  Sb93  1  0.17123425  0.33986366  0.16913689  1
  Sb  Sb94  1  0.16462979  0.49782180  0.33190632  1
  Sb  Sb95  1  0.33776833  0.33613366  0.00043495  1
  Sb  Sb96  1  -0.00374660  -0.00134137  0.00308978  1
  Sb  Sb97  1  0.83724846  0.49451723  0.66277319  1
  Sb  Sb98  1  0.50533687  0.83516094  0.00503029  1
  Sb  Sb99  1  0.83734507  0.33026493  0.83110163  1
  Sb  Sb100  1  0.66781946  0.33510003  0.33145443  1
  Sb  Sb101  1  0.33753386  0.65891145  0.66007694  1
  Sb  Sb102  1  0.49641245  0.49507511  0.66774196  1
  Sb  Sb103  1  0.50039223  0.50017784  0.33017486  1
  Sb  Sb104  1  0.66610663  0.33574872  0.66601297  1
  Sb  Sb105  1  0.66866007  0.17094762  0.49628400  1
  Sb  Sb106  1  -0.00289632  0.82980190  0.16692795  1
  Sb  Sb107  1  0.50468959  0.66143281  0.49878922  1
  Te  Te108  1  0.16622222  0.16567947  0.16358677  1
  Te  Te109  1  0.16635024  0.16724531  0.49925475  1
  Te  Te110  1  0.17407962  0.17259714  0.83335801  1
  Te  Te111  1  0.17127210  0.50218936  0.16416368  1
  Te  Te112  1  0.16704727  0.49848974  0.50039578  1
  Te  Te113  1  0.16628284  0.49758054  0.83533638  1
  Te  Te114  1  0.16761658  0.82883555  0.16209379  1
  Te  Te115  1  0.16743210  0.83220531  0.50187258  1
  Te  Te116  1  0.16839978  0.83365555  0.84015784  1
  Te  Te117  1  0.50551629  0.16524691  0.16414134  1
  Te  Te118  1  0.49950862  0.17122443  0.50151824  1
  Te  Te119  1  0.49823044  0.16257535  0.83404031  1
  Te  Te120  1  0.50172537  0.49854358  0.16562212  1
  Te  Te121  1  0.49667088  0.49397018  0.49989639  1
  Te  Te122  1  0.49790262  0.49977749  0.83842475  1
  Te  Te123  1  0.50141328  0.83560969  0.16858642  1
  Te  Te124  1  0.50565870  0.83357092  0.49823913  1
  Te  Te125  1  0.50386979  0.83993367  0.83596717  1
  Te  Te126  1  0.82776985  0.16542423  0.16411958  1
  Te  Te127  1  0.83419520  0.17001648  0.49871088  1
  Te  Te128  1  0.83268092  0.16212977  0.83729111  1
  Te  Te129  1  0.83148361  0.49988764  0.16702556  1
  Te  Te130  1  0.83408778  0.49649552  0.50067471  1
  Te  Te131  1  0.83638486  0.49974644  0.83782272  1
  Te  Te132  1  0.83151128  0.83343967  0.16756291  1
  Te  Te133  1  0.82754495  0.83477000  0.49630280  1
  Te  Te134  1  0.82915661  0.83796511  0.83503936  1
  Te  Te135  1  0.16495110  -0.00436927  -0.00125969  1
  Te  Te136  1  0.16411043  0.00003217  0.33834443  1
  Te  Te137  1  0.16042718  -0.00295471  0.66188545  1
  Te  Te138  1  0.16484132  0.33979989  -0.00122475  1
  Te  Te139  1  0.16712564  0.33230412  0.33708933  1
  Te  Te140  1  0.16677996  0.33680963  0.66574970  1
  Te  Te141  1  0.16250926  0.66422053  0.00417120  1
  Te  Te142  1  0.17242169  0.66749646  0.32690151  1
  Te  Te143  1  0.16699902  0.65946979  0.66575318  1
  Te  Te144  1  0.49989470  0.00423752  0.00193092  1
  Te  Te145  1  0.49656936  -0.00246886  0.32986758  1
  Te  Te146  1  0.49858148  0.00258643  0.66794206  1
  Te  Te147  1  0.50343400  0.33230734  0.00178918  1
  Te  Te148  1  0.49701694  0.33240366  0.33295056  1
  Te  Te149  1  0.49828138  0.32811199  0.66429153  1
  Te  Te150  1  0.50054947  0.65843818  -0.00029892  1
  Te  Te151  1  0.49183458  0.67596562  0.33426004  1
  Te  Te152  1  0.50499903  0.67348646  0.66611689  1
  Te  Te153  1  0.83412002  -0.00121811  0.00212086  1
  Te  Te154  1  0.83599823  -0.00084876  0.32985706  1
  Te  Te155  1  0.83793915  0.00506030  0.66822339  1
  Te  Te156  1  0.82884886  0.33295239  -0.00039997  1
  Te  Te157  1  0.83485282  0.33583428  0.33576358  1
  Te  Te158  1  0.83424676  0.32681405  0.66300515  1
  Te  Te159  1  0.83789363  0.66592571  -0.00022167  1
  Te  Te160  1  0.83382074  0.66494428  0.33792754  1
  Te  Te161  1  0.82878759  0.66828193  0.66093510  1
  Te  Te162  1  -0.00556993  0.16759251  -0.00023114  1
  Te  Te163  1  -0.00485091  0.16785428  0.33820683  1
  Te  Te164  1  -0.00225670  0.16910700  0.66259081  1
  Te  Te165  1  -0.00200800  0.49971855  0.00281153  1
  Te  Te166  1  -0.00292202  0.49830625  0.33440078  1
  Te  Te167  1  0.00257018  0.49668085  0.66454847  1
  Te  Te168  1  -0.00268451  0.82903962  -0.00024296  1
  Te  Te169  1  -0.00564438  0.83565538  0.33243324  1
  Te  Te170  1  0.00170338  0.83478344  0.66783101  1
  Te  Te171  1  0.33579613  0.16747372  -0.00144288  1
  Te  Te172  1  0.33450262  0.16833445  0.33750029  1
  Te  Te173  1  0.33594125  0.17116691  0.66395121  1
  Te  Te174  1  0.33342892  0.50071812  0.00277173  1
  Te  Te175  1  0.33422966  0.49635662  0.33234428  1
  Te  Te176  1  0.33138629  0.49514680  0.66543291  1
  Te  Te177  1  0.33266297  0.83184878  0.00755697  1
  Te  Te178  1  0.33309850  0.83964660  0.32871016  1
  Te  Te179  1  0.34105596  0.83235111  0.66796266  1
  Te  Te180  1  0.66682416  0.17130600  0.00367248  1
  Te  Te181  1  0.67479677  0.16679806  0.32697281  1
  Te  Te182  1  0.66675149  0.16667921  0.66624690  1
  Te  Te183  1  0.66828361  0.49783908  0.00114431  1
  Te  Te184  1  0.66987132  0.50176301  0.33327932  1
  Te  Te185  1  0.66581063  0.50487012  0.66508003  1
  Te  Te186  1  0.67177415  0.82991083  0.00268196  1
  Te  Te187  1  0.66720060  0.83259517  0.33013435  1
  Te  Te188  1  0.66268733  0.83226759  0.66517823  1
  Te  Te189  1  -0.00360300  0.00215084  0.17269347  1
  Te  Te190  1  0.00311837  -0.00088103  0.49889871  1
  Te  Te191  1  -0.00326524  0.00175041  0.83017453  1
  Te  Te192  1  0.00197744  0.33986683  0.17394679  1
  Te  Te193  1  0.00562124  0.33334966  0.49906272  1
  Te  Te194  1  0.00488057  0.33784747  0.83086354  1
  Te  Te195  1  0.00387608  0.66025042  0.16322987  1
  Te  Te196  1  -0.00596767  0.66304516  0.49983989  1
  Te  Te197  1  -0.00092255  0.65976395  0.83743587  1
  Te  Te198  1  0.33411742  -0.00014354  0.17300590  1
  Te  Te199  1  0.32830375  0.00020187  0.49438841  1
  Te  Te200  1  0.33639386  0.00372101  0.83210357  1
  Te  Te201  1  0.33939824  0.33747218  0.16971432  1
  Te  Te202  1  0.32629167  0.33407203  0.50040597  1
  Te  Te203  1  0.33040999  0.33435356  0.83433942  1
  Te  Te204  1  0.33127021  0.66475779  0.17096746  1
  Te  Te205  1  0.33283748  0.66295173  0.49320682  1
  Te  Te206  1  0.33369581  0.65979804  0.83008598  1
  Te  Te207  1  0.66716216  -0.00351640  0.16708766  1
  Te  Te208  1  0.66579048  -0.00611785  0.49974388  1
  Te  Te209  1  0.66703956  -0.00459426  0.83407056  1
  Te  Te210  1  0.66193200  0.33715230  0.16567708  1
  Te  Te211  1  0.66766475  0.33859550  0.49993525  1
  Te  Te212  1  0.66703449  0.33408546  0.83830904  1
  Te  Te213  1  0.66634879  0.66410322  0.16718558  1
  Te  Te214  1  0.67027098  0.66423003  0.50115498  1
  Te  Te215  1  0.66662545  0.67412668  0.82680493  1
