# generated using pymatgen
data_AgSbTe2
_symmetry_space_group_name_H-M   'P 1'
_cell_length_a   18.32141022
_cell_length_b   18.32701387
_cell_length_c   18.32634883
_cell_angle_alpha   89.99844702
_cell_angle_beta   89.99824141
_cell_angle_gamma   89.99891288
_symmetry_Int_Tables_number   1
_chemical_formula_structural   AgSbTe2
_chemical_formula_sum   'Ag54 Sb54 Te108'
_cell_volume   6153.56164734
_cell_formula_units_Z   54
loop_
 _symmetry_equiv_pos_site_id
 _symmetry_equiv_pos_as_xyz
  1  'x, y, z'
loop_
 _atom_site_type_symbol
 _atom_site_label
 _atom_site_symmetry_multiplicity
 _atom_site_fract_x
 _atom_site_fract_y
 _atom_site_fract_z
 _atom_site_occupancy
  Ag  Ag0  1  0.00638044  0.50474755  0.84166726  1
  Ag  Ag1  1  0.49978862  0.17458919  0.33155912  1
  Ag  Ag2  1  0.65853040  0.33482441  0.00452745  1
  Ag  Ag3  1  0.84434384  0.16794349  0.00696275  1
  Ag  Ag4  1  0.83466387  0.83084910  0.32990639  1
  Ag  Ag5  1  0.00323421  0.16676787  0.49543518  1
  Ag  Ag6  1  0.00179634  0.16995533  0.16690274  1
  Ag  Ag7  1  0.00335894  0.00612234  0.33698402  1
  Ag  Ag8  1  0.49694871  0.17593053  0.00283917  1
  Ag  Ag9  1  0.00289920  0.32672550  0.66920388  1
  Ag  Ag10  1  0.48989554  0.49337142  0.00545644  1
  Ag  Ag11  1  0.15770858  0.16500721  0.33169630  1
  Ag  Ag12  1  0.32408518  0.49838658  0.84530088  1
  Ag  Ag13  1  0.16334949  0.66079143  0.83838020  1
  Ag  Ag14  1  0.17018839  0.49686810  -0.00219982  1
  Ag  Ag15  1  0.84477853  0.83171316  0.67350988  1
  Ag  Ag16  1  0.67765811  0.65846244  0.00191761  1
  Ag  Ag17  1  0.16454440  0.66363923  0.16345886  1
  Ag  Ag18  1  0.49112944  0.00901913  0.49846918  1
  Ag  Ag19  1  0.33686132  0.33607571  0.00150171  1
  Ag  Ag20  1  0.65902403  0.33123116  0.32869886  1
  Ag  Ag21  1  0.83633063  0.82304180  0.00119037  1
  Ag  Ag22  1  0.83614078  0.49677905  0.32691509  1
  Ag  Ag23  1  0.00546835  0.00494390  0.66562752  1
  Ag  Ag24  1  0.00250339  0.49497505  0.49698361  1
  Ag  Ag25  1  0.16263492  0.83816647  0.66807978  1
  Ag  Ag26  1  0.33000073  0.83221087  0.49824737  1
  Ag  Ag27  1  0.83686119  0.33898488  0.16765554  1
  Ag  Ag28  1  0.66524358  0.16764706  0.49513743  1
  Ag  Ag29  1  0.00312830  0.50021797  0.16444104  1
  Ag  Ag30  1  0.00221689  0.82980852  0.83218661  1
  Ag  Ag31  1  0.16704300  0.00162420  0.50391684  1
  Ag  Ag32  1  0.33193397  0.66144592  0.33172110  1
  Ag  Ag33  1  0.32871631  0.50077388  0.16266059  1
  Ag  Ag34  1  0.84232087  0.17005829  0.32740970  1
  Ag  Ag35  1  0.32968337  0.00827479  -0.00157287  1
  Ag  Ag36  1  0.49213521  0.33026967  0.84518679  1
  Ag  Ag37  1  0.48980730  0.00700188  0.83384874  1
  Ag  Ag38  1  0.83896135  0.66207378  0.16326773  1
  Ag  Ag39  1  0.16688614  0.33358082  0.83563569  1
  Ag  Ag40  1  0.16658421  0.00670905  0.83239678  1
  Ag  Ag41  1  0.49034601  0.66164487  0.16704539  1
  Ag  Ag42  1  0.16517646  0.00529867  0.16504056  1
  Ag  Ag43  1  0.49844896  0.32788451  0.48688596  1
  Ag  Ag44  1  0.16200755  0.16083242  0.67376447  1
  Ag  Ag45  1  0.49513759  0.49315437  0.32714913  1
  Ag  Ag46  1  0.84668283  0.66798836  0.84589067  1
  Ag  Ag47  1  0.32750229  0.66717599  0.66323472  1
  Ag  Ag48  1  0.16371242  0.16998454  -0.00255315  1
  Ag  Ag49  1  -0.00167218  0.66371847  -0.00228386  1
  Ag  Ag50  1  0.33850056  0.33727979  0.32871937  1
  Ag  Ag51  1  0.00458752  0.16725303  0.83471110  1
  Ag  Ag52  1  0.16781008  0.67044910  0.50218643  1
  Ag  Ag53  1  0.49894869  0.83519173  0.33453087  1
  Sb  Sb54  1  0.49464807  0.83556786  0.66280405  1
  Sb  Sb55  1  0.00710787  0.66921336  0.67368550  1
  Sb  Sb56  1  0.50086164  0.33682256  0.16619429  1
  Sb  Sb57  1  0.84238477  0.66697644  0.49665840  1
  Sb  Sb58  1  0.66241220  0.00429274  -0.00072197  1
  Sb  Sb59  1  0.67302572  0.17094698  0.17037746  1
  Sb  Sb60  1  0.49197381  0.66508676  0.49135638  1
  Sb  Sb61  1  0.33149591  0.82696598  0.17022206  1
  Sb  Sb62  1  0.66612853  0.49894717  0.16538218  1
  Sb  Sb63  1  0.00100920  0.83190236  0.16270015  1
  Sb  Sb64  1  0.83975266  0.00057535  0.49885011  1
  Sb  Sb65  1  0.83892201  0.49984555  0.00648130  1
  Sb  Sb66  1  0.67346402  0.83364981  0.83565252  1
  Sb  Sb67  1  0.16611493  0.83657754  0.33745612  1
  Sb  Sb68  1  0.66477906  0.66821794  0.67289172  1
  Sb  Sb69  1  0.66841547  0.00714447  0.33505528  1
  Sb  Sb70  1  0.66796539  0.83101780  0.16733621  1
  Sb  Sb71  1  0.16684524  0.49585250  0.32756189  1
  Sb  Sb72  1  0.66861095  0.49572605  0.49501212  1
  Sb  Sb73  1  0.00405388  0.33507265  -0.00291937  1
  Sb  Sb74  1  0.32648374  0.17334204  0.16507397  1
  Sb  Sb75  1  0.84208749  0.00039931  0.16712760  1
  Sb  Sb76  1  0.83945094  0.33696728  0.84061697  1
  Sb  Sb77  1  0.49047270  -0.00023930  0.16786545  1
  Sb  Sb78  1  0.32864915  0.00166818  0.33082500  1
  Sb  Sb79  1  0.16517367  0.50218892  0.67459717  1
  Sb  Sb80  1  0.32452104  -0.00312110  0.66970372  1
  Sb  Sb81  1  0.32780335  0.50274370  0.49603786  1
  Sb  Sb82  1  0.32872521  0.16368323  0.49620610  1
  Sb  Sb83  1  0.16806214  0.33115919  0.50338837  1
  Sb  Sb84  1  0.32572531  0.82942794  0.83097037  1
  Sb  Sb85  1  0.00533858  0.83535331  0.50411232  1
  Sb  Sb86  1  0.67150838  0.00153656  0.66570474  1
  Sb  Sb87  1  0.66891829  0.49859757  0.83960999  1
  Sb  Sb88  1  0.66973596  0.16887755  0.83284218  1
  Sb  Sb89  1  0.00405782  0.66846879  0.32859998  1
  Sb  Sb90  1  0.16269607  0.33372005  0.16127326  1
  Sb  Sb91  1  0.66967565  0.33105329  0.66618052  1
  Sb  Sb92  1  0.84334384  0.16370092  0.66613513  1
  Sb  Sb93  1  0.66243901  0.83769623  0.49778954  1
  Sb  Sb94  1  0.32836947  0.66203088  0.00292022  1
  Sb  Sb95  1  0.49504688  0.66384250  0.84092952  1
  Sb  Sb96  1  0.84147008  -0.00275769  0.83515205  1
  Sb  Sb97  1  0.00163989  0.32874914  0.33472336  1
  Sb  Sb98  1  0.32478922  0.17168792  0.83760546  1
  Sb  Sb99  1  0.49678111  0.49890986  0.66764544  1
  Sb  Sb100  1  0.16240648  0.83261195  -0.00509481  1
  Sb  Sb101  1  0.84011420  0.50437076  0.66471390  1
  Sb  Sb102  1  0.83258074  0.33138744  0.49288073  1
  Sb  Sb103  1  0.00695581  0.00135365  -0.00037586  1
  Sb  Sb104  1  0.66374216  0.66156893  0.32745526  1
  Sb  Sb105  1  0.50230345  0.83237695  0.00340063  1
  Sb  Sb106  1  0.49252313  0.16696115  0.66722356  1
  Sb  Sb107  1  0.32832484  0.33754654  0.66987109  1
  Te  Te108  1  0.16235758  0.16658937  0.16563688  1
  Te  Te109  1  0.16286722  0.16436126  0.49466816  1
  Te  Te110  1  0.16462565  0.16615724  0.83663941  1
  Te  Te111  1  0.16381425  0.50046802  0.16221110  1
  Te  Te112  1  0.16177272  0.50188183  0.49876524  1
  Te  Te113  1  0.16436132  0.50002472  0.83579147  1
  Te  Te114  1  0.16635855  0.82868092  0.16713186  1
  Te  Te115  1  0.16931378  0.83315268  0.50325133  1
  Te  Te116  1  0.16201703  0.83165440  0.82864450  1
  Te  Te117  1  0.49989657  0.16479897  0.16616916  1
  Te  Te118  1  0.49674625  0.16739331  0.50054250  1
  Te  Te119  1  0.50142384  0.16704317  0.83524241  1
  Te  Te120  1  0.49854815  0.50226351  0.16741536  1
  Te  Te121  1  0.49950375  0.49514509  0.49549265  1
  Te  Te122  1  0.49789978  0.49650847  0.83648614  1
  Te  Te123  1  0.49986215  0.82773984  0.17344070  1
  Te  Te124  1  0.49505382  0.83416921  0.49532332  1
  Te  Te125  1  0.50024989  0.83600650  0.83253430  1
  Te  Te126  1  0.83870988  0.16577092  0.16658459  1
  Te  Te127  1  0.83868699  0.16579575  0.49613778  1
  Te  Te128  1  0.83881072  0.16671386  0.83756011  1
  Te  Te129  1  0.83771564  0.50131834  0.16866399  1
  Te  Te130  1  0.83994858  0.49963831  0.49268921  1
  Te  Te131  1  0.84003255  0.50594376  0.83366774  1
  Te  Te132  1  0.83433808  0.83062812  0.16678606  1
  Te  Te133  1  0.83200710  0.83347243  0.49295273  1
  Te  Te134  1  0.83914130  0.83060360  0.83681272  1
  Te  Te135  1  0.16929110  0.00034918  -0.00166513  1
  Te  Te136  1  0.16452680  0.00352032  0.33378320  1
  Te  Te137  1  0.16490669  0.00031568  0.66721567  1
  Te  Te138  1  0.17049278  0.33172492  -0.00411549  1
  Te  Te139  1  0.17370516  0.32644428  0.33402898  1
  Te  Te140  1  0.16336022  0.32874299  0.67153383  1
  Te  Te141  1  0.16270209  0.66638891  0.00032541  1
  Te  Te142  1  0.17091587  0.66644063  0.33069762  1
  Te  Te143  1  0.16875083  0.66845277  0.66661920  1
  Te  Te144  1  0.49503728  0.00102140  -0.00171479  1
  Te  Te145  1  0.49946335  -0.00171756  0.33614335  1
  Te  Te146  1  0.49933851  -0.00015217  0.66589090  1
  Te  Te147  1  0.49783343  0.33342302  0.00254623  1
  Te  Te148  1  0.49950414  0.33328291  0.32959353  1
  Te  Te149  1  0.49999388  0.33323381  0.66972434  1
  Te  Te150  1  0.50071071  0.66572861  0.00636403  1
  Te  Te151  1  0.49830039  0.66592431  0.32789313  1
  Te  Te152  1  0.49477594  0.66823645  0.66687510  1
  Te  Te153  1  0.83172674  0.00629147  0.00002725  1
  Te  Te154  1  0.83700669  0.00308080  0.33283664  1
  Te  Te155  1  0.84064481  -0.00724344  0.66668887  1
  Te  Te156  1  0.82926176  0.33018902  0.00352178  1
  Te  Te157  1  0.83412951  0.33144909  0.32999160  1
  Te  Te158  1  0.83855734  0.33339612  0.66875035  1
  Te  Te159  1  0.83552037  0.66338600  0.00167027  1
  Te  Te160  1  0.83231438  0.66522506  0.32928058  1
  Te  Te161  1  0.83211303  0.67256063  0.66664479  1
  Te  Te162  1  0.00205391  0.16804424  0.00112634  1
  Te  Te163  1  0.00016353  0.16696719  0.33299258  1
  Te  Te164  1  0.00304251  0.16499503  0.66752328  1
  Te  Te165  1  0.00438797  0.50105676  0.00108380  1
  Te  Te166  1  -0.00176182  0.49963165  0.33092997  1
  Te  Te167  1  0.00003031  0.49529541  0.66272408  1
  Te  Te168  1  -0.00516075  0.83031020  -0.00499711  1
  Te  Te169  1  -0.00484421  0.83810333  0.33350388  1
  Te  Te170  1  0.00169204  0.83522516  0.66969581  1
  Te  Te171  1  0.33441989  0.16923167  0.00091347  1
  Te  Te172  1  0.34080520  0.17074425  0.33088100  1
  Te  Te173  1  0.32321377  0.16765784  0.66620916  1
  Te  Te174  1  0.33127495  0.49989891  0.00201327  1
  Te  Te175  1  0.33459761  0.49959403  0.33038731  1
  Te  Te176  1  0.33270551  0.50682322  0.66951069  1
  Te  Te177  1  0.33523155  0.83843932  0.00020113  1
  Te  Te178  1  0.33586114  0.83027409  0.33654109  1
  Te  Te179  1  0.32806912  0.82759074  0.66228730  1
  Te  Te180  1  0.66137281  0.17159714  -0.00015236  1
  Te  Te181  1  0.66240289  0.17154255  0.33607454  1
  Te  Te182  1  0.66952515  0.16667123  0.65699961  1
  Te  Te183  1  0.65872338  0.49763370  -0.00023384  1
  Te  Te184  1  0.66784509  0.49315180  0.33326797  1
  Te  Te185  1  0.66853011  0.50069317  0.66631079  1
  Te  Te186  1  0.67399036  0.83087011  0.00063813  1
  Te  Te187  1  0.66833911  0.83306181  0.33392229  1
  Te  Te188  1  0.67539334  0.83368997  0.66643330  1
  Te  Te189  1  0.00744869  0.00365384  0.16963168  1
  Te  Te190  1  0.00544929  0.00213336  0.49973123  1
  Te  Te191  1  0.00480873  0.00305469  0.83228940  1
  Te  Te192  1  -0.00401709  0.33394575  0.16709308  1
  Te  Te193  1  0.00003861  0.33221046  0.50459328  1
  Te  Te194  1  0.00313418  0.33149585  0.83106351  1
  Te  Te195  1  0.00175274  0.66513881  0.16341506  1
  Te  Te196  1  0.00784794  0.66329269  0.49998750  1
  Te  Te197  1  0.00226425  0.66538304  0.83390739  1
  Te  Te198  1  0.32408809  -0.00085355  0.16150645  1
  Te  Te199  1  0.33058658  -0.00457229  0.49947845  1
  Te  Te200  1  0.33061250  -0.00213364  0.83569754  1
  Te  Te201  1  0.33142545  0.33988049  0.16561938  1
  Te  Te202  1  0.33867963  0.33472032  0.49942098  1
  Te  Te203  1  0.33198696  0.33832191  0.83534485  1
  Te  Te204  1  0.33036234  0.66143606  0.16942411  1
  Te  Te205  1  0.32814983  0.66927094  0.49723335  1
  Te  Te206  1  0.32823354  0.66190284  0.83229022  1
  Te  Te207  1  0.66521891  0.00029303  0.16614177  1
  Te  Te208  1  0.65870080  0.00639724  0.50105772  1
  Te  Te209  1  0.65619104  0.00116592  0.83224426  1
  Te  Te210  1  0.67646485  0.33318438  0.16630828  1
  Te  Te211  1  0.66180813  0.32839340  0.49802586  1
  Te  Te212  1  0.66147006  0.33324831  0.83622174  1
  Te  Te213  1  0.67456371  0.66542141  0.16068866  1
  Te  Te214  1  0.66708431  0.66691931  0.50200360  1
  Te  Te215  1  0.66795055  0.66655198  0.84121813  1
