# generated using pymatgen
data_AgSbTe2
_symmetry_space_group_name_H-M   'P 1'
_cell_length_a   18.33702915
_cell_length_b   18.33783234
_cell_length_c   18.33585681
_cell_angle_alpha   90.00030991
_cell_angle_beta   89.99963863
_cell_angle_gamma   89.99680811
_symmetry_Int_Tables_number   1
_chemical_formula_structural   AgSbTe2
_chemical_formula_sum   'Ag54 Sb54 Te108'
_cell_volume   6165.64025014
_cell_formula_units_Z   54
loop_
 _symmetry_equiv_pos_site_id
 _symmetry_equiv_pos_as_xyz
  1  'x, y, z'
loop_
 _atom_site_type_symbol
 _atom_site_label
 _atom_site_symmetry_multiplicity
 _atom_site_fract_x
 _atom_site_fract_y
 _atom_site_fract_z
 _atom_site_occupancy
  Ag  Ag0  1  0.83466035  0.32950664  0.17115284  1
  Ag  Ag1  1  0.16652787  0.33042018  0.16659744  1
  Ag  Ag2  1  0.16565723  0.33460642  0.84609535  1
  Ag  Ag3  1  -0.00941967  -0.00505645  0.32917002  1
  Ag  Ag4  1  0.66350549  -0.00312229  0.66004127  1
  Ag  Ag5  1  0.32684147  0.16322723  0.48986122  1
  Ag  Ag6  1  0.33688893  0.67580085  0.66559321  1
  Ag  Ag7  1  0.16211628  0.32990469  0.48822378  1
  Ag  Ag8  1  0.16657985  0.83077442  0.33029698  1
  Ag  Ag9  1  0.16928104  0.17031449  0.00146015  1
  Ag  Ag10  1  0.66991043  0.16189861  0.16694343  1
  Ag  Ag11  1  0.82912912  -0.00177832  0.17330422  1
  Ag  Ag12  1  0.66200489  0.00185683  0.01458045  1
  Ag  Ag13  1  0.33349913  0.83959648  0.17153589  1
  Ag  Ag14  1  0.33742574  0.00543931  0.00981235  1
  Ag  Ag15  1  0.67505657  0.49551697  0.16813858  1
  Ag  Ag16  1  -0.00767263  0.00140640  0.65773280  1
  Ag  Ag17  1  0.66612237  0.32610371  0.32765654  1
  Ag  Ag18  1  0.66334386  0.16158647  0.83938647  1
  Ag  Ag19  1  0.83265733  0.83748222  0.32938151  1
  Ag  Ag20  1  0.32553064  0.66991160  0.00967817  1
  Ag  Ag21  1  0.50111906  0.83538946  0.33199250  1
  Ag  Ag22  1  0.00544742  0.66397024  0.00888345  1
  Ag  Ag23  1  0.66514837  0.67917143  0.66770825  1
  Ag  Ag24  1  0.49441901  0.33552318  0.16939252  1
  Ag  Ag25  1  0.33131638  0.32519499  0.32591070  1
  Ag  Ag26  1  0.67294321  -0.00323666  0.33170886  1
  Ag  Ag27  1  0.50119739  0.83977948  0.66077450  1
  Ag  Ag28  1  -0.00436679  0.50152174  0.16519812  1
  Ag  Ag29  1  0.34195936  -0.00145450  0.66330530  1
  Ag  Ag30  1  0.32869387  0.67929104  0.32546765  1
  Ag  Ag31  1  -0.00355560  0.16910967  0.16964840  1
  Ag  Ag32  1  0.49985682  0.00021982  0.82687585  1
  Ag  Ag33  1  0.00255354  0.50387251  0.84332176  1
  Ag  Ag34  1  0.50844199  -0.00224409  0.50167710  1
  Ag  Ag35  1  0.49870247  0.66822930  0.16779881  1
  Ag  Ag36  1  0.82927788  0.00380718  0.49254519  1
  Ag  Ag37  1  0.33481210  -0.00260668  0.32878964  1
  Ag  Ag38  1  0.33269966  0.16612408  0.16604232  1
  Ag  Ag39  1  0.16621715  0.50103522  0.33055828  1
  Ag  Ag40  1  0.66516006  0.84007877  0.48932907  1
  Ag  Ag41  1  0.00239545  0.83087696  0.84106536  1
  Ag  Ag42  1  0.33334487  0.16176530  0.84244809  1
  Ag  Ag43  1  0.16523882  0.66393481  0.83556228  1
  Ag  Ag44  1  0.00644390  0.33493574  0.00625660  1
  Ag  Ag45  1  0.83385940  0.16396709  0.66254941  1
  Ag  Ag46  1  0.83733533  0.32189133  0.48985606  1
  Ag  Ag47  1  0.83985982  0.67411910  0.16924455  1
  Ag  Ag48  1  0.00452752  0.67619202  0.32570983  1
  Ag  Ag49  1  0.83449060  0.49695866  0.66451536  1
  Ag  Ag50  1  0.67186584  0.83976903  0.17300718  1
  Ag  Ag51  1  0.00029098  0.16524285  0.49076916  1
  Ag  Ag52  1  0.32488922  0.32089726  0.01086170  1
  Ag  Ag53  1  -0.00269688  0.82880889  0.17101264  1
  Sb  Sb54  1  0.00075103  0.00008330  0.00627308  1
  Sb  Sb55  1  0.32873216  0.49779728  0.16800521  1
  Sb  Sb56  1  0.17001023  0.00058077  0.83429665  1
  Sb  Sb57  1  -0.00440827  0.84176508  0.49216526  1
  Sb  Sb58  1  0.83491237  0.83489031  0.00938195  1
  Sb  Sb59  1  0.67053750  0.15905580  0.49582466  1
  Sb  Sb60  1  0.32586359  0.49732512  0.83445040  1
  Sb  Sb61  1  0.83728928  0.50252403  0.33165942  1
  Sb  Sb62  1  0.33267108  0.49400780  0.49822790  1
  Sb  Sb63  1  0.16811472  0.66260977  0.49762754  1
  Sb  Sb64  1  0.16534317  0.16598000  0.66940651  1
  Sb  Sb65  1  0.50460190  0.50993665  0.66766809  1
  Sb  Sb66  1  0.50008862  0.32292660  0.49114188  1
  Sb  Sb67  1  0.33727489  0.84277791  0.49178484  1
  Sb  Sb68  1  0.16506225  0.49429389  0.00638093  1
  Sb  Sb69  1  0.66752840  0.67274403  0.00350430  1
  Sb  Sb70  1  0.67369891  0.49513101  0.83667595  1
  Sb  Sb71  1  0.16443753  0.66289308  0.16535898  1
  Sb  Sb72  1  0.83799379  0.66735152  0.83688354  1
  Sb  Sb73  1  0.83632681  0.16573740  0.00274620  1
  Sb  Sb74  1  0.32980502  0.83828171  0.83710164  1
  Sb  Sb75  1  0.67028822  0.50277760  0.49367306  1
  Sb  Sb76  1  0.66882275  0.84034201  0.83434995  1
  Sb  Sb77  1  0.49863977  0.15777862  0.33119973  1
  Sb  Sb78  1  0.66530646  0.32513269  0.01050782  1
  Sb  Sb79  1  0.49358945  0.16351853  0.00494601  1
  Sb  Sb80  1  -0.00148134  0.67150342  0.66714976  1
  Sb  Sb81  1  0.66911794  0.32780091  0.65999583  1
  Sb  Sb82  1  0.50346429  0.15945067  0.66644102  1
  Sb  Sb83  1  -0.00121300  0.49320089  0.49547627  1
  Sb  Sb84  1  0.17059459  0.83417980  0.66261830  1
  Sb  Sb85  1  0.49911491  0.50047985  0.00404313  1
  Sb  Sb86  1  0.49654580  0.50433117  0.32955938  1
  Sb  Sb87  1  0.82949199  0.83820288  0.66087511  1
  Sb  Sb88  1  0.16849545  0.16679255  0.32749527  1
  Sb  Sb89  1  -0.00091314  0.32892227  0.66872369  1
  Sb  Sb90  1  0.49946079  0.67472616  0.49472818  1
  Sb  Sb91  1  0.83528980  0.16084676  0.33381490  1
  Sb  Sb92  1  0.49804691  0.83698430  0.00605110  1
  Sb  Sb93  1  0.49439880  0.32508017  0.83989918  1
  Sb  Sb94  1  0.33320340  0.32669059  0.66589023  1
  Sb  Sb95  1  0.83713825  0.49922372  0.00242700  1
  Sb  Sb96  1  0.16613457  0.00468115  0.16924378  1
  Sb  Sb97  1  0.16293790  0.50006863  0.66489333  1
  Sb  Sb98  1  0.16707467  0.83459674  0.00637077  1
  Sb  Sb99  1  0.00145203  0.33117436  0.32539745  1
  Sb  Sb100  1  0.16458537  0.00581864  0.49651251  1
  Sb  Sb101  1  0.49375901  0.67422637  0.83711713  1
  Sb  Sb102  1  0.83301600  0.67046573  0.49535629  1
  Sb  Sb103  1  0.83759109  0.33137219  0.83633745  1
  Sb  Sb104  1  0.00192449  0.16540836  0.83616349  1
  Sb  Sb105  1  0.66659867  0.67270513  0.33017148  1
  Sb  Sb106  1  0.50231743  -0.00242047  0.17134903  1
  Sb  Sb107  1  0.83015632  0.00093584  0.83246927  1
  Te  Te108  1  0.17056889  0.17049168  0.16259506  1
  Te  Te109  1  0.16502855  0.17213804  0.50200328  1
  Te  Te110  1  0.17020473  0.17100890  0.83791351  1
  Te  Te111  1  0.15934745  0.49283737  0.17215691  1
  Te  Te112  1  0.16572174  0.49048278  0.49406060  1
  Te  Te113  1  0.16047697  0.49887988  0.83174800  1
  Te  Te114  1  0.16856619  0.83391210  0.17124630  1
  Te  Te115  1  0.16597295  0.83077930  0.49241456  1
  Te  Te116  1  0.16227990  0.82830438  0.83178765  1
  Te  Te117  1  0.49995104  0.17338545  0.16786213  1
  Te  Te118  1  0.49028991  0.15907658  0.49997614  1
  Te  Te119  1  0.49954942  0.16167705  0.83337028  1
  Te  Te120  1  0.50915206  0.50159244  0.16706503  1
  Te  Te121  1  0.50189463  0.49866279  0.50047346  1
  Te  Te122  1  0.50233549  0.49928953  0.83445918  1
  Te  Te123  1  0.49490707  0.83172299  0.17008243  1
  Te  Te124  1  0.50401890  0.83843219  0.49875105  1
  Te  Te125  1  0.50045756  0.83940969  0.82771327  1
  Te  Te126  1  0.83344327  0.16499366  0.16692799  1
  Te  Te127  1  0.83561109  0.16503018  0.50158460  1
  Te  Te128  1  0.82976087  0.16755575  0.82736023  1
  Te  Te129  1  0.83550523  0.49810503  0.16778269  1
  Te  Te130  1  0.83323820  0.49632355  0.50440381  1
  Te  Te131  1  0.84066539  0.49927979  0.82663157  1
  Te  Te132  1  0.83431556  0.83543469  0.16995818  1
  Te  Te133  1  0.82723401  0.83804825  0.49389976  1
  Te  Te134  1  0.84178816  0.83255330  0.83367488  1
  Te  Te135  1  0.17437766  0.00525737  -0.00033438  1
  Te  Te136  1  0.17372630  -0.00594951  0.33344685  1
  Te  Te137  1  0.16652389  -0.00044793  0.66599789  1
  Te  Te138  1  0.16703254  0.33308494  0.00291490  1
  Te  Te139  1  0.16753342  0.33238575  0.33059061  1
  Te  Te140  1  0.16733554  0.33467599  0.66582517  1
  Te  Te141  1  0.16473281  0.66818583  -0.00397129  1
  Te  Te142  1  0.16790977  0.66668866  0.33339426  1
  Te  Te143  1  0.17098777  0.66665031  0.66998946  1
  Te  Te144  1  0.49798112  -0.00069232  -0.00650866  1
  Te  Te145  1  0.49570714  -0.00614372  0.33627339  1
  Te  Te146  1  0.50196727  -0.00139897  0.66410505  1
  Te  Te147  1  0.49220170  0.33405104  0.00732970  1
  Te  Te148  1  0.49825104  0.33593414  0.32878345  1
  Te  Te149  1  0.50065720  0.33769564  0.66669417  1
  Te  Te150  1  0.49605699  0.66824954  0.00582818  1
  Te  Te151  1  0.49489348  0.67215976  0.32801005  1
  Te  Te152  1  0.50051459  0.67458371  0.66792501  1
  Te  Te153  1  0.82761631  0.00093752  0.00547263  1
  Te  Te154  1  0.83215988  -0.00220881  0.33237474  1
  Te  Te155  1  0.83369151  0.00159430  0.66547627  1
  Te  Te156  1  0.83829690  0.33307886  0.00563292  1
  Te  Te157  1  0.83267666  0.33543259  0.33235548  1
  Te  Te158  1  0.83328439  0.33070504  0.66588112  1
  Te  Te159  1  0.83851933  0.66632172  0.00717558  1
  Te  Te160  1  0.83632934  0.67107416  0.32896533  1
  Te  Te161  1  0.82962596  0.66668589  0.66543191  1
  Te  Te162  1  0.00535281  0.16916143  0.00418261  1
  Te  Te163  1  0.00242522  0.15971854  0.33097410  1
  Te  Te164  1  -0.00378088  0.16096696  0.66815919  1
  Te  Te165  1  0.00077826  0.50135646  0.00238975  1
  Te  Te166  1  0.00373951  0.50382586  0.32879950  1
  Te  Te167  1  -0.00430758  0.50132468  0.66510952  1
  Te  Te168  1  0.00131966  0.82991459  0.00386098  1
  Te  Te169  1  -0.00059399  0.83558162  0.33086873  1
  Te  Te170  1  0.00068644  0.83981297  0.66460646  1
  Te  Te171  1  0.33134953  0.16558786  0.00318224  1
  Te  Te172  1  0.33332405  0.16616217  0.32882779  1
  Te  Te173  1  0.33372806  0.16040553  0.66997396  1
  Te  Te174  1  0.33203546  0.51057449  -0.00123409  1
  Te  Te175  1  0.32810579  0.49881805  0.33416763  1
  Te  Te176  1  0.33437999  0.50749746  0.66643084  1
  Te  Te177  1  0.33204999  0.83037705  0.00625308  1
  Te  Te178  1  0.33399766  0.83509324  0.33141707  1
  Te  Te179  1  0.33650320  0.83614307  0.66716997  1
  Te  Te180  1  0.66798618  0.16084680  0.00113775  1
  Te  Te181  1  0.66562905  0.16559498  0.32871464  1
  Te  Te182  1  0.67089105  0.16187082  0.66559383  1
  Te  Te183  1  0.66817910  0.49919550  0.00586200  1
  Te  Te184  1  0.66655164  0.49900292  0.32691548  1
  Te  Te185  1  0.67244468  0.50053515  0.66720538  1
  Te  Te186  1  0.66585650  0.84109773  0.00493798  1
  Te  Te187  1  0.66571944  0.83361934  0.33128279  1
  Te  Te188  1  0.66424882  0.83628275  0.66981923  1
  Te  Te189  1  -0.00128018  0.00127592  0.16879697  1
  Te  Te190  1  -0.00220431  0.00565733  0.49850665  1
  Te  Te191  1  0.00021056  -0.00481530  0.83603082  1
  Te  Te192  1  -0.00183631  0.32937831  0.16656861  1
  Te  Te193  1  -0.00234932  0.32662644  0.49976621  1
  Te  Te194  1  0.00467931  0.33599210  0.83802288  1
  Te  Te195  1  0.00110163  0.66800663  0.16815360  1
  Te  Te196  1  -0.00002083  0.66560017  0.49529071  1
  Te  Te197  1  0.00315604  0.66702342  0.83198922  1
  Te  Te198  1  0.33581240  0.00103824  0.16720183  1
  Te  Te199  1  0.33088244  0.00421846  0.50061062  1
  Te  Te200  1  0.33521675  0.00238830  0.83097678  1
  Te  Te201  1  0.33286677  0.33636417  0.16750667  1
  Te  Te202  1  0.33114522  0.32616128  0.49721533  1
  Te  Te203  1  0.32865435  0.32878503  0.83486948  1
  Te  Te204  1  0.33188229  0.66316526  0.16846485  1
  Te  Te205  1  0.33403105  0.66556033  0.50232407  1
  Te  Te206  1  0.32910740  0.66686544  0.83077674  1
  Te  Te207  1  0.66385295  0.00007484  0.17124473  1
  Te  Te208  1  0.66797945  -0.00092742  0.49764761  1
  Te  Te209  1  0.66386260  0.00319203  0.82636665  1
  Te  Te210  1  0.67180927  0.33001619  0.16804223  1
  Te  Te211  1  0.67035083  0.33267508  0.49136413  1
  Te  Te212  1  0.66478172  0.32580255  0.83591567  1
  Te  Te213  1  0.66721878  0.67194297  0.16503582  1
  Te  Te214  1  0.66650958  0.67136565  0.50641314  1
  Te  Te215  1  0.66598499  0.66497681  0.83108619  1
