# generated using pymatgen
data_AgSbTe2
_symmetry_space_group_name_H-M   'P 1'
_cell_length_a   18.35352342
_cell_length_b   18.36621632
_cell_length_c   18.35792310
_cell_angle_alpha   90.00059483
_cell_angle_beta   89.99900523
_cell_angle_gamma   89.99909759
_symmetry_Int_Tables_number   1
_chemical_formula_structural   AgSbTe2
_chemical_formula_sum   'Ag54 Sb54 Te108'
_cell_volume   6188.17649248
_cell_formula_units_Z   54
loop_
 _symmetry_equiv_pos_site_id
 _symmetry_equiv_pos_as_xyz
  1  'x, y, z'
loop_
 _atom_site_type_symbol
 _atom_site_label
 _atom_site_symmetry_multiplicity
 _atom_site_fract_x
 _atom_site_fract_y
 _atom_site_fract_z
 _atom_site_occupancy
  Ag  Ag0  1  0.33829568  0.33388869  0.34090787  1
  Ag  Ag1  1  0.17123258  0.83294988  0.33881674  1
  Ag  Ag2  1  0.65664106  0.34407411  0.00797792  1
  Ag  Ag3  1  0.65857718  0.50070312  0.17487183  1
  Ag  Ag4  1  0.66003922  0.50122079  0.48755108  1
  Ag  Ag5  1  0.66374693  0.82834335  0.16372265  1
  Ag  Ag6  1  0.50027989  0.65305123  0.49452002  1
  Ag  Ag7  1  0.50387697  0.65134839  0.17854320  1
  Ag  Ag8  1  0.83228616  0.49872066  0.66115281  1
  Ag  Ag9  1  0.34895277  0.49028682  0.17708750  1
  Ag  Ag10  1  0.00011477  0.00923491  0.34160712  1
  Ag  Ag11  1  0.66218710  0.65531600  0.33291456  1
  Ag  Ag12  1  0.82856724  0.17495238  0.33863711  1
  Ag  Ag13  1  0.18040372  0.33323659  0.82260964  1
  Ag  Ag14  1  0.66348637  0.66456582  0.00870814  1
  Ag  Ag15  1  0.17703554  0.17622360  0.33955859  1
  Ag  Ag16  1  0.33498335  0.17576116  0.49516266  1
  Ag  Ag17  1  0.65125618  0.34341922  0.33045935  1
  Ag  Ag18  1  0.33601961  0.17255094  0.83123123  1
  Ag  Ag19  1  0.17316728  0.65472846  0.49889276  1
  Ag  Ag20  1  0.34028419  0.17569580  0.17637296  1
  Ag  Ag21  1  0.00590950  0.33206448  0.33993249  1
  Ag  Ag22  1  -0.00785664  0.49661344  0.82738174  1
  Ag  Ag23  1  0.65940853  0.18055231  0.16995948  1
  Ag  Ag24  1  0.50050733  0.00663452  0.83467518  1
  Ag  Ag25  1  0.50042620  0.82888939  0.33383551  1
  Ag  Ag26  1  -0.00597961  0.66067624  0.66414136  1
  Ag  Ag27  1  0.17315718  0.49172533  0.33763270  1
  Ag  Ag28  1  0.16195689  0.83463110  0.66314687  1
  Ag  Ag29  1  0.66580888  0.82567473  0.83993067  1
  Ag  Ag30  1  0.16732898  0.17707973  0.65926847  1
  Ag  Ag31  1  0.49748446  0.18045709  0.33409625  1
  Ag  Ag32  1  0.66204177  -0.00776676  0.00014607  1
  Ag  Ag33  1  0.32949325  0.33144118  0.65354985  1
  Ag  Ag34  1  0.50213821  0.49355765  0.32689038  1
  Ag  Ag35  1  0.49660682  0.33173407  0.83616976  1
  Ag  Ag36  1  0.34077403  0.33125763  0.00159744  1
  Ag  Ag37  1  0.49800012  0.34066005  0.17405029  1
  Ag  Ag38  1  0.34484315  0.00961467  -0.00072589  1
  Ag  Ag39  1  -0.00211947  0.00179991  0.66206691  1
  Ag  Ag40  1  0.83491651  0.83147343  0.66778486  1
  Ag  Ag41  1  0.50318557  0.49411786  0.01255727  1
  Ag  Ag42  1  0.34245707  0.48637480  0.49512920  1
  Ag  Ag43  1  0.83734884  0.16850245  0.65997215  1
  Ag  Ag44  1  0.67042966  0.66247403  0.66386566  1
  Ag  Ag45  1  0.82719477  0.00312890  0.50166213  1
  Ag  Ag46  1  0.00601682  0.33376422  0.66200828  1
  Ag  Ag47  1  0.81955347  0.83443826  -0.00537955  1
  Ag  Ag48  1  0.16792445  0.83261662  -0.00128483  1
  Ag  Ag49  1  0.66550097  0.50092619  0.83525232  1
  Ag  Ag50  1  0.81549921  0.49031539  0.33896510  1
  Ag  Ag51  1  0.17695521  0.33708009  0.50007465  1
  Ag  Ag52  1  0.48900836  0.33675135  0.48688826  1
  Ag  Ag53  1  0.50199668  0.00474973  0.49696555  1
  Sb  Sb54  1  0.49867108  0.17533235  0.00780873  1
  Sb  Sb55  1  -0.00390360  0.82998370  0.82900427  1
  Sb  Sb56  1  0.50692978  0.49785089  0.66037317  1
  Sb  Sb57  1  0.82968854  0.33378405  0.83107169  1
  Sb  Sb58  1  0.16600643  0.66245071  0.82687181  1
  Sb  Sb59  1  -0.00090345  0.49823677  0.50258159  1
  Sb  Sb60  1  0.16209558  0.49554191  0.66157055  1
  Sb  Sb61  1  0.33390395  0.65929853  0.66246189  1
  Sb  Sb62  1  0.66682418  0.00233681  0.33073998  1
  Sb  Sb63  1  0.00547305  0.16837498  0.49996131  1
  Sb  Sb64  1  -0.00287617  0.49780353  0.16706036  1
  Sb  Sb65  1  0.33000533  0.00751731  0.66719887  1
  Sb  Sb66  1  0.66213252  0.17272118  0.49400581  1
  Sb  Sb67  1  0.82104670  0.33360987  0.17255866  1
  Sb  Sb68  1  0.17967434  0.33367068  0.17565918  1
  Sb  Sb69  1  0.00040661  0.83428414  0.50188167  1
  Sb  Sb70  1  0.34394664  0.65428293  0.33533580  1
  Sb  Sb71  1  0.82699364  0.16315901  0.00168750  1
  Sb  Sb72  1  0.00555919  0.17215455  0.82705041  1
  Sb  Sb73  1  0.17304271  0.16582998  0.00147433  1
  Sb  Sb74  1  -0.00530408  0.66582105  -0.00679880  1
  Sb  Sb75  1  0.16856415  -0.00007732  0.16822370  1
  Sb  Sb76  1  0.33813060  0.49035136  0.82984117  1
  Sb  Sb77  1  0.34002096  0.66430280  0.00201000  1
  Sb  Sb78  1  0.50185843  0.00381246  0.16814982  1
  Sb  Sb79  1  0.82207097  0.50308025  0.00076560  1
  Sb  Sb80  1  0.82950306  0.66626962  0.50245416  1
  Sb  Sb81  1  -0.00390080  0.83252965  0.16749135  1
  Sb  Sb82  1  0.00106419  0.16942886  0.17425400  1
  Sb  Sb83  1  0.49858360  0.16928005  0.66166956  1
  Sb  Sb84  1  0.82773085  -0.00009803  0.82706953  1
  Sb  Sb85  1  0.33206658  0.00831612  0.33078596  1
  Sb  Sb86  1  0.82225372  0.66611305  0.16889038  1
  Sb  Sb87  1  0.33336382  0.83523206  0.49834328  1
  Sb  Sb88  1  -0.00228273  -0.00213892  -0.00396426  1
  Sb  Sb89  1  0.17584866  0.66606505  0.17627709  1
  Sb  Sb90  1  0.17123540  0.00445575  0.83103316  1
  Sb  Sb91  1  0.66531867  0.33775679  0.66409783  1
  Sb  Sb92  1  0.00196950  0.33458410  -0.00305205  1
  Sb  Sb93  1  0.16833021  0.00433208  0.49952831  1
  Sb  Sb94  1  0.66065692  0.16883505  0.83639031  1
  Sb  Sb95  1  0.50111567  0.83301530  0.66325682  1
  Sb  Sb96  1  0.50212903  0.83194563  0.00358523  1
  Sb  Sb97  1  0.17474248  0.50123980  0.00358266  1
  Sb  Sb98  1  0.66462889  0.82803902  0.49888109  1
  Sb  Sb99  1  0.66912591  -0.00321918  0.66831516  1
  Sb  Sb100  1  0.83142667  0.33090245  0.49822388  1
  Sb  Sb101  1  0.82983003  0.00061307  0.17293355  1
  Sb  Sb102  1  -0.00123936  0.66319132  0.33932106  1
  Sb  Sb103  1  0.33892381  0.83457072  0.16860792  1
  Sb  Sb104  1  0.82998009  0.83318221  0.33632048  1
  Sb  Sb105  1  0.82824417  0.66560736  0.82977308  1
  Sb  Sb106  1  0.50389855  0.66351486  0.83121545  1
  Sb  Sb107  1  0.33711204  0.83997259  0.83418835  1
  Te  Te108  1  0.17211102  0.16653278  0.17337977  1
  Te  Te109  1  0.17177908  0.16891691  0.49973581  1
  Te  Te110  1  0.17229487  0.17235098  0.83067865  1
  Te  Te111  1  0.16790821  0.50155337  0.17298563  1
  Te  Te112  1  0.16579576  0.49801079  0.49679684  1
  Te  Te113  1  0.16808260  0.49468625  0.83458423  1
  Te  Te114  1  0.16645139  0.83201331  0.16763380  1
  Te  Te115  1  0.16720970  0.83559095  0.50100302  1
  Te  Te116  1  0.16716756  0.83230936  0.83146880  1
  Te  Te117  1  0.50033661  0.16881196  0.17304265  1
  Te  Te118  1  0.49784996  0.16886591  0.49584124  1
  Te  Te119  1  0.49682344  0.16597006  0.83122735  1
  Te  Te120  1  0.50321870  0.49679562  0.16684469  1
  Te  Te121  1  0.50049299  0.49690745  0.50051901  1
  Te  Te122  1  0.50359005  0.49701818  0.83025447  1
  Te  Te123  1  0.50354949  0.83346518  0.17093098  1
  Te  Te124  1  0.49982483  0.84005105  0.49599953  1
  Te  Te125  1  0.50455513  0.83624518  0.83187448  1
  Te  Te126  1  0.82751190  0.16635338  0.17257489  1
  Te  Te127  1  0.83041301  0.16432043  0.49936013  1
  Te  Te128  1  0.83454128  0.16624301  0.82787193  1
  Te  Te129  1  0.82904843  0.50029101  0.17287957  1
  Te  Te130  1  0.82819344  0.49995591  0.49929342  1
  Te  Te131  1  0.83108677  0.49950801  0.83140849  1
  Te  Te132  1  0.82832030  0.83325856  0.16246198  1
  Te  Te133  1  0.83212456  0.83867253  0.50579762  1
  Te  Te134  1  0.82798404  0.83351811  0.83144404  1
  Te  Te135  1  0.16528807  -0.00532031  -0.00082483  1
  Te  Te136  1  0.16163119  -0.00444252  0.33436547  1
  Te  Te137  1  0.16177255  -0.00296412  0.66638990  1
  Te  Te138  1  0.16819072  0.33379579  -0.00356872  1
  Te  Te139  1  0.16651064  0.33188257  0.33562681  1
  Te  Te140  1  0.16721856  0.33401288  0.66438283  1
  Te  Te141  1  0.16602528  0.66998835  0.00098962  1
  Te  Te142  1  0.16520074  0.67380384  0.33946367  1
  Te  Te143  1  0.16625401  0.66918990  0.66182620  1
  Te  Te144  1  0.50227510  -0.00119852  -0.00132663  1
  Te  Te145  1  0.49932359  -0.00796548  0.33574405  1
  Te  Te146  1  0.49934980  0.00067740  0.66570897  1
  Te  Te147  1  0.50149799  0.33421582  -0.00351478  1
  Te  Te148  1  0.49698856  0.33484404  0.33228586  1
  Te  Te149  1  0.49720209  0.33219780  0.67480036  1
  Te  Te150  1  0.50511572  0.66177589  -0.00142594  1
  Te  Te151  1  0.50254878  0.66887227  0.33685872  1
  Te  Te152  1  0.50424262  0.66745237  0.65912714  1
  Te  Te153  1  0.83015636  -0.00566724  -0.00112787  1
  Te  Te154  1  0.83730112  0.00018845  0.34021241  1
  Te  Te155  1  0.83605991  -0.00001671  0.66262423  1
  Te  Te156  1  0.83035665  0.33302358  0.00097523  1
  Te  Te157  1  0.84406221  0.33372226  0.33510912  1
  Te  Te158  1  0.83634469  0.33328742  0.66524397  1
  Te  Te159  1  0.82715382  0.67349859  -0.00015238  1
  Te  Te160  1  0.82927579  0.66323923  0.33576606  1
  Te  Te161  1  0.83325941  0.66672950  0.66475669  1
  Te  Te162  1  -0.00153320  0.16490277  0.00111069  1
  Te  Te163  1  -0.00424934  0.16782407  0.33393788  1
  Te  Te164  1  0.00145944  0.16838805  0.66590355  1
  Te  Te165  1  -0.00155516  0.50083003  -0.00636572  1
  Te  Te166  1  0.00950510  0.49732331  0.33253174  1
  Te  Te167  1  -0.00412516  0.49854940  0.66816897  1
  Te  Te168  1  0.00466918  0.83255033  -0.00113701  1
  Te  Te169  1  0.00050838  0.83361316  0.33232462  1
  Te  Te170  1  -0.00154321  0.83360293  0.66774710  1
  Te  Te171  1  0.33308662  0.16647938  -0.00333324  1
  Te  Te172  1  0.33527392  0.16921529  0.33337726  1
  Te  Te173  1  0.33048705  0.17110475  0.66762056  1
  Te  Te174  1  0.33966798  0.49751592  0.00167395  1
  Te  Te175  1  0.33472457  0.49597955  0.33496262  1
  Te  Te176  1  0.33259468  0.49289690  0.66041749  1
  Te  Te177  1  0.32911260  0.83502526  0.00066511  1
  Te  Te178  1  0.33146556  0.83757249  0.33163062  1
  Te  Te179  1  0.32692984  0.83399908  0.66712341  1
  Te  Te180  1  0.66662090  0.16529774  0.00630415  1
  Te  Te181  1  0.66758075  0.16716916  0.32950127  1
  Te  Te182  1  0.67394750  0.16760617  0.66685318  1
  Te  Te183  1  0.66459932  0.50254596  -0.00358313  1
  Te  Te184  1  0.66225404  0.49909926  0.33207665  1
  Te  Te185  1  0.67248935  0.50146408  0.67436961  1
  Te  Te186  1  0.66334857  0.83076817  -0.00040607  1
  Te  Te187  1  0.66561595  0.83291541  0.33008036  1
  Te  Te188  1  0.66932253  0.82886658  0.66863208  1
  Te  Te189  1  -0.00118954  0.00086888  0.17193935  1
  Te  Te190  1  -0.00278251  0.00033412  0.50205306  1
  Te  Te191  1  0.00078567  0.00062360  0.82688905  1
  Te  Te192  1  0.00103234  0.33378262  0.16737055  1
  Te  Te193  1  0.00320523  0.33360334  0.50112735  1
  Te  Te194  1  -0.00014359  0.33741876  0.82909155  1
  Te  Te195  1  0.00106917  0.66540257  0.16452771  1
  Te  Te196  1  0.00619040  0.66659586  0.50594816  1
  Te  Te197  1  0.00022551  0.65906230  0.82500213  1
  Te  Te198  1  0.33433254  0.00500305  0.15868743  1
  Te  Te199  1  0.33949258  0.00544232  0.49942615  1
  Te  Te200  1  0.33880793  0.00601565  0.83721933  1
  Te  Te201  1  0.33744204  0.33253341  0.16174465  1
  Te  Te202  1  0.33262925  0.33148309  0.49777361  1
  Te  Te203  1  0.33554005  0.33206052  0.84290881  1
  Te  Te204  1  0.34328066  0.66263462  0.16692462  1
  Te  Te205  1  0.33439612  0.66612777  0.50057345  1
  Te  Te206  1  0.33432842  0.66765656  0.83244195  1
  Te  Te207  1  0.66666429  -0.00855367  0.16119886  1
  Te  Te208  1  0.66474950  0.00082417  0.49994493  1
  Te  Te209  1  0.66084514  0.00080601  0.83737209  1
  Te  Te210  1  0.66114333  0.33733195  0.16848030  1
  Te  Te211  1  0.66266133  0.33954985  0.49598033  1
  Te  Te212  1  0.66263124  0.33513330  0.83562980  1
  Te  Te213  1  0.66210495  0.66530048  0.16849628  1
  Te  Te214  1  0.66392954  0.66244586  0.50038124  1
  Te  Te215  1  0.66443084  0.66703560  0.82893564  1
