# generated using pymatgen
data_AgSbTe2
_symmetry_space_group_name_H-M   'P 1'
_cell_length_a   18.30959767
_cell_length_b   18.31191619
_cell_length_c   18.31087414
_cell_angle_alpha   89.99934485
_cell_angle_beta   89.99853572
_cell_angle_gamma   90.00156021
_symmetry_Int_Tables_number   1
_chemical_formula_structural   AgSbTe2
_chemical_formula_sum   'Ag54 Sb54 Te108'
_cell_volume   6139.33978963
_cell_formula_units_Z   54
loop_
 _symmetry_equiv_pos_site_id
 _symmetry_equiv_pos_as_xyz
  1  'x, y, z'
loop_
 _atom_site_type_symbol
 _atom_site_label
 _atom_site_symmetry_multiplicity
 _atom_site_fract_x
 _atom_site_fract_y
 _atom_site_fract_z
 _atom_site_occupancy
  Ag  Ag0  1  0.33191893  0.16655212  0.84641386  1
  Ag  Ag1  1  0.33391542  0.01048465  0.00095791  1
  Ag  Ag2  1  0.83606118  -0.00432675  0.83508161  1
  Ag  Ag3  1  0.50570098  0.66291644  0.83317705  1
  Ag  Ag4  1  0.49989574  0.50106092  -0.00384612  1
  Ag  Ag5  1  -0.00048877  0.50642782  0.82635150  1
  Ag  Ag6  1  0.50604078  -0.00407577  0.49813468  1
  Ag  Ag7  1  0.83339067  0.33221000  0.16453098  1
  Ag  Ag8  1  0.17891336  0.16412815  -0.00200299  1
  Ag  Ag9  1  0.34157357  0.66135634  0.33352588  1
  Ag  Ag10  1  0.83216699  0.16674931  -0.00001004  1
  Ag  Ag11  1  0.33277723  0.32341974  -0.00048983  1
  Ag  Ag12  1  0.50038681  0.50057949  0.33788610  1
  Ag  Ag13  1  0.49125499  0.16741414  0.00394531  1
  Ag  Ag14  1  0.15640383  0.67093898  0.83363705  1
  Ag  Ag15  1  0.33834092  0.16316881  0.15800923  1
  Ag  Ag16  1  0.66490327  0.66934056  -0.00445658  1
  Ag  Ag17  1  -0.00690981  0.66011115  0.67099645  1
  Ag  Ag18  1  0.66477922  0.16202811  0.16747356  1
  Ag  Ag19  1  -0.00713774  0.82782092  0.16017449  1
  Ag  Ag20  1  0.33318510  0.17062058  0.49634957  1
  Ag  Ag21  1  0.33811520  0.49731406  0.49656482  1
  Ag  Ag22  1  -0.00519507  0.82720935  0.50374091  1
  Ag  Ag23  1  0.66760303  0.82702943  0.49639875  1
  Ag  Ag24  1  0.33717708  0.83744353  0.16263108  1
  Ag  Ag25  1  0.50577857  0.66318286  0.50045051  1
  Ag  Ag26  1  0.16454488  0.16904625  0.67003992  1
  Ag  Ag27  1  0.17001097  0.83787049  -0.00123369  1
  Ag  Ag28  1  0.83126161  0.67101781  0.83405610  1
  Ag  Ag29  1  -0.00348850  0.50385272  0.16535860  1
  Ag  Ag30  1  0.66413582  0.33453879  0.33285787  1
  Ag  Ag31  1  -0.00104213  0.50393689  0.50681539  1
  Ag  Ag32  1  0.16224217  -0.00077676  0.83735852  1
  Ag  Ag33  1  0.67175162  0.82800481  0.84010970  1
  Ag  Ag34  1  0.66968129  0.66493990  0.66828099  1
  Ag  Ag35  1  0.82750311  -0.00048487  0.50068535  1
  Ag  Ag36  1  0.17094282  0.49761219  0.33798861  1
  Ag  Ag37  1  0.66987166  0.83230318  0.16583954  1
  Ag  Ag38  1  -0.00501964  0.82616658  0.83547881  1
  Ag  Ag39  1  0.66264002  0.66643686  0.33816942  1
  Ag  Ag40  1  -0.00113794  0.34069334  0.67063160  1
  Ag  Ag41  1  0.83086657  0.66963738  0.16056840  1
  Ag  Ag42  1  0.00279577  0.33431693  -0.00376004  1
  Ag  Ag43  1  0.17643096  0.17091452  0.33314096  1
  Ag  Ag44  1  0.83620613  0.16995100  0.67229038  1
  Ag  Ag45  1  0.50606897  0.50272280  0.66144163  1
  Ag  Ag46  1  0.66605572  -0.00159612  0.33312912  1
  Ag  Ag47  1  0.65794019  0.50894160  0.49844989  1
  Ag  Ag48  1  0.49995043  0.34169357  0.83731119  1
  Ag  Ag49  1  0.83026349  -0.00047099  0.16342111  1
  Ag  Ag50  1  0.16662287  0.33426528  0.49882610  1
  Ag  Ag51  1  0.83598222  0.50047434  0.66653629  1
  Ag  Ag52  1  0.49720547  0.17131084  0.32918025  1
  Ag  Ag53  1  0.49990464  0.83137129  -0.00028020  1
  Sb  Sb54  1  0.33508176  0.66331010  0.66368069  1
  Sb  Sb55  1  0.66924677  -0.00504569  0.66237597  1
  Sb  Sb56  1  0.50648787  0.66781137  0.16643235  1
  Sb  Sb57  1  0.16247271  0.33193376  0.16906112  1
  Sb  Sb58  1  0.83138330  0.33409146  0.83615250  1
  Sb  Sb59  1  0.82967244  0.83215562  0.33176154  1
  Sb  Sb60  1  -0.00442746  -0.00017519  0.33293743  1
  Sb  Sb61  1  0.33282982  0.83625746  0.84165877  1
  Sb  Sb62  1  -0.00323605  0.66470384  0.33585710  1
  Sb  Sb63  1  0.16245871  0.49627159  0.66275589  1
  Sb  Sb64  1  0.00177881  0.00093391  -0.00120351  1
  Sb  Sb65  1  0.50308792  0.82619419  0.67105249  1
  Sb  Sb66  1  0.00348068  0.16679332  0.83431878  1
  Sb  Sb67  1  0.16861922  0.49891743  0.00174562  1
  Sb  Sb68  1  0.66408118  -0.00430363  0.00498970  1
  Sb  Sb69  1  0.33003647  0.33270233  0.66853657  1
  Sb  Sb70  1  0.16749150  0.83263176  0.32897991  1
  Sb  Sb71  1  0.16205676  0.66797766  0.16268018  1
  Sb  Sb72  1  0.33374588  0.49779083  0.83075431  1
  Sb  Sb73  1  -0.00208095  0.16658533  0.16420175  1
  Sb  Sb74  1  0.82744151  0.66893923  0.50396984  1
  Sb  Sb75  1  0.67011439  0.34008786  0.66239170  1
  Sb  Sb76  1  0.83040160  0.49799463  -0.00235698  1
  Sb  Sb77  1  0.50546966  0.00151409  0.16948103  1
  Sb  Sb78  1  0.33155953  0.49869350  0.17017126  1
  Sb  Sb79  1  0.66462410  0.16134042  0.83926630  1
  Sb  Sb80  1  0.16730239  0.33179445  0.83170430  1
  Sb  Sb81  1  0.49642130  0.33863080  0.50167311  1
  Sb  Sb82  1  0.33729903  0.33416347  0.33004439  1
  Sb  Sb83  1  -0.00187365  0.33570270  0.33311731  1
  Sb  Sb84  1  0.50340324  0.83086565  0.32952313  1
  Sb  Sb85  1  0.50066854  0.17217502  0.66677834  1
  Sb  Sb86  1  0.66770330  0.50781884  0.82890157  1
  Sb  Sb87  1  0.83221826  0.83693869  -0.00010297  1
  Sb  Sb88  1  0.82903587  0.16647134  0.33025906  1
  Sb  Sb89  1  0.83011641  0.50112669  0.33718665  1
  Sb  Sb90  1  0.50138626  -0.00233557  0.83293031  1
  Sb  Sb91  1  0.16313932  0.83565271  0.67369193  1
  Sb  Sb92  1  0.66470224  0.33526303  0.00359880  1
  Sb  Sb93  1  0.33327113  0.00336344  0.67096675  1
  Sb  Sb94  1  0.00273701  0.16853956  0.50209005  1
  Sb  Sb95  1  0.83661291  0.33188906  0.49805427  1
  Sb  Sb96  1  0.50455148  0.33089163  0.16268049  1
  Sb  Sb97  1  0.16387445  0.00057531  0.16170518  1
  Sb  Sb98  1  0.66292770  0.16557206  0.49438765  1
  Sb  Sb99  1  0.33914388  0.66672450  0.00336705  1
  Sb  Sb100  1  0.67037373  0.50353707  0.17143124  1
  Sb  Sb101  1  -0.00539740  0.66397328  -0.00610564  1
  Sb  Sb102  1  0.83337329  0.82961891  0.66848082  1
  Sb  Sb103  1  0.16723435  0.66244896  0.50305961  1
  Sb  Sb104  1  -0.00293622  -0.00040053  0.66784827  1
  Sb  Sb105  1  0.33869660  0.00176530  0.32818605  1
  Sb  Sb106  1  0.33700975  0.83172922  0.49274040  1
  Sb  Sb107  1  0.16634547  0.00463421  0.50437764  1
  Te  Te108  1  0.16927980  0.16576830  0.16382847  1
  Te  Te109  1  0.16980448  0.16861991  0.50048962  1
  Te  Te110  1  0.16941030  0.16501505  0.83582477  1
  Te  Te111  1  0.16021662  0.50022930  0.17249917  1
  Te  Te112  1  0.16656525  0.49834980  0.49721982  1
  Te  Te113  1  0.16295747  0.50454921  0.83297666  1
  Te  Te114  1  0.16404530  0.83402786  0.16056400  1
  Te  Te115  1  0.16264917  0.83429941  0.49987740  1
  Te  Te116  1  0.16510127  0.83420883  0.83817277  1
  Te  Te117  1  0.50066984  0.16606635  0.16694491  1
  Te  Te118  1  0.49598934  0.16801702  0.49866107  1
  Te  Te119  1  0.49620092  0.16582842  0.83596656  1
  Te  Te120  1  0.49991050  0.49947542  0.16889836  1
  Te  Te121  1  0.49974967  0.50096201  0.49833123  1
  Te  Te122  1  0.49961826  0.50232208  0.83651389  1
  Te  Te123  1  0.50253709  0.83489378  0.16051464  1
  Te  Te124  1  0.50314536  0.83100045  0.50027416  1
  Te  Te125  1  0.50375663  0.82907785  0.83823780  1
  Te  Te126  1  0.83068955  0.16454260  0.16560776  1
  Te  Te127  1  0.83348782  0.16190983  0.50182956  1
  Te  Te128  1  0.83329395  0.16411448  0.83411540  1
  Te  Te129  1  0.83769064  0.49988900  0.16648363  1
  Te  Te130  1  0.83847359  0.50001584  0.50547180  1
  Te  Te131  1  0.83732015  0.50245236  0.82970616  1
  Te  Te132  1  0.83181216  0.83361761  0.16568456  1
  Te  Te133  1  0.83326555  0.83760667  0.50077621  1
  Te  Te134  1  0.83328084  0.83268105  0.83398871  1
  Te  Te135  1  0.16844376  0.00165078  -0.00339635  1
  Te  Te136  1  0.16717448  0.00570307  0.33431192  1
  Te  Te137  1  0.16514684  0.00770746  0.67449313  1
  Te  Te138  1  0.16579751  0.33059843  0.00025813  1
  Te  Te139  1  0.16729142  0.33330997  0.33742294  1
  Te  Te140  1  0.16150826  0.32831964  0.66347384  1
  Te  Te141  1  0.16808719  0.66807875  -0.00622383  1
  Te  Te142  1  0.16960799  0.66305660  0.33369968  1
  Te  Te143  1  0.16435236  0.66707592  0.67348462  1
  Te  Te144  1  0.49617397  0.00280146  -0.00063576  1
  Te  Te145  1  0.50465661  0.00371932  0.33818819  1
  Te  Te146  1  0.50109821  0.00122579  0.65877263  1
  Te  Te147  1  0.49866714  0.33067309  -0.00236997  1
  Te  Te148  1  0.50421996  0.33343105  0.33349606  1
  Te  Te149  1  0.50096147  0.34100538  0.67435157  1
  Te  Te150  1  0.50403513  0.66695393  -0.00038390  1
  Te  Te151  1  0.50145102  0.66473930  0.33419147  1
  Te  Te152  1  0.50214312  0.66169032  0.66639233  1
  Te  Te153  1  0.83274936  0.00561056  -0.00147671  1
  Te  Te154  1  0.82807833  0.00056100  0.33427807  1
  Te  Te155  1  0.83329000  0.00660730  0.66842638  1
  Te  Te156  1  0.83540823  0.32978148  0.00301815  1
  Te  Te157  1  0.82714494  0.33305315  0.32724051  1
  Te  Te158  1  0.83781161  0.33370273  0.66685320  1
  Te  Te159  1  0.82731379  0.66591106  -0.00187036  1
  Te  Te160  1  0.82616689  0.66542058  0.32547550  1
  Te  Te161  1  0.83213721  0.66357137  0.66980154  1
  Te  Te162  1  -0.00544733  0.17173126  -0.00003266  1
  Te  Te163  1  0.01044746  0.16752854  0.33289814  1
  Te  Te164  1  -0.00123789  0.17054641  0.66772106  1
  Te  Te165  1  0.00066173  0.49601868  0.00263429  1
  Te  Te166  1  0.00342197  0.50012002  0.33405361  1
  Te  Te167  1  0.00046092  0.50018821  0.66683572  1
  Te  Te168  1  0.00408690  0.83257904  -0.00065583  1
  Te  Te169  1  0.00157694  0.83224503  0.33300873  1
  Te  Te170  1  -0.00014249  0.82763387  0.66732814  1
  Te  Te171  1  0.33475697  0.16674997  0.00215385  1
  Te  Te172  1  0.33594265  0.16742833  0.33544362  1
  Te  Te173  1  0.33089010  0.16748837  0.65889305  1
  Te  Te174  1  0.33866750  0.49631518  0.00086105  1
  Te  Te175  1  0.33467153  0.50030264  0.33548671  1
  Te  Te176  1  0.33942304  0.49833911  0.65938864  1
  Te  Te177  1  0.33368406  0.83298746  0.00511827  1
  Te  Te178  1  0.33398348  0.82996187  0.32372442  1
  Te  Te179  1  0.33271521  0.83400534  0.66544679  1
  Te  Te180  1  0.66924709  0.16619307  0.00610642  1
  Te  Te181  1  0.66269422  0.16562395  0.32878103  1
  Te  Te182  1  0.67177542  0.16857780  0.66776144  1
  Te  Te183  1  0.66019837  0.50436578  0.00087949  1
  Te  Te184  1  0.66344475  0.50205249  0.33745279  1
  Te  Te185  1  0.66751852  0.50429306  0.66185983  1
  Te  Te186  1  0.66489090  0.83092187  0.00141284  1
  Te  Te187  1  0.66509098  0.83308773  0.33367317  1
  Te  Te188  1  0.66685543  0.82641055  0.66266050  1
  Te  Te189  1  -0.00862951  -0.00677784  0.16644109  1
  Te  Te190  1  -0.00446480  -0.00613320  0.50045170  1
  Te  Te191  1  -0.00282152  -0.00602551  0.83301398  1
  Te  Te192  1  -0.00524792  0.33596382  0.16347829  1
  Te  Te193  1  0.00377306  0.33716362  0.50271925  1
  Te  Te194  1  -0.00082214  0.33754736  0.83416915  1
  Te  Te195  1  -0.00549946  0.66770017  0.16708097  1
  Te  Te196  1  -0.00139580  0.66698137  0.50366457  1
  Te  Te197  1  -0.00294452  0.66638147  0.83275341  1
  Te  Te198  1  0.33246261  0.00005482  0.16179742  1
  Te  Te199  1  0.33662422  0.00144928  0.49929830  1
  Te  Te200  1  0.33181988  0.00425066  0.83817123  1
  Te  Te201  1  0.33293714  0.32857299  0.16085923  1
  Te  Te202  1  0.32827962  0.33376527  0.49910451  1
  Te  Te203  1  0.33641906  0.32987198  0.83712841  1
  Te  Te204  1  0.33151480  0.66842195  0.17213893  1
  Te  Te205  1  0.33780982  0.66441186  0.49537518  1
  Te  Te206  1  0.33965472  0.66713551  0.83287539  1
  Te  Te207  1  0.67099323  -0.00229029  0.17038177  1
  Te  Te208  1  0.66666588  -0.00162976  0.49627066  1
  Te  Te209  1  0.67191981  -0.00800130  0.83201079  1
  Te  Te210  1  0.67173957  0.33130957  0.17066348  1
  Te  Te211  1  0.66742084  0.33730218  0.49403097  1
  Te  Te212  1  0.66049860  0.33212024  0.83284865  1
  Te  Te213  1  0.67128689  0.66974768  0.16704680  1
  Te  Te214  1  0.66677173  0.66785811  0.49946627  1
  Te  Te215  1  0.66715601  0.66861992  0.83258680  1
