# generated using pymatgen
data_AgSbTe2
_symmetry_space_group_name_H-M   'P 1'
_cell_length_a   18.31312902
_cell_length_b   18.31492154
_cell_length_c   18.30578004
_cell_angle_alpha   90.00011607
_cell_angle_beta   89.99947981
_cell_angle_gamma   90.00189659
_symmetry_Int_Tables_number   1
_chemical_formula_structural   AgSbTe2
_chemical_formula_sum   'Ag54 Sb54 Te108'
_cell_volume   6139.82307832
_cell_formula_units_Z   54
loop_
 _symmetry_equiv_pos_site_id
 _symmetry_equiv_pos_as_xyz
  1  'x, y, z'
loop_
 _atom_site_type_symbol
 _atom_site_label
 _atom_site_symmetry_multiplicity
 _atom_site_fract_x
 _atom_site_fract_y
 _atom_site_fract_z
 _atom_site_occupancy
  Ag  Ag0  1  0.49174188  0.67183726  0.50174060  1
  Ag  Ag1  1  0.16913471  -0.00420416  0.16940187  1
  Ag  Ag2  1  -0.00453867  0.83405638  0.83140936  1
  Ag  Ag3  1  0.83630327  0.33000984  0.49897788  1
  Ag  Ag4  1  0.66163755  0.49446572  0.49968409  1
  Ag  Ag5  1  0.50077170  0.00099497  0.82462437  1
  Ag  Ag6  1  0.16597691  0.33149289  0.50186300  1
  Ag  Ag7  1  0.17315930  0.67040982  0.50255216  1
  Ag  Ag8  1  0.66527827  0.00513800  0.34347833  1
  Ag  Ag9  1  0.83402412  0.50124578  -0.00129684  1
  Ag  Ag10  1  0.33093365  0.83236142  0.50228272  1
  Ag  Ag11  1  0.50252390  0.16800197  0.34300231  1
  Ag  Ag12  1  0.65980168  0.00031036  0.66394691  1
  Ag  Ag13  1  -0.00243102  0.33701831  -0.00000054  1
  Ag  Ag14  1  -0.00513340  0.66461604  -0.00096202  1
  Ag  Ag15  1  0.33671492  0.16656404  0.82426337  1
  Ag  Ag16  1  0.49761525  -0.00082433  0.16912903  1
  Ag  Ag17  1  0.01001358  0.83728723  0.50527561  1
  Ag  Ag18  1  0.83060006  0.66483361  0.83778268  1
  Ag  Ag19  1  0.65936246  0.16420163  0.49887025  1
  Ag  Ag20  1  0.00072599  0.49469886  0.16546269  1
  Ag  Ag21  1  0.33159056  0.66927726  0.66170443  1
  Ag  Ag22  1  0.49393766  0.16015047  0.66044637  1
  Ag  Ag23  1  0.67260135  0.67345742  -0.00481852  1
  Ag  Ag24  1  -0.00207708  0.00555560  0.33625697  1
  Ag  Ag25  1  0.33187796  0.83358876  0.16937058  1
  Ag  Ag26  1  0.16826179  0.49772500  0.66254477  1
  Ag  Ag27  1  0.83310290  0.16938360  -0.00281550  1
  Ag  Ag28  1  0.82982680  0.49507142  0.33407896  1
  Ag  Ag29  1  0.50278239  0.32627656  0.83390285  1
  Ag  Ag30  1  0.33587802  0.49971918  0.50000952  1
  Ag  Ag31  1  0.66448136  0.33104081  0.33994248  1
  Ag  Ag32  1  0.17236703  0.83740729  0.66363070  1
  Ag  Ag33  1  0.17198065  -0.00069217  0.82340743  1
  Ag  Ag34  1  0.16954883  -0.00198363  0.50394228  1
  Ag  Ag35  1  0.50393664  0.83545381  -0.00872181  1
  Ag  Ag36  1  0.82783014  0.83041903  -0.00451217  1
  Ag  Ag37  1  0.00164995  0.16932940  0.16758689  1
  Ag  Ag38  1  0.17361736  0.16164354  0.66296852  1
  Ag  Ag39  1  0.66819028  0.50236191  0.83040583  1
  Ag  Ag40  1  0.33880806  0.16545885  0.50498135  1
  Ag  Ag41  1  0.83107835  0.33700868  0.83423857  1
  Ag  Ag42  1  -0.00245483  0.33040997  0.33720481  1
  Ag  Ag43  1  0.50221714  0.00323848  0.50385610  1
  Ag  Ag44  1  0.50510539  0.49045484  0.33817201  1
  Ag  Ag45  1  0.33809805  0.33318648  0.33917070  1
  Ag  Ag46  1  0.00295929  0.33282302  0.65972319  1
  Ag  Ag47  1  0.16833531  0.67187387  0.16728165  1
  Ag  Ag48  1  0.33317092  0.66687758  -0.00345288  1
  Ag  Ag49  1  0.49514743  0.84169834  0.66759178  1
  Ag  Ag50  1  0.33043491  0.33530934  -0.00092167  1
  Ag  Ag51  1  0.66562141  -0.00620933  -0.00520275  1
  Ag  Ag52  1  0.82664139  0.00515523  0.49850071  1
  Ag  Ag53  1  0.66768559  0.83391286  0.83630881  1
  Sb  Sb54  1  0.00195232  0.16499488  0.49684394  1
  Sb  Sb55  1  0.50268806  0.67013162  0.83008815  1
  Sb  Sb56  1  0.16476917  0.16622391  -0.00341308  1
  Sb  Sb57  1  0.33580681  0.00443885  0.33700191  1
  Sb  Sb58  1  0.83304632  0.83505708  0.67033357  1
  Sb  Sb59  1  0.66890469  0.16422150  0.17097029  1
  Sb  Sb60  1  0.16721204  0.83603094  0.34166280  1
  Sb  Sb61  1  0.67113188  0.50012444  0.16824466  1
  Sb  Sb62  1  0.33764972  -0.00237457  0.66362874  1
  Sb  Sb63  1  0.16999219  0.16557730  0.34055416  1
  Sb  Sb64  1  0.32893059  0.50392719  0.17065690  1
  Sb  Sb65  1  0.32986802  0.16324360  0.16846553  1
  Sb  Sb66  1  0.00663402  0.66508660  0.66960127  1
  Sb  Sb67  1  0.83047738  0.17098805  0.33336550  1
  Sb  Sb68  1  0.33565815  0.83783001  0.82932910  1
  Sb  Sb69  1  0.66974181  0.33298163  0.00018038  1
  Sb  Sb70  1  0.00037848  0.66486177  0.33027558  1
  Sb  Sb71  1  -0.00499885  0.50145645  0.83661695  1
  Sb  Sb72  1  0.82975878  0.00030211  0.83168273  1
  Sb  Sb73  1  0.66499796  0.66597735  0.33182925  1
  Sb  Sb74  1  0.66157004  0.16506934  0.82826130  1
  Sb  Sb75  1  0.83291811  0.16674924  0.66800567  1
  Sb  Sb76  1  0.33381454  0.66279805  0.33963721  1
  Sb  Sb77  1  0.66808843  0.32962784  0.66168497  1
  Sb  Sb78  1  0.83562625  0.49795593  0.66752129  1
  Sb  Sb79  1  0.00073519  0.00203282  0.66129104  1
  Sb  Sb80  1  0.16282717  0.50084413  -0.00330258  1
  Sb  Sb81  1  0.00657550  0.83421842  0.16520313  1
  Sb  Sb82  1  0.83372245  0.83219900  0.33149153  1
  Sb  Sb83  1  -0.00403426  -0.00048631  0.00313793  1
  Sb  Sb84  1  0.83866787  0.66566705  0.15792076  1
  Sb  Sb85  1  0.16652923  0.49803663  0.33908047  1
  Sb  Sb86  1  0.66020021  0.83562878  0.15849038  1
  Sb  Sb87  1  0.66065466  0.67056600  0.67005289  1
  Sb  Sb88  1  0.00283164  0.16406367  0.83532989  1
  Sb  Sb89  1  0.49697413  0.49894987  0.66176559  1
  Sb  Sb90  1  0.83322535  0.00075379  0.16982282  1
  Sb  Sb91  1  0.33025808  0.33245354  0.66306512  1
  Sb  Sb92  1  0.50327408  0.16111364  -0.00167706  1
  Sb  Sb93  1  0.49983062  0.83841516  0.33765361  1
  Sb  Sb94  1  0.49395614  0.67276695  0.16916546  1
  Sb  Sb95  1  0.33799319  0.49574817  0.82928401  1
  Sb  Sb96  1  0.16475372  0.67208000  0.83034849  1
  Sb  Sb97  1  0.83663292  0.33313099  0.16764574  1
  Sb  Sb98  1  0.50382753  0.50345048  0.00205959  1
  Sb  Sb99  1  0.49861457  0.32893318  0.50122616  1
  Sb  Sb100  1  0.16798399  0.83324703  -0.00452099  1
  Sb  Sb101  1  0.83354769  0.66505931  0.50422878  1
  Sb  Sb102  1  0.66272523  0.83797738  0.50619548  1
  Sb  Sb103  1  0.16360256  0.33163601  0.17187366  1
  Sb  Sb104  1  0.00172950  0.49878554  0.49715203  1
  Sb  Sb105  1  0.33846777  -0.00137987  0.00013215  1
  Sb  Sb106  1  0.16571823  0.32875778  0.82669481  1
  Sb  Sb107  1  0.49850674  0.32797941  0.16661635  1
  Te  Te108  1  0.16230013  0.16141216  0.16767117  1
  Te  Te109  1  0.16900184  0.16582308  0.50304480  1
  Te  Te110  1  0.17172022  0.16057601  0.82807056  1
  Te  Te111  1  0.16127417  0.50402364  0.16646435  1
  Te  Te112  1  0.16929646  0.49970101  0.50322585  1
  Te  Te113  1  0.16795973  0.49980745  0.82441943  1
  Te  Te114  1  0.17146343  0.83452602  0.16589720  1
  Te  Te115  1  0.16900529  0.83454928  0.50299364  1
  Te  Te116  1  0.16515127  0.83901413  0.82713665  1
  Te  Te117  1  0.49873378  0.15924947  0.16948393  1
  Te  Te118  1  0.49917895  0.16595595  0.50059876  1
  Te  Te119  1  0.49668320  0.16405650  0.83277181  1
  Te  Te120  1  0.49912474  0.50063022  0.17389451  1
  Te  Te121  1  0.49923988  0.49809481  0.49812933  1
  Te  Te122  1  0.50696512  0.49685925  0.83345150  1
  Te  Te123  1  0.49353579  0.83897986  0.16643018  1
  Te  Te124  1  0.49738506  0.83507288  0.50333718  1
  Te  Te125  1  0.50221227  0.83614966  0.83158013  1
  Te  Te126  1  0.83961489  0.16585597  0.15928107  1
  Te  Te127  1  0.82957143  0.16737121  0.50020129  1
  Te  Te128  1  0.83348649  0.17149971  0.83731639  1
  Te  Te129  1  0.83865095  0.50010263  0.16501142  1
  Te  Te130  1  0.83024221  0.49782555  0.49851699  1
  Te  Te131  1  0.82922090  0.49768256  0.83476132  1
  Te  Te132  1  0.83456008  0.83326761  0.15873442  1
  Te  Te133  1  0.83526115  0.83568153  0.50031400  1
  Te  Te134  1  0.83277496  0.83350806  0.83625122  1
  Te  Te135  1  0.16600656  0.00005145  0.00242401  1
  Te  Te136  1  0.16244022  0.00130099  0.33442294  1
  Te  Te137  1  0.16505746  -0.00021584  0.66494812  1
  Te  Te138  1  0.16535562  0.33376350  -0.00043242  1
  Te  Te139  1  0.16330495  0.33243959  0.33984401  1
  Te  Te140  1  0.16396752  0.33143772  0.66194217  1
  Te  Te141  1  0.16784905  0.66680429  0.00106380  1
  Te  Te142  1  0.16612219  0.66605278  0.33429421  1
  Te  Te143  1  0.17089484  0.67096599  0.66321100  1
  Te  Te144  1  0.50434810  -0.00409860  -0.00004236  1
  Te  Te145  1  0.50237378  0.00352315  0.33645492  1
  Te  Te146  1  0.50114428  0.00062231  0.66593201  1
  Te  Te147  1  0.49941584  0.33401687  -0.00437236  1
  Te  Te148  1  0.50049262  0.33096804  0.33293621  1
  Te  Te149  1  0.49944013  0.32872411  0.67450005  1
  Te  Te150  1  0.49756188  0.67146340  0.00089393  1
  Te  Te151  1  0.50105399  0.66317817  0.34016718  1
  Te  Te152  1  0.49376862  0.66876594  0.66156706  1
  Te  Te153  1  0.82802950  -0.00161841  0.00056257  1
  Te  Te154  1  0.83260168  0.00050774  0.33792688  1
  Te  Te155  1  0.82765908  0.00090681  0.65889928  1
  Te  Te156  1  0.83471039  0.33571419  -0.00129566  1
  Te  Te157  1  0.83507464  0.33545453  0.33582068  1
  Te  Te158  1  0.83921665  0.33196814  0.66575090  1
  Te  Te159  1  0.83383965  0.66578303  -0.00288291  1
  Te  Te160  1  0.83256949  0.65835400  0.33314795  1
  Te  Te161  1  0.83381383  0.66647589  0.67555911  1
  Te  Te162  1  -0.00344029  0.16938834  0.00344942  1
  Te  Te163  1  -0.00173157  0.16808907  0.32960392  1
  Te  Te164  1  0.00543817  0.17267474  0.66681813  1
  Te  Te165  1  -0.00321963  0.49996367  0.00241332  1
  Te  Te166  1  -0.00393063  0.49669231  0.32902263  1
  Te  Te167  1  0.00639904  0.49423591  0.66731486  1
  Te  Te168  1  -0.00162060  0.83039416  -0.00283620  1
  Te  Te169  1  -0.00180656  0.83722176  0.33811288  1
  Te  Te170  1  0.00261653  0.83344587  0.66651711  1
  Te  Te171  1  0.33380336  0.17278440  -0.00059570  1
  Te  Te172  1  0.33832341  0.17309272  0.33562857  1
  Te  Te173  1  0.33352148  0.16775008  0.66530302  1
  Te  Te174  1  0.33401487  0.49901122  0.00045237  1
  Te  Te175  1  0.33670374  0.49419547  0.33792854  1
  Te  Te176  1  0.32996750  0.50432237  0.66186450  1
  Te  Te177  1  0.33682428  0.83026025  -0.00054482  1
  Te  Te178  1  0.33423069  0.83209593  0.33372422  1
  Te  Te179  1  0.33429618  0.83013370  0.66379504  1
  Te  Te180  1  0.67221556  0.16393012  0.00097628  1
  Te  Te181  1  0.66476569  0.16618523  0.33723320  1
  Te  Te182  1  0.66288578  0.16198721  0.66034432  1
  Te  Te183  1  0.67175897  0.50128609  -0.00195548  1
  Te  Te184  1  0.66710050  0.49914848  0.33539359  1
  Te  Te185  1  0.66604348  0.50107703  0.66581227  1
  Te  Te186  1  0.66518672  0.83330429  -0.00302123  1
  Te  Te187  1  0.66785785  0.83925555  0.33192839  1
  Te  Te188  1  0.66252518  0.83738153  0.67404712  1
  Te  Te189  1  0.00317593  0.00194013  0.17192753  1
  Te  Te190  1  0.00315984  -0.00141754  0.49702673  1
  Te  Te191  1  0.00158957  -0.00498513  0.83320725  1
  Te  Te192  1  0.00161611  0.33331394  0.16592413  1
  Te  Te193  1  -0.00154714  0.33309477  0.49862909  1
  Te  Te194  1  -0.00330276  0.33314049  0.83862721  1
  Te  Te195  1  0.00637714  0.66559088  0.16219620  1
  Te  Te196  1  0.00340316  0.67219157  0.49999221  1
  Te  Te197  1  -0.00315534  0.67097927  0.83750988  1
  Te  Te198  1  0.33156119  -0.00429263  0.16802231  1
  Te  Te199  1  0.33137747  0.00092579  0.49787530  1
  Te  Te200  1  0.33387393  0.00528646  0.83514384  1
  Te  Te201  1  0.33152844  0.33401755  0.16387057  1
  Te  Te202  1  0.33159890  0.33283680  0.49839257  1
  Te  Te203  1  0.33484759  0.32953698  0.83674116  1
  Te  Te204  1  0.32810996  0.67069801  0.16325393  1
  Te  Te205  1  0.33286438  0.66756508  0.50063427  1
  Te  Te206  1  0.33368336  0.66528933  0.83698555  1
  Te  Te207  1  0.66178992  0.00027612  0.16637414  1
  Te  Te208  1  0.66447874  -0.00074904  0.50112313  1
  Te  Te209  1  0.66408433  -0.00138639  0.83383831  1
  Te  Te210  1  0.66568809  0.33268944  0.17778900  1
  Te  Te211  1  0.66860466  0.33468597  0.49798216  1
  Te  Te212  1  0.66871054  0.33434901  0.83257274  1
  Te  Te213  1  0.66428088  0.66724485  0.15783898  1
  Te  Te214  1  0.66516039  0.66370438  0.50071884  1
  Te  Te215  1  0.66858633  0.66677161  0.83611348  1
