# generated using pymatgen
data_AgSbTe2
_symmetry_space_group_name_H-M   'P 1'
_cell_length_a   18.34937124
_cell_length_b   18.35439154
_cell_length_c   18.35877715
_cell_angle_alpha   90.00012677
_cell_angle_beta   90.00185768
_cell_angle_gamma   90.00489025
_symmetry_Int_Tables_number   1
_chemical_formula_structural   AgSbTe2
_chemical_formula_sum   'Ag54 Sb54 Te108'
_cell_volume   6183.08088359
_cell_formula_units_Z   54
loop_
 _symmetry_equiv_pos_site_id
 _symmetry_equiv_pos_as_xyz
  1  'x, y, z'
loop_
 _atom_site_type_symbol
 _atom_site_label
 _atom_site_symmetry_multiplicity
 _atom_site_fract_x
 _atom_site_fract_y
 _atom_site_fract_z
 _atom_site_occupancy
  Ag  Ag0  1  0.83733339  0.50179019  0.66873824  1
  Ag  Ag1  1  0.33352339  0.34039820  0.00516640  1
  Ag  Ag2  1  0.65292924  0.16253336  0.16531278  1
  Ag  Ag3  1  0.65233672  -0.01195671  0.00186714  1
  Ag  Ag4  1  0.16639156  0.66685126  0.84393209  1
  Ag  Ag5  1  0.33341114  0.50369171  0.83960739  1
  Ag  Ag6  1  0.33272067  -0.00445034  0.67367996  1
  Ag  Ag7  1  0.66284172  0.50752812  0.16364764  1
  Ag  Ag8  1  0.17371335  0.83181797  0.00395595  1
  Ag  Ag9  1  0.00298435  -0.01077529  0.00173797  1
  Ag  Ag10  1  0.49425323  0.66990690  0.83916805  1
  Ag  Ag11  1  0.33084347  0.66851433  -0.00098433  1
  Ag  Ag12  1  0.00281283  0.15743083  0.16705592  1
  Ag  Ag13  1  0.00240807  0.50983819  0.83685541  1
  Ag  Ag14  1  0.65709326  0.83336063  0.84363078  1
  Ag  Ag15  1  0.65494247  0.83318820  0.16021187  1
  Ag  Ag16  1  0.33364586  0.83383837  0.16460615  1
  Ag  Ag17  1  0.83740478  0.33370718  0.49791273  1
  Ag  Ag18  1  0.33625628  0.33389511  0.32342018  1
  Ag  Ag19  1  0.83852536  -0.00331202  0.83594749  1
  Ag  Ag20  1  0.16402171  0.67310063  0.15902060  1
  Ag  Ag21  1  0.50010074  0.50407906  0.32128950  1
  Ag  Ag22  1  0.33743602  -0.00680252  -0.00249794  1
  Ag  Ag23  1  0.00398402  -0.00696898  0.66119041  1
  Ag  Ag24  1  0.16620690  -0.00524854  0.49967782  1
  Ag  Ag25  1  0.16559011  0.67662450  0.49759077  1
  Ag  Ag26  1  0.49213110  0.14923584  0.00434900  1
  Ag  Ag27  1  0.49907073  -0.01040627  0.84868427  1
  Ag  Ag28  1  0.49268807  0.83372640  0.31851201  1
  Ag  Ag29  1  0.17543434  0.33926187  0.16346134  1
  Ag  Ag30  1  0.00566301  0.67201403  0.33031357  1
  Ag  Ag31  1  0.65714936  0.67309200  0.00088329  1
  Ag  Ag32  1  0.00090324  -0.00695492  0.33183171  1
  Ag  Ag33  1  0.49517479  0.50806281  0.00153213  1
  Ag  Ag34  1  0.83751525  0.50102778  0.33375281  1
  Ag  Ag35  1  0.32512790  0.15740591  0.49761162  1
  Ag  Ag36  1  -0.00121961  0.83098096  0.84191341  1
  Ag  Ag37  1  0.17405661  0.15733052  0.00252427  1
  Ag  Ag38  1  0.49662616  0.83198725  0.68538816  1
  Ag  Ag39  1  0.33170787  0.83752125  0.49233617  1
  Ag  Ag40  1  0.00227219  0.67179993  0.67665850  1
  Ag  Ag41  1  0.49581836  0.32436855  0.16604530  1
  Ag  Ag42  1  0.49289390  0.83201160  0.00049807  1
  Ag  Ag43  1  0.49597394  0.15860862  0.32217341  1
  Ag  Ag44  1  0.01349461  0.67186873  -0.00208181  1
  Ag  Ag45  1  -0.00103086  0.50282537  0.50360645  1
  Ag  Ag46  1  0.50141204  -0.00022261  0.16398573  1
  Ag  Ag47  1  0.84048405  0.50195800  -0.00121258  1
  Ag  Ag48  1  0.16905587  0.83168513  0.32257835  1
  Ag  Ag49  1  0.00469181  0.15303314  0.49343298  1
  Ag  Ag50  1  0.50160843  0.50700100  0.67850012  1
  Ag  Ag51  1  0.84676317  0.00220173  0.50557112  1
  Ag  Ag52  1  0.01009045  0.83617788  0.16007023  1
  Ag  Ag53  1  0.17264045  0.51563432  0.00062061  1
  Sb  Sb54  1  0.66665608  0.33725094  0.66462620  1
  Sb  Sb55  1  0.83547414  0.33437394  0.83182054  1
  Sb  Sb56  1  0.49453715  0.67064923  0.15871527  1
  Sb  Sb57  1  0.33537086  0.33175173  0.66842040  1
  Sb  Sb58  1  0.83547241  0.16738511  0.66428070  1
  Sb  Sb59  1  0.16561365  0.50335907  0.67218354  1
  Sb  Sb60  1  0.17100399  0.83294813  0.66920159  1
  Sb  Sb61  1  0.16784158  0.34191609  0.84407366  1
  Sb  Sb62  1  0.65839628  0.83494162  0.49758767  1
  Sb  Sb63  1  0.66778663  0.16457406  0.49338590  1
  Sb  Sb64  1  0.33283112  0.16345739  0.16566530  1
  Sb  Sb65  1  0.16765162  -0.00594484  0.83493251  1
  Sb  Sb66  1  0.00082369  0.15885166  0.83644179  1
  Sb  Sb67  1  0.83243097  0.33617719  0.16907914  1
  Sb  Sb68  1  0.00425697  0.33479325  0.33144371  1
  Sb  Sb69  1  0.67183939  0.50104036  0.49537135  1
  Sb  Sb70  1  0.50196619  0.33571730  0.49193839  1
  Sb  Sb71  1  0.83838534  0.83159616  0.33336113  1
  Sb  Sb72  1  0.33053355  0.50141691  0.50234807  1
  Sb  Sb73  1  0.33007982  0.67227973  0.67234409  1
  Sb  Sb74  1  0.00069162  0.33594484  0.66374319  1
  Sb  Sb75  1  0.84278431  0.66654137  0.50003887  1
  Sb  Sb76  1  0.49539991  -0.00074008  0.49655565  1
  Sb  Sb77  1  0.65976088  0.33447663  0.00313530  1
  Sb  Sb78  1  0.66836133  0.66706526  0.32501223  1
  Sb  Sb79  1  0.83877226  0.66637885  0.16252193  1
  Sb  Sb80  1  0.16967676  0.16113393  0.32932600  1
  Sb  Sb81  1  0.16639045  0.16282928  0.66841705  1
  Sb  Sb82  1  0.33620279  0.50093167  0.15836641  1
  Sb  Sb83  1  0.00712358  0.33638272  0.00248492  1
  Sb  Sb84  1  0.33303066  0.82974265  0.84064133  1
  Sb  Sb85  1  0.83230742  0.16885644  0.33217375  1
  Sb  Sb86  1  0.66189980  0.33459222  0.32941459  1
  Sb  Sb87  1  0.49899409  0.33769191  0.84223057  1
  Sb  Sb88  1  0.83325392  -0.00049138  0.16210987  1
  Sb  Sb89  1  0.33115623  0.66637251  0.32774069  1
  Sb  Sb90  1  0.66627266  -0.00245677  0.67302153  1
  Sb  Sb91  1  0.83390387  0.83120825  0.66781222  1
  Sb  Sb92  1  -0.00072872  0.50456972  0.16354189  1
  Sb  Sb93  1  0.83902057  0.67025922  0.83692758  1
  Sb  Sb94  1  0.49414291  0.66786827  0.50359207  1
  Sb  Sb95  1  0.00749148  0.83427597  0.49860653  1
  Sb  Sb96  1  0.66601844  0.50728183  0.84262907  1
  Sb  Sb97  1  0.66918896  -0.00190674  0.32623447  1
  Sb  Sb98  1  0.83303350  0.16749890  0.00170705  1
  Sb  Sb99  1  0.83388457  0.83145177  -0.00032398  1
  Sb  Sb100  1  0.16729098  0.50587722  0.32866337  1
  Sb  Sb101  1  0.66839619  0.66802260  0.67335824  1
  Sb  Sb102  1  0.66326781  0.15637293  0.84299068  1
  Sb  Sb103  1  0.49748761  0.16262595  0.66863900  1
  Sb  Sb104  1  0.33124413  -0.00098323  0.32960246  1
  Sb  Sb105  1  0.16799611  -0.00457829  0.16569614  1
  Sb  Sb106  1  0.16413044  0.33206429  0.49247292  1
  Sb  Sb107  1  0.33281140  0.16755384  0.83613945  1
  Te  Te108  1  0.16372729  0.16620984  0.16421151  1
  Te  Te109  1  0.16511439  0.16473578  0.50058938  1
  Te  Te110  1  0.16535897  0.17053437  0.84123237  1
  Te  Te111  1  0.16576176  0.49969883  0.16087528  1
  Te  Te112  1  0.16079429  0.49843638  0.49963454  1
  Te  Te113  1  0.16503421  0.50597461  0.83845238  1
  Te  Te114  1  0.16762317  0.83371702  0.16523354  1
  Te  Te115  1  0.17193301  0.83596728  0.50527183  1
  Te  Te116  1  0.16136186  0.82795913  0.83832871  1
  Te  Te117  1  0.49610741  0.16528635  0.16521655  1
  Te  Te118  1  0.49783746  0.16832371  0.49919704  1
  Te  Te119  1  0.49975137  0.16394915  0.83956294  1
  Te  Te120  1  0.50172595  0.50537882  0.16363626  1
  Te  Te121  1  0.50014733  0.50072008  0.50176465  1
  Te  Te122  1  0.50033073  0.50351673  0.83598739  1
  Te  Te123  1  0.49724777  0.83371588  0.16143298  1
  Te  Te124  1  0.49115216  0.83300695  0.49354176  1
  Te  Te125  1  0.49680908  0.83219254  0.83962066  1
  Te  Te126  1  0.83868681  0.16837170  0.16735860  1
  Te  Te127  1  0.83734817  0.16512585  0.49851865  1
  Te  Te128  1  0.83220671  0.16059445  0.83241449  1
  Te  Te129  1  0.82878397  0.49933484  0.16762939  1
  Te  Te130  1  0.83677590  0.50046087  0.49776120  1
  Te  Te131  1  0.83564792  0.49964909  0.83255917  1
  Te  Te132  1  0.82860591  0.83377935  0.16991622  1
  Te  Te133  1  0.82850833  0.84092982  0.50045280  1
  Te  Te134  1  0.83778201  0.83840720  0.83059233  1
  Te  Te135  1  0.16289144  -0.00281578  -0.00120707  1
  Te  Te136  1  0.16282250  -0.00568725  0.33722250  1
  Te  Te137  1  0.16756069  0.00010079  0.66535794  1
  Te  Te138  1  0.17359614  0.32660560  0.00613064  1
  Te  Te139  1  0.17340643  0.33408559  0.32520151  1
  Te  Te140  1  0.16844416  0.33189794  0.66730031  1
  Te  Te141  1  0.16794239  0.67054562  -0.00035357  1
  Te  Te142  1  0.16488723  0.67058737  0.33666144  1
  Te  Te143  1  0.16056735  0.66615042  0.66023760  1
  Te  Te144  1  0.49844821  -0.00507298  0.00327337  1
  Te  Te145  1  0.50125403  -0.00215918  0.32891047  1
  Te  Te146  1  0.49732062  -0.00495070  0.66421063  1
  Te  Te147  1  0.49365280  0.34180572  0.00589975  1
  Te  Te148  1  0.49630837  0.33802523  0.32837079  1
  Te  Te149  1  0.50043066  0.33759106  0.66755514  1
  Te  Te150  1  0.49799589  0.66998891  -0.00159125  1
  Te  Te151  1  0.49997226  0.66666704  0.33534425  1
  Te  Te152  1  0.50020198  0.66803876  0.67074816  1
  Te  Te153  1  0.84588476  0.00402701  -0.00524548  1
  Te  Te154  1  0.83986111  -0.00007563  0.33637757  1
  Te  Te155  1  0.83689099  -0.00033582  0.66862855  1
  Te  Te156  1  0.83243182  0.34141346  -0.00081896  1
  Te  Te157  1  0.83416758  0.33924073  0.33717864  1
  Te  Te158  1  0.83305876  0.34019599  0.66148565  1
  Te  Te159  1  0.82816015  0.65732226  -0.00115252  1
  Te  Te160  1  0.83750238  0.66131679  0.33359454  1
  Te  Te161  1  0.83873185  0.66157486  0.66708706  1
  Te  Te162  1  0.00183699  0.16929471  0.00289235  1
  Te  Te163  1  0.00089215  0.16421769  0.33329085  1
  Te  Te164  1  -0.00020323  0.16236498  0.66440863  1
  Te  Te165  1  0.00050566  0.50228302  -0.00156572  1
  Te  Te166  1  -0.00091970  0.50272786  0.33294294  1
  Te  Te167  1  -0.00127824  0.50113433  0.66683618  1
  Te  Te168  1  -0.00526880  0.82954149  0.00180947  1
  Te  Te169  1  0.00289325  0.83279251  0.33256029  1
  Te  Te170  1  0.00016924  0.83301371  0.66805184  1
  Te  Te171  1  0.33402837  0.16182826  -0.00098808  1
  Te  Te172  1  0.33634297  0.16801832  0.33719184  1
  Te  Te173  1  0.33381309  0.15961577  0.66117449  1
  Te  Te174  1  0.33151311  0.50243111  -0.00084121  1
  Te  Te175  1  0.33872181  0.49663528  0.33657815  1
  Te  Te176  1  0.33883095  0.49946314  0.67231995  1
  Te  Te177  1  0.33182913  0.83299896  0.00000278  1
  Te  Te178  1  0.33122307  0.83270793  0.33040254  1
  Te  Te179  1  0.33716900  0.83741895  0.66415064  1
  Te  Te180  1  0.66458070  0.16656342  0.00736102  1
  Te  Te181  1  0.65903853  0.16611877  0.32628734  1
  Te  Te182  1  0.66599504  0.16803099  0.66690673  1
  Te  Te183  1  0.66177569  0.50001050  0.00399912  1
  Te  Te184  1  0.66230903  0.50121041  0.32818183  1
  Te  Te185  1  0.66375480  0.50174180  0.66647674  1
  Te  Te186  1  0.67427164  0.83319730  0.00045149  1
  Te  Te187  1  0.65974176  0.83238951  0.32898870  1
  Te  Te188  1  0.65833151  0.83346420  0.66666075  1
  Te  Te189  1  0.00041143  -0.00303639  0.16706565  1
  Te  Te190  1  0.00362153  -0.00357258  0.50142767  1
  Te  Te191  1  0.00041391  -0.00370680  0.83470312  1
  Te  Te192  1  0.00052347  0.32661401  0.16746146  1
  Te  Te193  1  -0.00322077  0.33801034  0.49824136  1
  Te  Te194  1  -0.00034249  0.33904896  0.83181112  1
  Te  Te195  1  0.00410531  0.67055137  0.16518689  1
  Te  Te196  1  0.00404982  0.66495892  0.49611520  1
  Te  Te197  1  -0.00014363  0.66781220  0.83560123  1
  Te  Te198  1  0.33859841  -0.00415555  0.16270026  1
  Te  Te199  1  0.33046279  -0.00044203  0.49593786  1
  Te  Te200  1  0.33727051  0.00185161  0.83281043  1
  Te  Te201  1  0.33578040  0.33408491  0.16507003  1
  Te  Te202  1  0.33323986  0.33146801  0.49925049  1
  Te  Te203  1  0.33433783  0.34021915  0.83712094  1
  Te  Te204  1  0.32465654  0.67146771  0.16201175  1
  Te  Te205  1  0.32616049  0.66922368  0.50173043  1
  Te  Te206  1  0.33247438  0.66300404  0.83505444  1
  Te  Te207  1  0.66664738  -0.00206792  0.16205655  1
  Te  Te208  1  0.67225529  0.00126997  0.50060900  1
  Te  Te209  1  0.66380410  -0.00650298  0.83954878  1
  Te  Te210  1  0.66259301  0.32987082  0.16718001  1
  Te  Te211  1  0.67594857  0.33292683  0.49819765  1
  Te  Te212  1  0.66787125  0.33027149  0.83206292  1
  Te  Te213  1  0.66939316  0.66832055  0.16085127  1
  Te  Te214  1  0.66735416  0.66761867  0.49991382  1
  Te  Te215  1  0.66176113  0.67254891  0.83862257  1
