# generated using pymatgen
data_AgSbTe2
_symmetry_space_group_name_H-M   'P 1'
_cell_length_a   18.31692934
_cell_length_b   18.31385915
_cell_length_c   18.31461100
_cell_angle_alpha   90.00008899
_cell_angle_beta   89.99966423
_cell_angle_gamma   89.99858700
_symmetry_Int_Tables_number   1
_chemical_formula_structural   AgSbTe2
_chemical_formula_sum   'Ag54 Sb54 Te108'
_cell_volume   6143.70336330
_cell_formula_units_Z   54
loop_
 _symmetry_equiv_pos_site_id
 _symmetry_equiv_pos_as_xyz
  1  'x, y, z'
loop_
 _atom_site_type_symbol
 _atom_site_label
 _atom_site_symmetry_multiplicity
 _atom_site_fract_x
 _atom_site_fract_y
 _atom_site_fract_z
 _atom_site_occupancy
  Ag  Ag0  1  0.00137046  0.16585521  0.16383140  1
  Ag  Ag1  1  0.66622079  0.50425377  0.16524184  1
  Ag  Ag2  1  0.16783373  0.34107288  0.83495175  1
  Ag  Ag3  1  0.32333507  0.67143402  0.67820660  1
  Ag  Ag4  1  0.83544949  0.33643720  0.49303037  1
  Ag  Ag5  1  0.33264050  0.66709455  0.33267621  1
  Ag  Ag6  1  0.67174242  -0.00030121  0.00507522  1
  Ag  Ag7  1  0.49916387  0.50199085  -0.00722333  1
  Ag  Ag8  1  0.84086163  0.16496351  0.00045184  1
  Ag  Ag9  1  0.16881199  0.51208609  0.67330895  1
  Ag  Ag10  1  -0.00262070  0.00173956  0.33018621  1
  Ag  Ag11  1  0.33348945  0.66531852  -0.01053967  1
  Ag  Ag12  1  -0.00142714  0.32839908  -0.00038330  1
  Ag  Ag13  1  0.83228852  0.00654437  0.84272764  1
  Ag  Ag14  1  0.16349722  0.16503764  0.32679422  1
  Ag  Ag15  1  0.50817737  -0.00728457  0.16893728  1
  Ag  Ag16  1  0.16834480  0.83669565  -0.00697818  1
  Ag  Ag17  1  0.83258169  0.33176883  0.84031137  1
  Ag  Ag18  1  0.49191499  0.50346119  0.67900260  1
  Ag  Ag19  1  0.32633424  -0.00922863  0.66901507  1
  Ag  Ag20  1  0.83433627  0.33068282  0.16484808  1
  Ag  Ag21  1  0.65323662  0.50059850  0.83976201  1
  Ag  Ag22  1  0.16502724  0.67367247  0.51083807  1
  Ag  Ag23  1  0.16087509  0.16232113  0.00196890  1
  Ag  Ag24  1  0.00658382  -0.00262899  0.66805945  1
  Ag  Ag25  1  0.50090452  0.83237674  0.32990934  1
  Ag  Ag26  1  0.49462655  -0.00201976  0.49594347  1
  Ag  Ag27  1  0.66603655  0.16806970  0.83717385  1
  Ag  Ag28  1  0.33906865  0.50990432  0.83676704  1
  Ag  Ag29  1  0.33427575  0.82217472  0.82924603  1
  Ag  Ag30  1  0.33733938  0.50378262  0.15892499  1
  Ag  Ag31  1  0.17805303  0.66016780  0.82241454  1
  Ag  Ag32  1  0.33327422  0.16769138  0.83798797  1
  Ag  Ag33  1  0.66490432  0.66778920  0.32947243  1
  Ag  Ag34  1  0.84206659  0.66315306  0.49583945  1
  Ag  Ag35  1  0.48894043  0.65893927  0.83677301  1
  Ag  Ag36  1  0.83241054  0.49955283  0.32954221  1
  Ag  Ag37  1  0.66913182  -0.00255822  0.32357474  1
  Ag  Ag38  1  0.67052311  0.33675717  0.32864421  1
  Ag  Ag39  1  0.00033369  0.16273191  0.49290490  1
  Ag  Ag40  1  0.66428554  0.83614164  0.16545660  1
  Ag  Ag41  1  0.00033056  0.66776689  0.33722968  1
  Ag  Ag42  1  0.66031515  0.83164650  0.83936049  1
  Ag  Ag43  1  0.32676074  0.16708305  0.16044737  1
  Ag  Ag44  1  0.82982199  0.00586838  0.16184398  1
  Ag  Ag45  1  0.17078135  0.82506717  0.67140258  1
  Ag  Ag46  1  0.49885280  0.66671982  0.16405267  1
  Ag  Ag47  1  0.33106007  0.83202655  0.50908920  1
  Ag  Ag48  1  0.49938888  0.34677088  0.83479682  1
  Ag  Ag49  1  0.16667004  -0.00547012  0.50342904  1
  Ag  Ag50  1  0.00437297  0.49889390  0.83718467  1
  Ag  Ag51  1  -0.00369101  0.49618334  0.16277202  1
  Ag  Ag52  1  0.01122933  0.66811416  0.66416195  1
  Ag  Ag53  1  -0.00444386  0.00772294  0.00187556  1
  Sb  Sb54  1  0.17014659  0.50049541  -0.00764590  1
  Sb  Sb55  1  0.16488933  0.00193412  0.16870485  1
  Sb  Sb56  1  0.17036603  0.83459459  0.33410553  1
  Sb  Sb57  1  0.00114529  0.16899983  0.84043565  1
  Sb  Sb58  1  0.00016837  0.33394750  0.67335623  1
  Sb  Sb59  1  0.66796380  0.50103159  0.49674615  1
  Sb  Sb60  1  0.83112691  0.49516503  0.00327978  1
  Sb  Sb61  1  -0.00117519  0.50081672  0.50028792  1
  Sb  Sb62  1  0.33807353  0.33730920  0.33004245  1
  Sb  Sb63  1  0.16091927  0.33230050  0.16031140  1
  Sb  Sb64  1  0.16550289  0.16409171  0.67037049  1
  Sb  Sb65  1  0.82834618  0.82975170  0.33265028  1
  Sb  Sb66  1  0.49726980  0.16754706  0.66952455  1
  Sb  Sb67  1  0.49858215  0.16947623  -0.00061822  1
  Sb  Sb68  1  0.33255478  -0.00258659  -0.00328233  1
  Sb  Sb69  1  0.83475710  0.84122001  -0.00069612  1
  Sb  Sb70  1  0.50204498  -0.00282787  0.83559118  1
  Sb  Sb71  1  0.83734234  0.16933728  0.32697069  1
  Sb  Sb72  1  0.17237213  0.66495275  0.16569821  1
  Sb  Sb73  1  0.67314605  0.16545291  0.50064988  1
  Sb  Sb74  1  0.83507926  0.50093106  0.66679395  1
  Sb  Sb75  1  0.00692565  0.66544854  -0.00027154  1
  Sb  Sb76  1  0.66085918  0.83348540  0.49728374  1
  Sb  Sb77  1  0.83973700  0.83290361  0.66870154  1
  Sb  Sb78  1  -0.00476278  0.83466799  0.16606690  1
  Sb  Sb79  1  0.66663369  -0.00224798  0.67035267  1
  Sb  Sb80  1  0.16127993  0.33212220  0.50474141  1
  Sb  Sb81  1  0.00558591  0.83466843  0.50048373  1
  Sb  Sb82  1  0.83307382  0.66375597  0.83060112  1
  Sb  Sb83  1  0.16410765  -0.00183344  0.83048908  1
  Sb  Sb84  1  0.32686021  0.15861098  0.50080794  1
  Sb  Sb85  1  0.49660347  0.16028885  0.33089050  1
  Sb  Sb86  1  0.50463764  0.33677407  0.16184655  1
  Sb  Sb87  1  0.50460907  0.33019477  0.50375205  1
  Sb  Sb88  1  0.49590187  0.67101527  0.49934963  1
  Sb  Sb89  1  0.49665361  0.82924141  0.00231166  1
  Sb  Sb90  1  0.50416548  0.50744641  0.32939474  1
  Sb  Sb91  1  0.66914831  0.16397173  0.16240072  1
  Sb  Sb92  1  0.66138113  0.66914587  0.00394062  1
  Sb  Sb93  1  0.82905906  0.66348878  0.17175482  1
  Sb  Sb94  1  0.33318083  -0.00430220  0.33542500  1
  Sb  Sb95  1  0.66471114  0.66619584  0.66526044  1
  Sb  Sb96  1  0.33246594  0.50876350  0.50419981  1
  Sb  Sb97  1  0.83819097  0.00001023  0.49692581  1
  Sb  Sb98  1  -0.00504776  0.33232627  0.32822602  1
  Sb  Sb99  1  0.16353070  0.49917614  0.33526373  1
  Sb  Sb100  1  0.00404284  0.83078682  0.83375893  1
  Sb  Sb101  1  0.33846692  0.83084772  0.16462267  1
  Sb  Sb102  1  0.83642840  0.16564926  0.67394972  1
  Sb  Sb103  1  0.49160644  0.82972897  0.66644886  1
  Sb  Sb104  1  0.66722022  0.33545792  0.66953487  1
  Sb  Sb105  1  0.33239245  0.33873436  0.67232132  1
  Sb  Sb106  1  0.67169835  0.33036687  0.00051199  1
  Sb  Sb107  1  0.32829699  0.33710613  -0.00337885  1
  Te  Te108  1  0.16555539  0.16790274  0.16533676  1
  Te  Te109  1  0.16067124  0.16436585  0.49821583  1
  Te  Te110  1  0.16940221  0.16842783  0.83772824  1
  Te  Te111  1  0.16645583  0.49831884  0.16619563  1
  Te  Te112  1  0.16640697  0.50187272  0.50591880  1
  Te  Te113  1  0.16547460  0.50080189  0.83374206  1
  Te  Te114  1  0.16673992  0.83371681  0.16119734  1
  Te  Te115  1  0.17102154  0.83334748  0.50054839  1
  Te  Te116  1  0.16968153  0.83138960  0.83267811  1
  Te  Te117  1  0.49411944  0.16739516  0.16601310  1
  Te  Te118  1  0.50065347  0.16054978  0.50051508  1
  Te  Te119  1  0.49945434  0.16702112  0.83360700  1
  Te  Te120  1  0.50050223  0.50208433  0.16485521  1
  Te  Te121  1  0.50022837  0.49710550  0.50596838  1
  Te  Te122  1  0.49806102  0.50236665  0.83452799  1
  Te  Te123  1  0.50415104  0.83198749  0.16789005  1
  Te  Te124  1  0.49395482  0.83828555  0.49576432  1
  Te  Te125  1  0.49908567  0.82896579  0.83441886  1
  Te  Te126  1  0.83583210  0.16676815  0.16203155  1
  Te  Te127  1  0.83973012  0.16975468  0.50078858  1
  Te  Te128  1  0.83284781  0.16789836  0.83844813  1
  Te  Te129  1  0.83245542  0.49747726  0.16866677  1
  Te  Te130  1  0.83315515  0.49918517  0.49556257  1
  Te  Te131  1  0.84060850  0.49550737  0.83416371  1
  Te  Te132  1  0.82507204  0.83932825  0.16620091  1
  Te  Te133  1  0.83108587  0.82683930  0.50104765  1
  Te  Te134  1  0.82686475  0.83636918  0.83314487  1
  Te  Te135  1  0.16391700  0.00057218  0.00023566  1
  Te  Te136  1  0.16340070  0.00242430  0.33738240  1
  Te  Te137  1  0.16591652  -0.00151648  0.66383549  1
  Te  Te138  1  0.16098196  0.32805808  -0.00582377  1
  Te  Te139  1  0.16823262  0.32784717  0.33500811  1
  Te  Te140  1  0.16591301  0.33752472  0.67387163  1
  Te  Te141  1  0.17175879  0.67099669  -0.00188184  1
  Te  Te142  1  0.16446413  0.66594854  0.33420562  1
  Te  Te143  1  0.16673637  0.66836217  0.66659424  1
  Te  Te144  1  0.50469574  0.00021800  0.00533959  1
  Te  Te145  1  0.50099259  -0.00375833  0.33093812  1
  Te  Te146  1  0.49690878  -0.00094113  0.66227230  1
  Te  Te147  1  0.50108638  0.33887427  -0.00630387  1
  Te  Te148  1  0.50877057  0.33386099  0.33518706  1
  Te  Te149  1  0.49989019  0.33966516  0.67244271  1
  Te  Te150  1  0.49604397  0.66346423  0.00107000  1
  Te  Te151  1  0.50167929  0.67036797  0.33206995  1
  Te  Te152  1  0.49746261  0.66293747  0.66806539  1
  Te  Te153  1  0.83387248  0.00274203  0.00054647  1
  Te  Te154  1  0.83494018  -0.00000483  0.32973761  1
  Te  Te155  1  0.83885655  -0.00081148  0.66836330  1
  Te  Te156  1  0.83725706  0.32918467  0.00067865  1
  Te  Te157  1  0.83014457  0.33559017  0.33067838  1
  Te  Te158  1  0.83374733  0.33308464  0.66656424  1
  Te  Te159  1  0.83621880  0.66932947  0.00027882  1
  Te  Te160  1  0.83591104  0.66377231  0.33601182  1
  Te  Te161  1  0.83701789  0.66680640  0.65882892  1
  Te  Te162  1  0.00065019  0.16577255  0.00200249  1
  Te  Te163  1  0.00257543  0.16556795  0.32852055  1
  Te  Te164  1  0.00100608  0.16099856  0.66168386  1
  Te  Te165  1  0.00032861  0.49752736  0.00244620  1
  Te  Te166  1  -0.00324742  0.50258701  0.32947770  1
  Te  Te167  1  0.00264005  0.50308017  0.67014716  1
  Te  Te168  1  0.00745408  0.83808119  0.00048941  1
  Te  Te169  1  0.00050241  0.83300956  0.33274804  1
  Te  Te170  1  0.00764803  0.83374367  0.66692629  1
  Te  Te171  1  0.32995914  0.16670750  0.00036877  1
  Te  Te172  1  0.32739516  0.16802839  0.32955175  1
  Te  Te173  1  0.33202484  0.16133642  0.67056775  1
  Te  Te174  1  0.33515710  0.50277623  -0.00036848  1
  Te  Te175  1  0.33347948  0.50494686  0.33031989  1
  Te  Te176  1  0.33140932  0.50461223  0.67045715  1
  Te  Te177  1  0.32926009  0.82969171  -0.00511263  1
  Te  Te178  1  0.33749132  0.82818961  0.33248782  1
  Te  Te179  1  0.33088051  0.83223841  0.66861814  1
  Te  Te180  1  0.66789669  0.16197821  -0.00458442  1
  Te  Te181  1  0.66604848  0.16197539  0.33374227  1
  Te  Te182  1  0.66617501  0.16656833  0.67528301  1
  Te  Te183  1  0.66354073  0.50041737  0.00132532  1
  Te  Te184  1  0.66993516  0.50276104  0.33040781  1
  Te  Te185  1  0.66544243  0.50117004  0.67413622  1
  Te  Te186  1  0.66610130  0.83735009  0.00009445  1
  Te  Te187  1  0.66253427  0.83473574  0.33091485  1
  Te  Te188  1  0.66618802  0.83273835  0.67348881  1
  Te  Te189  1  -0.00187111  0.00132278  0.16784159  1
  Te  Te190  1  0.00214723  0.00139353  0.49675065  1
  Te  Te191  1  -0.00456171  -0.00076211  0.83427694  1
  Te  Te192  1  -0.00447124  0.33434705  0.16261802  1
  Te  Te193  1  -0.00431339  0.32904045  0.50027006  1
  Te  Te194  1  -0.00216956  0.33560698  0.83706343  1
  Te  Te195  1  -0.00101761  0.66415253  0.17010303  1
  Te  Te196  1  0.00241954  0.66675876  0.49905611  1
  Te  Te197  1  0.00044655  0.66280910  0.83080913  1
  Te  Te198  1  0.33728428  0.00351371  0.16606423  1
  Te  Te199  1  0.33118341  -0.00399023  0.50290766  1
  Te  Te200  1  0.33405451  0.00462170  0.82964597  1
  Te  Te201  1  0.33442572  0.33477369  0.16526052  1
  Te  Te202  1  0.33354224  0.33103673  0.50011547  1
  Te  Te203  1  0.33337298  0.32931891  0.83323818  1
  Te  Te204  1  0.33840179  0.66431967  0.17189153  1
  Te  Te205  1  0.33006460  0.67153882  0.49451911  1
  Te  Te206  1  0.33314611  0.66589121  0.83385503  1
  Te  Te207  1  0.66689675  0.00163157  0.16608940  1
  Te  Te208  1  0.66449059  0.00038122  0.49664260  1
  Te  Te209  1  0.66957751  -0.00019779  0.83418369  1
  Te  Te210  1  0.67164746  0.33606450  0.16900214  1
  Te  Te211  1  0.67329341  0.33236027  0.49537269  1
  Te  Te212  1  0.66934709  0.33515865  0.83465228  1
  Te  Te213  1  0.66315382  0.66466459  0.16960219  1
  Te  Te214  1  0.66874833  0.66759225  0.49342934  1
  Te  Te215  1  0.66623661  0.66545966  0.83365965  1
