# generated using pymatgen
data_AgSbTe2
_symmetry_space_group_name_H-M   'P 1'
_cell_length_a   18.32167049
_cell_length_b   18.32603166
_cell_length_c   18.32159315
_cell_angle_alpha   89.99660984
_cell_angle_beta   90.00290077
_cell_angle_gamma   89.99681689
_symmetry_Int_Tables_number   1
_chemical_formula_structural   AgSbTe2
_chemical_formula_sum   'Ag54 Sb54 Te108'
_cell_volume   6151.72246164
_cell_formula_units_Z   54
loop_
 _symmetry_equiv_pos_site_id
 _symmetry_equiv_pos_as_xyz
  1  'x, y, z'
loop_
 _atom_site_type_symbol
 _atom_site_label
 _atom_site_symmetry_multiplicity
 _atom_site_fract_x
 _atom_site_fract_y
 _atom_site_fract_z
 _atom_site_occupancy
  Ag  Ag0  1  0.67107507  0.83944852  0.83530913  1
  Ag  Ag1  1  0.67152460  0.16367657  0.83549378  1
  Ag  Ag2  1  0.83155937  0.00485021  0.83587918  1
  Ag  Ag3  1  0.50011062  0.00950613  0.49483090  1
  Ag  Ag4  1  0.83054271  0.32963151  0.16968574  1
  Ag  Ag5  1  0.32761479  0.00062327  0.01045271  1
  Ag  Ag6  1  0.66282481  0.49589703  0.49909755  1
  Ag  Ag7  1  0.16703333  0.82505027  0.32583996  1
  Ag  Ag8  1  0.16797168  0.51344508  0.33927699  1
  Ag  Ag9  1  0.17172498  0.66419553  0.49005162  1
  Ag  Ag10  1  0.00966713  0.67347852  0.33377914  1
  Ag  Ag11  1  0.33412741  0.32222356  0.33547753  1
  Ag  Ag12  1  0.49742184  0.00471638  0.17353473  1
  Ag  Ag13  1  0.17164155  0.16483463  0.33074280  1
  Ag  Ag14  1  0.66508099  0.00933992  0.32952706  1
  Ag  Ag15  1  0.67083682  -0.00089904  0.00221004  1
  Ag  Ag16  1  0.50660853  0.32240700  0.17741035  1
  Ag  Ag17  1  0.16400221  0.50225476  0.65754014  1
  Ag  Ag18  1  0.82989507  0.17100703  0.66331605  1
  Ag  Ag19  1  0.49990427  0.83925674  0.66349431  1
  Ag  Ag20  1  0.33067248  0.00503984  0.32871697  1
  Ag  Ag21  1  0.32779263  0.84387311  0.17002230  1
  Ag  Ag22  1  -0.00300151  0.32697842  -0.00662637  1
  Ag  Ag23  1  0.16530641  0.15736929  0.00762417  1
  Ag  Ag24  1  0.67358307  0.33179508  0.65794753  1
  Ag  Ag25  1  0.83530895  0.83565514  -0.00180339  1
  Ag  Ag26  1  0.66452351  0.32744343  0.33895743  1
  Ag  Ag27  1  -0.00106640  0.00597959  0.66532329  1
  Ag  Ag28  1  0.32108277  0.66884679  0.33593030  1
  Ag  Ag29  1  0.15413249  0.33180392  0.83219545  1
  Ag  Ag30  1  0.83288733  0.16848530  0.33701073  1
  Ag  Ag31  1  0.83617879  0.33031230  0.83085334  1
  Ag  Ag32  1  -0.00133571  0.00117040  0.00239206  1
  Ag  Ag33  1  0.50599525  0.33086343  0.49563018  1
  Ag  Ag34  1  0.83481630  0.49972133  -0.00368314  1
  Ag  Ag35  1  0.82674009  0.32948824  0.50220779  1
  Ag  Ag36  1  0.16084545  0.83891734  0.01009703  1
  Ag  Ag37  1  0.83111721  0.66782733  0.83606950  1
  Ag  Ag38  1  0.16700618  0.82938864  0.66545830  1
  Ag  Ag39  1  0.00223231  0.16723782  0.49746478  1
  Ag  Ag40  1  0.66823823  0.66677231  0.33699092  1
  Ag  Ag41  1  -0.00613674  0.32664536  0.67070773  1
  Ag  Ag42  1  0.66753634  0.66366834  0.66306789  1
  Ag  Ag43  1  0.16600897  0.67270223  0.17813587  1
  Ag  Ag44  1  0.49829712  0.66532108  0.49795138  1
  Ag  Ag45  1  -0.00287444  0.49373195  0.83329446  1
  Ag  Ag46  1  0.33509528  0.49579618  0.49550680  1
  Ag  Ag47  1  0.66258213  0.16618892  0.16927961  1
  Ag  Ag48  1  0.33171063  0.17063873  0.49212110  1
  Ag  Ag49  1  0.67128612  0.67425496  -0.00286318  1
  Ag  Ag50  1  0.33692314  0.16137374  0.17556573  1
  Ag  Ag51  1  0.00419170  0.00117898  0.33124411  1
  Ag  Ag52  1  0.50951899  0.16443725  0.66155974  1
  Ag  Ag53  1  0.00823015  0.83577674  0.16600061  1
  Sb  Sb54  1  0.83762068  0.16540068  -0.00061829  1
  Sb  Sb55  1  0.83655834  0.49469257  0.33116451  1
  Sb  Sb56  1  0.66614688  0.83911815  0.16390362  1
  Sb  Sb57  1  0.16725254  0.33596508  0.50110091  1
  Sb  Sb58  1  0.67419498  0.33009294  0.00161603  1
  Sb  Sb59  1  0.49537577  0.49787978  0.33673792  1
  Sb  Sb60  1  0.32730010  0.32801603  0.00811179  1
  Sb  Sb61  1  0.67410450  0.49838250  0.82940645  1
  Sb  Sb62  1  0.83764562  0.83794645  0.32685258  1
  Sb  Sb63  1  0.33149787  0.49697892  0.17538247  1
  Sb  Sb64  1  0.49955771  0.49792115  0.66181532  1
  Sb  Sb65  1  0.83324872  0.83813874  0.67279937  1
  Sb  Sb66  1  0.17269713  -0.00520405  0.16859606  1
  Sb  Sb67  1  0.16146569  0.50109353  0.00151280  1
  Sb  Sb68  1  0.16936141  -0.00200410  0.49582781  1
  Sb  Sb69  1  0.82916443  0.00542843  0.16313474  1
  Sb  Sb70  1  -0.00030233  0.50171910  0.16436833  1
  Sb  Sb71  1  0.16298656  0.16741395  0.66503511  1
  Sb  Sb72  1  -0.00603464  0.17073376  0.82917822  1
  Sb  Sb73  1  0.33600807  0.16643407  0.83321010  1
  Sb  Sb74  1  0.33468714  0.83477467  0.83792769  1
  Sb  Sb75  1  0.33665271  0.66747649  0.65890566  1
  Sb  Sb76  1  0.16044629  0.66450909  0.83186112  1
  Sb  Sb77  1  0.50666640  0.00077893  0.83214535  1
  Sb  Sb78  1  0.16389210  0.33379091  0.16701844  1
  Sb  Sb79  1  0.49841822  0.66965843  0.17508883  1
  Sb  Sb80  1  0.50648505  0.33067975  0.82878554  1
  Sb  Sb81  1  -0.00297319  0.66705858  0.66331598  1
  Sb  Sb82  1  0.33351458  0.33157735  0.65918222  1
  Sb  Sb83  1  -0.00439993  0.83300814  0.83765298  1
  Sb  Sb84  1  0.66490282  0.17240001  0.49721766  1
  Sb  Sb85  1  0.33245266  0.83435409  0.49258068  1
  Sb  Sb86  1  -0.00472147  0.66991292  0.00415066  1
  Sb  Sb87  1  0.83657533  0.49164274  0.67059224  1
  Sb  Sb88  1  0.16014531  0.00429854  0.83595442  1
  Sb  Sb89  1  0.83444495  0.66426855  0.16439116  1
  Sb  Sb90  1  0.66945531  0.00376674  0.66523438  1
  Sb  Sb91  1  0.00310212  0.83915940  0.49564474  1
  Sb  Sb92  1  0.33490445  0.67208720  0.00951663  1
  Sb  Sb93  1  0.49595110  0.83626556  0.33713842  1
  Sb  Sb94  1  0.66445818  0.82976006  0.50277985  1
  Sb  Sb95  1  0.00113717  0.16126768  0.17052121  1
  Sb  Sb96  1  0.49819096  0.16652543  0.33871344  1
  Sb  Sb97  1  0.83141861  0.65914851  0.50250484  1
  Sb  Sb98  1  0.50780312  0.49964567  0.00104453  1
  Sb  Sb99  1  0.50966760  0.66887825  0.82601363  1
  Sb  Sb100  1  0.33055693  0.00014635  0.66319295  1
  Sb  Sb101  1  0.00020613  0.32881743  0.33506875  1
  Sb  Sb102  1  0.66755307  0.49414058  0.17282220  1
  Sb  Sb103  1  0.49894699  0.16470973  0.00179811  1
  Sb  Sb104  1  0.32385548  0.49848245  0.82612330  1
  Sb  Sb105  1  0.82985320  0.00725049  0.50112427  1
  Sb  Sb106  1  0.00077540  0.49434604  0.50193195  1
  Sb  Sb107  1  0.50235206  0.83637792  -0.00176371  1
  Te  Te108  1  0.17055909  0.16894605  0.16648440  1
  Te  Te109  1  0.16818683  0.16630062  0.49707146  1
  Te  Te110  1  0.16858725  0.17174841  0.83578599  1
  Te  Te111  1  0.16655511  0.50706673  0.17186950  1
  Te  Te112  1  0.16713466  0.50245810  0.49857889  1
  Te  Te113  1  0.15922343  0.49605141  0.83159377  1
  Te  Te114  1  0.16771934  0.83222532  0.16709450  1
  Te  Te115  1  0.16722045  0.82827456  0.50332073  1
  Te  Te116  1  0.16620083  0.83372046  0.82964103  1
  Te  Te117  1  0.50005163  0.16550132  0.16454895  1
  Te  Te118  1  0.49705978  0.16807801  0.50312495  1
  Te  Te119  1  0.50748788  0.16663031  0.82461735  1
  Te  Te120  1  0.49959943  0.49219629  0.16625333  1
  Te  Te121  1  0.49879205  0.49916511  0.50076312  1
  Te  Te122  1  0.49694689  0.50038513  0.83182628  1
  Te  Te123  1  0.49486904  0.83844198  0.16687145  1
  Te  Te124  1  0.49823758  0.82884187  0.50532369  1
  Te  Te125  1  0.50632214  0.83320020  0.82572947  1
  Te  Te126  1  0.83084381  0.17077433  0.17033074  1
  Te  Te127  1  0.83608063  0.17009453  0.49965400  1
  Te  Te128  1  0.82971124  0.16731215  0.83262590  1
  Te  Te129  1  0.83312800  0.49237287  0.15957898  1
  Te  Te130  1  0.82922123  0.49164376  0.49980144  1
  Te  Te131  1  0.83719589  0.49696914  0.83612456  1
  Te  Te132  1  0.83541988  0.83262080  0.15897021  1
  Te  Te133  1  0.83404914  0.83223736  0.49944427  1
  Te  Te134  1  0.82984805  0.83275752  0.83791686  1
  Te  Te135  1  0.16259525  -0.00106626  -0.00062839  1
  Te  Te136  1  0.16518572  0.00528790  0.33417173  1
  Te  Te137  1  0.16123712  -0.00358717  0.66688964  1
  Te  Te138  1  0.16054725  0.33338386  -0.00228391  1
  Te  Te139  1  0.16953824  0.32471814  0.33268998  1
  Te  Te140  1  0.16470995  0.33560917  0.66957408  1
  Te  Te141  1  0.16711910  0.67262626  0.00145930  1
  Te  Te142  1  0.16559614  0.66941414  0.33441797  1
  Te  Te143  1  0.16596680  0.66716900  0.66594804  1
  Te  Te144  1  0.50541389  -0.00021617  0.00208819  1
  Te  Te145  1  0.50217674  -0.00095716  0.33451980  1
  Te  Te146  1  0.49933252  -0.00000346  0.66281749  1
  Te  Te147  1  0.49885810  0.33358690  0.00270514  1
  Te  Te148  1  0.50207228  0.33391611  0.33484707  1
  Te  Te149  1  0.50356379  0.32974682  0.66132049  1
  Te  Te150  1  0.50785984  0.66734434  0.00082086  1
  Te  Te151  1  0.50888173  0.66730047  0.33849875  1
  Te  Te152  1  0.50480212  0.66855836  0.65940307  1
  Te  Te153  1  0.83225802  -0.00056798  -0.00257759  1
  Te  Te154  1  0.83193103  0.00463739  0.33297131  1
  Te  Te155  1  0.83787178  0.00580399  0.66958496  1
  Te  Te156  1  0.83684464  0.33244539  -0.00366124  1
  Te  Te157  1  0.83224814  0.33053521  0.33321665  1
  Te  Te158  1  0.83370021  0.33160122  0.66718845  1
  Te  Te159  1  0.83015895  0.66810968  -0.00187951  1
  Te  Te160  1  0.82787054  0.66637797  0.33325007  1
  Te  Te161  1  0.82836929  0.66804158  0.67105991  1
  Te  Te162  1  0.00448572  0.16363199  0.00196097  1
  Te  Te163  1  -0.00160203  0.16360669  0.33571500  1
  Te  Te164  1  -0.00148295  0.16688742  0.66249476  1
  Te  Te165  1  -0.00418491  0.49814112  -0.00377740  1
  Te  Te166  1  0.00509042  0.50257676  0.33331694  1
  Te  Te167  1  0.00463205  0.49877590  0.66912204  1
  Te  Te168  1  0.00022500  0.83642611  0.00294569  1
  Te  Te169  1  0.00372722  0.83692233  0.32962721  1
  Te  Te170  1  0.00301065  0.83738726  0.66636193  1
  Te  Te171  1  0.32839038  0.16129680  0.00106181  1
  Te  Te172  1  0.33410775  0.16495545  0.33404095  1
  Te  Te173  1  0.33604279  0.16543559  0.66355373  1
  Te  Te174  1  0.33359247  0.50042707  -0.00139920  1
  Te  Te175  1  0.32819816  0.50474531  0.33835598  1
  Te  Te176  1  0.32557377  0.49970838  0.65826938  1
  Te  Te177  1  0.33012721  0.83866785  0.00553990  1
  Te  Te178  1  0.32909823  0.83521016  0.32976435  1
  Te  Te179  1  0.33190785  0.83435872  0.66904631  1
  Te  Te180  1  0.66733913  0.16247605  0.00088577  1
  Te  Te181  1  0.67013842  0.16802602  0.33142518  1
  Te  Te182  1  0.66936261  0.16876251  0.66627687  1
  Te  Te183  1  0.67387295  0.50325008  -0.00023880  1
  Te  Te184  1  0.66828318  0.49869283  0.33873997  1
  Te  Te185  1  0.66701136  0.49858490  0.66209182  1
  Te  Te186  1  0.66844533  0.83572830  -0.00269929  1
  Te  Te187  1  0.66844246  0.83342016  0.33304424  1
  Te  Te188  1  0.66530001  0.83276301  0.67114903  1
  Te  Te189  1  -0.00408597  -0.00425508  0.16728656  1
  Te  Te190  1  -0.00101123  0.00606736  0.49848719  1
  Te  Te191  1  -0.00669767  0.00029759  0.83515343  1
  Te  Te192  1  -0.00531083  0.33264312  0.16243143  1
  Te  Te193  1  -0.00303877  0.32821219  0.50382501  1
  Te  Te194  1  -0.00270245  0.33171713  0.83242247  1
  Te  Te195  1  0.00201119  0.67074271  0.17201507  1
  Te  Te196  1  0.00064365  0.66600232  0.49437089  1
  Te  Te197  1  -0.00729132  0.66154081  0.83306387  1
  Te  Te198  1  0.33617543  0.00247097  0.16722119  1
  Te  Te199  1  0.33894693  0.00370475  0.49584427  1
  Te  Te200  1  0.33395472  0.00050827  0.84168729  1
  Te  Te201  1  0.33585003  0.32856550  0.17379727  1
  Te  Te202  1  0.33485534  0.33335205  0.49519275  1
  Te  Te203  1  0.33304523  0.33339990  0.83446536  1
  Te  Te204  1  0.33128970  0.66723676  0.17456965  1
  Te  Te205  1  0.33356712  0.66664856  0.49530970  1
  Te  Te206  1  0.33498347  0.66654494  0.83477125  1
  Te  Te207  1  0.66263172  0.00331843  0.16849446  1
  Te  Te208  1  0.66124807  -0.00193198  0.49447805  1
  Te  Te209  1  0.67108885  0.00097283  0.83353823  1
  Te  Te210  1  0.66707511  0.32870249  0.16868762  1
  Te  Te211  1  0.66619905  0.33407554  0.49895812  1
  Te  Te212  1  0.67144936  0.32970709  0.83147855  1
  Te  Te213  1  0.66525652  0.66625197  0.16833807  1
  Te  Te214  1  0.66613783  0.66233086  0.50166190  1
  Te  Te215  1  0.67181331  0.66573865  0.83380032  1
