# generated using pymatgen
data_AgSbTe2
_symmetry_space_group_name_H-M   'P 1'
_cell_length_a   18.34764027
_cell_length_b   18.35027552
_cell_length_c   18.34658502
_cell_angle_alpha   89.99997999
_cell_angle_beta   90.00000667
_cell_angle_gamma   90.00185106
_symmetry_Int_Tables_number   1
_chemical_formula_structural   AgSbTe2
_chemical_formula_sum   'Ag54 Sb54 Te108'
_cell_volume   6177.00629025
_cell_formula_units_Z   54
loop_
 _symmetry_equiv_pos_site_id
 _symmetry_equiv_pos_as_xyz
  1  'x, y, z'
loop_
 _atom_site_type_symbol
 _atom_site_label
 _atom_site_symmetry_multiplicity
 _atom_site_fract_x
 _atom_site_fract_y
 _atom_site_fract_z
 _atom_site_occupancy
  Ag  Ag0  1  0.82676867  0.49856297  0.66307025  1
  Ag  Ag1  1  0.83448025  0.00519937  0.49635961  1
  Ag  Ag2  1  0.49674696  0.50035225  0.66891993  1
  Ag  Ag3  1  0.00560727  0.67018859  0.33167722  1
  Ag  Ag4  1  0.17257925  0.00054141  0.50679936  1
  Ag  Ag5  1  0.67444369  0.82336390  0.16489297  1
  Ag  Ag6  1  0.33570245  0.16751503  0.83020662  1
  Ag  Ag7  1  0.48953786  0.33914731  0.82231352  1
  Ag  Ag8  1  0.16645780  0.82956515  -0.00093775  1
  Ag  Ag9  1  0.64973887  0.34691486  0.66461628  1
  Ag  Ag10  1  0.83814310  0.33907701  0.17437716  1
  Ag  Ag11  1  0.17008187  0.50509003  -0.01598890  1
  Ag  Ag12  1  0.83976786  -0.00112059  0.17482307  1
  Ag  Ag13  1  0.66302725  0.66447388  -0.00358306  1
  Ag  Ag14  1  0.17309306  -0.00319677  0.82556274  1
  Ag  Ag15  1  0.33710913  0.66253024  0.66770693  1
  Ag  Ag16  1  0.83897041  0.66438798  0.16904543  1
  Ag  Ag17  1  0.00768288  0.65973897  0.66547094  1
  Ag  Ag18  1  0.32638620  0.66864731  0.33859064  1
  Ag  Ag19  1  0.83359740  0.49763582  0.33747539  1
  Ag  Ag20  1  0.65094998  -0.00444096  0.66507567  1
  Ag  Ag21  1  0.66992219  0.50434183  0.16622686  1
  Ag  Ag22  1  0.00051167  0.83577472  0.16881244  1
  Ag  Ag23  1  0.33648709  0.34226074  0.67088724  1
  Ag  Ag24  1  0.32359857  -0.00360459  0.33896687  1
  Ag  Ag25  1  0.00931761  -0.00122032  0.00634775  1
  Ag  Ag26  1  0.17180285  0.34771836  0.82745528  1
  Ag  Ag27  1  0.83695126  0.16939873  0.33151737  1
  Ag  Ag28  1  0.16509044  0.83218096  0.33129113  1
  Ag  Ag29  1  0.17095257  0.65957656  0.82626320  1
  Ag  Ag30  1  0.16181269  0.34176258  0.16420166  1
  Ag  Ag31  1  0.49720816  0.00064136  0.51272517  1
  Ag  Ag32  1  0.17203780  0.82503351  0.66940254  1
  Ag  Ag33  1  0.66649416  0.49865436  0.50997694  1
  Ag  Ag34  1  0.16579375  0.33383189  0.51133492  1
  Ag  Ag35  1  0.83209926  0.33617554  0.50063523  1
  Ag  Ag36  1  0.49329313  0.83233323  0.66738177  1
  Ag  Ag37  1  0.49610846  0.49981088  -0.01432300  1
  Ag  Ag38  1  0.01409894  0.50051971  0.82815336  1
  Ag  Ag39  1  0.16217626  0.66565965  0.15955698  1
  Ag  Ag40  1  0.33826452  -0.00111368  0.66825295  1
  Ag  Ag41  1  -0.00074799  0.15674560  0.16766509  1
  Ag  Ag42  1  0.00328684  -0.00511073  0.32864993  1
  Ag  Ag43  1  0.32949242  0.49644120  0.82930740  1
  Ag  Ag44  1  0.49716242  0.16934204  0.66930363  1
  Ag  Ag45  1  0.48791225  0.00660302  0.82251267  1
  Ag  Ag46  1  0.49995863  0.66033725  0.51355011  1
  Ag  Ag47  1  0.32799343  0.00037873  -0.01537995  1
  Ag  Ag48  1  0.50165854  0.33734846  0.51218052  1
  Ag  Ag49  1  0.65028307  0.66276604  0.66947305  1
  Ag  Ag50  1  0.48845508  0.65688914  0.82314821  1
  Ag  Ag51  1  0.49732698  0.16941947  -0.01220913  1
  Ag  Ag52  1  0.01087937  0.34055461  0.66666872  1
  Ag  Ag53  1  0.16901741  0.50277663  0.67006263  1
  Sb  Sb54  1  0.33195974  0.83505661  0.83013422  1
  Sb  Sb55  1  0.17125719  0.66614653  0.50596323  1
  Sb  Sb56  1  0.66405961  -0.00482556  -0.00328910  1
  Sb  Sb57  1  0.83520483  0.33719989  0.82646614  1
  Sb  Sb58  1  0.33373238  0.50082143  0.16069461  1
  Sb  Sb59  1  0.82755503  0.17371062  0.66125050  1
  Sb  Sb60  1  0.65553975  0.16652826  0.83112466  1
  Sb  Sb61  1  0.17108265  0.16461659  -0.00008100  1
  Sb  Sb62  1  0.49900692  0.66654844  0.16551416  1
  Sb  Sb63  1  -0.00136592  0.33500138  0.33580841  1
  Sb  Sb64  1  0.67231455  0.16895267  0.16578040  1
  Sb  Sb65  1  0.32928714  0.83280240  0.16709225  1
  Sb  Sb66  1  0.83875270  0.83242409  0.33133556  1
  Sb  Sb67  1  0.66462158  0.83043835  0.49850964  1
  Sb  Sb68  1  0.00248227  0.66873644  0.00087563  1
  Sb  Sb69  1  0.49545370  0.83169603  -0.00652977  1
  Sb  Sb70  1  0.00707744  -0.00110373  0.66457961  1
  Sb  Sb71  1  0.33376679  0.16444373  0.50726146  1
  Sb  Sb72  1  -0.00095120  0.16646458  0.49776687  1
  Sb  Sb73  1  0.83883372  0.83243164  0.00447108  1
  Sb  Sb74  1  0.50276949  0.50149011  0.33903661  1
  Sb  Sb75  1  0.33231763  0.83451615  0.50391106  1
  Sb  Sb76  1  0.17311547  0.17094238  0.66840642  1
  Sb  Sb77  1  -0.00236609  0.50275741  0.16393384  1
  Sb  Sb78  1  0.33207919  0.33120348  -0.00920647  1
  Sb  Sb79  1  0.32947132  0.33510775  0.34221570  1
  Sb  Sb80  1  0.66909564  0.33617564  0.33959235  1
  Sb  Sb81  1  0.50359217  -0.00043940  0.16561171  1
  Sb  Sb82  1  0.67035662  -0.00164311  0.33905177  1
  Sb  Sb83  1  0.00282264  0.33206212  -0.00116672  1
  Sb  Sb84  1  0.83392605  0.50082253  -0.00098624  1
  Sb  Sb85  1  0.83552236  0.66326634  0.83396191  1
  Sb  Sb86  1  0.83455361  0.82775286  0.66372965  1
  Sb  Sb87  1  0.66734165  0.66561989  0.33384783  1
  Sb  Sb88  1  0.33794093  0.50014807  0.50921857  1
  Sb  Sb89  1  0.33304140  0.66908668  -0.00644354  1
  Sb  Sb90  1  0.16084917  -0.00679820  0.16611210  1
  Sb  Sb91  1  0.16180275  0.50580061  0.33748443  1
  Sb  Sb92  1  0.50054348  0.33453150  0.16518489  1
  Sb  Sb93  1  0.66612161  0.17166428  0.50290027  1
  Sb  Sb94  1  0.32673133  0.16458224  0.16175612  1
  Sb  Sb95  1  0.00927493  0.16970218  0.83598464  1
  Sb  Sb96  1  -0.00401904  0.49970070  0.50821638  1
  Sb  Sb97  1  0.83600814  0.00281683  0.83001281  1
  Sb  Sb98  1  0.65988048  0.50073548  0.82852110  1
  Sb  Sb99  1  0.16223626  0.16044436  0.33146377  1
  Sb  Sb100  1  0.66313905  0.83101591  0.83395537  1
  Sb  Sb101  1  0.00273921  0.83347647  0.49527063  1
  Sb  Sb102  1  0.50153707  0.16442116  0.33855237  1
  Sb  Sb103  1  0.66444238  0.33944472  -0.00552637  1
  Sb  Sb104  1  0.83017430  0.66256200  0.49741643  1
  Sb  Sb105  1  0.83100460  0.16645277  0.00606484  1
  Sb  Sb106  1  0.00655691  0.82941772  0.83610446  1
  Sb  Sb107  1  0.49343783  0.83252466  0.33944331  1
  Te  Te108  1  0.15997129  0.17678226  0.16599863  1
  Te  Te109  1  0.16587023  0.16769450  0.49830577  1
  Te  Te110  1  0.17383735  0.15721563  0.83505669  1
  Te  Te111  1  0.16619672  0.50311497  0.16974379  1
  Te  Te112  1  0.16737486  0.49391672  0.50499249  1
  Te  Te113  1  0.17024496  0.50312052  0.82894349  1
  Te  Te114  1  0.16341745  0.82771790  0.16712418  1
  Te  Te115  1  0.16578656  0.83892037  0.50402405  1
  Te  Te116  1  0.16622275  0.83687715  0.83182727  1
  Te  Te117  1  0.49979494  0.16851285  0.16564383  1
  Te  Te118  1  0.50044765  0.16523289  0.50466539  1
  Te  Te119  1  0.49564676  0.16582357  0.83039013  1
  Te  Te120  1  0.50603759  0.49895999  0.16739950  1
  Te  Te121  1  0.50463937  0.49904173  0.50352001  1
  Te  Te122  1  0.49890326  0.49912400  0.82948221  1
  Te  Te123  1  0.50510296  0.83313194  0.16609090  1
  Te  Te124  1  0.50166218  0.83657343  0.50598943  1
  Te  Te125  1  0.50033285  0.83204786  0.82814785  1
  Te  Te126  1  0.83748568  0.16585691  0.17052046  1
  Te  Te127  1  0.83270030  0.16716480  0.49390066  1
  Te  Te128  1  0.83494387  0.16888178  0.83611375  1
  Te  Te129  1  0.83179815  0.50126732  0.16486467  1
  Te  Te130  1  0.82903941  0.49815421  0.50076260  1
  Te  Te131  1  0.83976567  0.49946800  0.82721832  1
  Te  Te132  1  0.83581595  0.83181549  0.16748935  1
  Te  Te133  1  0.83232522  0.84334784  0.49900646  1
  Te  Te134  1  0.83495714  0.83380875  0.83436354  1
  Te  Te135  1  0.16862461  -0.00106726  0.00207195  1
  Te  Te136  1  0.16382876  -0.00425538  0.33268658  1
  Te  Te137  1  0.16781303  0.00179555  0.66507964  1
  Te  Te138  1  0.16699888  0.33846692  0.00140390  1
  Te  Te139  1  0.16632453  0.33371383  0.33217612  1
  Te  Te140  1  0.16967591  0.33178239  0.66887097  1
  Te  Te141  1  0.16754470  0.66695377  -0.00004025  1
  Te  Te142  1  0.16596448  0.67031194  0.34033525  1
  Te  Te143  1  0.16820704  0.66652220  0.66623016  1
  Te  Te144  1  0.49701639  0.00064794  -0.00286492  1
  Te  Te145  1  0.49718114  0.00012452  0.33797639  1
  Te  Te146  1  0.49633703  -0.00357201  0.66803471  1
  Te  Te147  1  0.49951922  0.33649480  -0.00316466  1
  Te  Te148  1  0.49874745  0.33181308  0.34132565  1
  Te  Te149  1  0.49604064  0.33399308  0.66744856  1
  Te  Te150  1  0.50085036  0.66294446  -0.00262266  1
  Te  Te151  1  0.49262899  0.66789388  0.33629408  1
  Te  Te152  1  0.49634658  0.66795812  0.66876840  1
  Te  Te153  1  0.83400880  -0.00004763  0.00184622  1
  Te  Te154  1  0.83581142  -0.00107098  0.33381980  1
  Te  Te155  1  0.83765458  0.00123531  0.66084325  1
  Te  Te156  1  0.83330681  0.33352725  0.00785119  1
  Te  Te157  1  0.83404536  0.33617789  0.33529337  1
  Te  Te158  1  0.83646660  0.33756556  0.66173771  1
  Te  Te159  1  0.82729051  0.66574494  0.00605827  1
  Te  Te160  1  0.83543275  0.66290827  0.32980327  1
  Te  Te161  1  0.84132172  0.66083230  0.66522317  1
  Te  Te162  1  -0.00055804  0.16105631  0.00473498  1
  Te  Te163  1  -0.00437705  0.16354003  0.32856518  1
  Te  Te164  1  -0.00249975  0.17290770  0.66809595  1
  Te  Te165  1  0.00633041  0.50043085  -0.00627966  1
  Te  Te166  1  -0.00594984  0.50572892  0.33292603  1
  Te  Te167  1  0.00642524  0.49989773  0.66750870  1
  Te  Te168  1  0.00598412  0.83697059  0.00520077  1
  Te  Te169  1  0.00430344  0.83189996  0.32972714  1
  Te  Te170  1  0.00438920  0.82858336  0.66697446  1
  Te  Te171  1  0.33861322  0.16067816  -0.00434102  1
  Te  Te172  1  0.33354627  0.16096831  0.33144610  1
  Te  Te173  1  0.33813776  0.16028874  0.67115586  1
  Te  Te174  1  0.33385466  0.50048589  -0.00538407  1
  Te  Te175  1  0.33335234  0.50483478  0.33142495  1
  Te  Te176  1  0.33426293  0.50134957  0.66906960  1
  Te  Te177  1  0.32699704  0.84001138  0.00197963  1
  Te  Te178  1  0.32695314  0.83322181  0.33299884  1
  Te  Te179  1  0.33200263  0.83294631  0.66668130  1
  Te  Te180  1  0.65807269  0.16635799  -0.00064023  1
  Te  Te181  1  0.67484691  0.16694041  0.33260266  1
  Te  Te182  1  0.66092196  0.15776978  0.66649699  1
  Te  Te183  1  0.66533563  0.50401560  0.00253271  1
  Te  Te184  1  0.67165350  0.50080959  0.32953503  1
  Te  Te185  1  0.66581236  0.50289744  0.66750139  1
  Te  Te186  1  0.66499301  0.82741958  0.00552362  1
  Te  Te187  1  0.66438174  0.83252679  0.32442971  1
  Te  Te188  1  0.66699587  0.83115810  0.66643792  1
  Te  Te189  1  -0.00083324  -0.00254087  0.16767459  1
  Te  Te190  1  0.00060305  0.00046715  0.49490929  1
  Te  Te191  1  0.00341319  0.00079136  0.83830271  1
  Te  Te192  1  -0.00102391  0.33450161  0.16737495  1
  Te  Te193  1  0.00019283  0.33295236  0.50355375  1
  Te  Te194  1  0.00555519  0.33618863  0.83018447  1
  Te  Te195  1  0.00112235  0.66906481  0.16736813  1
  Te  Te196  1  -0.00091390  0.66681066  0.49887297  1
  Te  Te197  1  0.00417652  0.66290630  0.83098379  1
  Te  Te198  1  0.33362050  0.00045412  0.17648228  1
  Te  Te199  1  0.33235202  0.00057912  0.50074853  1
  Te  Te200  1  0.33308269  -0.00143775  0.82948506  1
  Te  Te201  1  0.32825309  0.33287303  0.16965739  1
  Te  Te202  1  0.33266558  0.33232310  0.50666943  1
  Te  Te203  1  0.33165395  0.33278070  0.83105410  1
  Te  Te204  1  0.32677008  0.66614783  0.17057415  1
  Te  Te205  1  0.33907244  0.66609356  0.50155630  1
  Te  Te206  1  0.33146945  0.66329118  0.83092401  1
  Te  Te207  1  0.67339172  -0.00014789  0.16644837  1
  Te  Te208  1  0.66430744  -0.00145634  0.50364254  1
  Te  Te209  1  0.66678846  -0.00128537  0.82737076  1
  Te  Te210  1  0.67012086  0.33741876  0.16621353  1
  Te  Te211  1  0.66770113  0.33718273  0.50539984  1
  Te  Te212  1  0.66589323  0.33254233  0.82537125  1
  Te  Te213  1  0.66575497  0.66497711  0.16759552  1
  Te  Te214  1  0.66198383  0.66311796  0.50370194  1
  Te  Te215  1  0.66745223  0.66688411  0.83207011  1
