# generated using pymatgen
data_AgSbTe2
_symmetry_space_group_name_H-M   'P 1'
_cell_length_a   18.36397138
_cell_length_b   18.35650944
_cell_length_c   18.36423842
_cell_angle_alpha   89.99844931
_cell_angle_beta   90.00104605
_cell_angle_gamma   89.99749262
_symmetry_Int_Tables_number   1
_chemical_formula_structural   AgSbTe2
_chemical_formula_sum   'Ag54 Sb54 Te108'
_cell_volume   6190.55563337
_cell_formula_units_Z   54
loop_
 _symmetry_equiv_pos_site_id
 _symmetry_equiv_pos_as_xyz
  1  'x, y, z'
loop_
 _atom_site_type_symbol
 _atom_site_label
 _atom_site_symmetry_multiplicity
 _atom_site_fract_x
 _atom_site_fract_y
 _atom_site_fract_z
 _atom_site_occupancy
  Ag  Ag0  1  0.83960032  0.50483901  0.00629524  1
  Ag  Ag1  1  0.17632038  0.50673720  0.32976224  1
  Ag  Ag2  1  0.34057414  0.82463828  0.49592586  1
  Ag  Ag3  1  0.16643757  0.66863070  0.48311289  1
  Ag  Ag4  1  0.00320076  0.66546683  0.66510972  1
  Ag  Ag5  1  -0.00735608  0.81964855  0.17041967  1
  Ag  Ag6  1  0.33426526  0.34589359  0.00291862  1
  Ag  Ag7  1  0.50094644  0.82383169  0.33131617  1
  Ag  Ag8  1  0.66240690  0.82658643  0.85102129  1
  Ag  Ag9  1  0.32675075  0.66381255  0.32742575  1
  Ag  Ag10  1  0.17329006  0.82166988  0.01244873  1
  Ag  Ag11  1  0.66481777  -0.01789000  0.00548421  1
  Ag  Ag12  1  0.66568427  0.34198363  0.33155064  1
  Ag  Ag13  1  0.66627946  0.16777957  0.16830733  1
  Ag  Ag14  1  0.50159457  0.82406977  0.65338082  1
  Ag  Ag15  1  0.83834112  0.16799374  0.66273635  1
  Ag  Ag16  1  0.49860634  0.17567620  0.00395838  1
  Ag  Ag17  1  -0.00111426  0.34348939  0.32895995  1
  Ag  Ag18  1  0.49958325  0.66681525  0.84421771  1
  Ag  Ag19  1  -0.00362767  0.16524479  0.49726086  1
  Ag  Ag20  1  0.33586408  0.33498492  0.67099239  1
  Ag  Ag21  1  0.83210305  0.00035734  0.49208586  1
  Ag  Ag22  1  0.50036459  0.34374417  0.48797405  1
  Ag  Ag23  1  0.50255283  0.33612941  0.16915129  1
  Ag  Ag24  1  0.34070134  0.17767589  0.16457917  1
  Ag  Ag25  1  0.82918681  -0.00713203  0.16822613  1
  Ag  Ag26  1  0.65982259  0.50744153  0.49496947  1
  Ag  Ag27  1  0.17113977  0.50640559  0.00964463  1
  Ag  Ag28  1  0.49636129  0.50283052  0.00879203  1
  Ag  Ag29  1  0.33911655  0.50508772  0.48906638  1
  Ag  Ag30  1  0.01087182  0.66372649  0.01275591  1
  Ag  Ag31  1  0.67002634  0.16690402  0.48998816  1
  Ag  Ag32  1  0.83145839  0.66719539  0.84690625  1
  Ag  Ag33  1  0.50130405  0.82100364  0.00486272  1
  Ag  Ag34  1  0.82842972  0.34028389  0.16711852  1
  Ag  Ag35  1  0.00704757  0.50547666  0.16680246  1
  Ag  Ag36  1  0.16877869  0.82045711  0.33202666  1
  Ag  Ag37  1  0.00357665  0.82501698  0.49169542  1
  Ag  Ag38  1  0.66382298  0.66612245  0.00955394  1
  Ag  Ag39  1  0.16651105  0.16979126  0.33289723  1
  Ag  Ag40  1  0.16897717  0.66654272  0.85452625  1
  Ag  Ag41  1  0.32698677  0.66272676  0.00686351  1
  Ag  Ag42  1  0.33174998  0.49993925  0.16704656  1
  Ag  Ag43  1  0.15712526  0.66580426  0.16902643  1
  Ag  Ag44  1  0.16585317  0.16913110  0.65477897  1
  Ag  Ag45  1  0.49764619  0.50308557  0.65203215  1
  Ag  Ag46  1  0.84181208  0.66245704  0.16432244  1
  Ag  Ag47  1  0.49604933  0.50318277  0.33256104  1
  Ag  Ag48  1  0.66643133  0.82852935  0.16876799  1
  Ag  Ag49  1  0.01215240  0.66379961  0.32571688  1
  Ag  Ag50  1  0.33410777  0.17081032  0.84750545  1
  Ag  Ag51  1  0.00804272  0.34677631  0.01064292  1
  Ag  Ag52  1  0.66283628  0.82748327  0.49219241  1
  Ag  Ag53  1  0.66452723  0.66540715  0.32929604  1
  Sb  Sb54  1  0.83497717  0.16837688  0.33567897  1
  Sb  Sb55  1  0.49956835  0.66047113  0.16360472  1
  Sb  Sb56  1  -0.00035535  -0.00583801  0.33408485  1
  Sb  Sb57  1  0.16732442  0.34204423  0.16858393  1
  Sb  Sb58  1  -0.00312761  0.82622632  0.83754157  1
  Sb  Sb59  1  0.50503417  0.00374198  0.16569583  1
  Sb  Sb60  1  0.00093618  0.50523467  0.84480609  1
  Sb  Sb61  1  0.82889128  0.33060048  0.49478740  1
  Sb  Sb62  1  0.16806787  -0.00467312  0.83430059  1
  Sb  Sb63  1  0.66561066  0.50347305  0.17176248  1
  Sb  Sb64  1  0.49745201  0.17079816  0.66848051  1
  Sb  Sb65  1  0.66173037  0.34071121  0.00837941  1
  Sb  Sb66  1  0.83220204  0.50048479  0.32830679  1
  Sb  Sb67  1  0.83053712  0.83366955  0.66374625  1
  Sb  Sb68  1  0.50541454  -0.00135520  0.49916133  1
  Sb  Sb69  1  0.66107577  0.33358099  0.65603663  1
  Sb  Sb70  1  0.16977671  0.83052169  0.66150817  1
  Sb  Sb71  1  0.49877173  0.17207936  0.32844091  1
  Sb  Sb72  1  0.66787271  -0.00179353  0.66678522  1
  Sb  Sb73  1  0.33672215  0.82784918  0.16937621  1
  Sb  Sb74  1  0.49825907  0.33933374  0.83801066  1
  Sb  Sb75  1  0.33395237  0.17110938  0.49455776  1
  Sb  Sb76  1  -0.00674673  -0.00840566  0.00460733  1
  Sb  Sb77  1  0.66338479  0.50643901  0.83311686  1
  Sb  Sb78  1  0.17156516  0.17025590  0.00556836  1
  Sb  Sb79  1  0.82975895  0.49953538  0.67027763  1
  Sb  Sb80  1  0.49575825  0.66160409  0.49734731  1
  Sb  Sb81  1  0.33392968  0.50096119  0.83932042  1
  Sb  Sb82  1  0.17144643  0.33778033  0.49740864  1
  Sb  Sb83  1  0.82961629  0.17223561  0.00132504  1
  Sb  Sb84  1  0.66215358  0.16187372  0.83763797  1
  Sb  Sb85  1  0.33220692  0.66191889  0.66532807  1
  Sb  Sb86  1  0.16374585  -0.00570880  0.16701630  1
  Sb  Sb87  1  0.50021876  -0.00683215  0.83610782  1
  Sb  Sb88  1  0.33790652  0.83086178  0.83187218  1
  Sb  Sb89  1  0.00482734  0.16854385  0.82893096  1
  Sb  Sb90  1  0.16898614  0.33914749  0.83357624  1
  Sb  Sb91  1  0.83005997  -0.00500567  0.83682223  1
  Sb  Sb92  1  0.83400730  0.83054758  0.33044192  1
  Sb  Sb93  1  0.83640451  0.67076805  0.49517750  1
  Sb  Sb94  1  0.16357794  -0.00416700  0.49914477  1
  Sb  Sb95  1  0.33403005  0.34224534  0.32846491  1
  Sb  Sb96  1  0.66628452  0.66852913  0.66465463  1
  Sb  Sb97  1  0.17191541  0.50086170  0.66301795  1
  Sb  Sb98  1  0.83334294  0.33805471  0.84125541  1
  Sb  Sb99  1  0.82940168  0.82149701  0.00433281  1
  Sb  Sb100  1  -0.00128309  -0.00464546  0.66323486  1
  Sb  Sb101  1  0.33368570  0.00305612  0.66478891  1
  Sb  Sb102  1  0.33860262  -0.00368791  0.00182139  1
  Sb  Sb103  1  -0.00168631  0.17093499  0.17127325  1
  Sb  Sb104  1  0.66677821  -0.00278219  0.32910799  1
  Sb  Sb105  1  0.33317573  -0.00718357  0.33174734  1
  Sb  Sb106  1  0.00294020  0.33722623  0.66154714  1
  Sb  Sb107  1  0.00164519  0.50325884  0.49163735  1
  Te  Te108  1  0.16628844  0.16294101  0.17051300  1
  Te  Te109  1  0.16591582  0.16642665  0.49695938  1
  Te  Te110  1  0.17272609  0.16656718  0.83591576  1
  Te  Te111  1  0.16751547  0.50143191  0.16854409  1
  Te  Te112  1  0.17024007  0.50513704  0.49498547  1
  Te  Te113  1  0.16645399  0.50819434  0.83302497  1
  Te  Te114  1  0.17050975  0.83153794  0.17067782  1
  Te  Te115  1  0.16224434  0.83069312  0.49638435  1
  Te  Te116  1  0.16598743  0.82739546  0.83132032  1
  Te  Te117  1  0.50213146  0.17027734  0.16462292  1
  Te  Te118  1  0.50515518  0.16753696  0.50070444  1
  Te  Te119  1  0.49549866  0.16665054  0.83715830  1
  Te  Te120  1  0.49917907  0.49514192  0.16955629  1
  Te  Te121  1  0.49963382  0.50004437  0.49575612  1
  Te  Te122  1  0.49963092  0.50608226  0.83675854  1
  Te  Te123  1  0.50311683  0.83732985  0.16694983  1
  Te  Te124  1  0.50053534  0.83431625  0.49647655  1
  Te  Te125  1  0.50233736  0.82815553  0.84287702  1
  Te  Te126  1  0.83014025  0.17131930  0.16601545  1
  Te  Te127  1  0.83207628  0.16580640  0.50179290  1
  Te  Te128  1  0.83339601  0.16609288  0.82790926  1
  Te  Te129  1  0.83233318  0.50056749  0.16353247  1
  Te  Te130  1  0.82654317  0.49874423  0.50236756  1
  Te  Te131  1  0.83166574  0.50646733  0.83915641  1
  Te  Te132  1  0.83297269  0.83308257  0.16631882  1
  Te  Te133  1  0.83394062  0.83909870  0.49964188  1
  Te  Te134  1  0.82645571  0.82802565  0.83111707  1
  Te  Te135  1  0.16500011  -0.00904114  -0.00124505  1
  Te  Te136  1  0.16677026  0.00817840  0.33442199  1
  Te  Te137  1  0.16630593  0.00977245  0.66719725  1
  Te  Te138  1  0.16794746  0.33818572  -0.00107952  1
  Te  Te139  1  0.16150461  0.33112663  0.33454478  1
  Te  Te140  1  0.17112015  0.32890340  0.66636048  1
  Te  Te141  1  0.16748227  0.66619316  0.00820135  1
  Te  Te142  1  0.16826594  0.66626119  0.32907433  1
  Te  Te143  1  0.16403817  0.66666380  0.66406958  1
  Te  Te144  1  0.50557603  0.00203283  -0.00027263  1
  Te  Te145  1  0.49904633  -0.01363165  0.33332760  1
  Te  Te146  1  0.49969505  -0.00800808  0.66778573  1
  Te  Te147  1  0.49527262  0.33459687  0.00310881  1
  Te  Te148  1  0.50180319  0.33529617  0.33078730  1
  Te  Te149  1  0.49486811  0.33771222  0.66890391  1
  Te  Te150  1  0.50424955  0.66471353  0.00143546  1
  Te  Te151  1  0.50429656  0.66565317  0.33410536  1
  Te  Te152  1  0.49876312  0.66535208  0.67072987  1
  Te  Te153  1  0.82610317  0.00328000  0.00444679  1
  Te  Te154  1  0.83350183  0.00089540  0.33192713  1
  Te  Te155  1  0.83415287  0.00739082  0.66659392  1
  Te  Te156  1  0.83587860  0.33976434  0.00539928  1
  Te  Te157  1  0.83303436  0.33378877  0.32756049  1
  Te  Te158  1  0.83474831  0.32945651  0.66917336  1
  Te  Te159  1  0.82586920  0.66380116  0.00334920  1
  Te  Te160  1  0.82378908  0.66604919  0.32822791  1
  Te  Te161  1  0.83972127  0.66502595  0.66570374  1
  Te  Te162  1  0.00120789  0.16492665  -0.00094444  1
  Te  Te163  1  0.00259525  0.16489609  0.33676726  1
  Te  Te164  1  0.00185087  0.16882975  0.66231258  1
  Te  Te165  1  0.00121156  0.50369459  0.00490072  1
  Te  Te166  1  -0.00079305  0.50272728  0.32897962  1
  Te  Te167  1  -0.00102569  0.50235962  0.66457720  1
  Te  Te168  1  0.00489979  0.82654899  0.00556309  1
  Te  Te169  1  0.00204794  0.82873490  0.33179081  1
  Te  Te170  1  -0.00033472  0.82787113  0.66237958  1
  Te  Te171  1  0.33628271  0.16238104  0.00489048  1
  Te  Te172  1  0.33111776  0.16457350  0.32713590  1
  Te  Te173  1  0.33065899  0.17069871  0.66184995  1
  Te  Te174  1  0.33300057  0.50248485  0.00064939  1
  Te  Te175  1  0.33435862  0.50216440  0.33075565  1
  Te  Te176  1  0.33675695  0.49519310  0.66563691  1
  Te  Te177  1  0.33489467  0.82965155  -0.00028326  1
  Te  Te178  1  0.33112730  0.82710953  0.33480343  1
  Te  Te179  1  0.33896444  0.83402204  0.66306980  1
  Te  Te180  1  0.66190214  0.17325470  0.00359817  1
  Te  Te181  1  0.66612986  0.16596555  0.33060882  1
  Te  Te182  1  0.66806889  0.16612746  0.66855991  1
  Te  Te183  1  0.65915434  0.50541787  -0.00171436  1
  Te  Te184  1  0.66609201  0.49923455  0.33668563  1
  Te  Te185  1  0.66133959  0.49947708  0.66024979  1
  Te  Te186  1  0.66639450  0.82688116  0.00644055  1
  Te  Te187  1  0.66586935  0.83188725  0.33107570  1
  Te  Te188  1  0.66192934  0.83433140  0.65236926  1
  Te  Te189  1  -0.00762582  -0.00316566  0.16617724  1
  Te  Te190  1  -0.00633986  0.00419018  0.50068858  1
  Te  Te191  1  -0.00075987  -0.00102137  0.83294516  1
  Te  Te192  1  -0.00082953  0.33459915  0.16817858  1
  Te  Te193  1  0.00017679  0.32971562  0.49352039  1
  Te  Te194  1  0.00004482  0.33403502  0.83901751  1
  Te  Te195  1  -0.00213117  0.66550862  0.16681513  1
  Te  Te196  1  0.00241638  0.66738491  0.49638595  1
  Te  Te197  1  -0.00068800  0.66751489  0.82806276  1
  Te  Te198  1  0.33149953  0.01174114  0.16686501  1
  Te  Te199  1  0.33261509  -0.00893318  0.49941356  1
  Te  Te200  1  0.33255870  0.00975616  0.83278295  1
  Te  Te201  1  0.33439024  0.33619037  0.16421183  1
  Te  Te202  1  0.33917118  0.33741549  0.49892596  1
  Te  Te203  1  0.33302672  0.32907272  0.83597230  1
  Te  Te204  1  0.33300337  0.66462494  0.16712853  1
  Te  Te205  1  0.32939798  0.66522937  0.50165211  1
  Te  Te206  1  0.33248610  0.66796378  0.83672569  1
  Te  Te207  1  0.67004829  0.00302861  0.16396828  1
  Te  Te208  1  0.67188948  0.00501987  0.50001181  1
  Te  Te209  1  0.66714548  -0.00749189  0.84054159  1
  Te  Te210  1  0.66594328  0.33179291  0.17059569  1
  Te  Te211  1  0.66195584  0.32882809  0.49327520  1
  Te  Te212  1  0.66768681  0.33166454  0.83052729  1
  Te  Te213  1  0.66561589  0.66851715  0.16822775  1
  Te  Te214  1  0.66902805  0.66750788  0.49665224  1
  Te  Te215  1  0.66687110  0.67092792  0.82861950  1
