# generated using pymatgen
data_AgSbTe2
_symmetry_space_group_name_H-M   'P 1'
_cell_length_a   18.33204564
_cell_length_b   18.33384335
_cell_length_c   18.33234232
_cell_angle_alpha   89.99935474
_cell_angle_beta   90.00027045
_cell_angle_gamma   90.00071560
_symmetry_Int_Tables_number   1
_chemical_formula_structural   AgSbTe2
_chemical_formula_sum   'Ag54 Sb54 Te108'
_cell_volume   6161.44256393
_cell_formula_units_Z   54
loop_
 _symmetry_equiv_pos_site_id
 _symmetry_equiv_pos_as_xyz
  1  'x, y, z'
loop_
 _atom_site_type_symbol
 _atom_site_label
 _atom_site_symmetry_multiplicity
 _atom_site_fract_x
 _atom_site_fract_y
 _atom_site_fract_z
 _atom_site_occupancy
  Ag  Ag0  1  0.00057624  0.33803723  0.66870665  1
  Ag  Ag1  1  0.33143818  0.33354422  0.66818769  1
  Ag  Ag2  1  0.66875840  -0.00243784  0.32732151  1
  Ag  Ag3  1  0.50914861  -0.00527824  0.15833095  1
  Ag  Ag4  1  0.83026598  0.68197700  0.16116905  1
  Ag  Ag5  1  0.16597115  -0.00470472  0.16255954  1
  Ag  Ag6  1  0.16611167  0.51090405  0.32959816  1
  Ag  Ag7  1  0.66439264  0.32407872  0.00441529  1
  Ag  Ag8  1  0.16292104  0.83552796  0.32705776  1
  Ag  Ag9  1  0.33042911  0.67408794  0.00040122  1
  Ag  Ag10  1  0.17085448  0.15082256  -0.00369420  1
  Ag  Ag11  1  0.50390589  0.32608370  0.16363635  1
  Ag  Ag12  1  0.82650889  -0.00618538  0.16672422  1
  Ag  Ag13  1  0.16618665  0.83624109  0.00693890  1
  Ag  Ag14  1  0.67265072  0.83618124  0.16884651  1
  Ag  Ag15  1  -0.01159770  0.83477417  0.17115392  1
  Ag  Ag16  1  0.83128936  0.32432625  0.50168985  1
  Ag  Ag17  1  0.50422283  0.15539203  0.00245062  1
  Ag  Ag18  1  0.17081683  0.00441664  0.84724650  1
  Ag  Ag19  1  0.32947892  0.66447042  0.66897822  1
  Ag  Ag20  1  0.33096935  0.66943562  0.32827379  1
  Ag  Ag21  1  0.16070142  -0.00796470  0.49547567  1
  Ag  Ag22  1  0.16657096  0.32848734  0.83666065  1
  Ag  Ag23  1  0.66790008  0.50306444  0.49891239  1
  Ag  Ag24  1  0.83253802  0.83717325  0.66286373  1
  Ag  Ag25  1  -0.00589495  0.83451764  0.49220209  1
  Ag  Ag26  1  0.33284929  0.16408616  0.50581377  1
  Ag  Ag27  1  0.16650410  0.50623277  0.00086722  1
  Ag  Ag28  1  0.82196355  0.15817797  -0.00378989  1
  Ag  Ag29  1  0.66950081  -0.00050274  0.66787725  1
  Ag  Ag30  1  0.34486697  -0.00282498  -0.00112855  1
  Ag  Ag31  1  0.00049536  0.50294577  0.83480745  1
  Ag  Ag32  1  0.16688964  0.67416309  0.49587931  1
  Ag  Ag33  1  0.83251580  0.83312668  0.01310827  1
  Ag  Ag34  1  0.67463831  0.83766634  0.49026885  1
  Ag  Ag35  1  0.83659923  0.66843547  0.84434015  1
  Ag  Ag36  1  0.83159341  0.51441748  -0.00020876  1
  Ag  Ag37  1  0.50467897  0.84337192  0.00743281  1
  Ag  Ag38  1  0.50046299  0.00244208  0.84573917  1
  Ag  Ag39  1  0.50253792  0.67898140  0.16253386  1
  Ag  Ag40  1  0.66520264  0.32617743  0.32910481  1
  Ag  Ag41  1  0.83192834  -0.00382232  0.49198693  1
  Ag  Ag42  1  -0.00269790  0.66771656  -0.00329690  1
  Ag  Ag43  1  0.65753512  0.00212833  0.00302467  1
  Ag  Ag44  1  0.66395407  0.16323437  0.83833100  1
  Ag  Ag45  1  0.33665864  0.16429311  0.83442537  1
  Ag  Ag46  1  0.50177294  0.50147065  0.00024010  1
  Ag  Ag47  1  -0.00871347  -0.00542730  0.33287273  1
  Ag  Ag48  1  0.50002001  0.50113583  0.67451445  1
  Ag  Ag49  1  0.50198522  0.15520075  0.32179320  1
  Ag  Ag50  1  0.83191330  0.15879284  0.67016769  1
  Ag  Ag51  1  0.83272047  0.83634887  0.32857347  1
  Ag  Ag52  1  0.00024366  0.66665457  0.67218281  1
  Ag  Ag53  1  0.51094427  0.83825635  0.32308831  1
  Sb  Sb54  1  0.83686694  0.33445872  0.83187288  1
  Sb  Sb55  1  0.66863855  0.84013155  0.83881359  1
  Sb  Sb56  1  0.16159629  0.83288772  0.66663187  1
  Sb  Sb57  1  0.33726176  0.32951468  -0.00394452  1
  Sb  Sb58  1  0.49872330  0.50371013  0.32909815  1
  Sb  Sb59  1  -0.00266052  0.50605932  0.50327072  1
  Sb  Sb60  1  -0.00185223  0.83004174  0.83636782  1
  Sb  Sb61  1  0.66515186  0.15691895  0.16024305  1
  Sb  Sb62  1  0.66929463  0.49507625  0.83534268  1
  Sb  Sb63  1  -0.00002445  0.51026573  0.16065856  1
  Sb  Sb64  1  0.66497955  0.16197796  0.50179534  1
  Sb  Sb65  1  0.50509505  0.33257655  0.49711485  1
  Sb  Sb66  1  0.33278995  0.83782736  0.83732562  1
  Sb  Sb67  1  0.83367688  -0.00337544  0.83743707  1
  Sb  Sb68  1  0.33113483  0.83664715  0.49850730  1
  Sb  Sb69  1  -0.00081465  -0.00824509  0.00496056  1
  Sb  Sb70  1  0.16273015  0.33366761  0.50301562  1
  Sb  Sb71  1  0.50253566  0.67075920  0.84004798  1
  Sb  Sb72  1  0.49514313  0.66803695  0.49613939  1
  Sb  Sb73  1  0.33723528  0.33509577  0.33817813  1
  Sb  Sb74  1  0.50502631  0.83103498  0.66715763  1
  Sb  Sb75  1  0.83784656  0.67503991  0.49778049  1
  Sb  Sb76  1  0.17343561  0.15938839  0.32912628  1
  Sb  Sb77  1  0.83057092  0.50212032  0.66936733  1
  Sb  Sb78  1  -0.00560737  -0.00371751  0.66288223  1
  Sb  Sb79  1  0.82588814  0.15733139  0.33184929  1
  Sb  Sb80  1  0.16841944  0.50078220  0.66886610  1
  Sb  Sb81  1  0.66574156  0.50443165  0.16771308  1
  Sb  Sb82  1  0.16405451  0.66826742  0.83562073  1
  Sb  Sb83  1  0.50238938  0.16885823  0.67073325  1
  Sb  Sb84  1  0.82691065  0.32894760  0.16682891  1
  Sb  Sb85  1  0.00370346  0.67549857  0.33157808  1
  Sb  Sb86  1  0.00169486  0.15979120  0.50195907  1
  Sb  Sb87  1  0.33403423  0.50227919  0.16404204  1
  Sb  Sb88  1  0.66734071  0.32962838  0.66734580  1
  Sb  Sb89  1  0.50289485  -0.00054286  0.49658052  1
  Sb  Sb90  1  0.32929179  0.49621860  0.83467217  1
  Sb  Sb91  1  0.33565031  0.49896019  0.50170920  1
  Sb  Sb92  1  0.66904865  0.67147210  0.66521184  1
  Sb  Sb93  1  0.33642394  -0.00038748  0.67085224  1
  Sb  Sb94  1  0.17025096  0.32960647  0.15945448  1
  Sb  Sb95  1  -0.00048629  0.15729355  0.16455799  1
  Sb  Sb96  1  -0.00582296  0.32887874  0.33860448  1
  Sb  Sb97  1  0.66299781  0.67423265  0.33287439  1
  Sb  Sb98  1  -0.00394901  0.33963926  -0.00326988  1
  Sb  Sb99  1  0.00003460  0.16809974  0.83496469  1
  Sb  Sb100  1  0.49725164  0.32843477  0.83869991  1
  Sb  Sb101  1  0.16333685  0.16526219  0.67182373  1
  Sb  Sb102  1  0.16751493  0.67573968  0.16662893  1
  Sb  Sb103  1  0.33646482  -0.00486509  0.32778820  1
  Sb  Sb104  1  0.83536980  0.50591706  0.32958297  1
  Sb  Sb105  1  0.33782405  0.16329835  0.16128250  1
  Sb  Sb106  1  0.66766574  0.67158957  0.00130418  1
  Sb  Sb107  1  0.33769175  0.83406703  0.16565308  1
  Te  Te108  1  0.16802037  0.16100514  0.15954488  1
  Te  Te109  1  0.17057262  0.16474765  0.49882294  1
  Te  Te110  1  0.16764984  0.16653449  0.83665258  1
  Te  Te111  1  0.16662123  0.49834276  0.16501987  1
  Te  Te112  1  0.16623785  0.50243440  0.49567373  1
  Te  Te113  1  0.16255437  0.49806851  0.83706969  1
  Te  Te114  1  0.16675885  0.83624698  0.16706086  1
  Te  Te115  1  0.16503955  0.83305875  0.50060385  1
  Te  Te116  1  0.16552478  0.84009087  0.83765761  1
  Te  Te117  1  0.50045644  0.16534383  0.16376666  1
  Te  Te118  1  0.49438487  0.16739573  0.50033628  1
  Te  Te119  1  0.49956513  0.16295063  0.83700475  1
  Te  Te120  1  0.50032531  0.50101286  0.16166857  1
  Te  Te121  1  0.50569828  0.50017286  0.50001182  1
  Te  Te122  1  0.50099053  0.50052116  0.83613092  1
  Te  Te123  1  0.50043587  0.83516486  0.16589620  1
  Te  Te124  1  0.50613316  0.83296997  0.49596752  1
  Te  Te125  1  0.50079298  0.83989512  0.83940073  1
  Te  Te126  1  0.83418766  0.16017534  0.16038160  1
  Te  Te127  1  0.83349729  0.16176911  0.50089085  1
  Te  Te128  1  0.83108480  0.16592380  0.83523983  1
  Te  Te129  1  0.83365833  0.50052308  0.15984845  1
  Te  Te130  1  0.82912221  0.50149857  0.49900366  1
  Te  Te131  1  0.83702472  0.50347935  0.83788712  1
  Te  Te132  1  0.83278579  0.83741149  0.16858306  1
  Te  Te133  1  0.83373694  0.83579712  0.49930528  1
  Te  Te134  1  0.83311693  0.82873494  0.82542554  1
  Te  Te135  1  0.15950477  -0.00461974  0.00258792  1
  Te  Te136  1  0.16987373  -0.00307616  0.33604716  1
  Te  Te137  1  0.16674954  -0.00045975  0.65654402  1
  Te  Te138  1  0.16687192  0.34232563  -0.00310414  1
  Te  Te139  1  0.16608454  0.33269208  0.33204740  1
  Te  Te140  1  0.16574875  0.33320322  0.67075850  1
  Te  Te141  1  0.16968773  0.66674836  0.00085227  1
  Te  Te142  1  0.16900737  0.66923576  0.33262536  1
  Te  Te143  1  0.16661864  0.66623787  0.66545662  1
  Te  Te144  1  0.50046343  -0.00090442  0.00174041  1
  Te  Te145  1  0.50215910  -0.00212305  0.33003410  1
  Te  Te146  1  0.50596615  -0.00092895  0.66871275  1
  Te  Te147  1  0.50232090  0.33863487  0.00277118  1
  Te  Te148  1  0.50467443  0.33536203  0.32911016  1
  Te  Te149  1  0.49650993  0.33761718  0.66721245  1
  Te  Te150  1  0.49904974  0.66380269  0.00187110  1
  Te  Te151  1  0.49364016  0.67138378  0.32798412  1
  Te  Te152  1  0.49691492  0.66289572  0.66857401  1
  Te  Te153  1  0.83552678  -0.00244646  0.00228313  1
  Te  Te154  1  0.83055621  -0.00255043  0.33252802  1
  Te  Te155  1  0.83032863  0.00009497  0.67009115  1
  Te  Te156  1  0.82855081  0.32614676  0.00025025  1
  Te  Te157  1  0.82765871  0.33322364  0.33772634  1
  Te  Te158  1  0.83566614  0.33368745  0.66359778  1
  Te  Te159  1  0.83168452  0.67088800  0.00173029  1
  Te  Te160  1  0.83389126  0.67262141  0.32674159  1
  Te  Te161  1  0.83688029  0.66948478  0.66559235  1
  Te  Te162  1  0.00542265  0.17125738  -0.00017654  1
  Te  Te163  1  0.00071467  0.15912052  0.33330458  1
  Te  Te164  1  -0.00753126  0.17134470  0.66712097  1
  Te  Te165  1  -0.00170829  0.50601829  -0.00367535  1
  Te  Te166  1  0.00513423  0.49900719  0.33363163  1
  Te  Te167  1  -0.00050178  0.50224059  0.67024847  1
  Te  Te168  1  -0.00277479  0.82747393  0.00162725  1
  Te  Te169  1  0.00209340  0.83575996  0.33274065  1
  Te  Te170  1  -0.00508839  0.82899019  0.66440813  1
  Te  Te171  1  0.33193856  0.16406438  -0.00442666  1
  Te  Te172  1  0.34158385  0.16759097  0.33676899  1
  Te  Te173  1  0.33366803  0.16760257  0.66986088  1
  Te  Te174  1  0.33323144  0.50190626  -0.00104709  1
  Te  Te175  1  0.32730077  0.50500712  0.33455868  1
  Te  Te176  1  0.33757759  0.50112610  0.66752588  1
  Te  Te177  1  0.33127536  0.83413906  -0.00064200  1
  Te  Te178  1  0.32581743  0.82828450  0.33519266  1
  Te  Te179  1  0.33539380  0.82621261  0.66661223  1
  Te  Te180  1  0.66429595  0.16392959  -0.00088280  1
  Te  Te181  1  0.66081259  0.16579376  0.33533701  1
  Te  Te182  1  0.67044927  0.16269214  0.67125906  1
  Te  Te183  1  0.66827959  0.49699775  0.00017906  1
  Te  Te184  1  0.66748238  0.49629872  0.33811690  1
  Te  Te185  1  0.66168122  0.49882618  0.66375016  1
  Te  Te186  1  0.66790419  0.83785679  0.00328729  1
  Te  Te187  1  0.66791301  0.83616650  0.33166464  1
  Te  Te188  1  0.67040151  0.83824742  0.66443827  1
  Te  Te189  1  0.00268488  -0.00627178  0.17232842  1
  Te  Te190  1  -0.00177806  -0.00491837  0.49623058  1
  Te  Te191  1  0.00971481  -0.00011661  0.83043673  1
  Te  Te192  1  -0.00055619  0.33380718  0.16941025  1
  Te  Te193  1  -0.00593068  0.33432900  0.50637810  1
  Te  Te194  1  0.00434358  0.33850470  0.82940765  1
  Te  Te195  1  -0.00347029  0.67399113  0.16190055  1
  Te  Te196  1  0.00545528  0.67160046  0.50288988  1
  Te  Te197  1  -0.00188540  0.66443908  0.83369086  1
  Te  Te198  1  0.32851629  0.00035041  0.16002698  1
  Te  Te199  1  0.33172251  0.00377721  0.50172704  1
  Te  Te200  1  0.33236041  0.00400455  0.83587234  1
  Te  Te201  1  0.34139990  0.33247599  0.16855753  1
  Te  Te202  1  0.33215705  0.32918565  0.50688070  1
  Te  Te203  1  0.32880792  0.32820393  0.82865515  1
  Te  Te204  1  0.33803754  0.66664321  0.16336651  1
  Te  Te205  1  0.32818843  0.66681441  0.50306634  1
  Te  Te206  1  0.33299796  0.66601947  0.83450041  1
  Te  Te207  1  0.66632662  -0.00387962  0.16595516  1
  Te  Te208  1  0.66946721  -0.00262608  0.49921153  1
  Te  Te209  1  0.66655725  0.00344455  0.83690427  1
  Te  Te210  1  0.66297136  0.33593695  0.16676335  1
  Te  Te211  1  0.67171762  0.33258476  0.49894071  1
  Te  Te212  1  0.66677047  0.32704268  0.83871587  1
  Te  Te213  1  0.66626590  0.67252372  0.16765842  1
  Te  Te214  1  0.66587644  0.66602146  0.49999080  1
  Te  Te215  1  0.67486488  0.66522881  0.83117066  1
