# generated using pymatgen
data_AgSbTe2
_symmetry_space_group_name_H-M   'P 1'
_cell_length_a   18.33247201
_cell_length_b   18.33492269
_cell_length_c   18.33606229
_cell_angle_alpha   90.00047777
_cell_angle_beta   89.99944806
_cell_angle_gamma   89.99861337
_symmetry_Int_Tables_number   1
_chemical_formula_structural   AgSbTe2
_chemical_formula_sum   'Ag54 Sb54 Te108'
_cell_volume   6163.19897866
_cell_formula_units_Z   54
loop_
 _symmetry_equiv_pos_site_id
 _symmetry_equiv_pos_as_xyz
  1  'x, y, z'
loop_
 _atom_site_type_symbol
 _atom_site_label
 _atom_site_symmetry_multiplicity
 _atom_site_fract_x
 _atom_site_fract_y
 _atom_site_fract_z
 _atom_site_occupancy
  Ag  Ag0  1  -0.00071018  0.32515575  0.33212532  1
  Ag  Ag1  1  0.66152063  0.49573163  0.50239691  1
  Ag  Ag2  1  0.49777157  0.16040929  -0.01002777  1
  Ag  Ag3  1  0.48992984  0.00316428  0.16525694  1
  Ag  Ag4  1  0.16660966  0.33212235  0.50273575  1
  Ag  Ag5  1  0.00504661  0.00133138  0.67639753  1
  Ag  Ag6  1  0.68436272  0.16661640  0.83090282  1
  Ag  Ag7  1  0.84486055  0.00342775  0.15823406  1
  Ag  Ag8  1  0.83624745  0.16731051  0.67852890  1
  Ag  Ag9  1  0.16935089  0.16367467  0.33188025  1
  Ag  Ag10  1  0.16838670  0.84177424  0.00018609  1
  Ag  Ag11  1  0.00063702  0.16404180  0.83261564  1
  Ag  Ag12  1  0.66273608  0.17053700  0.50482950  1
  Ag  Ag13  1  0.16749720  0.50229176  -0.00591819  1
  Ag  Ag14  1  0.84312789  0.01177360  0.83780686  1
  Ag  Ag15  1  0.84073172  0.66705389  0.15883293  1
  Ag  Ag16  1  0.32192071  0.49433690  0.83229486  1
  Ag  Ag17  1  0.83949901  0.32369671  0.83678910  1
  Ag  Ag18  1  0.49511415  0.16334378  0.33258396  1
  Ag  Ag19  1  0.49751667  0.00622578  0.83792742  1
  Ag  Ag20  1  0.00727928  0.00397006  0.32576464  1
  Ag  Ag21  1  0.16003058  0.32197303  0.83283248  1
  Ag  Ag22  1  0.49752960  0.49598963  0.33413081  1
  Ag  Ag23  1  0.49635849  0.84346302  0.00235124  1
  Ag  Ag24  1  0.16016524  0.66365140  0.83692584  1
  Ag  Ag25  1  0.83495176  0.32562261  0.16201042  1
  Ag  Ag26  1  0.33338623  0.50310106  0.50011903  1
  Ag  Ag27  1  0.66973111  0.33139890  0.33446275  1
  Ag  Ag28  1  0.83483056  0.16274631  -0.00856804  1
  Ag  Ag29  1  0.49647204  0.00343573  0.49370950  1
  Ag  Ag30  1  0.32873177  0.00407314  0.66658206  1
  Ag  Ag31  1  0.83976552  0.66316244  0.83660555  1
  Ag  Ag32  1  0.66678387  0.84331587  0.83666980  1
  Ag  Ag33  1  0.16354482  0.67552852  0.15911903  1
  Ag  Ag34  1  0.31834979  0.16564188  0.83594279  1
  Ag  Ag35  1  0.83586810  0.49562069  0.67537846  1
  Ag  Ag36  1  0.16587273  0.66491634  0.50344383  1
  Ag  Ag37  1  0.33153573  0.16242284  0.16215986  1
  Ag  Ag38  1  0.00252821  0.83891498  0.16888524  1
  Ag  Ag39  1  0.33050518  0.49596486  0.16948670  1
  Ag  Ag40  1  0.66944390  0.66694000  -0.00375549  1
  Ag  Ag41  1  0.67771171  0.49791244  0.83121067  1
  Ag  Ag42  1  0.00197267  0.67197322  0.67186740  1
  Ag  Ag43  1  0.32801758  0.83772705  0.49791147  1
  Ag  Ag44  1  0.49778310  0.16172960  0.67760656  1
  Ag  Ag45  1  0.49770081  0.84721078  0.32936713  1
  Ag  Ag46  1  0.00911000  0.83675018  0.49662723  1
  Ag  Ag47  1  0.33305582  0.00321696  0.33527339  1
  Ag  Ag48  1  0.16612300  0.15935891  -0.00919958  1
  Ag  Ag49  1  0.16118045  0.01009038  0.84163546  1
  Ag  Ag50  1  0.00502562  0.00151012  -0.00189390  1
  Ag  Ag51  1  0.00135023  0.49344749  0.83253620  1
  Ag  Ag52  1  0.16625837  0.16293904  0.67874797  1
  Ag  Ag53  1  0.16407864  0.00129002  0.15861810  1
  Sb  Sb54  1  0.66695329  0.00419352  0.67128389  1
  Sb  Sb55  1  0.66418139  0.49916952  0.16469908  1
  Sb  Sb56  1  0.49752316  0.84273294  0.66909037  1
  Sb  Sb57  1  0.67507679  0.66398521  0.67456195  1
  Sb  Sb58  1  0.16977257  0.00189792  0.50120129  1
  Sb  Sb59  1  0.49923385  0.67083430  0.83478995  1
  Sb  Sb60  1  0.66878105  0.83451919  0.16060220  1
  Sb  Sb61  1  0.49449086  0.67005338  0.49947954  1
  Sb  Sb62  1  0.83659520  0.83795852  0.67170223  1
  Sb  Sb63  1  0.49582736  0.67125731  0.16499106  1
  Sb  Sb64  1  0.00191880  0.66868878  0.33440530  1
  Sb  Sb65  1  0.66225846  0.00595099  0.33314344  1
  Sb  Sb66  1  0.00036862  0.32655655  -0.00008782  1
  Sb  Sb67  1  0.32929061  0.84008182  0.16946862  1
  Sb  Sb68  1  0.00266909  0.50160190  0.50554417  1
  Sb  Sb69  1  0.83383133  0.16613931  0.33058562  1
  Sb  Sb70  1  0.66988959  0.33467805  0.00002665  1
  Sb  Sb71  1  0.00081182  0.32945547  0.66813790  1
  Sb  Sb72  1  0.66309417  0.83418930  0.50400375  1
  Sb  Sb73  1  0.50205087  0.32633459  0.16977087  1
  Sb  Sb74  1  0.66931096  0.32994334  0.66520669  1
  Sb  Sb75  1  0.49730251  0.32771438  0.49724223  1
  Sb  Sb76  1  0.16932662  0.84041240  0.33094464  1
  Sb  Sb77  1  0.33080974  0.32994225  -0.00144236  1
  Sb  Sb78  1  0.33537839  0.16373138  0.50145409  1
  Sb  Sb79  1  0.00398197  0.50271455  0.16076006  1
  Sb  Sb80  1  -0.00013876  0.16190145  0.50371919  1
  Sb  Sb81  1  0.17048460  0.49509113  0.33140880  1
  Sb  Sb82  1  0.83661598  0.33209435  0.50269659  1
  Sb  Sb83  1  0.33133280  0.66973715  0.33286546  1
  Sb  Sb84  1  0.16460980  0.83932779  0.67086710  1
  Sb  Sb85  1  0.16289407  0.32759303  0.16349384  1
  Sb  Sb86  1  0.16334577  0.49696185  0.67353176  1
  Sb  Sb87  1  0.32589551  0.67018539  0.66755070  1
  Sb  Sb88  1  0.33350547  0.84064578  0.83130199  1
  Sb  Sb89  1  0.66564125  0.66333568  0.32992126  1
  Sb  Sb90  1  0.50042266  0.32462516  0.83360319  1
  Sb  Sb91  1  0.66683434  -0.00119809  -0.00329717  1
  Sb  Sb92  1  0.50192363  0.49451183  0.66570646  1
  Sb  Sb93  1  0.33010129  0.32695127  0.66661012  1
  Sb  Sb94  1  0.33040045  0.66654320  -0.00050394  1
  Sb  Sb95  1  0.83252032  0.00239236  0.50308998  1
  Sb  Sb96  1  0.49570553  0.49867632  0.00002194  1
  Sb  Sb97  1  0.83876543  0.49816675  -0.00654211  1
  Sb  Sb98  1  0.83072308  0.83613476  0.33025094  1
  Sb  Sb99  1  0.83051080  0.49769633  0.33454327  1
  Sb  Sb100  1  0.32986257  0.00260872  -0.00094397  1
  Sb  Sb101  1  0.00421492  0.15960355  0.16204062  1
  Sb  Sb102  1  0.66378642  0.16568147  0.16357740  1
  Sb  Sb103  1  -0.00061644  0.83835450  0.83550434  1
  Sb  Sb104  1  0.33107264  0.32757852  0.33480865  1
  Sb  Sb105  1  0.83522658  0.83870212  -0.00223191  1
  Sb  Sb106  1  0.83810622  0.66485046  0.50389364  1
  Sb  Sb107  1  -0.00041975  0.67347336  -0.00454379  1
  Te  Te108  1  0.17039646  0.16359341  0.17030106  1
  Te  Te109  1  0.16739368  0.17029886  0.49244714  1
  Te  Te110  1  0.16202070  0.16585604  0.83483567  1
  Te  Te111  1  0.17059767  0.49770215  0.16305309  1
  Te  Te112  1  0.16900561  0.50020792  0.50080823  1
  Te  Te113  1  0.16420859  0.50491842  0.83305716  1
  Te  Te114  1  0.16462896  0.83541035  0.16454279  1
  Te  Te115  1  0.16776798  0.83116946  0.49942441  1
  Te  Te116  1  0.16731511  0.82693536  0.83903393  1
  Te  Te117  1  0.49657359  0.16234996  0.17013013  1
  Te  Te118  1  0.50206901  0.16350867  0.49474100  1
  Te  Te119  1  0.49475357  0.16526966  0.83406191  1
  Te  Te120  1  0.49451509  0.50030287  0.16895165  1
  Te  Te121  1  0.49983981  0.50030931  0.49900033  1
  Te  Te122  1  0.49813170  0.49735106  0.83341977  1
  Te  Te123  1  0.49944007  0.83846796  0.16535644  1
  Te  Te124  1  0.49771064  0.83770880  0.49676047  1
  Te  Te125  1  0.50187848  0.83903086  0.83759059  1
  Te  Te126  1  0.83339509  0.16497352  0.16332240  1
  Te  Te127  1  0.82487786  0.16734423  0.50423128  1
  Te  Te128  1  0.83978667  0.16736333  0.83420939  1
  Te  Te129  1  0.83406197  0.50286548  0.16447803  1
  Te  Te130  1  0.82972473  0.49974463  0.50621378  1
  Te  Te131  1  0.83570609  0.50441462  0.83314274  1
  Te  Te132  1  0.83763125  0.83530892  0.16506985  1
  Te  Te133  1  0.83437989  0.83212791  0.49963707  1
  Te  Te134  1  0.82731828  0.82471115  0.83397931  1
  Te  Te135  1  0.16639757  -0.00002290  -0.00093959  1
  Te  Te136  1  0.16781813  0.00293937  0.33463067  1
  Te  Te137  1  0.16590767  0.00356854  0.66731053  1
  Te  Te138  1  0.16509705  0.33346869  -0.00546790  1
  Te  Te139  1  0.16311619  0.32802636  0.33352865  1
  Te  Te140  1  0.16505570  0.32604277  0.66787861  1
  Te  Te141  1  0.16568887  0.66490813  0.00048184  1
  Te  Te142  1  0.16580400  0.66649676  0.33212104  1
  Te  Te143  1  0.16138589  0.66746016  0.66703001  1
  Te  Te144  1  0.50069579  0.00145004  0.00100559  1
  Te  Te145  1  0.50097009  0.00343098  0.33064828  1
  Te  Te146  1  0.49848545  0.00456336  0.67110752  1
  Te  Te147  1  0.50160711  0.32372911  0.00207776  1
  Te  Te148  1  0.50433202  0.33413423  0.33324940  1
  Te  Te149  1  0.49923606  0.32158574  0.66513424  1
  Te  Te150  1  0.50530469  0.66969048  0.00114215  1
  Te  Te151  1  0.49963574  0.65956256  0.33190812  1
  Te  Te152  1  0.49967018  0.66698920  0.66636556  1
  Te  Te153  1  0.83472027  0.00253071  -0.00219365  1
  Te  Te154  1  0.83849221  -0.00019525  0.33089428  1
  Te  Te155  1  0.83889333  0.00506541  0.67143646  1
  Te  Te156  1  0.83441898  0.32812356  -0.00035549  1
  Te  Te157  1  0.83515183  0.33330857  0.33114859  1
  Te  Te158  1  0.83520235  0.33264176  0.67215544  1
  Te  Te159  1  0.83287765  0.66740770  -0.00023899  1
  Te  Te160  1  0.83374807  0.66687019  0.32480481  1
  Te  Te161  1  0.84076085  0.66371838  0.67107836  1
  Te  Te162  1  0.00214144  0.16220958  -0.00357198  1
  Te  Te163  1  0.00077948  0.16489711  0.33508779  1
  Te  Te164  1  0.00145326  0.16320967  0.66864619  1
  Te  Te165  1  0.00643252  0.50056541  -0.00711512  1
  Te  Te166  1  0.00003245  0.49606711  0.33419216  1
  Te  Te167  1  -0.00358670  0.50207957  0.67159528  1
  Te  Te168  1  0.00469583  0.83944849  0.00539171  1
  Te  Te169  1  -0.00072340  0.83724097  0.33296868  1
  Te  Te170  1  -0.00007156  0.83656887  0.66048012  1
  Te  Te171  1  0.33147349  0.16626417  0.00001540  1
  Te  Te172  1  0.33416801  0.16367208  0.33420733  1
  Te  Te173  1  0.33074869  0.16233629  0.66836006  1
  Te  Te174  1  0.32969163  0.49870882  -0.00382234  1
  Te  Te175  1  0.33646827  0.49868631  0.33443350  1
  Te  Te176  1  0.33395095  0.50074111  0.66702109  1
  Te  Te177  1  0.33427452  0.83252886  0.00033385  1
  Te  Te178  1  0.33814534  0.83801081  0.33704498  1
  Te  Te179  1  0.33250508  0.84029542  0.65948395  1
  Te  Te180  1  0.66695795  0.16807025  -0.00572751  1
  Te  Te181  1  0.66580771  0.17131968  0.33507948  1
  Te  Te182  1  0.66737233  0.16666393  0.66870818  1
  Te  Te183  1  0.66494218  0.50351226  -0.00507558  1
  Te  Te184  1  0.66269462  0.49588531  0.33571713  1
  Te  Te185  1  0.66996779  0.49805963  0.66771708  1
  Te  Te186  1  0.66307645  0.82843858  -0.00504856  1
  Te  Te187  1  0.65800490  0.83191508  0.33523696  1
  Te  Te188  1  0.66654159  0.83191198  0.67454958  1
  Te  Te189  1  0.00281409  -0.00051422  0.16640734  1
  Te  Te190  1  -0.00101248  -0.00405378  0.49755063  1
  Te  Te191  1  0.00129419  -0.00148489  0.83492881  1
  Te  Te192  1  -0.00530553  0.33448762  0.17087028  1
  Te  Te193  1  0.00452653  0.33293249  0.49482120  1
  Te  Te194  1  -0.00020426  0.33367635  0.83398510  1
  Te  Te195  1  0.00189417  0.67023401  0.16668310  1
  Te  Te196  1  0.00524050  0.67038162  0.50296054  1
  Te  Te197  1  0.00000753  0.67296885  0.83166052  1
  Te  Te198  1  0.33120086  0.00309025  0.17159303  1
  Te  Te199  1  0.33626303  -0.00121068  0.49872666  1
  Te  Te200  1  0.33192092  0.00328945  0.82958795  1
  Te  Te201  1  0.33313588  0.33459236  0.16737965  1
  Te  Te202  1  0.32732372  0.34195062  0.50031332  1
  Te  Te203  1  0.32862640  0.33272862  0.83221807  1
  Te  Te204  1  0.32661792  0.66124108  0.16650181  1
  Te  Te205  1  0.32682814  0.66511719  0.50027258  1
  Te  Te206  1  0.33005297  0.66257539  0.83220982  1
  Te  Te207  1  0.67210041  -0.00041018  0.16680497  1
  Te  Te208  1  0.66045115  0.00246517  0.50136887  1
  Te  Te209  1  0.66677017  0.00355394  0.83322391  1
  Te  Te210  1  0.67453149  0.33390139  0.17158463  1
  Te  Te211  1  0.66758615  0.33452228  0.49613975  1
  Te  Te212  1  0.67108160  0.33263809  0.83309512  1
  Te  Te213  1  0.67008901  0.66628588  0.16121724  1
  Te  Te214  1  0.66787651  0.66140859  0.50056625  1
  Te  Te215  1  0.66549615  0.65959364  0.83622433  1
