# generated using pymatgen
data_AgSbTe2
_symmetry_space_group_name_H-M   'P 1'
_cell_length_a   18.32866638
_cell_length_b   18.32233993
_cell_length_c   18.32297679
_cell_angle_alpha   89.99975831
_cell_angle_beta   89.99985025
_cell_angle_gamma   89.99838654
_symmetry_Int_Tables_number   1
_chemical_formula_structural   AgSbTe2
_chemical_formula_sum   'Ag54 Sb54 Te108'
_cell_volume   6153.29637782
_cell_formula_units_Z   54
loop_
 _symmetry_equiv_pos_site_id
 _symmetry_equiv_pos_as_xyz
  1  'x, y, z'
loop_
 _atom_site_type_symbol
 _atom_site_label
 _atom_site_symmetry_multiplicity
 _atom_site_fract_x
 _atom_site_fract_y
 _atom_site_fract_z
 _atom_site_occupancy
  Ag  Ag0  1  0.66002278  0.83009289  0.83274533  1
  Ag  Ag1  1  0.50217577  0.33328980  0.84771550  1
  Ag  Ag2  1  0.16300666  -0.00550988  0.49418504  1
  Ag  Ag3  1  0.49953734  0.16922100  0.32490455  1
  Ag  Ag4  1  0.66156455  0.50095474  0.84265115  1
  Ag  Ag5  1  0.16510394  0.15869904  0.66106822  1
  Ag  Ag6  1  0.00145675  0.49917053  0.49530767  1
  Ag  Ag7  1  0.66075974  0.83034390  0.49764179  1
  Ag  Ag8  1  -0.00645415  0.33057475  0.00543529  1
  Ag  Ag9  1  0.66600537  0.67087322  0.65912379  1
  Ag  Ag10  1  0.83011140  0.32803179  0.16460389  1
  Ag  Ag11  1  -0.00518379  0.16229071  0.16435166  1
  Ag  Ag12  1  0.50046727  0.49098249  0.00045268  1
  Ag  Ag13  1  0.00265172  -0.00096864  0.65590824  1
  Ag  Ag14  1  0.49459957  0.33511796  0.49484399  1
  Ag  Ag15  1  0.17144588  0.33269797  0.16933552  1
  Ag  Ag16  1  0.17064448  0.83693880  0.65293268  1
  Ag  Ag17  1  0.83083326  0.17076189  0.00561514  1
  Ag  Ag18  1  0.83859799  -0.00429809  0.16980535  1
  Ag  Ag19  1  0.15821690  -0.00696892  0.17530985  1
  Ag  Ag20  1  -0.00081093  0.83945953  0.16908042  1
  Ag  Ag21  1  0.33106801  0.16701925  0.49755479  1
  Ag  Ag22  1  0.17502116  0.33033363  0.49111184  1
  Ag  Ag23  1  0.66429509  0.49386748  0.16332257  1
  Ag  Ag24  1  0.32724191  0.66463901  0.33333506  1
  Ag  Ag25  1  0.50389305  0.17895959  0.00401984  1
  Ag  Ag26  1  0.34225795  0.50001063  0.84216699  1
  Ag  Ag27  1  0.67675467  -0.00957790  0.33241181  1
  Ag  Ag28  1  0.67370768  0.17308557  0.16516376  1
  Ag  Ag29  1  -0.00018383  0.16621600  0.84475172  1
  Ag  Ag30  1  0.83214201  0.50904696  0.32886849  1
  Ag  Ag31  1  0.83590734  0.67027951  0.17094636  1
  Ag  Ag32  1  0.50002944  0.33352861  0.16101170  1
  Ag  Ag33  1  0.49754599  0.83264555  0.67242190  1
  Ag  Ag34  1  0.84145665  -0.00124627  0.48632050  1
  Ag  Ag35  1  0.33984085  0.83015537  0.83198544  1
  Ag  Ag36  1  0.16709320  0.83391629  0.01208494  1
  Ag  Ag37  1  0.17169502  0.67891134  0.49243666  1
  Ag  Ag38  1  -0.00464355  -0.00509836  0.33090794  1
  Ag  Ag39  1  0.34575749  0.33479329  0.00862924  1
  Ag  Ag40  1  0.00085067  0.67500411  0.33086036  1
  Ag  Ag41  1  0.50215864  -0.00904215  0.83593521  1
  Ag  Ag42  1  0.67037409  0.67203349  0.33402341  1
  Ag  Ag43  1  0.83226306  0.83892586  0.01132196  1
  Ag  Ag44  1  0.49711033  0.66883719  0.49645197  1
  Ag  Ag45  1  0.83977865  0.83331722  0.32917150  1
  Ag  Ag46  1  0.33034296  0.83277158  0.50013570  1
  Ag  Ag47  1  0.82444791  0.33286066  0.84804475  1
  Ag  Ag48  1  0.16187009  0.83175754  0.33207614  1
  Ag  Ag49  1  0.16162473  0.67499431  0.17433508  1
  Ag  Ag50  1  0.50093408  0.83338568  -0.00531309  1
  Ag  Ag51  1  0.33458785  0.33777997  0.32759984  1
  Ag  Ag52  1  0.66172635  0.33318263  0.00443007  1
  Ag  Ag53  1  0.33738044  0.49489356  0.16479774  1
  Sb  Sb54  1  0.83303056  0.67362206  0.48940888  1
  Sb  Sb55  1  0.50160287  0.00552981  0.16407672  1
  Sb  Sb56  1  0.82989530  0.66313014  0.84181137  1
  Sb  Sb57  1  0.67009197  -0.00601204  0.66184207  1
  Sb  Sb58  1  0.16809933  0.50319592  0.66331716  1
  Sb  Sb59  1  0.50095051  0.66757334  0.83094559  1
  Sb  Sb60  1  -0.00043373  0.66394898  0.00776415  1
  Sb  Sb61  1  0.50076541  0.66300270  0.17148830  1
  Sb  Sb62  1  0.66214734  0.33398931  0.32467011  1
  Sb  Sb63  1  0.83283007  0.32902387  0.49251833  1
  Sb  Sb64  1  0.33423327  0.66415203  0.00589629  1
  Sb  Sb65  1  0.17049103  0.16301185  0.33471050  1
  Sb  Sb66  1  0.33394515  0.00138313  0.00085646  1
  Sb  Sb67  1  -0.00041017  0.00448356  0.00713663  1
  Sb  Sb68  1  0.17223195  0.50137510  0.00449725  1
  Sb  Sb69  1  0.50266042  0.49623011  0.32837066  1
  Sb  Sb70  1  0.66632545  0.66477085  0.00536237  1
  Sb  Sb71  1  0.33199675  -0.00135900  0.33389593  1
  Sb  Sb72  1  0.50073227  0.50493892  0.67086155  1
  Sb  Sb73  1  0.49612284  0.16236100  0.66821189  1
  Sb  Sb74  1  0.82677071  0.49301433  0.00855389  1
  Sb  Sb75  1  0.16699784  0.16522232  0.00191898  1
  Sb  Sb76  1  0.49750150  -0.00367940  0.50104895  1
  Sb  Sb77  1  0.00342018  0.83404431  0.48955637  1
  Sb  Sb78  1  0.17050720  0.33240940  0.83723245  1
  Sb  Sb79  1  0.33356566  0.33388240  0.66457899  1
  Sb  Sb80  1  0.16792258  -0.00181041  0.83229826  1
  Sb  Sb81  1  0.83837624  0.16542573  0.67216115  1
  Sb  Sb82  1  0.33132723  0.50087299  0.49566009  1
  Sb  Sb83  1  0.66663086  0.00210653  0.00599599  1
  Sb  Sb84  1  0.83057142  0.00189519  0.83770866  1
  Sb  Sb85  1  -0.00221776  0.67474841  0.65539263  1
  Sb  Sb86  1  -0.00297717  0.49321187  0.83182426  1
  Sb  Sb87  1  0.33345897  0.17353900  0.17059413  1
  Sb  Sb88  1  0.00482076  0.33201752  0.32710704  1
  Sb  Sb89  1  0.16895802  0.67055218  0.83371837  1
  Sb  Sb90  1  -0.00007164  0.83805018  0.84017601  1
  Sb  Sb91  1  0.33252776  0.16694535  0.83157898  1
  Sb  Sb92  1  0.83156860  0.50077571  0.66211860  1
  Sb  Sb93  1  0.32819558  -0.00310617  0.66598732  1
  Sb  Sb94  1  0.67193558  0.83301220  0.16831475  1
  Sb  Sb95  1  0.83015584  0.16187916  0.32430631  1
  Sb  Sb96  1  0.66872618  0.50453520  0.49520777  1
  Sb  Sb97  1  0.32785857  0.82795545  0.16857029  1
  Sb  Sb98  1  0.16326823  0.50771265  0.33210445  1
  Sb  Sb99  1  -0.00197862  0.49899370  0.17112513  1
  Sb  Sb100  1  0.66401558  0.33721775  0.67413649  1
  Sb  Sb101  1  0.00275934  0.32741649  0.66856738  1
  Sb  Sb102  1  0.66789775  0.16748190  0.84052209  1
  Sb  Sb103  1  0.83305295  0.83433412  0.66288838  1
  Sb  Sb104  1  0.50002687  0.83492763  0.33231495  1
  Sb  Sb105  1  0.66133243  0.16246491  0.49061881  1
  Sb  Sb106  1  0.00492323  0.16581959  0.49509686  1
  Sb  Sb107  1  0.33772486  0.67043713  0.66001782  1
  Te  Te108  1  0.16267300  0.16926005  0.16676826  1
  Te  Te109  1  0.16955908  0.16895957  0.50082335  1
  Te  Te110  1  0.16267425  0.16605330  0.82855852  1
  Te  Te111  1  0.16993346  0.49351169  0.16675250  1
  Te  Te112  1  0.16423894  0.49259533  0.49996776  1
  Te  Te113  1  0.17088037  0.50173202  0.83271185  1
  Te  Te114  1  0.16516104  0.83338383  0.17022431  1
  Te  Te115  1  0.16648140  0.83446720  0.49654700  1
  Te  Te116  1  0.17094262  0.83348900  0.83521373  1
  Te  Te117  1  0.49956946  0.16988000  0.16430235  1
  Te  Te118  1  0.49402838  0.16803427  0.50114162  1
  Te  Te119  1  0.49949850  0.17122895  0.83702349  1
  Te  Te120  1  0.50090532  0.49672574  0.16276745  1
  Te  Te121  1  0.49983965  0.50002250  0.50107069  1
  Te  Te122  1  0.50170502  0.50000591  0.83643533  1
  Te  Te123  1  0.49849510  0.83532616  0.16125549  1
  Te  Te124  1  0.49933290  0.83155668  0.49905797  1
  Te  Te125  1  0.49995989  0.83056581  0.83209264  1
  Te  Te126  1  0.83363090  0.16846315  0.16408861  1
  Te  Te127  1  0.83165344  0.16007012  0.50100827  1
  Te  Te128  1  0.83658114  0.16997684  0.84016185  1
  Te  Te129  1  0.83117746  0.50149117  0.16987112  1
  Te  Te130  1  0.83694600  0.49795639  0.49357640  1
  Te  Te131  1  0.82799351  0.49399300  0.83396967  1
  Te  Te132  1  0.83353255  0.83464269  0.16858479  1
  Te  Te133  1  0.82976568  0.83986994  0.49595563  1
  Te  Te134  1  0.82939058  0.83314228  0.83632125  1
  Te  Te135  1  0.16700381  -0.00568072  0.00339154  1
  Te  Te136  1  0.16605642  -0.00340173  0.33418367  1
  Te  Te137  1  0.16299132  -0.00218836  0.66539985  1
  Te  Te138  1  0.16478904  0.33314003  0.00428862  1
  Te  Te139  1  0.17096854  0.33262682  0.33205984  1
  Te  Te140  1  0.16645193  0.33189986  0.66343265  1
  Te  Te141  1  0.16594344  0.67265266  0.00643996  1
  Te  Te142  1  0.16599484  0.66761817  0.33347563  1
  Te  Te143  1  0.16564758  0.67295766  0.65967895  1
  Te  Te144  1  0.50060785  -0.00631678  -0.00387442  1
  Te  Te145  1  0.50214259  0.00731001  0.33311145  1
  Te  Te146  1  0.50197243  -0.00594904  0.67231211  1
  Te  Te147  1  0.50163413  0.33532073  0.00299224  1
  Te  Te148  1  0.49685921  0.33129234  0.33472346  1
  Te  Te149  1  0.49999593  0.33237249  0.65937976  1
  Te  Te150  1  0.49974496  0.67386275  0.00274749  1
  Te  Te151  1  0.50215084  0.66605162  0.33724648  1
  Te  Te152  1  0.50449044  0.67229220  0.65840417  1
  Te  Te153  1  0.83269543  0.00052866  0.00518653  1
  Te  Te154  1  0.83374051  -0.00051537  0.33013799  1
  Te  Te155  1  0.84073398  0.00055931  0.66599362  1
  Te  Te156  1  0.83204239  0.33207450  0.00376401  1
  Te  Te157  1  0.83406231  0.33509261  0.32751871  1
  Te  Te158  1  0.83350256  0.33291618  0.66937720  1
  Te  Te159  1  0.83424658  0.67351889  0.00941950  1
  Te  Te160  1  0.83323625  0.67060856  0.33105834  1
  Te  Te161  1  0.82781963  0.66707830  0.66777422  1
  Te  Te162  1  0.00021583  0.17011919  0.00312587  1
  Te  Te163  1  0.00011121  0.16115857  0.32695673  1
  Te  Te164  1  0.00562946  0.16048214  0.66518280  1
  Te  Te165  1  -0.00016304  0.49291199  -0.00286468  1
  Te  Te166  1  -0.00522423  0.50103843  0.33666509  1
  Te  Te167  1  -0.00044824  0.50153904  0.66100499  1
  Te  Te168  1  -0.00061501  0.83198666  0.00637691  1
  Te  Te169  1  0.00011863  0.83432215  0.32950935  1
  Te  Te170  1  0.00412929  0.83899193  0.67067041  1
  Te  Te171  1  0.33819846  0.17283090  -0.00141576  1
  Te  Te172  1  0.33801804  0.17032345  0.33816510  1
  Te  Te173  1  0.32691414  0.16610028  0.66034813  1
  Te  Te174  1  0.33782842  0.49734330  0.00203443  1
  Te  Te175  1  0.33460344  0.49953697  0.32960616  1
  Te  Te176  1  0.33349380  0.50238520  0.67796112  1
  Te  Te177  1  0.33263750  0.83313991  -0.00211431  1
  Te  Te178  1  0.33142726  0.82914950  0.33719461  1
  Te  Te179  1  0.33314186  0.83245946  0.66473991  1
  Te  Te180  1  0.66581174  0.16897531  0.00438434  1
  Te  Te181  1  0.66046475  0.16477079  0.32696267  1
  Te  Te182  1  0.66699269  0.16638610  0.66584375  1
  Te  Te183  1  0.66215047  0.49834170  0.00166080  1
  Te  Te184  1  0.67044465  0.50384954  0.32870949  1
  Te  Te185  1  0.66707568  0.50735342  0.67091345  1
  Te  Te186  1  0.66736527  0.83368036  -0.00203024  1
  Te  Te187  1  0.66587772  0.83284938  0.33448962  1
  Te  Te188  1  0.66575766  0.83048979  0.66615074  1
  Te  Te189  1  0.00021208  -0.00056972  0.16835230  1
  Te  Te190  1  0.00207466  -0.00005443  0.49568897  1
  Te  Te191  1  -0.00109893  0.00631951  0.83265742  1
  Te  Te192  1  0.00003974  0.33238402  0.16429539  1
  Te  Te193  1  0.00080841  0.33583051  0.49992526  1
  Te  Te194  1  -0.00057069  0.32785004  0.83660803  1
  Te  Te195  1  0.00118380  0.66610659  0.17145246  1
  Te  Te196  1  0.00336444  0.66338007  0.49300811  1
  Te  Te197  1  -0.00084796  0.66453084  0.83118044  1
  Te  Te198  1  0.32549906  0.00121512  0.16757394  1
  Te  Te199  1  0.32795284  -0.00215965  0.49960063  1
  Te  Te200  1  0.34002566  -0.00505202  0.83319331  1
  Te  Te201  1  0.33444256  0.33438789  0.16761718  1
  Te  Te202  1  0.33366398  0.33487314  0.49783422  1
  Te  Te203  1  0.33833428  0.33515976  0.83541031  1
  Te  Te204  1  0.33002006  0.66022213  0.17331992  1
  Te  Te205  1  0.33251688  0.66777196  0.49493766  1
  Te  Te206  1  0.33341662  0.66886202  0.83369624  1
  Te  Te207  1  0.66945018  0.00405897  0.17221170  1
  Te  Te208  1  0.66659683  -0.00523903  0.49430002  1
  Te  Te209  1  0.66305960  -0.00420316  0.83145740  1
  Te  Te210  1  0.66548393  0.33323748  0.16479301  1
  Te  Te211  1  0.66295149  0.33365911  0.50128617  1
  Te  Te212  1  0.66437780  0.33486592  0.83828825  1
  Te  Te213  1  0.66901110  0.66261755  0.17249955  1
  Te  Te214  1  0.66676734  0.66927003  0.49696945  1
  Te  Te215  1  0.66728779  0.66743427  0.83275098  1
