# generated using pymatgen
data_AgSbTe2
_symmetry_space_group_name_H-M   'P 1'
_cell_length_a   18.32390832
_cell_length_b   18.32444068
_cell_length_c   18.32735202
_cell_angle_alpha   89.99899811
_cell_angle_beta   90.00090593
_cell_angle_gamma   89.99894353
_symmetry_Int_Tables_number   1
_chemical_formula_structural   AgSbTe2
_chemical_formula_sum   'Ag54 Sb54 Te108'
_cell_volume   6153.87342435
_cell_formula_units_Z   54
loop_
 _symmetry_equiv_pos_site_id
 _symmetry_equiv_pos_as_xyz
  1  'x, y, z'
loop_
 _atom_site_type_symbol
 _atom_site_label
 _atom_site_symmetry_multiplicity
 _atom_site_fract_x
 _atom_site_fract_y
 _atom_site_fract_z
 _atom_site_occupancy
  Ag  Ag0  1  0.82986221  0.82564142  0.00075851  1
  Ag  Ag1  1  0.49441588  0.66370098  0.83355345  1
  Ag  Ag2  1  0.49304243  0.50237647  0.66829648  1
  Ag  Ag3  1  0.17150467  0.66082912  0.50478659  1
  Ag  Ag4  1  0.82878418  -0.00320794  0.83879301  1
  Ag  Ag5  1  0.17240638  0.34214021  0.83774226  1
  Ag  Ag6  1  0.16836405  0.82796457  0.33221889  1
  Ag  Ag7  1  0.32506588  0.33226207  0.32652794  1
  Ag  Ag8  1  -0.00679063  0.66176144  -0.00095069  1
  Ag  Ag9  1  0.83223982  -0.00106570  0.15932042  1
  Ag  Ag10  1  0.17007822  0.17553112  0.66296642  1
  Ag  Ag11  1  0.66186774  0.00598401  0.66772893  1
  Ag  Ag12  1  -0.00179422  0.18132519  0.16530937  1
  Ag  Ag13  1  0.33206665  0.49803564  0.83802916  1
  Ag  Ag14  1  0.17070246  0.66079099  0.82995175  1
  Ag  Ag15  1  0.33224136  0.00739018  0.33351645  1
  Ag  Ag16  1  0.17238684  0.49915968  0.67424282  1
  Ag  Ag17  1  0.00939780  0.33800727  0.31993883  1
  Ag  Ag18  1  0.66843463  0.34030216  0.00437776  1
  Ag  Ag19  1  0.50583364  0.82733203  -0.00102184  1
  Ag  Ag20  1  0.66680478  0.33032504  0.66736702  1
  Ag  Ag21  1  0.49049233  0.33933427  0.83347093  1
  Ag  Ag22  1  0.00936799  0.66374193  0.68190873  1
  Ag  Ag23  1  0.32850947  0.34024196  -0.00214935  1
  Ag  Ag24  1  0.83060437  0.66413024  0.16034142  1
  Ag  Ag25  1  0.83283344  0.16650657  0.67280134  1
  Ag  Ag26  1  0.66471716  0.82964310  0.49524766  1
  Ag  Ag27  1  0.17107382  0.49860176  -0.00293409  1
  Ag  Ag28  1  0.66504760  0.33962438  0.32766077  1
  Ag  Ag29  1  0.66184260  0.16919812  0.50314406  1
  Ag  Ag30  1  0.33155634  0.17788705  0.82944980  1
  Ag  Ag31  1  0.33280972  0.65890630  -0.00559929  1
  Ag  Ag32  1  0.32851957  0.66069650  0.67469845  1
  Ag  Ag33  1  0.00230970  0.49511931  0.16502273  1
  Ag  Ag34  1  0.84383670  0.33593404  0.16328445  1
  Ag  Ag35  1  0.84209894  0.67053640  0.84296937  1
  Ag  Ag36  1  0.33259658  0.16947618  0.50702966  1
  Ag  Ag37  1  0.66817182  0.82170368  0.16521620  1
  Ag  Ag38  1  0.66726739  0.50351401  0.16589546  1
  Ag  Ag39  1  0.16947611  0.17702306  0.33847802  1
  Ag  Ag40  1  0.49941966  0.50033618  0.33470932  1
  Ag  Ag41  1  0.33391277  0.82315661  0.16599001  1
  Ag  Ag42  1  0.50078333  -0.00218643  0.83132266  1
  Ag  Ag43  1  0.00384747  0.34097779  0.00713733  1
  Ag  Ag44  1  -0.00094376  0.82492257  0.83544255  1
  Ag  Ag45  1  0.33727656  0.00210047  0.66887382  1
  Ag  Ag46  1  0.66738443  0.66172011  0.32240114  1
  Ag  Ag47  1  0.15774436  0.33530658  0.16737524  1
  Ag  Ag48  1  0.49575594  0.66542621  0.50557480  1
  Ag  Ag49  1  0.00076080  0.66122745  0.32674928  1
  Ag  Ag50  1  0.67300445  0.66391993  0.00451648  1
  Ag  Ag51  1  0.83414975  0.16693300  -0.00104179  1
  Ag  Ag52  1  0.33192964  0.50036919  0.15935029  1
  Ag  Ag53  1  0.16919442  0.33533284  0.49711595  1
  Sb  Sb54  1  0.83232285  0.66828030  0.49960526  1
  Sb  Sb55  1  0.00484418  0.50032632  0.49301298  1
  Sb  Sb56  1  0.65893371  0.49982437  0.83974601  1
  Sb  Sb57  1  0.16835187  0.82724028  0.66441834  1
  Sb  Sb58  1  0.16569772  0.82292483  0.00329135  1
  Sb  Sb59  1  0.00409392  0.16974045  0.49770367  1
  Sb  Sb60  1  0.33125362  0.82732111  0.83825755  1
  Sb  Sb61  1  0.82953873  0.00213244  0.50258570  1
  Sb  Sb62  1  0.33254708  0.33555543  0.67167434  1
  Sb  Sb63  1  0.83540765  0.83167817  0.32519280  1
  Sb  Sb64  1  0.83005918  0.49949243  0.32811521  1
  Sb  Sb65  1  -0.00225734  0.82818129  0.50231232  1
  Sb  Sb66  1  0.49472735  0.17412613  0.33442330  1
  Sb  Sb67  1  0.16322545  0.17808422  -0.00075937  1
  Sb  Sb68  1  0.33576700  0.83299749  0.49585963  1
  Sb  Sb69  1  0.49919438  0.33715222  0.16153479  1
  Sb  Sb70  1  -0.00294825  -0.00117132  0.00015622  1
  Sb  Sb71  1  0.83475932  0.33105388  0.49573862  1
  Sb  Sb72  1  0.83156901  0.83691562  0.67427539  1
  Sb  Sb73  1  0.66432597  0.16727146  0.82966573  1
  Sb  Sb74  1  0.83460929  0.33406437  0.84092484  1
  Sb  Sb75  1  0.17121572  0.49708921  0.32937112  1
  Sb  Sb76  1  0.00508006  0.00097844  0.32925689  1
  Sb  Sb77  1  0.16902070  -0.00057446  0.83105503  1
  Sb  Sb78  1  0.17054926  0.00189155  0.49986777  1
  Sb  Sb79  1  0.00090116  -0.00207173  0.67019928  1
  Sb  Sb80  1  0.50378217  0.16732578  -0.00294209  1
  Sb  Sb81  1  0.33408632  0.66185667  0.33130309  1
  Sb  Sb82  1  0.33139616  0.49585205  0.50104392  1
  Sb  Sb83  1  0.33506224  -0.00034693  -0.00153402  1
  Sb  Sb84  1  0.83729349  0.16879325  0.33033066  1
  Sb  Sb85  1  0.00283074  0.16652505  0.83730622  1
  Sb  Sb86  1  0.00162289  0.33808185  0.67042434  1
  Sb  Sb87  1  0.00997524  0.50562856  0.84066762  1
  Sb  Sb88  1  0.16451825  0.00449580  0.16749608  1
  Sb  Sb89  1  0.67445580  0.17214382  0.16943967  1
  Sb  Sb90  1  0.66847696  0.83158098  0.83723815  1
  Sb  Sb91  1  0.50402222  0.66384683  0.16167978  1
  Sb  Sb92  1  0.49432533  0.50433931  -0.00245286  1
  Sb  Sb93  1  0.49771968  0.82696583  0.32913962  1
  Sb  Sb94  1  0.32613682  0.17339681  0.16560873  1
  Sb  Sb95  1  0.49900148  -0.00488536  0.50573789  1
  Sb  Sb96  1  0.66176464  -0.00063125  0.33563637  1
  Sb  Sb97  1  0.16355575  0.65865270  0.16553597  1
  Sb  Sb98  1  0.66473221  0.66447565  0.66888552  1
  Sb  Sb99  1  0.49785104  0.17216353  0.66796768  1
  Sb  Sb100  1  -0.00080941  0.82701644  0.16271063  1
  Sb  Sb101  1  0.50326423  -0.00467639  0.16281947  1
  Sb  Sb102  1  0.66912444  -0.00224671  -0.00339785  1
  Sb  Sb103  1  0.66315012  0.49944273  0.49523830  1
  Sb  Sb104  1  0.83804791  0.50196913  0.00184775  1
  Sb  Sb105  1  0.83385258  0.49750167  0.67185432  1
  Sb  Sb106  1  0.49588182  0.33765839  0.50387648  1
  Sb  Sb107  1  0.49962447  0.82819291  0.67220488  1
  Te  Te108  1  0.16002065  0.17192924  0.16987003  1
  Te  Te109  1  0.17024324  0.16892094  0.50010924  1
  Te  Te110  1  0.17087351  0.16740440  0.82960593  1
  Te  Te111  1  0.16976466  0.49477923  0.16400825  1
  Te  Te112  1  0.16705244  0.50029048  0.50746281  1
  Te  Te113  1  0.17052801  0.50073348  0.83373287  1
  Te  Te114  1  0.17043305  0.83534873  0.17092147  1
  Te  Te115  1  0.16657761  0.82860690  0.49391875  1
  Te  Te116  1  0.16076337  0.82941550  0.83351973  1
  Te  Te117  1  0.50123589  0.16391760  0.16613909  1
  Te  Te118  1  0.49859959  0.16579673  0.50044306  1
  Te  Te119  1  0.49355936  0.16659465  0.83324982  1
  Te  Te120  1  0.49824297  0.49955201  0.17317821  1
  Te  Te121  1  0.49815938  0.50567963  0.50310439  1
  Te  Te122  1  0.49420442  0.50056388  0.83034972  1
  Te  Te123  1  0.50033370  0.83209467  0.16102574  1
  Te  Te124  1  0.50469130  0.82642471  0.49905610  1
  Te  Te125  1  0.49954891  0.83092307  0.83882191  1
  Te  Te126  1  0.83777170  0.16971842  0.16368503  1
  Te  Te127  1  0.82955352  0.16645669  0.50674183  1
  Te  Te128  1  0.83446797  0.16480107  0.83402111  1
  Te  Te129  1  0.83091654  0.49987509  0.16621824  1
  Te  Te130  1  0.83395149  0.49928721  0.50171849  1
  Te  Te131  1  0.83120229  0.50847430  0.83454834  1
  Te  Te132  1  0.83166428  0.83026620  0.16101908  1
  Te  Te133  1  0.82483446  0.83480199  0.49918912  1
  Te  Te134  1  0.83449119  0.83191276  0.83904123  1
  Te  Te135  1  0.16611519  -0.00072207  -0.00045214  1
  Te  Te136  1  0.17291945  -0.00000758  0.33303557  1
  Te  Te137  1  0.17090991  0.00591659  0.66631226  1
  Te  Te138  1  0.16805977  0.33656847  -0.00033444  1
  Te  Te139  1  0.16640232  0.33597203  0.33311001  1
  Te  Te140  1  0.16518565  0.33526453  0.66682809  1
  Te  Te141  1  0.16923678  0.66113292  -0.00198628  1
  Te  Te142  1  0.16615994  0.66509068  0.33506006  1
  Te  Te143  1  0.16817998  0.66595126  0.66738463  1
  Te  Te144  1  0.50169257  -0.00538066  -0.00765221  1
  Te  Te145  1  0.49222990  -0.00027727  0.33316189  1
  Te  Te146  1  0.49946662  -0.00166548  0.67206332  1
  Te  Te147  1  0.50146135  0.33310103  -0.00678449  1
  Te  Te148  1  0.50582138  0.33892190  0.33567298  1
  Te  Te149  1  0.50492977  0.33922006  0.67051596  1
  Te  Te150  1  0.49755689  0.66862097  -0.00391445  1
  Te  Te151  1  0.50320474  0.66248717  0.33724857  1
  Te  Te152  1  0.49823502  0.66277406  0.66921102  1
  Te  Te153  1  0.83336268  0.00374024  -0.00120435  1
  Te  Te154  1  0.83266262  0.00032008  0.32722954  1
  Te  Te155  1  0.83203572  0.00490179  0.67124238  1
  Te  Te156  1  0.83101726  0.33195589  0.00319205  1
  Te  Te157  1  0.82885075  0.33238263  0.32777752  1
  Te  Te158  1  0.83114566  0.32821158  0.66756989  1
  Te  Te159  1  0.83232626  0.66581192  0.00043098  1
  Te  Te160  1  0.83244642  0.66663569  0.33111663  1
  Te  Te161  1  0.83616715  0.66692295  0.66869079  1
  Te  Te162  1  -0.00403531  0.16950573  0.00346309  1
  Te  Te163  1  0.00544779  0.16955606  0.33001250  1
  Te  Te164  1  0.00140436  0.16769147  0.66688621  1
  Te  Te165  1  0.00468604  0.50154554  0.00521372  1
  Te  Te166  1  0.00021828  0.49950438  0.32665426  1
  Te  Te167  1  0.00234752  0.50562663  0.66496555  1
  Te  Te168  1  -0.00262508  0.82792112  -0.00374425  1
  Te  Te169  1  0.00609587  0.83020058  0.33363760  1
  Te  Te170  1  -0.00020327  0.82557042  0.67090376  1
  Te  Te171  1  0.33401564  0.16981355  -0.00456107  1
  Te  Te172  1  0.32956729  0.17013907  0.33230082  1
  Te  Te173  1  0.33188991  0.16852966  0.66730041  1
  Te  Te174  1  0.33319124  0.49969115  -0.00071776  1
  Te  Te175  1  0.33778518  0.49463404  0.33052923  1
  Te  Te176  1  0.33263240  0.50148508  0.66793399  1
  Te  Te177  1  0.33385436  0.83209235  0.00609340  1
  Te  Te178  1  0.33035103  0.83243767  0.32817916  1
  Te  Te179  1  0.33342441  0.83830388  0.66467292  1
  Te  Te180  1  0.67198055  0.17157446  0.00017931  1
  Te  Te181  1  0.66579378  0.16907648  0.33915442  1
  Te  Te182  1  0.66599790  0.16780527  0.66487593  1
  Te  Te183  1  0.66325582  0.50071155  0.00542019  1
  Te  Te184  1  0.66313715  0.50137723  0.33007765  1
  Te  Te185  1  0.66515306  0.49443691  0.66684530  1
  Te  Te186  1  0.66826111  0.83145625  0.00327326  1
  Te  Te187  1  0.66602241  0.83109978  0.33054795  1
  Te  Te188  1  0.66638435  0.83711897  0.66166252  1
  Te  Te189  1  -0.00789648  0.00090837  0.16626063  1
  Te  Te190  1  -0.00105636  -0.00140953  0.49978687  1
  Te  Te191  1  -0.00546907  -0.00562953  0.83305188  1
  Te  Te192  1  0.00041957  0.33698643  0.16455449  1
  Te  Te193  1  0.00589517  0.33332888  0.49495368  1
  Te  Te194  1  0.00451013  0.33383133  0.84012826  1
  Te  Te195  1  -0.00350032  0.66332566  0.16574219  1
  Te  Te196  1  0.00334933  0.66672595  0.49118179  1
  Te  Te197  1  0.00094267  0.66543731  0.83746798  1
  Te  Te198  1  0.33392849  0.00074888  0.16966041  1
  Te  Te199  1  0.33450047  0.00477378  0.50073712  1
  Te  Te200  1  0.33701830  -0.00121608  0.83018321  1
  Te  Te201  1  0.33325005  0.33712037  0.16532777  1
  Te  Te202  1  0.32957748  0.32914364  0.49447867  1
  Te  Te203  1  0.33202567  0.33516158  0.83402630  1
  Te  Te204  1  0.33207645  0.66460090  0.16326942  1
  Te  Te205  1  0.33262214  0.66656592  0.50218953  1
  Te  Te206  1  0.33193160  0.66660892  0.83356399  1
  Te  Te207  1  0.67183432  -0.00151433  0.16715387  1
  Te  Te208  1  0.66530037  0.00227813  0.50461385  1
  Te  Te209  1  0.66682858  -0.00002507  0.82820487  1
  Te  Te210  1  0.66482462  0.33698068  0.16633217  1
  Te  Te211  1  0.66669769  0.33109953  0.50016094  1
  Te  Te212  1  0.66698796  0.33327446  0.83465331  1
  Te  Te213  1  0.66752698  0.66544530  0.16542424  1
  Te  Te214  1  0.66457099  0.66811222  0.49970199  1
  Te  Te215  1  0.66200077  0.66643906  0.83814710  1
