# generated using pymatgen
data_AgSbTe2
_symmetry_space_group_name_H-M   'P 1'
_cell_length_a   18.32993888
_cell_length_b   18.33586853
_cell_length_c   18.33529914
_cell_angle_alpha   90.00025909
_cell_angle_beta   89.99836962
_cell_angle_gamma   89.99895040
_symmetry_Int_Tables_number   1
_chemical_formula_structural   AgSbTe2
_chemical_formula_sum   'Ag54 Sb54 Te108'
_cell_volume   6162.40876804
_cell_formula_units_Z   54
loop_
 _symmetry_equiv_pos_site_id
 _symmetry_equiv_pos_as_xyz
  1  'x, y, z'
loop_
 _atom_site_type_symbol
 _atom_site_label
 _atom_site_symmetry_multiplicity
 _atom_site_fract_x
 _atom_site_fract_y
 _atom_site_fract_z
 _atom_site_occupancy
  Ag  Ag0  1  0.82623345  0.00004300  0.50376467  1
  Ag  Ag1  1  0.67089025  0.16003992  0.50376027  1
  Ag  Ag2  1  0.83140954  -0.00385983  0.82245289  1
  Ag  Ag3  1  0.17319756  0.82641906  0.00077222  1
  Ag  Ag4  1  0.66709963  0.66734623  0.33272936  1
  Ag  Ag5  1  0.33763939  0.66132963  0.01026554  1
  Ag  Ag6  1  0.83330589  0.66559203  0.83015931  1
  Ag  Ag7  1  0.66854058  0.82957043  0.82556372  1
  Ag  Ag8  1  0.84466431  0.50377736  0.32976979  1
  Ag  Ag9  1  0.83770384  0.34588232  0.17434273  1
  Ag  Ag10  1  0.67450330  0.32758209  0.66549884  1
  Ag  Ag11  1  0.16532175  0.49879297  0.65596798  1
  Ag  Ag12  1  0.66928943  0.83501228  0.50414039  1
  Ag  Ag13  1  0.49888601  0.50528942  0.00736097  1
  Ag  Ag14  1  0.49295776  0.33303233  0.83289560  1
  Ag  Ag15  1  0.32837336  0.17079461  0.83721536  1
  Ag  Ag16  1  0.67107126  0.66963076  0.66423219  1
  Ag  Ag17  1  0.17241914  -0.00120673  0.17500426  1
  Ag  Ag18  1  0.16628169  0.17398942  0.33200368  1
  Ag  Ag19  1  -0.00041455  0.49842980  0.16948207  1
  Ag  Ag20  1  0.67157555  0.00107966  0.65934010  1
  Ag  Ag21  1  0.33468943  -0.00205875  0.32983104  1
  Ag  Ag22  1  0.49809507  0.82313489  0.00814707  1
  Ag  Ag23  1  0.00147341  0.34038713  0.33502284  1
  Ag  Ag24  1  0.16477629  0.50365295  0.33479500  1
  Ag  Ag25  1  0.33231398  0.65929138  0.32840708  1
  Ag  Ag26  1  0.49540894  0.66517587  0.16837434  1
  Ag  Ag27  1  0.33343195  0.34143305  0.00051022  1
  Ag  Ag28  1  0.82893181  0.83550172  0.66534733  1
  Ag  Ag29  1  0.00282212  0.49715862  0.83818677  1
  Ag  Ag30  1  0.66187596  0.66619204  0.00551431  1
  Ag  Ag31  1  0.00328322  0.17722186  0.83370228  1
  Ag  Ag32  1  0.49175752  -0.00786657  0.17067315  1
  Ag  Ag33  1  0.16403907  0.65806930  0.48778632  1
  Ag  Ag34  1  0.00476923  0.17542370  0.16813499  1
  Ag  Ag35  1  0.16108716  0.34126060  0.49949558  1
  Ag  Ag36  1  0.66336958  -0.00829124  0.34020108  1
  Ag  Ag37  1  0.32743796  0.50139265  0.48804207  1
  Ag  Ag38  1  -0.00357500  0.33527636  0.66096308  1
  Ag  Ag39  1  0.82957180  0.16482240  0.66400874  1
  Ag  Ag40  1  0.51058332  0.16879551  0.66768654  1
  Ag  Ag41  1  0.16451209  0.00060618  0.49329556  1
  Ag  Ag42  1  0.49191561  0.50614133  0.32588590  1
  Ag  Ag43  1  0.83374973  0.66212598  0.17535478  1
  Ag  Ag44  1  0.16240319  0.65749283  0.83694186  1
  Ag  Ag45  1  0.17396550  0.66334741  0.17060495  1
  Ag  Ag46  1  0.83039913  0.50349952  0.01196920  1
  Ag  Ag47  1  0.32826827  0.50460134  0.16939725  1
  Ag  Ag48  1  0.50216273  0.82315975  0.32686599  1
  Ag  Ag49  1  0.00198980  0.65896358  0.33149149  1
  Ag  Ag50  1  0.83845917  0.33743963  0.49985641  1
  Ag  Ag51  1  0.83171934  0.66265361  0.49504883  1
  Ag  Ag52  1  0.16550160  0.33974248  0.82823493  1
  Ag  Ag53  1  0.32789002  0.17007526  0.16625882  1
  Sb  Sb54  1  0.15924102  0.82690080  0.66794362  1
  Sb  Sb55  1  -0.00559063  0.83184792  0.49955262  1
  Sb  Sb56  1  0.16854175  0.50365046  0.00414306  1
  Sb  Sb57  1  0.00516788  0.33701091  0.00117368  1
  Sb  Sb58  1  0.66940160  0.50220525  0.16905740  1
  Sb  Sb59  1  0.33248700  0.17062911  0.49713050  1
  Sb  Sb60  1  0.33580027  0.66473289  0.66482558  1
  Sb  Sb61  1  0.66597734  0.16491873  0.17443066  1
  Sb  Sb62  1  0.83717924  0.33673845  0.82981854  1
  Sb  Sb63  1  0.16327365  0.33644567  0.16940675  1
  Sb  Sb64  1  0.32774656  0.33805069  0.32895712  1
  Sb  Sb65  1  0.16241045  0.00140152  0.83233000  1
  Sb  Sb66  1  0.83953034  0.49925997  0.66256552  1
  Sb  Sb67  1  0.83798467  0.17065375  0.33810497  1
  Sb  Sb68  1  0.50342630  0.66588591  0.49061516  1
  Sb  Sb69  1  0.00013849  0.00036806  0.00117314  1
  Sb  Sb70  1  0.83335259  0.17289001  -0.00408530  1
  Sb  Sb71  1  0.50166590  0.66197367  0.84081610  1
  Sb  Sb72  1  0.17163257  0.82845379  0.33057652  1
  Sb  Sb73  1  0.00184308  0.00103144  0.33362606  1
  Sb  Sb74  1  0.50974210  0.83606498  0.66618865  1
  Sb  Sb75  1  0.16386296  0.17190342  0.66303089  1
  Sb  Sb76  1  0.50103896  0.33834886  0.16379065  1
  Sb  Sb77  1  0.50387833  0.00338045  0.83678510  1
  Sb  Sb78  1  0.00244082  0.82753244  0.16791656  1
  Sb  Sb79  1  0.33050521  0.33403622  0.67001495  1
  Sb  Sb80  1  0.83454347  -0.00222648  0.17172455  1
  Sb  Sb81  1  0.67282701  0.33695204  0.33863849  1
  Sb  Sb82  1  -0.00421688  0.65830711  0.66325615  1
  Sb  Sb83  1  0.66930650  0.16420489  0.82548083  1
  Sb  Sb84  1  0.00070869  0.66311024  0.00493851  1
  Sb  Sb85  1  0.66649156  0.50277121  0.49916312  1
  Sb  Sb86  1  0.49621982  0.49781762  0.66700253  1
  Sb  Sb87  1  0.66384034  0.34099056  -0.00486861  1
  Sb  Sb88  1  0.82898435  0.82343310  -0.00511243  1
  Sb  Sb89  1  0.33672072  0.82952570  0.49666093  1
  Sb  Sb90  1  0.33398887  -0.00169679  0.00799666  1
  Sb  Sb91  1  0.66602011  -0.00903296  -0.00020848  1
  Sb  Sb92  1  -0.00292155  0.17022922  0.49925471  1
  Sb  Sb93  1  0.33430234  0.82840294  0.16824977  1
  Sb  Sb94  1  -0.00490764  0.82903832  0.83353767  1
  Sb  Sb95  1  0.49851098  0.16843177  -0.00226370  1
  Sb  Sb96  1  0.67196883  0.50546367  0.83170446  1
  Sb  Sb97  1  0.66434814  0.82915217  0.16950907  1
  Sb  Sb98  1  0.50445014  0.00034093  0.49405395  1
  Sb  Sb99  1  0.50093470  0.33477315  0.50320205  1
  Sb  Sb100  1  0.00507666  0.49909250  0.49405966  1
  Sb  Sb101  1  0.33802391  0.00387552  0.66086295  1
  Sb  Sb102  1  0.82555356  0.82395057  0.33933443  1
  Sb  Sb103  1  0.49607725  0.16803020  0.33589228  1
  Sb  Sb104  1  0.16834302  0.16615845  0.00517266  1
  Sb  Sb105  1  -0.00752629  0.00819872  0.66569015  1
  Sb  Sb106  1  0.33784446  0.83516036  0.83688440  1
  Sb  Sb107  1  0.32906256  0.49723676  0.83839127  1
  Te  Te108  1  0.16652298  0.16870211  0.16986280  1
  Te  Te109  1  0.16665109  0.16409119  0.49501984  1
  Te  Te110  1  0.16508759  0.16721879  0.83239411  1
  Te  Te111  1  0.16591147  0.50197545  0.16963398  1
  Te  Te112  1  0.16657977  0.50133655  0.49790479  1
  Te  Te113  1  0.16463608  0.49933981  0.83862969  1
  Te  Te114  1  0.16696764  0.83256989  0.16233726  1
  Te  Te115  1  0.16714268  0.83400725  0.50146721  1
  Te  Te116  1  0.16665577  0.83133583  0.83627858  1
  Te  Te117  1  0.49597395  0.16753638  0.16639391  1
  Te  Te118  1  0.50285126  0.16782473  0.50632125  1
  Te  Te119  1  0.49750132  0.17018152  0.83038354  1
  Te  Te120  1  0.49796757  0.50196417  0.16611142  1
  Te  Te121  1  0.49070697  0.49919227  0.49785257  1
  Te  Te122  1  0.49835842  0.49446326  0.83565911  1
  Te  Te123  1  0.49978611  0.83189581  0.16700778  1
  Te  Te124  1  0.50668457  0.83353152  0.49673292  1
  Te  Te125  1  0.50520718  0.83433029  0.83589638  1
  Te  Te126  1  0.83786666  0.16526745  0.16610481  1
  Te  Te127  1  0.83178503  0.16738991  0.50309198  1
  Te  Te128  1  0.83761035  0.16585991  0.82979845  1
  Te  Te129  1  0.83384114  0.50347548  0.16949503  1
  Te  Te130  1  0.83295666  0.50064169  0.49492448  1
  Te  Te131  1  0.83865456  0.50451250  0.83115576  1
  Te  Te132  1  0.83488647  0.82745300  0.16422339  1
  Te  Te133  1  0.82874523  0.83182618  0.50403703  1
  Te  Te134  1  0.82982833  0.83007499  0.83011762  1
  Te  Te135  1  0.16768129  -0.00581964  0.00302901  1
  Te  Te136  1  0.16708954  -0.00532357  0.33289958  1
  Te  Te137  1  0.16676505  -0.00187607  0.66154646  1
  Te  Te138  1  0.17300630  0.33314507  -0.00737483  1
  Te  Te139  1  0.16232535  0.33466747  0.33582901  1
  Te  Te140  1  0.16326361  0.33598553  0.66583158  1
  Te  Te141  1  0.16769706  0.66705424  0.00036426  1
  Te  Te142  1  0.17035248  0.66704688  0.33166539  1
  Te  Te143  1  0.16639610  0.66199797  0.67059711  1
  Te  Te144  1  0.50064302  -0.00376181  0.00730748  1
  Te  Te145  1  0.50008952  0.00400996  0.32913449  1
  Te  Te146  1  0.50643897  0.00479760  0.66745115  1
  Te  Te147  1  0.49652394  0.33809837  -0.00472558  1
  Te  Te148  1  0.50265743  0.34034259  0.33347339  1
  Te  Te149  1  0.50229754  0.33111632  0.67085858  1
  Te  Te150  1  0.49933651  0.66550656  0.00226358  1
  Te  Te151  1  0.49843780  0.66499521  0.33016664  1
  Te  Te152  1  0.50671912  0.66644388  0.66732350  1
  Te  Te153  1  0.83200693  -0.00180699  -0.00138144  1
  Te  Te154  1  0.83120028  -0.00109778  0.33876762  1
  Te  Te155  1  0.83067370  0.00213476  0.66364673  1
  Te  Te156  1  0.83154231  0.34084998  0.00222621  1
  Te  Te157  1  0.83775605  0.33737033  0.33544383  1
  Te  Te158  1  0.83485300  0.33269993  0.66368133  1
  Te  Te159  1  0.83196426  0.66277628  -0.00349466  1
  Te  Te160  1  0.82938837  0.66439145  0.33477857  1
  Te  Te161  1  0.83121796  0.66533616  0.66614201  1
  Te  Te162  1  0.00020119  0.16811254  -0.00044204  1
  Te  Te163  1  0.00548767  0.16900509  0.32951184  1
  Te  Te164  1  -0.00347244  0.17448414  0.67094210  1
  Te  Te165  1  -0.00687845  0.50001027  0.00216760  1
  Te  Te166  1  0.00247239  0.50070973  0.33030188  1
  Te  Te167  1  0.00608682  0.49415622  0.67387205  1
  Te  Te168  1  0.00809068  0.83285370  -0.00009404  1
  Te  Te169  1  -0.00134565  0.82508451  0.33332551  1
  Te  Te170  1  -0.00979247  0.83431284  0.66735256  1
  Te  Te171  1  0.33385923  0.16842168  0.00035903  1
  Te  Te172  1  0.32834924  0.16512931  0.32947649  1
  Te  Te173  1  0.33545999  0.16656900  0.67065403  1
  Te  Te174  1  0.33520199  0.50130805  0.00421180  1
  Te  Te175  1  0.33063449  0.49961930  0.32948203  1
  Te  Te176  1  0.32667713  0.50061367  0.66326576  1
  Te  Te177  1  0.33597331  0.82761465  -0.00083487  1
  Te  Te178  1  0.34198014  0.83641344  0.33430585  1
  Te  Te179  1  0.33429320  0.83497824  0.66692242  1
  Te  Te180  1  0.66610363  0.16645614  0.00116506  1
  Te  Te181  1  0.66608925  0.16570983  0.34194489  1
  Te  Te182  1  0.66908798  0.16608719  0.66462841  1
  Te  Te183  1  0.66547723  0.50622605  -0.00154370  1
  Te  Te184  1  0.66187466  0.50491321  0.33539061  1
  Te  Te185  1  0.66525117  0.50271441  0.66607384  1
  Te  Te186  1  0.66206581  0.82605697  -0.00392348  1
  Te  Te187  1  0.66172165  0.83226169  0.33561544  1
  Te  Te188  1  0.67003357  0.83233119  0.66519702  1
  Te  Te189  1  0.00502194  0.00507117  0.16755234  1
  Te  Te190  1  0.00209640  0.00091341  0.49953880  1
  Te  Te191  1  -0.00723165  0.00254514  0.83353564  1
  Te  Te192  1  -0.00199279  0.33528408  0.16738352  1
  Te  Te193  1  0.00021073  0.33296002  0.49912368  1
  Te  Te194  1  0.00258428  0.33536601  0.83473399  1
  Te  Te195  1  -0.00200698  0.66197921  0.17109091  1
  Te  Te196  1  0.00030565  0.66667453  0.49532584  1
  Te  Te197  1  0.00080367  0.66274806  0.83185457  1
  Te  Te198  1  0.33183219  0.00390393  0.17011961  1
  Te  Te199  1  0.32969481  0.00104830  0.49297478  1
  Te  Te200  1  0.33352055  0.00707483  0.83336049  1
  Te  Te201  1  0.33321882  0.33193826  0.16218062  1
  Te  Te202  1  0.32749204  0.33788322  0.49969122  1
  Te  Te203  1  0.33089847  0.33108423  0.83571537  1
  Te  Te204  1  0.33367418  0.66438110  0.16780442  1
  Te  Te205  1  0.32847217  0.66296615  0.49694384  1
  Te  Te206  1  0.32844361  0.66695321  0.83420647  1
  Te  Te207  1  0.66445469  -0.00062274  0.17300996  1
  Te  Te208  1  0.66719829  -0.00059902  0.49985049  1
  Te  Te209  1  0.67160462  -0.00427358  0.83147118  1
  Te  Te210  1  0.67565060  0.33118716  0.16562598  1
  Te  Te211  1  0.66955595  0.33234404  0.50558817  1
  Te  Te212  1  0.66586574  0.33300963  0.82696436  1
  Te  Te213  1  0.66680308  0.66665167  0.16804916  1
  Te  Te214  1  0.66929930  0.66847878  0.49796400  1
  Te  Te215  1  0.66857371  0.66942150  0.83187156  1
