# generated using pymatgen
data_AgSbTe2
_symmetry_space_group_name_H-M   'P 1'
_cell_length_a   18.32065083
_cell_length_b   18.32382455
_cell_length_c   18.32340539
_cell_angle_alpha   89.99846145
_cell_angle_beta   90.00386423
_cell_angle_gamma   89.99866783
_symmetry_Int_Tables_number   1
_chemical_formula_structural   AgSbTe2
_chemical_formula_sum   'Ag54 Sb54 Te108'
_cell_volume   6151.24763790
_cell_formula_units_Z   54
loop_
 _symmetry_equiv_pos_site_id
 _symmetry_equiv_pos_as_xyz
  1  'x, y, z'
loop_
 _atom_site_type_symbol
 _atom_site_label
 _atom_site_symmetry_multiplicity
 _atom_site_fract_x
 _atom_site_fract_y
 _atom_site_fract_z
 _atom_site_occupancy
  Ag  Ag0  1  0.33671521  0.66441623  0.65918860  1
  Ag  Ag1  1  0.67109941  0.34115592  0.66906387  1
  Ag  Ag2  1  0.83745468  -0.00085274  0.50033227  1
  Ag  Ag3  1  0.32976529  0.50269961  0.50137309  1
  Ag  Ag4  1  0.16845408  0.50137756  0.66751487  1
  Ag  Ag5  1  0.84127643  0.65887339  0.49555533  1
  Ag  Ag6  1  0.66747702  0.66142418  0.00044788  1
  Ag  Ag7  1  0.49709588  0.50157174  0.00109769  1
  Ag  Ag8  1  0.00173469  0.50379380  0.49205448  1
  Ag  Ag9  1  0.00128319  -0.00643285  -0.00141850  1
  Ag  Ag10  1  0.50015872  0.33952451  0.49523443  1
  Ag  Ag11  1  0.00327592  0.17919422  0.16870179  1
  Ag  Ag12  1  0.00197166  0.82158334  0.49968809  1
  Ag  Ag13  1  0.17043887  0.50118378  -0.00414826  1
  Ag  Ag14  1  -0.00010789  0.65949409  0.33458522  1
  Ag  Ag15  1  -0.00771398  0.34134508  0.33554860  1
  Ag  Ag16  1  0.83289529  0.33991939  0.17608257  1
  Ag  Ag17  1  0.16674572  0.66518628  0.50017777  1
  Ag  Ag18  1  0.16773870  -0.00670881  0.50641113  1
  Ag  Ag19  1  0.50139764  0.33408759  0.17220598  1
  Ag  Ag20  1  0.83545274  0.33972095  0.49261732  1
  Ag  Ag21  1  0.16842625  0.17261656  0.66868387  1
  Ag  Ag22  1  0.49688874  0.82679568  0.66273894  1
  Ag  Ag23  1  0.16665203  0.33387981  0.83005089  1
  Ag  Ag24  1  0.16954343  0.82832605  0.66359253  1
  Ag  Ag25  1  -0.00575059  0.66529862  0.00789939  1
  Ag  Ag26  1  0.33769125  0.33649942  0.00221590  1
  Ag  Ag27  1  0.66466310  0.82051347  0.16514160  1
  Ag  Ag28  1  0.83638127  0.00177113  0.82967119  1
  Ag  Ag29  1  0.49802910  0.83243745  0.33929350  1
  Ag  Ag30  1  0.33649808  0.00294511  0.33707177  1
  Ag  Ag31  1  0.33033337  0.49672272  0.83125909  1
  Ag  Ag32  1  0.83673229  0.33857574  0.83182435  1
  Ag  Ag33  1  0.33093456  0.65940437  0.33998677  1
  Ag  Ag34  1  0.66216569  0.34234313  0.00090823  1
  Ag  Ag35  1  0.33115090  0.17420001  0.83537699  1
  Ag  Ag36  1  0.49294011  0.66650919  0.50476529  1
  Ag  Ag37  1  0.50155850  0.82353848  -0.00124038  1
  Ag  Ag38  1  0.82927630  0.65801216  0.83376748  1
  Ag  Ag39  1  0.15957039  0.66310152  0.17459396  1
  Ag  Ag40  1  0.67456359  0.50137533  0.16346581  1
  Ag  Ag41  1  0.50233259  0.67017443  0.82698916  1
  Ag  Ag42  1  0.32998372  0.17283011  0.16905243  1
  Ag  Ag43  1  0.17080124  0.00655005  0.82610511  1
  Ag  Ag44  1  0.49276551  -0.00723206  0.82945549  1
  Ag  Ag45  1  0.33472181  0.33449288  0.33058144  1
  Ag  Ag46  1  0.83775070  0.65780421  0.17083051  1
  Ag  Ag47  1  0.83544851  0.17838873  0.33368520  1
  Ag  Ag48  1  0.83872955  0.49619882  0.33178078  1
  Ag  Ag49  1  -0.00388346  0.50031734  0.17276087  1
  Ag  Ag50  1  -0.00208816  0.33580671  0.66082743  1
  Ag  Ag51  1  0.49323794  -0.00772676  0.49809735  1
  Ag  Ag52  1  0.49605140  0.17014683  0.33439770  1
  Ag  Ag53  1  0.65983362  0.66210882  0.66989682  1
  Sb  Sb54  1  0.33262312  0.17166364  0.49877682  1
  Sb  Sb55  1  0.00233223  0.00352413  0.66741879  1
  Sb  Sb56  1  0.33251664  0.33921337  0.66649197  1
  Sb  Sb57  1  0.83048809  0.82883649  0.00014757  1
  Sb  Sb58  1  0.00078070  0.17141664  0.49540941  1
  Sb  Sb59  1  0.83860860  0.49899187  0.66188294  1
  Sb  Sb60  1  0.16808501  0.66369124  0.82858772  1
  Sb  Sb61  1  0.17052835  0.82794165  -0.00504224  1
  Sb  Sb62  1  0.66278617  0.16909492  0.83300169  1
  Sb  Sb63  1  0.66464858  0.82912023  0.83558185  1
  Sb  Sb64  1  0.50121358  0.49917457  0.33084924  1
  Sb  Sb65  1  0.66687409  0.17377349  0.16777039  1
  Sb  Sb66  1  0.50089464  0.66180619  0.16790726  1
  Sb  Sb67  1  0.00060471  0.83225379  0.82847309  1
  Sb  Sb68  1  0.66682736  0.16950102  0.49989551  1
  Sb  Sb69  1  0.66228357  -0.00121075  0.33422703  1
  Sb  Sb70  1  0.33149378  -0.00454250  0.66191962  1
  Sb  Sb71  1  0.66545436  0.82954947  0.49777081  1
  Sb  Sb72  1  0.66761848  0.66521942  0.33151850  1
  Sb  Sb73  1  0.83875376  0.17051909  0.66270649  1
  Sb  Sb74  1  0.16553160  0.33943319  0.16423499  1
  Sb  Sb75  1  0.00360556  0.16740559  0.83693213  1
  Sb  Sb76  1  0.16607100  -0.00334817  0.16659811  1
  Sb  Sb77  1  0.16231204  0.50123701  0.33506041  1
  Sb  Sb78  1  0.66749043  0.50068131  0.49757507  1
  Sb  Sb79  1  0.49439670  0.16512694  0.66307893  1
  Sb  Sb80  1  0.49820237  0.17050007  0.00309193  1
  Sb  Sb81  1  0.49917659  0.00337184  0.16855838  1
  Sb  Sb82  1  0.66483357  -0.00280694  0.66649182  1
  Sb  Sb83  1  0.66878490  -0.00328435  -0.00130327  1
  Sb  Sb84  1  0.17059938  0.82985549  0.33918620  1
  Sb  Sb85  1  0.83549738  0.16917359  0.00340810  1
  Sb  Sb86  1  0.66269811  0.50104644  0.83850866  1
  Sb  Sb87  1  0.33128161  0.82467253  0.49980164  1
  Sb  Sb88  1  -0.00029009  0.33895213  0.00249527  1
  Sb  Sb89  1  0.83281702  0.83013583  0.66457875  1
  Sb  Sb90  1  0.16524281  0.33905679  0.50409506  1
  Sb  Sb91  1  0.49775232  0.33618873  0.83243608  1
  Sb  Sb92  1  0.16892816  0.16736867  0.33760509  1
  Sb  Sb93  1  0.83534616  0.00194874  0.16887029  1
  Sb  Sb94  1  0.00312336  0.00024802  0.33371404  1
  Sb  Sb95  1  0.16616195  0.17231392  -0.00379461  1
  Sb  Sb96  1  0.00161510  0.66151511  0.66150005  1
  Sb  Sb97  1  -0.00441816  0.82516809  0.17127654  1
  Sb  Sb98  1  0.33756044  0.83364829  0.16916709  1
  Sb  Sb99  1  0.00341665  0.50002977  0.83402475  1
  Sb  Sb100  1  0.33538071  0.83026794  0.83218273  1
  Sb  Sb101  1  0.49565638  0.50521925  0.66935093  1
  Sb  Sb102  1  0.83038479  0.83052485  0.33480284  1
  Sb  Sb103  1  0.66804655  0.33512807  0.33239487  1
  Sb  Sb104  1  0.33606074  0.65889809  0.00011434  1
  Sb  Sb105  1  0.33103367  0.00487124  -0.00052452  1
  Sb  Sb106  1  0.83307796  0.50046240  0.00603329  1
  Sb  Sb107  1  0.33095697  0.49701189  0.16814880  1
  Te  Te108  1  0.16657302  0.16625669  0.16650353  1
  Te  Te109  1  0.16645676  0.15967137  0.50640727  1
  Te  Te110  1  0.16978382  0.16692209  0.83068912  1
  Te  Te111  1  0.16217628  0.50490547  0.16181443  1
  Te  Te112  1  0.16636696  0.50352494  0.50265054  1
  Te  Te113  1  0.16995041  0.49790645  0.83200637  1
  Te  Te114  1  0.16656100  0.82441050  0.16469181  1
  Te  Te115  1  0.16422404  0.83229135  0.50358490  1
  Te  Te116  1  0.16816247  0.83939828  0.82654389  1
  Te  Te117  1  0.49683239  0.17240110  0.17098599  1
  Te  Te118  1  0.49989867  0.16678498  0.49545492  1
  Te  Te119  1  0.49373083  0.16191759  0.83214316  1
  Te  Te120  1  0.50057698  0.49389190  0.16315353  1
  Te  Te121  1  0.49864292  0.50035501  0.49932218  1
  Te  Te122  1  0.49369726  0.50400071  0.83890540  1
  Te  Te123  1  0.50370615  0.83433321  0.16618559  1
  Te  Te124  1  0.50012662  0.83217867  0.50010080  1
  Te  Te125  1  0.49984006  0.83187079  0.83176957  1
  Te  Te126  1  0.83607870  0.17034737  0.17229611  1
  Te  Te127  1  0.83371174  0.16784982  0.49479506  1
  Te  Te128  1  0.83318224  0.16599475  0.83214303  1
  Te  Te129  1  0.83517785  0.50009660  0.16706623  1
  Te  Te130  1  0.83432250  0.49971778  0.49616195  1
  Te  Te131  1  0.83443008  0.49955165  0.83174562  1
  Te  Te132  1  0.82690945  0.82873121  0.16744455  1
  Te  Te133  1  0.83698433  0.83397832  0.50010449  1
  Te  Te134  1  0.83294548  0.83754757  0.83219041  1
  Te  Te135  1  0.16250299  -0.00261081  -0.00448146  1
  Te  Te136  1  0.17298074  -0.00153605  0.33809782  1
  Te  Te137  1  0.16680481  -0.00403467  0.66638281  1
  Te  Te138  1  0.16886218  0.33904387  -0.00518153  1
  Te  Te139  1  0.17053537  0.33260186  0.33441250  1
  Te  Te140  1  0.16593763  0.33562528  0.66938737  1
  Te  Te141  1  0.16585595  0.66322274  -0.00284870  1
  Te  Te142  1  0.16692403  0.66711258  0.33703143  1
  Te  Te143  1  0.16803912  0.66596607  0.66379797  1
  Te  Te144  1  0.50042056  -0.00204159  -0.00522333  1
  Te  Te145  1  0.49643507  0.00149464  0.33639521  1
  Te  Te146  1  0.49939625  -0.00425566  0.66619767  1
  Te  Te147  1  0.49931268  0.33616680  -0.00045797  1
  Te  Te148  1  0.49989411  0.33293106  0.33452705  1
  Te  Te149  1  0.50421578  0.33318425  0.66194102  1
  Te  Te150  1  0.50220987  0.66442624  0.00039657  1
  Te  Te151  1  0.49709279  0.66764134  0.33647690  1
  Te  Te152  1  0.49955523  0.66640334  0.66668784  1
  Te  Te153  1  0.83731766  -0.00042457  -0.00349180  1
  Te  Te154  1  0.83342621  0.00149581  0.33892174  1
  Te  Te155  1  0.83300060  0.00115745  0.66576158  1
  Te  Te156  1  0.83117618  0.33369181  -0.00568802  1
  Te  Te157  1  0.83280216  0.33439051  0.33361212  1
  Te  Te158  1  0.83433937  0.33347531  0.66812645  1
  Te  Te159  1  0.83149454  0.66637318  -0.00269185  1
  Te  Te160  1  0.83515680  0.66521949  0.33516278  1
  Te  Te161  1  0.83070689  0.66603013  0.66875020  1
  Te  Te162  1  0.00096158  0.16283166  0.00848709  1
  Te  Te163  1  -0.00167068  0.16788335  0.32785439  1
  Te  Te164  1  0.00729644  0.17441517  0.66748436  1
  Te  Te165  1  0.00506036  0.50498175  0.00298142  1
  Te  Te166  1  -0.00090103  0.50077939  0.33332274  1
  Te  Te167  1  0.00612724  0.49455128  0.66374343  1
  Te  Te168  1  0.00160653  0.83025789  0.00080948  1
  Te  Te169  1  0.00007541  0.82960126  0.33919772  1
  Te  Te170  1  0.00426659  0.83377364  0.65981930  1
  Te  Te171  1  0.33252959  0.17303656  0.00103188  1
  Te  Te172  1  0.33504262  0.17204985  0.33207237  1
  Te  Te173  1  0.32760422  0.16662573  0.67236599  1
  Te  Te174  1  0.33340023  0.49544592  0.00047669  1
  Te  Te175  1  0.33389987  0.49947145  0.33713991  1
  Te  Te176  1  0.32953725  0.50426557  0.66553149  1
  Te  Te177  1  0.34136188  0.83462186  0.00082271  1
  Te  Te178  1  0.33942538  0.83458002  0.33290703  1
  Te  Te179  1  0.33463451  0.82630905  0.66706302  1
  Te  Te180  1  0.66682615  0.17458585  0.00071794  1
  Te  Te181  1  0.66438002  0.16616388  0.33285805  1
  Te  Te182  1  0.66541788  0.17511424  0.66752058  1
  Te  Te183  1  0.66367858  0.50058680  0.00333272  1
  Te  Te184  1  0.67532300  0.50059419  0.32522100  1
  Te  Te185  1  0.66678862  0.50108235  0.66718276  1
  Te  Te186  1  0.66093298  0.82935872  0.00400710  1
  Te  Te187  1  0.65822579  0.83258551  0.32700470  1
  Te  Te188  1  0.66024606  0.82686104  0.66629056  1
  Te  Te189  1  0.00051664  -0.00113210  0.16243943  1
  Te  Te190  1  -0.00016304  0.00105955  0.49967680  1
  Te  Te191  1  -0.00178916  -0.00017464  0.83617201  1
  Te  Te192  1  -0.00181525  0.33686543  0.16931338  1
  Te  Te193  1  -0.00184386  0.33719115  0.49686931  1
  Te  Te194  1  -0.00063338  0.33289583  0.83304151  1
  Te  Te195  1  -0.00188541  0.66439391  0.16899408  1
  Te  Te196  1  -0.00022474  0.66408945  0.49994441  1
  Te  Te197  1  -0.00554140  0.66740408  0.83728530  1
  Te  Te198  1  0.33188257  0.00694365  0.17150391  1
  Te  Te199  1  0.33511695  0.00298000  0.49671988  1
  Te  Te200  1  0.33322199  0.00303017  0.83330510  1
  Te  Te201  1  0.33266922  0.33167508  0.16815828  1
  Te  Te202  1  0.33555503  0.33898670  0.49705735  1
  Te  Te203  1  0.33148831  0.33495692  0.83329874  1
  Te  Te204  1  0.32869287  0.66591539  0.17215804  1
  Te  Te205  1  0.33377407  0.66335314  0.49858360  1
  Te  Te206  1  0.33678158  0.66170997  0.83212078  1
  Te  Te207  1  0.66785105  -0.00331473  0.16501973  1
  Te  Te208  1  0.66940563  -0.00137223  0.50185331  1
  Te  Te209  1  0.66928953  0.00088561  0.83292471  1
  Te  Te210  1  0.66807194  0.33642628  0.16300371  1
  Te  Te211  1  0.66751350  0.33524898  0.50531540  1
  Te  Te212  1  0.66972702  0.33453430  0.83366139  1
  Te  Te213  1  0.66764554  0.66277853  0.16422924  1
  Te  Te214  1  0.66615465  0.66610422  0.50380480  1
  Te  Te215  1  0.66672345  0.66572120  0.83460558  1
