# generated using pymatgen
data_AgSbTe2
_symmetry_space_group_name_H-M   'P 1'
_cell_length_a   18.31545065
_cell_length_b   18.32789986
_cell_length_c   18.32415122
_cell_angle_alpha   89.99846414
_cell_angle_beta   89.99935406
_cell_angle_gamma   90.00142802
_symmetry_Int_Tables_number   1
_chemical_formula_structural   AgSbTe2
_chemical_formula_sum   'Ag54 Sb54 Te108'
_cell_volume   6151.11970917
_cell_formula_units_Z   54
loop_
 _symmetry_equiv_pos_site_id
 _symmetry_equiv_pos_as_xyz
  1  'x, y, z'
loop_
 _atom_site_type_symbol
 _atom_site_label
 _atom_site_symmetry_multiplicity
 _atom_site_fract_x
 _atom_site_fract_y
 _atom_site_fract_z
 _atom_site_occupancy
  Ag  Ag0  1  0.00974650  0.33791881  0.33914175  1
  Ag  Ag1  1  0.66792973  -0.00245733  -0.00292439  1
  Ag  Ag2  1  0.33306226  0.00306455  0.33744827  1
  Ag  Ag3  1  0.65573627  0.83917126  0.83416825  1
  Ag  Ag4  1  0.32925053  0.49228079  0.49693931  1
  Ag  Ag5  1  0.49111024  0.32949869  0.50338900  1
  Ag  Ag6  1  0.00319857  0.49593879  0.49470498  1
  Ag  Ag7  1  0.65493182  0.16658209  0.15921529  1
  Ag  Ag8  1  0.01245017  0.16684230  0.83094741  1
  Ag  Ag9  1  0.00355462  0.66121201  0.33648107  1
  Ag  Ag10  1  0.49422517  0.00161629  0.50075079  1
  Ag  Ag11  1  0.83776171  0.66389512  0.49968425  1
  Ag  Ag12  1  0.83686803  0.50249857  0.66342638  1
  Ag  Ag13  1  0.33267465  0.17095808  0.83306927  1
  Ag  Ag14  1  0.00569426  0.17029951  0.49747943  1
  Ag  Ag15  1  0.33267131  0.49257236  0.83129199  1
  Ag  Ag16  1  0.49051439  0.32938050  0.16850386  1
  Ag  Ag17  1  0.17264093  0.33460547  0.16524972  1
  Ag  Ag18  1  0.16812136  0.49697895  0.33126135  1
  Ag  Ag19  1  0.83373857  0.82906009  0.67098566  1
  Ag  Ag20  1  0.84415071  0.49844097  0.33911352  1
  Ag  Ag21  1  0.49478813  0.83582317  0.33655612  1
  Ag  Ag22  1  0.33665767  0.17575505  0.16797757  1
  Ag  Ag23  1  0.49736947  0.00003656  0.16519769  1
  Ag  Ag24  1  0.83905793  0.50589181  -0.00058590  1
  Ag  Ag25  1  -0.00093267  -0.00044878  0.00165615  1
  Ag  Ag26  1  0.83275309  0.83099022  -0.00523254  1
  Ag  Ag27  1  0.33839788  0.66513287  -0.00681888  1
  Ag  Ag28  1  0.65694992  0.16312814  0.83846727  1
  Ag  Ag29  1  0.17462381  0.32747722  0.83628439  1
  Ag  Ag30  1  0.33178942  0.65909295  0.33299693  1
  Ag  Ag31  1  0.49562743  0.67096151  0.16083582  1
  Ag  Ag32  1  0.49217574  0.32880048  0.82827950  1
  Ag  Ag33  1  0.33747886  0.83483280  0.82789187  1
  Ag  Ag34  1  0.33497536  -0.00186981  0.67294750  1
  Ag  Ag35  1  0.49371591  0.83507870  0.66989688  1
  Ag  Ag36  1  0.33091092  0.17418017  0.49906365  1
  Ag  Ag37  1  0.65412842  0.33339022  0.66915488  1
  Ag  Ag38  1  0.17665275  0.00698092  0.83437079  1
  Ag  Ag39  1  0.49566774  0.67699716  0.83677514  1
  Ag  Ag40  1  0.33315460  0.33320686  0.66937446  1
  Ag  Ag41  1  0.00721682  0.00025521  0.33333496  1
  Ag  Ag42  1  0.16783037  0.17035573  -0.00398733  1
  Ag  Ag43  1  0.33028779  0.33572262  0.33265232  1
  Ag  Ag44  1  0.49381916  -0.00316195  0.83318430  1
  Ag  Ag45  1  0.33194923  0.49128376  0.17095387  1
  Ag  Ag46  1  0.65993717  0.67140572  -0.00144740  1
  Ag  Ag47  1  0.83968391  0.17112779  0.33335957  1
  Ag  Ag48  1  0.00031549  0.83544039  0.17690493  1
  Ag  Ag49  1  0.16797829  0.49498516  0.00311198  1
  Ag  Ag50  1  0.33512623  0.67038944  0.67250347  1
  Ag  Ag51  1  -0.00175483  0.83404846  0.49711185  1
  Ag  Ag52  1  0.17702113  0.83384405  0.66917217  1
  Ag  Ag53  1  0.00504264  0.33315499  0.65936285  1
  Sb  Sb54  1  0.66319012  0.16763147  0.50168362  1
  Sb  Sb55  1  0.83494787  0.83201639  0.33355827  1
  Sb  Sb56  1  0.83036220  0.66557705  0.16893164  1
  Sb  Sb57  1  0.17444970  0.66178567  0.16735667  1
  Sb  Sb58  1  0.17305216  0.00097248  0.50389037  1
  Sb  Sb59  1  0.16835132  0.50058028  0.66578313  1
  Sb  Sb60  1  0.83157646  0.00028365  0.16674034  1
  Sb  Sb61  1  0.17193177  0.33310430  0.50072729  1
  Sb  Sb62  1  0.16400413  0.83416249  -0.00419676  1
  Sb  Sb63  1  0.00424041  0.16395918  0.16901031  1
  Sb  Sb64  1  0.49328017  0.50260850  -0.00055887  1
  Sb  Sb65  1  0.49277159  0.50182029  0.33265516  1
  Sb  Sb66  1  0.83520019  0.16705343  0.66375940  1
  Sb  Sb67  1  0.17224590  0.00502090  0.16268147  1
  Sb  Sb68  1  0.49590944  0.16528715  0.66918798  1
  Sb  Sb69  1  0.00609327  0.50215991  0.17296450  1
  Sb  Sb70  1  0.66299476  0.66415903  0.67160248  1
  Sb  Sb71  1  0.66829142  0.83394727  0.50678522  1
  Sb  Sb72  1  0.16581018  0.66617663  0.49954655  1
  Sb  Sb73  1  0.50301075  0.83325082  -0.00449135  1
  Sb  Sb74  1  0.66689528  0.49864631  0.50067812  1
  Sb  Sb75  1  0.17028113  0.16734318  0.67398519  1
  Sb  Sb76  1  0.82786506  0.66684189  0.83105001  1
  Sb  Sb77  1  0.00221876  0.83850082  0.82974852  1
  Sb  Sb78  1  0.33113491  0.83364194  0.50502871  1
  Sb  Sb79  1  0.66615268  0.83715966  0.15969491  1
  Sb  Sb80  1  0.00666304  0.49423052  0.82983207  1
  Sb  Sb81  1  0.83566387  0.33736760  0.50023162  1
  Sb  Sb82  1  0.83172566  -0.00048090  0.83331895  1
  Sb  Sb83  1  0.66201527  0.33190583  0.33637648  1
  Sb  Sb84  1  0.66179688  0.00140616  0.32866039  1
  Sb  Sb85  1  0.17630121  0.66520225  0.83375158  1
  Sb  Sb86  1  0.33154826  0.33879457  -0.00057200  1
  Sb  Sb87  1  0.00038120  0.67008534  0.00523658  1
  Sb  Sb88  1  0.66394726  0.66653891  0.32849845  1
  Sb  Sb89  1  0.66094562  0.49880526  0.83469225  1
  Sb  Sb90  1  0.16678825  0.17230630  0.32877973  1
  Sb  Sb91  1  0.66561485  0.33123017  -0.00379815  1
  Sb  Sb92  1  0.00661971  0.00206416  0.66555727  1
  Sb  Sb93  1  0.00329927  0.32981200  0.00080427  1
  Sb  Sb94  1  0.83380074  0.33372282  0.83107633  1
  Sb  Sb95  1  0.16891250  0.83055505  0.33710887  1
  Sb  Sb96  1  0.49263856  0.16606881  -0.00012273  1
  Sb  Sb97  1  0.33303045  0.83361908  0.16514434  1
  Sb  Sb98  1  0.65879308  0.00231497  0.67348091  1
  Sb  Sb99  1  0.66001776  0.49550384  0.16425969  1
  Sb  Sb100  1  0.33444101  -0.00325486  -0.00503570  1
  Sb  Sb101  1  0.49691245  0.49981088  0.66750352  1
  Sb  Sb102  1  0.49793445  0.66743045  0.50118206  1
  Sb  Sb103  1  0.49669832  0.16352030  0.33137958  1
  Sb  Sb104  1  0.00284695  0.66511068  0.66129332  1
  Sb  Sb105  1  0.83456014  0.33424385  0.16940672  1
  Sb  Sb106  1  0.83603785  0.16572168  0.00253063  1
  Sb  Sb107  1  0.83295335  -0.00235626  0.49911975  1
  Te  Te108  1  0.17201982  0.17219940  0.15971059  1
  Te  Te109  1  0.16640475  0.16586665  0.49927185  1
  Te  Te110  1  0.16972979  0.16652329  0.83541457  1
  Te  Te111  1  0.17165899  0.49600135  0.16639283  1
  Te  Te112  1  0.16668045  0.49964906  0.49608536  1
  Te  Te113  1  0.17247475  0.49517372  0.83625292  1
  Te  Te114  1  0.15965565  0.83399375  0.16514569  1
  Te  Te115  1  0.15828833  0.83433963  0.50623157  1
  Te  Te116  1  0.17026823  0.83695070  0.82943313  1
  Te  Te117  1  0.49688524  0.16672670  0.16566770  1
  Te  Te118  1  0.49507572  0.16642242  0.49877269  1
  Te  Te119  1  0.49747171  0.16734096  0.83489167  1
  Te  Te120  1  0.49291454  0.49889694  0.16651123  1
  Te  Te121  1  0.49573493  0.49556437  0.49984386  1
  Te  Te122  1  0.49312592  0.49484753  0.83331957  1
  Te  Te123  1  0.50029021  0.83488005  0.16983615  1
  Te  Te124  1  0.50079913  0.83601235  0.50195204  1
  Te  Te125  1  0.49860102  0.83508108  0.83193557  1
  Te  Te126  1  0.83069228  0.16762914  0.17124470  1
  Te  Te127  1  0.83549764  0.16611290  0.49519214  1
  Te  Te128  1  0.83163922  0.16720308  0.83322875  1
  Te  Te129  1  0.83214496  0.49991898  0.16420685  1
  Te  Te130  1  0.83411944  0.50222186  0.50054282  1
  Te  Te131  1  0.83494507  0.50081592  0.83282752  1
  Te  Te132  1  0.83724050  0.83283166  0.16223766  1
  Te  Te133  1  0.83577044  0.82994649  0.50196752  1
  Te  Te134  1  0.83293099  0.83263737  0.83330631  1
  Te  Te135  1  0.16214903  0.00156601  -0.00467606  1
  Te  Te136  1  0.16809760  -0.00086755  0.33194168  1
  Te  Te137  1  0.17335141  -0.00472175  0.67229866  1
  Te  Te138  1  0.16474501  0.33382326  -0.00049677  1
  Te  Te139  1  0.16992532  0.33637342  0.33078795  1
  Te  Te140  1  0.16894358  0.33481075  0.67413986  1
  Te  Te141  1  0.17009182  0.66145915  0.00086904  1
  Te  Te142  1  0.16872846  0.66197773  0.33285439  1
  Te  Te143  1  0.17357087  0.67206397  0.66696171  1
  Te  Te144  1  0.50417873  -0.00022355  -0.00019807  1
  Te  Te145  1  0.49740519  -0.00241853  0.33190190  1
  Te  Te146  1  0.49524131  -0.00354593  0.66960035  1
  Te  Te147  1  0.50232557  0.33441258  0.00157004  1
  Te  Te148  1  0.49461746  0.33377310  0.33156006  1
  Te  Te149  1  0.49498852  0.33425241  0.66790793  1
  Te  Te150  1  0.49915864  0.66738061  -0.00067672  1
  Te  Te151  1  0.49661609  0.67085748  0.33194673  1
  Te  Te152  1  0.49588773  0.67011243  0.66987471  1
  Te  Te153  1  0.83451662  -0.00282677  0.00022155  1
  Te  Te154  1  0.83857411  0.00205313  0.33372659  1
  Te  Te155  1  0.83146851  -0.00703485  0.66486917  1
  Te  Te156  1  0.83485698  0.34101196  0.00077070  1
  Te  Te157  1  0.83373905  0.33501297  0.33426391  1
  Te  Te158  1  0.84066290  0.33612112  0.66508498  1
  Te  Te159  1  0.83249678  0.66726402  0.00029724  1
  Te  Te160  1  0.83542697  0.66338071  0.33638834  1
  Te  Te161  1  0.83218545  0.66571451  0.66410336  1
  Te  Te162  1  0.00274246  0.16212540  -0.00251177  1
  Te  Te163  1  0.00083582  0.16541139  0.33408011  1
  Te  Te164  1  -0.00032483  0.16998808  0.66468825  1
  Te  Te165  1  0.00150653  0.50076637  0.00023999  1
  Te  Te166  1  0.00274599  0.49977212  0.33466410  1
  Te  Te167  1  -0.00135699  0.49697636  0.66169868  1
  Te  Te168  1  -0.00426179  0.83762534  -0.00159465  1
  Te  Te169  1  0.00045084  0.83512374  0.33600786  1
  Te  Te170  1  -0.00593621  0.83338780  0.66168694  1
  Te  Te171  1  0.32718653  0.16181339  -0.00086901  1
  Te  Te172  1  0.33232709  0.16705337  0.33390357  1
  Te  Te173  1  0.33305086  0.16899029  0.66539092  1
  Te  Te174  1  0.32952080  0.50619400  -0.00026734  1
  Te  Te175  1  0.33200305  0.49748965  0.33378102  1
  Te  Te176  1  0.33232465  0.49568200  0.66586734  1
  Te  Te177  1  0.33131665  0.82537776  -0.00624873  1
  Te  Te178  1  0.33467537  0.83629083  0.33446364  1
  Te  Te179  1  0.33465593  0.83438651  0.66645025  1
  Te  Te180  1  0.67016192  0.16356812  -0.00121536  1
  Te  Te181  1  0.67504326  0.16701466  0.33111945  1
  Te  Te182  1  0.66928183  0.17272201  0.67159044  1
  Te  Te183  1  0.67396012  0.50387239  0.00009453  1
  Te  Te184  1  0.67838291  0.49924644  0.33203131  1
  Te  Te185  1  0.67450637  0.49514799  0.66814308  1
  Te  Te186  1  0.67101616  0.83423356  -0.00457435  1
  Te  Te187  1  0.66085380  0.83370466  0.33280370  1
  Te  Te188  1  0.66876582  0.83270916  0.67413302  1
  Te  Te189  1  0.00165215  -0.00242692  0.16785550  1
  Te  Te190  1  0.00054990  0.00308048  0.49684195  1
  Te  Te191  1  0.00100376  0.00601455  0.83394262  1
  Te  Te192  1  0.00388688  0.33278918  0.17449153  1
  Te  Te193  1  0.00117827  0.33344408  0.49871303  1
  Te  Te194  1  0.00195421  0.32699679  0.83046534  1
  Te  Te195  1  -0.00069981  0.67225813  0.17390881  1
  Te  Te196  1  -0.00154892  0.66366827  0.49662231  1
  Te  Te197  1  0.00128432  0.66615498  0.83393765  1
  Te  Te198  1  0.33765345  0.00054473  0.16930607  1
  Te  Te199  1  0.33625945  0.00047277  0.49720056  1
  Te  Te200  1  0.33453163  0.00158605  0.83379550  1
  Te  Te201  1  0.33283262  0.33247068  0.16349473  1
  Te  Te202  1  0.33306258  0.33211958  0.49953817  1
  Te  Te203  1  0.33350619  0.33140178  0.83582043  1
  Te  Te204  1  0.33814256  0.66867929  0.17268072  1
  Te  Te205  1  0.33408220  0.66278589  0.49657425  1
  Te  Te206  1  0.33634903  0.66728526  0.83084902  1
  Te  Te207  1  0.66132614  0.00476115  0.16134074  1
  Te  Te208  1  0.65625143  0.00134550  0.50022040  1
  Te  Te209  1  0.66414356  0.00120334  0.83705019  1
  Te  Te210  1  0.66166466  0.32709321  0.16702421  1
  Te  Te211  1  0.65583279  0.33201663  0.50651858  1
  Te  Te212  1  0.66307375  0.33015977  0.82912644  1
  Te  Te213  1  0.65830406  0.66602940  0.16021565  1
  Te  Te214  1  0.67233198  0.66643422  0.49981353  1
  Te  Te215  1  0.65936960  0.66777038  0.83864499  1
