# generated using pymatgen
data_AgSbTe2
_symmetry_space_group_name_H-M   'P 1'
_cell_length_a   18.32530231
_cell_length_b   18.32235137
_cell_length_c   18.32373995
_cell_angle_alpha   90.00280564
_cell_angle_beta   90.00131564
_cell_angle_gamma   89.99808291
_symmetry_Int_Tables_number   1
_chemical_formula_structural   AgSbTe2
_chemical_formula_sum   'Ag54 Sb54 Te108'
_cell_volume   6152.42706472
_cell_formula_units_Z   54
loop_
 _symmetry_equiv_pos_site_id
 _symmetry_equiv_pos_as_xyz
  1  'x, y, z'
loop_
 _atom_site_type_symbol
 _atom_site_label
 _atom_site_symmetry_multiplicity
 _atom_site_fract_x
 _atom_site_fract_y
 _atom_site_fract_z
 _atom_site_occupancy
  Ag  Ag0  1  0.65937280  0.66690899  0.00018349  1
  Ag  Ag1  1  0.00006439  0.49559563  0.83298064  1
  Ag  Ag2  1  0.34096231  0.50469011  0.82670615  1
  Ag  Ag3  1  0.33533297  0.82498951  0.82862172  1
  Ag  Ag4  1  0.49295878  0.82256560  0.66990134  1
  Ag  Ag5  1  0.83032386  0.66934371  0.16795657  1
  Ag  Ag6  1  0.84194457  0.33834579  0.82868409  1
  Ag  Ag7  1  0.82755470  0.49713596  0.66815445  1
  Ag  Ag8  1  0.49838914  0.82358166  -0.00516918  1
  Ag  Ag9  1  0.32825389  0.00586559  0.33601843  1
  Ag  Ag10  1  0.49670620  0.66401016  0.83246046  1
  Ag  Ag11  1  0.66558975  0.50716512  0.16314522  1
  Ag  Ag12  1  0.33256998  0.66508050  0.33429639  1
  Ag  Ag13  1  0.65668009  0.66363496  0.67070890  1
  Ag  Ag14  1  0.16962179  0.84054709  0.33761539  1
  Ag  Ag15  1  0.33205207  -0.00371234  0.65970213  1
  Ag  Ag16  1  0.33319098  0.32696746  0.33762113  1
  Ag  Ag17  1  0.00237250  0.33318051  0.66506294  1
  Ag  Ag18  1  0.50055051  0.50600751  -0.00835788  1
  Ag  Ag19  1  0.16303807  0.33576050  0.82477443  1
  Ag  Ag20  1  0.00986766  0.00545944  0.33875246  1
  Ag  Ag21  1  0.16682421  0.33039970  0.17714095  1
  Ag  Ag22  1  0.16826358  0.66837381  0.16651707  1
  Ag  Ag23  1  0.00834549  0.16524799  0.49999598  1
  Ag  Ag24  1  0.00991432  0.32783361  0.33966177  1
  Ag  Ag25  1  0.49104810  0.33074782  0.49758488  1
  Ag  Ag26  1  0.17013115  0.00041750  0.17782386  1
  Ag  Ag27  1  0.33602455  0.49434090  0.50201025  1
  Ag  Ag28  1  0.83682962  0.17207603  0.66068979  1
  Ag  Ag29  1  0.16517792  0.00595805  0.49591216  1
  Ag  Ag30  1  0.00317572  0.33857011  -0.01143538  1
  Ag  Ag31  1  0.65996882  -0.00759898  0.00888597  1
  Ag  Ag32  1  0.49781083  0.49352862  0.33893924  1
  Ag  Ag33  1  0.65959076  0.50164170  0.83238392  1
  Ag  Ag34  1  0.00008426  0.66237327  0.00063663  1
  Ag  Ag35  1  0.17085779  0.16705875  0.66033649  1
  Ag  Ag36  1  0.66653149  0.83028050  0.16517863  1
  Ag  Ag37  1  0.66536689  0.00384435  0.33102902  1
  Ag  Ag38  1  0.49571860  0.17010699  0.65835481  1
  Ag  Ag39  1  0.65933870  0.16624833  0.49990501  1
  Ag  Ag40  1  0.33279440  0.17053027  0.49862392  1
  Ag  Ag41  1  0.00390993  0.84400931  0.49959564  1
  Ag  Ag42  1  0.65512298  0.32997193  0.33522159  1
  Ag  Ag43  1  0.33668404  -0.00570137  0.00190929  1
  Ag  Ag44  1  0.83385097  0.66790578  0.49948901  1
  Ag  Ag45  1  0.49704312  0.17297577  0.34039820  1
  Ag  Ag46  1  0.33793251  0.67068865  0.66828205  1
  Ag  Ag47  1  0.17116669  0.32420823  0.49736518  1
  Ag  Ag48  1  0.49935902  0.50295551  0.66760933  1
  Ag  Ag49  1  0.17498515  0.83815325  0.65949137  1
  Ag  Ag50  1  0.84084285  0.00281874  0.49503429  1
  Ag  Ag51  1  0.34204990  0.66982354  -0.00331482  1
  Ag  Ag52  1  0.83051355  -0.00162334  0.17639019  1
  Ag  Ag53  1  0.33082349  0.16347456  0.18056489  1
  Sb  Sb54  1  0.17539061  0.16303841  0.34156737  1
  Sb  Sb55  1  -0.00070742  0.83298209  0.17113999  1
  Sb  Sb56  1  0.00089069  0.17432537  0.82501671  1
  Sb  Sb57  1  0.49977744  0.66188734  0.50555465  1
  Sb  Sb58  1  0.32966386  0.33539896  0.00408821  1
  Sb  Sb59  1  0.17340706  0.49841645  0.33385303  1
  Sb  Sb60  1  0.16760584  0.16795325  -0.00285302  1
  Sb  Sb61  1  0.00407269  0.66680797  0.33075268  1
  Sb  Sb62  1  0.65979684  0.82661888  0.83652737  1
  Sb  Sb63  1  0.66160316  0.49636823  0.50146253  1
  Sb  Sb64  1  0.32954697  0.83614346  0.50524938  1
  Sb  Sb65  1  0.17357710  0.83181404  0.00131480  1
  Sb  Sb66  1  0.83583105  0.33073954  0.50374553  1
  Sb  Sb67  1  0.17189308  0.49844715  0.66771176  1
  Sb  Sb68  1  0.82919026  0.50132149  -0.00497187  1
  Sb  Sb69  1  0.33746910  0.49950999  0.16870828  1
  Sb  Sb70  1  0.66831646  0.33726516  0.00415237  1
  Sb  Sb71  1  0.66875175  0.33799385  0.66185812  1
  Sb  Sb72  1  0.17505094  0.66167185  0.83601828  1
  Sb  Sb73  1  0.00888456  0.82696024  0.82824467  1
  Sb  Sb74  1  0.49492526  0.33517228  0.17533924  1
  Sb  Sb75  1  0.49949512  0.66550632  0.16106591  1
  Sb  Sb76  1  0.66540974  0.17265981  0.82662575  1
  Sb  Sb77  1  0.33375765  0.17030575  0.82683161  1
  Sb  Sb78  1  0.00220996  -0.00154386  0.00884402  1
  Sb  Sb79  1  0.32907628  0.33363587  0.65876542  1
  Sb  Sb80  1  0.83286946  0.83193807  0.66406994  1
  Sb  Sb81  1  0.00709511  0.16711940  0.17659951  1
  Sb  Sb82  1  0.49468686  0.83327821  0.33565219  1
  Sb  Sb83  1  0.16917707  0.00337160  0.82950745  1
  Sb  Sb84  1  0.82823503  0.49928685  0.33805653  1
  Sb  Sb85  1  0.49645223  0.34150893  0.82532583  1
  Sb  Sb86  1  0.00590562  0.00587315  0.65831200  1
  Sb  Sb87  1  0.49721607  -0.00052078  0.16779677  1
  Sb  Sb88  1  0.49820830  0.16777306  0.00056052  1
  Sb  Sb89  1  0.82839715  0.16446378  0.34042366  1
  Sb  Sb90  1  0.83200909  0.00572897  0.83010020  1
  Sb  Sb91  1  0.82854892  0.66027306  0.83260120  1
  Sb  Sb92  1  0.66178865  -0.00263699  0.66333807  1
  Sb  Sb93  1  0.33552945  0.83615740  0.16419687  1
  Sb  Sb94  1  0.66120363  0.66624360  0.33180462  1
  Sb  Sb95  1  0.82658517  0.83145275  0.00178211  1
  Sb  Sb96  1  0.17153746  0.50021385  -0.00026996  1
  Sb  Sb97  1  0.83275240  0.16661316  -0.00300728  1
  Sb  Sb98  1  0.66216102  0.16494430  0.17393090  1
  Sb  Sb99  1  -0.00380997  0.49964634  0.16260783  1
  Sb  Sb100  1  0.49783832  -0.00521096  0.83210050  1
  Sb  Sb101  1  0.83778185  0.33266468  0.16603760  1
  Sb  Sb102  1  0.66875750  0.83746923  0.49666694  1
  Sb  Sb103  1  0.00400876  0.49580125  0.50384017  1
  Sb  Sb104  1  0.16655118  0.66784208  0.49754283  1
  Sb  Sb105  1  0.83708456  0.83628936  0.33349550  1
  Sb  Sb106  1  0.49387102  0.00767631  0.50012280  1
  Sb  Sb107  1  0.00241285  0.66179111  0.66942949  1
  Te  Te108  1  0.17197191  0.16586786  0.16331569  1
  Te  Te109  1  0.16800543  0.16587126  0.50314637  1
  Te  Te110  1  0.16671468  0.17358504  0.82427031  1
  Te  Te111  1  0.16540084  0.50176328  0.16669576  1
  Te  Te112  1  0.17327798  0.49574055  0.50023410  1
  Te  Te113  1  0.16398404  0.49459126  0.83380116  1
  Te  Te114  1  0.16694142  0.83445482  0.16944608  1
  Te  Te115  1  0.16420486  0.83383676  0.49941094  1
  Te  Te116  1  0.17439678  0.83416121  0.82748262  1
  Te  Te117  1  0.49245230  0.16773500  0.16990577  1
  Te  Te118  1  0.49809731  0.16876550  0.50023900  1
  Te  Te119  1  0.50071448  0.16903964  0.82549651  1
  Te  Te120  1  0.50559190  0.49967526  0.16838301  1
  Te  Te121  1  0.49667305  0.49601314  0.50068292  1
  Te  Te122  1  0.49986484  0.50258484  0.83094128  1
  Te  Te123  1  0.50649509  0.83259352  0.16305861  1
  Te  Te124  1  0.50124519  0.83365937  0.50732763  1
  Te  Te125  1  0.49513901  0.82864568  0.83196059  1
  Te  Te126  1  0.83375069  0.16105611  0.16569114  1
  Te  Te127  1  0.83366188  0.16425681  0.50360061  1
  Te  Te128  1  0.83250210  0.17433777  0.82398844  1
  Te  Te129  1  0.82683109  0.50240565  0.16744519  1
  Te  Te130  1  0.83363432  0.50384677  0.50581088  1
  Te  Te131  1  0.83411494  0.49732132  0.82858173  1
  Te  Te132  1  0.82921421  0.83386073  0.16756002  1
  Te  Te133  1  0.83904797  0.83423234  0.49974906  1
  Te  Te134  1  0.83568342  0.83454656  0.83267233  1
  Te  Te135  1  0.17125602  -0.00003541  0.00329368  1
  Te  Te136  1  0.16773743  -0.00009573  0.33443486  1
  Te  Te137  1  0.17145278  0.00021359  0.66435372  1
  Te  Te138  1  0.16153100  0.33375104  0.00230738  1
  Te  Te139  1  0.16919298  0.33301099  0.33526431  1
  Te  Te140  1  0.16353851  0.33265410  0.66342540  1
  Te  Te141  1  0.16586841  0.66667895  0.00525960  1
  Te  Te142  1  0.17117980  0.66858797  0.32926063  1
  Te  Te143  1  0.17146345  0.67032950  0.66677868  1
  Te  Te144  1  0.49896247  -0.00008393  -0.00086321  1
  Te  Te145  1  0.50041385  0.00087776  0.33426194  1
  Te  Te146  1  0.49416343  0.00280484  0.66664884  1
  Te  Te147  1  0.50011168  0.33790749  -0.00068914  1
  Te  Te148  1  0.49658834  0.33351903  0.33672152  1
  Te  Te149  1  0.50114722  0.33522332  0.65960148  1
  Te  Te150  1  0.49992885  0.66514722  -0.00185175  1
  Te  Te151  1  0.49268454  0.66422201  0.33480840  1
  Te  Te152  1  0.49840272  0.66418783  0.66749211  1
  Te  Te153  1  0.83147813  -0.00047632  0.00360082  1
  Te  Te154  1  0.82977256  -0.00079981  0.33450148  1
  Te  Te155  1  0.83217626  0.00382093  0.66139622  1
  Te  Te156  1  0.83973773  0.33303890  -0.00398682  1
  Te  Te157  1  0.83597111  0.33341765  0.33246585  1
  Te  Te158  1  0.83489053  0.33419036  0.66836450  1
  Te  Te159  1  0.83256204  0.66626246  0.00493470  1
  Te  Te160  1  0.83348921  0.66716484  0.33179288  1
  Te  Te161  1  0.83347301  0.66361627  0.66442338  1
  Te  Te162  1  -0.00092346  0.17019317  0.00018548  1
  Te  Te163  1  -0.00383678  0.16680880  0.33958044  1
  Te  Te164  1  -0.00009164  0.17128305  0.66073724  1
  Te  Te165  1  -0.00097741  0.49934429  -0.00401036  1
  Te  Te166  1  -0.00144234  0.49484600  0.33321811  1
  Te  Te167  1  -0.00166943  0.49544139  0.67119787  1
  Te  Te168  1  0.00054570  0.82861918  -0.00205070  1
  Te  Te169  1  0.00661802  0.83438883  0.33825683  1
  Te  Te170  1  0.00406091  0.83268113  0.66169467  1
  Te  Te171  1  0.33492455  0.16189044  -0.00113210  1
  Te  Te172  1  0.33675416  0.16578991  0.33668633  1
  Te  Te173  1  0.33345868  0.16524218  0.66294749  1
  Te  Te174  1  0.33905583  0.50346304  -0.00100068  1
  Te  Te175  1  0.33812468  0.50191427  0.33450551  1
  Te  Te176  1  0.33642749  0.50057659  0.66648062  1
  Te  Te177  1  0.33806376  0.83229406  -0.00275593  1
  Te  Te178  1  0.33041505  0.83234410  0.33363246  1
  Te  Te179  1  0.33376961  0.83345280  0.66696046  1
  Te  Te180  1  0.66522292  0.16208428  -0.00085211  1
  Te  Te181  1  0.66108413  0.16608404  0.33778464  1
  Te  Te182  1  0.66237692  0.16574339  0.66097165  1
  Te  Te183  1  0.66278107  0.50155843  0.00070567  1
  Te  Te184  1  0.66082990  0.49779755  0.33172250  1
  Te  Te185  1  0.66525464  0.50368842  0.66742781  1
  Te  Te186  1  0.66072095  0.83198755  0.00206754  1
  Te  Te187  1  0.66390351  0.83753404  0.32838352  1
  Te  Te188  1  0.66275591  0.82746064  0.66736393  1
  Te  Te189  1  0.00070628  0.00005442  0.17465919  1
  Te  Te190  1  0.00193729  0.00221456  0.49771579  1
  Te  Te191  1  -0.00068578  -0.00137795  0.83729487  1
  Te  Te192  1  0.00602658  0.33286083  0.17249774  1
  Te  Te193  1  0.00278507  0.33077652  0.50045860  1
  Te  Te194  1  0.00181740  0.33536772  0.83124528  1
  Te  Te195  1  -0.00087111  0.66694674  0.16243198  1
  Te  Te196  1  -0.00444705  0.66526398  0.49969371  1
  Te  Te197  1  0.00009471  0.66075465  0.83899072  1
  Te  Te198  1  0.33066393  0.00133590  0.16908798  1
  Te  Te199  1  0.32851703  0.00179608  0.49913356  1
  Te  Te200  1  0.33256942  -0.00007793  0.83671894  1
  Te  Te201  1  0.32695035  0.33023385  0.17141436  1
  Te  Te202  1  0.33220154  0.33277513  0.49805114  1
  Te  Te203  1  0.32821540  0.33918002  0.83575045  1
  Te  Te204  1  0.32917573  0.66764473  0.16587007  1
  Te  Te205  1  0.33239396  0.66279764  0.50047488  1
  Te  Te206  1  0.33543881  0.66460198  0.83370117  1
  Te  Te207  1  0.66823009  0.00120052  0.16788360  1
  Te  Te208  1  0.67111752  0.00412737  0.49695983  1
  Te  Te209  1  0.66741338  -0.00023395  0.83935169  1
  Te  Te210  1  0.66842946  0.33409905  0.17318427  1
  Te  Te211  1  0.66716757  0.32870054  0.49448897  1
  Te  Te212  1  0.66799530  0.34067125  0.83491392  1
  Te  Te213  1  0.66845239  0.66707565  0.16604293  1
  Te  Te214  1  0.67259303  0.66804474  0.50088772  1
  Te  Te215  1  0.66289934  0.66185550  0.83422057  1
