# generated using pymatgen
data_AgSbTe2
_symmetry_space_group_name_H-M   'P 1'
_cell_length_a   18.33613002
_cell_length_b   18.33160478
_cell_length_c   18.33188626
_cell_angle_alpha   90.00413822
_cell_angle_beta   90.00249940
_cell_angle_gamma   90.00068706
_symmetry_Int_Tables_number   1
_chemical_formula_structural   AgSbTe2
_chemical_formula_sum   'Ag54 Sb54 Te108'
_cell_volume   6161.90953329
_cell_formula_units_Z   54
loop_
 _symmetry_equiv_pos_site_id
 _symmetry_equiv_pos_as_xyz
  1  'x, y, z'
loop_
 _atom_site_type_symbol
 _atom_site_label
 _atom_site_symmetry_multiplicity
 _atom_site_fract_x
 _atom_site_fract_y
 _atom_site_fract_z
 _atom_site_occupancy
  Ag  Ag0  1  0.32624404  0.49534954  0.17046856  1
  Ag  Ag1  1  0.84290169  0.16501991  0.00209938  1
  Ag  Ag2  1  0.16743860  0.49122380  0.01139865  1
  Ag  Ag3  1  0.16858040  0.00453626  0.16374713  1
  Ag  Ag4  1  0.00533858  0.33672214  0.66928719  1
  Ag  Ag5  1  0.00723954  0.67189105  0.66286378  1
  Ag  Ag6  1  0.32691192  0.00267885  -0.00009055  1
  Ag  Ag7  1  0.49698016  0.15687058  0.33836725  1
  Ag  Ag8  1  0.01108964  0.50016956  0.17018089  1
  Ag  Ag9  1  0.00411466  0.83621727  0.82695095  1
  Ag  Ag10  1  0.83810954  0.16171092  0.32802780  1
  Ag  Ag11  1  0.17141665  0.82965525  0.33950899  1
  Ag  Ag12  1  0.16780049  0.33188724  0.16284045  1
  Ag  Ag13  1  0.32910811  -0.01193005  0.67122066  1
  Ag  Ag14  1  0.00943291  0.00397446  0.00287220  1
  Ag  Ag15  1  0.32959983  0.33728190  0.66835502  1
  Ag  Ag16  1  0.33499925  0.83073203  0.50669357  1
  Ag  Ag17  1  0.65375463  0.83497003  0.50910858  1
  Ag  Ag18  1  0.16587762  0.16780802  0.00554495  1
  Ag  Ag19  1  0.16934036  0.50872793  0.66291217  1
  Ag  Ag20  1  0.49734776  -0.00367941  0.49587985  1
  Ag  Ag21  1  0.66542134  0.83425149  0.82817727  1
  Ag  Ag22  1  0.65349080  -0.00113511  0.33317202  1
  Ag  Ag23  1  0.33068476  0.83610132  0.82104830  1
  Ag  Ag24  1  0.00757560  0.32659846  -0.00421877  1
  Ag  Ag25  1  0.83227438  0.66853786  0.83149471  1
  Ag  Ag26  1  0.00796904  0.67138737  0.34178565  1
  Ag  Ag27  1  0.49032808  0.83869859  0.34495257  1
  Ag  Ag28  1  0.16647680  -0.00283498  0.83737856  1
  Ag  Ag29  1  0.83462797  0.33392180  0.50743517  1
  Ag  Ag30  1  0.48663099  0.50191521  0.66429302  1
  Ag  Ag31  1  0.49586519  0.16157580  0.66056878  1
  Ag  Ag32  1  0.66780633  0.50465715  0.83128832  1
  Ag  Ag33  1  0.00543442  -0.00302152  0.33120489  1
  Ag  Ag34  1  0.83520421  0.33398311  0.82966202  1
  Ag  Ag35  1  0.48673796  0.83595082  0.66380139  1
  Ag  Ag36  1  0.32966688  0.16494601  0.16646878  1
  Ag  Ag37  1  0.00798228  -0.01111113  0.66939933  1
  Ag  Ag38  1  0.16705994  0.50697080  0.33401633  1
  Ag  Ag39  1  0.16888109  0.66429598  0.50028458  1
  Ag  Ag40  1  0.17114138  0.82922342  0.66243535  1
  Ag  Ag41  1  0.32464433  0.66945257  0.34368184  1
  Ag  Ag42  1  0.16879566  0.16124869  0.32599683  1
  Ag  Ag43  1  0.49649181  0.32839885  0.50410304  1
  Ag  Ag44  1  0.84343694  0.83396844  0.66899616  1
  Ag  Ag45  1  0.49788472  0.83677966  -0.00790445  1
  Ag  Ag46  1  0.32955095  0.50683639  0.50519993  1
  Ag  Ag47  1  0.32721400  0.67397654  0.66180541  1
  Ag  Ag48  1  0.84506735  0.00268083  0.16896549  1
  Ag  Ag49  1  0.66747914  0.66877578  -0.00705331  1
  Ag  Ag50  1  0.01277515  0.50104611  0.50168471  1
  Ag  Ag51  1  0.66801803  0.15889897  0.83324675  1
  Ag  Ag52  1  0.49162566  -0.00093437  0.17621070  1
  Ag  Ag53  1  0.32650857  0.32718296  -0.00249552  1
  Sb  Sb54  1  0.50142291  0.33228023  0.82778746  1
  Sb  Sb55  1  -0.00015351  0.66798779  -0.00352894  1
  Sb  Sb56  1  0.49047770  0.67189058  0.50212006  1
  Sb  Sb57  1  0.16377469  0.32998319  0.83719622  1
  Sb  Sb58  1  0.50349501  0.67049307  0.83062111  1
  Sb  Sb59  1  0.66490310  0.83682984  0.16527436  1
  Sb  Sb60  1  0.33136392  -0.00383974  0.33230970  1
  Sb  Sb61  1  0.66276391  0.16445444  0.16461137  1
  Sb  Sb62  1  0.49570844  0.16122871  0.00038551  1
  Sb  Sb63  1  0.17159773  -0.00493497  0.49829889  1
  Sb  Sb64  1  0.83790003  0.50240583  0.66783699  1
  Sb  Sb65  1  0.84061455  0.66497102  0.50536093  1
  Sb  Sb66  1  0.32992609  0.33562388  0.33643115  1
  Sb  Sb67  1  0.66706612  0.67468987  0.33240848  1
  Sb  Sb68  1  0.66730359  0.33470327  -0.00440598  1
  Sb  Sb69  1  0.17052904  0.16392146  0.66632811  1
  Sb  Sb70  1  0.48908588  0.32666991  0.17153688  1
  Sb  Sb71  1  0.83128168  0.00190093  0.49732482  1
  Sb  Sb72  1  0.16866776  0.33979656  0.49943379  1
  Sb  Sb73  1  0.33387046  0.50469926  0.82736235  1
  Sb  Sb74  1  0.49035145  0.50131122  0.33963610  1
  Sb  Sb75  1  0.49330164  0.50281269  -0.00411917  1
  Sb  Sb76  1  0.83154583  0.16450993  0.66826725  1
  Sb  Sb77  1  0.49651122  0.67234466  0.16791767  1
  Sb  Sb78  1  0.84357098  0.49458698  0.33483574  1
  Sb  Sb79  1  0.84016647  0.49450523  -0.00183649  1
  Sb  Sb80  1  0.83633491  0.83945633  0.34011348  1
  Sb  Sb81  1  0.66577208  0.67016245  0.67004132  1
  Sb  Sb82  1  0.00013451  0.17012327  0.49924013  1
  Sb  Sb83  1  -0.00170509  0.16255251  0.83545707  1
  Sb  Sb84  1  0.84445121  0.32540893  0.16430015  1
  Sb  Sb85  1  0.66526295  0.33349187  0.66731810  1
  Sb  Sb86  1  0.00543207  0.83113880  0.50508944  1
  Sb  Sb87  1  0.00355859  0.33186274  0.33419732  1
  Sb  Sb88  1  0.33206046  0.83603125  0.16815692  1
  Sb  Sb89  1  0.16997962  0.83710712  -0.00258576  1
  Sb  Sb90  1  0.83672028  0.67225214  0.16262723  1
  Sb  Sb91  1  0.16329875  0.67225696  0.82644459  1
  Sb  Sb92  1  0.66142164  0.50519426  0.50478461  1
  Sb  Sb93  1  0.00324974  0.83397823  0.16568830  1
  Sb  Sb94  1  0.00002495  0.50259756  0.83029661  1
  Sb  Sb95  1  0.66537901  -0.00228291  0.00221002  1
  Sb  Sb96  1  0.00990159  0.16667463  0.16599242  1
  Sb  Sb97  1  0.66644628  0.32681251  0.33526703  1
  Sb  Sb98  1  0.49505747  -0.00276282  0.83068920  1
  Sb  Sb99  1  0.83892622  -0.00103654  0.83556242  1
  Sb  Sb100  1  0.33458311  0.16499188  0.49715909  1
  Sb  Sb101  1  0.33507100  0.16233215  0.83467073  1
  Sb  Sb102  1  0.83095939  0.83854836  -0.00734729  1
  Sb  Sb103  1  0.33319605  0.66880233  -0.00255923  1
  Sb  Sb104  1  0.16694066  0.66387257  0.17354609  1
  Sb  Sb105  1  0.66414022  0.16215419  0.50200408  1
  Sb  Sb106  1  0.66233022  -0.00337660  0.66440381  1
  Sb  Sb107  1  0.66378668  0.50108185  0.16219238  1
  Te  Te108  1  0.17037377  0.16630936  0.16550111  1
  Te  Te109  1  0.16706004  0.16827979  0.49085884  1
  Te  Te110  1  0.16707877  0.15884731  0.83803519  1
  Te  Te111  1  0.16795151  0.50091279  0.16907125  1
  Te  Te112  1  0.16905803  0.50098480  0.50104864  1
  Te  Te113  1  0.16644983  0.50054082  0.82601793  1
  Te  Te114  1  0.16637447  0.84011674  0.17174573  1
  Te  Te115  1  0.17120291  0.82956044  0.50014704  1
  Te  Te116  1  0.16706825  0.83714662  0.83071801  1
  Te  Te117  1  0.49416757  0.16106967  0.17080158  1
  Te  Te118  1  0.50044944  0.16588622  0.49968811  1
  Te  Te119  1  0.50628282  0.16558363  0.82968981  1
  Te  Te120  1  0.49457413  0.49830970  0.16770635  1
  Te  Te121  1  0.49606417  0.49528201  0.50490364  1
  Te  Te122  1  0.50543003  0.50037377  0.82765582  1
  Te  Te123  1  0.49955914  0.83922917  0.16649035  1
  Te  Te124  1  0.49631995  0.83434621  0.50209547  1
  Te  Te125  1  0.49992523  0.83402585  0.83056433  1
  Te  Te126  1  0.83020753  0.16195550  0.16724861  1
  Te  Te127  1  0.83166131  0.17263422  0.49681820  1
  Te  Te128  1  0.82953400  0.16950938  0.83562363  1
  Te  Te129  1  0.83447350  0.49974266  0.16634879  1
  Te  Te130  1  0.83074086  0.49435857  0.49969650  1
  Te  Te131  1  0.82967917  0.49922823  0.83403386  1
  Te  Te132  1  0.83406860  0.84140709  0.16681368  1
  Te  Te133  1  0.82982030  0.83318303  0.50782826  1
  Te  Te134  1  0.83238826  0.83226658  0.82948127  1
  Te  Te135  1  0.16697103  -0.00160697  0.00125076  1
  Te  Te136  1  0.16580051  -0.00002203  0.33306948  1
  Te  Te137  1  0.16767470  0.00006228  0.66588372  1
  Te  Te138  1  0.16714146  0.33189867  -0.00034879  1
  Te  Te139  1  0.16652063  0.32964058  0.32693227  1
  Te  Te140  1  0.16572428  0.33134941  0.66757337  1
  Te  Te141  1  0.16623095  0.66250494  0.00000543  1
  Te  Te142  1  0.16531911  0.66681939  0.33563564  1
  Te  Te143  1  0.16661627  0.66760763  0.66525740  1
  Te  Te144  1  0.49726808  -0.00363556  0.00179456  1
  Te  Te145  1  0.49559600  -0.00125062  0.33456200  1
  Te  Te146  1  0.49651784  -0.00118506  0.66463384  1
  Te  Te147  1  0.49271206  0.33311391  0.00135494  1
  Te  Te148  1  0.49993869  0.32920453  0.34032995  1
  Te  Te149  1  0.49858016  0.33226813  0.66391265  1
  Te  Te150  1  0.50298732  0.67214349  0.00028246  1
  Te  Te151  1  0.49836964  0.67358831  0.33329097  1
  Te  Te152  1  0.49490977  0.66728049  0.66606620  1
  Te  Te153  1  0.83393956  0.00530521  0.00462138  1
  Te  Te154  1  0.84220820  0.00299779  0.33102589  1
  Te  Te155  1  0.84022628  -0.00335664  0.66607352  1
  Te  Te156  1  0.83638695  0.32682401  -0.00352791  1
  Te  Te157  1  0.83424622  0.32511827  0.33447771  1
  Te  Te158  1  0.83656582  0.33245735  0.66793722  1
  Te  Te159  1  0.83079749  0.66614571  -0.00528936  1
  Te  Te160  1  0.83848105  0.66721286  0.33246263  1
  Te  Te161  1  0.83786140  0.67019386  0.67099548  1
  Te  Te162  1  0.00237173  0.16536871  0.00081624  1
  Te  Te163  1  0.00015671  0.16209894  0.33241737  1
  Te  Te164  1  0.00093835  0.17233154  0.66738412  1
  Te  Te165  1  0.00643430  0.49926632  0.00143621  1
  Te  Te166  1  0.00559006  0.49987523  0.33578608  1
  Te  Te167  1  0.00283655  0.49811873  0.66380826  1
  Te  Te168  1  -0.00003253  0.83799277  -0.00588514  1
  Te  Te169  1  0.00414199  0.83363468  0.33393185  1
  Te  Te170  1  0.00358567  0.83204712  0.66641763  1
  Te  Te171  1  0.33056012  0.16497817  0.00150343  1
  Te  Te172  1  0.33323636  0.16769331  0.32991301  1
  Te  Te173  1  0.33676457  0.17549183  0.66709218  1
  Te  Te174  1  0.32876836  0.50004516  -0.00109104  1
  Te  Te175  1  0.32855408  0.50392842  0.33577890  1
  Te  Te176  1  0.33075735  0.49656238  0.66648923  1
  Te  Te177  1  0.33726441  0.83669245  0.00026679  1
  Te  Te178  1  0.33215785  0.82966786  0.33351949  1
  Te  Te179  1  0.33024924  0.83268518  0.66541133  1
  Te  Te180  1  0.66714361  0.16633572  -0.00569043  1
  Te  Te181  1  0.66279247  0.15998202  0.33334824  1
  Te  Te182  1  0.66211823  0.16466684  0.67189117  1
  Te  Te183  1  0.66474139  0.50436082  -0.00540528  1
  Te  Te184  1  0.66561579  0.50347028  0.33285100  1
  Te  Te185  1  0.66403419  0.50204430  0.67117653  1
  Te  Te186  1  0.66318575  0.83082789  -0.00491290  1
  Te  Te187  1  0.66599972  0.83892617  0.33523867  1
  Te  Te188  1  0.66555248  0.83336114  0.66775112  1
  Te  Te189  1  0.00344924  -0.00036638  0.16635318  1
  Te  Te190  1  0.00037849  0.00052263  0.50001887  1
  Te  Te191  1  0.00352962  -0.00339080  0.83075775  1
  Te  Te192  1  0.00566856  0.34032290  0.16166611  1
  Te  Te193  1  -0.00218486  0.33779614  0.50315751  1
  Te  Te194  1  -0.00314437  0.33395806  0.83455612  1
  Te  Te195  1  -0.00107501  0.66136254  0.16945029  1
  Te  Te196  1  0.00466992  0.66323050  0.50143305  1
  Te  Te197  1  -0.00513836  0.67163729  0.82859021  1
  Te  Te198  1  0.33129715  0.00179600  0.16485203  1
  Te  Te199  1  0.33752659  -0.00199647  0.50795359  1
  Te  Te200  1  0.32943422  -0.00336704  0.83313604  1
  Te  Te201  1  0.32795397  0.33359994  0.16381619  1
  Te  Te202  1  0.33583965  0.33498424  0.50495513  1
  Te  Te203  1  0.33333455  0.33336071  0.83385573  1
  Te  Te204  1  0.33374798  0.65822361  0.16726926  1
  Te  Te205  1  0.32980680  0.66702202  0.50082530  1
  Te  Te206  1  0.33291001  0.67416534  0.82845860  1
  Te  Te207  1  0.66234165  0.00095061  0.17233020  1
  Te  Te208  1  0.66294475  -0.00504867  0.49518773  1
  Te  Te209  1  0.66793637  -0.00304314  0.83343627  1
  Te  Te210  1  0.66691901  0.33460614  0.16550790  1
  Te  Te211  1  0.66823736  0.33533658  0.49968640  1
  Te  Te212  1  0.67234035  0.33635590  0.83403358  1
  Te  Te213  1  0.66790407  0.66733102  0.15818168  1
  Te  Te214  1  0.66984146  0.67400794  0.49862183  1
  Te  Te215  1  0.67031748  0.67012529  0.83409200  1
