# generated using pymatgen
data_AgSbTe2
_symmetry_space_group_name_H-M   'P 1'
_cell_length_a   18.31950183
_cell_length_b   18.32600811
_cell_length_c   18.32157964
_cell_angle_alpha   89.99919765
_cell_angle_beta   90.00236003
_cell_angle_gamma   90.00049955
_symmetry_Int_Tables_number   1
_chemical_formula_structural   AgSbTe2
_chemical_formula_sum   'Ag54 Sb54 Te108'
_cell_volume   6150.98188607
_cell_formula_units_Z   54
loop_
 _symmetry_equiv_pos_site_id
 _symmetry_equiv_pos_as_xyz
  1  'x, y, z'
loop_
 _atom_site_type_symbol
 _atom_site_label
 _atom_site_symmetry_multiplicity
 _atom_site_fract_x
 _atom_site_fract_y
 _atom_site_fract_z
 _atom_site_occupancy
  Ag  Ag0  1  0.83594652  0.16462361  0.66564181  1
  Ag  Ag1  1  0.67571549  0.67212493  0.33794961  1
  Ag  Ag2  1  0.50833242  0.00283572  0.16253811  1
  Ag  Ag3  1  0.50580523  0.00446446  0.83718137  1
  Ag  Ag4  1  0.15965352  0.67097868  0.50282465  1
  Ag  Ag5  1  0.16252746  0.00211134  0.82500702  1
  Ag  Ag6  1  0.83234635  0.00392528  0.49998729  1
  Ag  Ag7  1  0.83263811  0.32948736  0.49665102  1
  Ag  Ag8  1  -0.00282890  0.15869746  0.83075766  1
  Ag  Ag9  1  -0.00612526  0.67111045  0.34191871  1
  Ag  Ag10  1  0.00140478  0.67613835  0.66346696  1
  Ag  Ag11  1  0.50067537  0.16071646  -0.00064868  1
  Ag  Ag12  1  0.32913594  0.48865078  0.50652480  1
  Ag  Ag13  1  -0.01052547  0.16503765  0.16475381  1
  Ag  Ag14  1  0.50659364  0.32475279  0.16380785  1
  Ag  Ag15  1  0.33388252  0.00516186  0.34000336  1
  Ag  Ag16  1  0.00473139  -0.00313777  0.67005975  1
  Ag  Ag17  1  0.15973046  0.83760849  0.34095392  1
  Ag  Ag18  1  0.33496276  0.32783043  0.34412686  1
  Ag  Ag19  1  0.82498858  0.32497740  0.17650495  1
  Ag  Ag20  1  0.82684765  0.00501492  0.17452101  1
  Ag  Ag21  1  0.32807758  0.16965188  0.50172042  1
  Ag  Ag22  1  0.66920694  0.16183422  0.82992258  1
  Ag  Ag23  1  -0.00081115  0.83778324  0.82558811  1
  Ag  Ag24  1  0.16873215  0.16230186  0.34514234  1
  Ag  Ag25  1  0.49773437  0.32556925  0.83523631  1
  Ag  Ag26  1  0.67369044  0.66909861  0.66110215  1
  Ag  Ag27  1  0.16685398  0.83216802  -0.00797462  1
  Ag  Ag28  1  0.50272275  0.67532828  0.16550163  1
  Ag  Ag29  1  0.83559504  0.00166679  0.82837264  1
  Ag  Ag30  1  0.00197794  0.50272270  0.83322334  1
  Ag  Ag31  1  0.17276161  0.32984245  0.50450207  1
  Ag  Ag32  1  0.00278789  0.66919280  -0.00505792  1
  Ag  Ag33  1  0.66866950  0.00245031  0.32951018  1
  Ag  Ag34  1  0.66627002  0.84283662  0.16875118  1
  Ag  Ag35  1  0.66860263  0.32364583  0.33657175  1
  Ag  Ag36  1  0.32777490  0.66573836  0.66620502  1
  Ag  Ag37  1  0.66988831  0.16890143  0.50024797  1
  Ag  Ag38  1  0.83640346  0.50048012  0.00166368  1
  Ag  Ag39  1  0.32781561  0.49724025  0.82590955  1
  Ag  Ag40  1  0.66952164  0.16176459  0.17496965  1
  Ag  Ag41  1  0.16207114  0.84012183  0.66743502  1
  Ag  Ag42  1  0.49831121  0.83670808  0.00041481  1
  Ag  Ag43  1  0.83899714  0.66846580  0.49733919  1
  Ag  Ag44  1  0.66519907  0.32424037  0.66203639  1
  Ag  Ag45  1  0.67161619  0.84447160  0.83411486  1
  Ag  Ag46  1  0.32909847  0.66782541  -0.00799411  1
  Ag  Ag47  1  0.33202033  0.33005675  0.66231357  1
  Ag  Ag48  1  0.83286607  0.50424767  0.33469193  1
  Ag  Ag49  1  0.17046617  0.32575294  0.82335543  1
  Ag  Ag50  1  -0.00022451  0.82995263  0.50576445  1
  Ag  Ag51  1  0.83565939  0.83163589  0.33561781  1
  Ag  Ag52  1  0.16411216  0.16116711  0.66467096  1
  Ag  Ag53  1  0.32493646  0.00684495  0.66410194  1
  Sb  Sb54  1  0.50253211  0.50174769  -0.00119836  1
  Sb  Sb55  1  0.84015756  0.83899992  0.66236004  1
  Sb  Sb56  1  0.33386763  0.33728790  -0.00521308  1
  Sb  Sb57  1  0.50031467  0.16633415  0.67241084  1
  Sb  Sb58  1  0.32506578  0.83741865  0.50187630  1
  Sb  Sb59  1  0.33933489  0.83463491  0.16639857  1
  Sb  Sb60  1  0.50396467  0.49805335  0.33275797  1
  Sb  Sb61  1  0.66816776  0.66961129  0.00143654  1
  Sb  Sb62  1  0.83005073  0.16831005  -0.00076095  1
  Sb  Sb63  1  0.50353999  0.00168600  0.50059277  1
  Sb  Sb64  1  0.00219257  0.33019340  0.66676939  1
  Sb  Sb65  1  0.33609792  -0.00291952  -0.00258798  1
  Sb  Sb66  1  0.33402950  0.16855530  0.82638958  1
  Sb  Sb67  1  0.67470146  0.83688879  0.49945506  1
  Sb  Sb68  1  -0.00274821  0.33460820  0.33534522  1
  Sb  Sb69  1  -0.00116099  0.16266031  0.50324338  1
  Sb  Sb70  1  0.66605575  0.49536022  0.49928802  1
  Sb  Sb71  1  0.49738004  0.83570566  0.67325631  1
  Sb  Sb72  1  0.66587838  0.00070247  0.00465573  1
  Sb  Sb73  1  -0.00241041  -0.00286213  0.33805673  1
  Sb  Sb74  1  0.33817808  0.16553033  0.17389662  1
  Sb  Sb75  1  0.49909339  0.66885274  0.83641663  1
  Sb  Sb76  1  0.49689595  0.49872253  0.66834092  1
  Sb  Sb77  1  0.50122122  0.66755233  0.49721805  1
  Sb  Sb78  1  0.83564201  0.67100569  0.82779512  1
  Sb  Sb79  1  0.16246874  0.50018605  0.33682994  1
  Sb  Sb80  1  0.00045428  -0.00494388  -0.00749572  1
  Sb  Sb81  1  0.66851699  0.49733736  0.16898634  1
  Sb  Sb82  1  0.33204362  0.66739818  0.33776315  1
  Sb  Sb83  1  -0.00442726  0.49786134  0.16432594  1
  Sb  Sb84  1  0.66662610  0.33045863  0.00118572  1
  Sb  Sb85  1  0.16151201  0.00047868  0.50501466  1
  Sb  Sb86  1  0.83282313  0.32806159  0.83015296  1
  Sb  Sb87  1  0.66858226  0.49730932  0.83121510  1
  Sb  Sb88  1  0.33502162  0.49914789  0.16771254  1
  Sb  Sb89  1  -0.00575064  0.83735414  0.16705748  1
  Sb  Sb90  1  0.83527242  0.49670355  0.66440584  1
  Sb  Sb91  1  0.16983027  0.16170551  -0.00612299  1
  Sb  Sb92  1  0.16858709  0.67041376  0.17035437  1
  Sb  Sb93  1  0.49900505  0.33041762  0.50072230  1
  Sb  Sb94  1  -0.00055453  0.33525223  -0.00186471  1
  Sb  Sb95  1  0.16701036  0.32787682  0.17075499  1
  Sb  Sb96  1  0.32992859  0.83226665  0.83266930  1
  Sb  Sb97  1  0.49992027  0.16668078  0.32835260  1
  Sb  Sb98  1  0.16515169  -0.00043243  0.16670306  1
  Sb  Sb99  1  0.82975474  0.66947862  0.17361746  1
  Sb  Sb100  1  0.83412408  0.16469216  0.33733868  1
  Sb  Sb101  1  0.16400483  0.67050692  0.82469591  1
  Sb  Sb102  1  0.50441239  0.83498454  0.32745342  1
  Sb  Sb103  1  0.00119775  0.50623924  0.50530632  1
  Sb  Sb104  1  0.16672042  0.49871111  0.66661965  1
  Sb  Sb105  1  0.83389423  0.83076835  0.00200925  1
  Sb  Sb106  1  0.66971374  0.00192330  0.66666633  1
  Sb  Sb107  1  0.16355535  0.50683470  -0.00553338  1
  Te  Te108  1  0.16297822  0.16532168  0.16530090  1
  Te  Te109  1  0.16548544  0.16754447  0.50280608  1
  Te  Te110  1  0.16567177  0.16496910  0.82962782  1
  Te  Te111  1  0.16550547  0.49843251  0.16483897  1
  Te  Te112  1  0.17067772  0.49554714  0.49945347  1
  Te  Te113  1  0.16609766  0.49392951  0.83325419  1
  Te  Te114  1  0.16621912  0.83451226  0.16796865  1
  Te  Te115  1  0.16047291  0.83246931  0.50067942  1
  Te  Te116  1  0.16336970  0.83609457  0.83082854  1
  Te  Te117  1  0.50494267  0.16478347  0.16266513  1
  Te  Te118  1  0.50614825  0.16578392  0.50047970  1
  Te  Te119  1  0.50084989  0.16577797  0.83740700  1
  Te  Te120  1  0.50061308  0.49533500  0.16480677  1
  Te  Te121  1  0.48871365  0.50086770  0.49984333  1
  Te  Te122  1  0.49631031  0.49393249  0.83535867  1
  Te  Te123  1  0.50577613  0.83706708  0.16213687  1
  Te  Te124  1  0.50015166  0.83435929  0.50050319  1
  Te  Te125  1  0.50328923  0.83667527  0.83938033  1
  Te  Te126  1  0.83068765  0.16564196  0.16515453  1
  Te  Te127  1  0.83218008  0.16764944  0.50309132  1
  Te  Te128  1  0.83298521  0.16373114  0.83168934  1
  Te  Te129  1  0.83368452  0.49428785  0.17004746  1
  Te  Te130  1  0.83351820  0.49800455  0.49593474  1
  Te  Te131  1  0.83755953  0.49897527  0.83520939  1
  Te  Te132  1  0.82672862  0.83882629  0.17008610  1
  Te  Te133  1  0.83825468  0.83189562  0.49625433  1
  Te  Te134  1  0.83272767  0.83826082  0.83412466  1
  Te  Te135  1  0.16936180  -0.00727545  -0.00595577  1
  Te  Te136  1  0.16852157  -0.00015740  0.33416158  1
  Te  Te137  1  0.16672233  0.00078241  0.66690635  1
  Te  Te138  1  0.16764566  0.33259021  -0.00460650  1
  Te  Te139  1  0.16891339  0.33004816  0.33832299  1
  Te  Te140  1  0.16809403  0.32966197  0.66538532  1
  Te  Te141  1  0.16722306  0.67279040  0.00121675  1
  Te  Te142  1  0.16357533  0.67023937  0.33879155  1
  Te  Te143  1  0.16658517  0.66968513  0.66256284  1
  Te  Te144  1  0.49904962  -0.00129141  -0.00099215  1
  Te  Te145  1  0.50155465  -0.00010269  0.32999122  1
  Te  Te146  1  0.49110667  -0.00051035  0.67245963  1
  Te  Te147  1  0.49963570  0.33240466  0.00010715  1
  Te  Te148  1  0.50275099  0.33328428  0.32896972  1
  Te  Te149  1  0.50089353  0.33289307  0.67184617  1
  Te  Te150  1  0.49804246  0.66980995  0.00438851  1
  Te  Te151  1  0.50359158  0.66647649  0.32684686  1
  Te  Te152  1  0.49761455  0.66725814  0.66698909  1
  Te  Te153  1  0.83412680  -0.00046286  -0.00291130  1
  Te  Te154  1  0.83167400  -0.00178524  0.33430525  1
  Te  Te155  1  0.83499175  0.00439643  0.66734656  1
  Te  Te156  1  0.83354796  0.33869623  0.00476156  1
  Te  Te157  1  0.83068004  0.33137013  0.33559039  1
  Te  Te158  1  0.83034645  0.32885636  0.66200136  1
  Te  Te159  1  0.83757901  0.66297213  0.00086178  1
  Te  Te160  1  0.83338468  0.66890621  0.33479852  1
  Te  Te161  1  0.83367419  0.66594979  0.66074682  1
  Te  Te162  1  0.00108063  0.16662604  -0.00397875  1
  Te  Te163  1  0.00772098  0.16628464  0.33124447  1
  Te  Te164  1  0.00040447  0.16391125  0.67022616  1
  Te  Te165  1  -0.00328747  0.50574197  -0.00502474  1
  Te  Te166  1  -0.00589021  0.50666926  0.33285419  1
  Te  Te167  1  -0.00018450  0.50882364  0.67397214  1
  Te  Te168  1  0.00255383  0.82853534  -0.00138193  1
  Te  Te169  1  -0.00031436  0.83116297  0.33280843  1
  Te  Te170  1  0.00104360  0.83460226  0.66755753  1
  Te  Te171  1  0.33890100  0.16722596  0.00204196  1
  Te  Te172  1  0.33102504  0.16692964  0.33873410  1
  Te  Te173  1  0.33209981  0.16782850  0.66196403  1
  Te  Te174  1  0.33322886  0.50754899  -0.00347300  1
  Te  Te175  1  0.33242366  0.49554308  0.33688759  1
  Te  Te176  1  0.33249100  0.49933487  0.66689454  1
  Te  Te177  1  0.33251042  0.82820207  -0.00024837  1
  Te  Te178  1  0.32920941  0.83808852  0.33424507  1
  Te  Te179  1  0.32749760  0.83015692  0.66718459  1
  Te  Te180  1  0.66190659  0.16712988  -0.00684941  1
  Te  Te181  1  0.66735520  0.16573710  0.33385373  1
  Te  Te182  1  0.66833735  0.16676838  0.66696920  1
  Te  Te183  1  0.67528573  0.50113736  -0.00100564  1
  Te  Te184  1  0.67247416  0.50300670  0.33480979  1
  Te  Te185  1  0.66643714  0.50427428  0.66601132  1
  Te  Te186  1  0.66395360  0.83180448  -0.00370262  1
  Te  Te187  1  0.67000737  0.83451114  0.33293866  1
  Te  Te188  1  0.66566513  0.83011430  0.66972351  1
  Te  Te189  1  -0.00360235  0.00573795  0.16614192  1
  Te  Te190  1  -0.00774197  -0.00506735  0.50559120  1
  Te  Te191  1  -0.00046572  -0.00066221  0.83098693  1
  Te  Te192  1  -0.00331631  0.32644389  0.16680325  1
  Te  Te193  1  -0.00256695  0.33566672  0.50064057  1
  Te  Te194  1  0.00308957  0.33256991  0.83194790  1
  Te  Te195  1  -0.00069792  0.66741801  0.16474318  1
  Te  Te196  1  0.00008736  0.66761058  0.50123303  1
  Te  Te197  1  0.00077278  0.66986545  0.83219634  1
  Te  Te198  1  0.33666835  0.00053238  0.17223101  1
  Te  Te199  1  0.33566149  0.00484097  0.50018011  1
  Te  Te200  1  0.33219755  0.00038827  0.82940593  1
  Te  Te201  1  0.33702369  0.33362017  0.17035997  1
  Te  Te202  1  0.33510712  0.33022636  0.50135110  1
  Te  Te203  1  0.33320747  0.33530214  0.82984634  1
  Te  Te204  1  0.33939435  0.66585851  0.16633716  1
  Te  Te205  1  0.33219617  0.66735427  0.50425684  1
  Te  Te206  1  0.33235806  0.66255186  0.83065879  1
  Te  Te207  1  0.66712566  0.00128206  0.16846864  1
  Te  Te208  1  0.67134763  0.00454419  0.49632907  1
  Te  Te209  1  0.66629556  0.00104818  0.83049738  1
  Te  Te210  1  0.66648922  0.33064775  0.16868613  1
  Te  Te211  1  0.66628140  0.33054163  0.50060940  1
  Te  Te212  1  0.66429673  0.32946630  0.82893705  1
  Te  Te213  1  0.66327311  0.66796871  0.17027265  1
  Te  Te214  1  0.66903218  0.66602203  0.49964178  1
  Te  Te215  1  0.66677823  0.66722768  0.82796856  1
