# generated using pymatgen
data_AgSbTe2
_symmetry_space_group_name_H-M   'P 1'
_cell_length_a   18.32674400
_cell_length_b   18.31897127
_cell_length_c   18.31596074
_cell_angle_alpha   89.99902053
_cell_angle_beta   89.99799395
_cell_angle_gamma   90.00127403
_symmetry_Int_Tables_number   1
_chemical_formula_structural   AgSbTe2
_chemical_formula_sum   'Ag54 Sb54 Te108'
_cell_volume   6149.16431411
_cell_formula_units_Z   54
loop_
 _symmetry_equiv_pos_site_id
 _symmetry_equiv_pos_as_xyz
  1  'x, y, z'
loop_
 _atom_site_type_symbol
 _atom_site_label
 _atom_site_symmetry_multiplicity
 _atom_site_fract_x
 _atom_site_fract_y
 _atom_site_fract_z
 _atom_site_occupancy
  Ag  Ag0  1  -0.00380138  0.66311571  0.00145859  1
  Ag  Ag1  1  0.00104924  0.50140579  0.16898057  1
  Ag  Ag2  1  0.65838971  0.00556771  -0.00481234  1
  Ag  Ag3  1  0.50125220  0.65808704  0.49637514  1
  Ag  Ag4  1  0.50165029  0.83025723  0.33306897  1
  Ag  Ag5  1  0.00144610  0.83036685  0.83486645  1
  Ag  Ag6  1  0.16889266  0.66160970  0.49758602  1
  Ag  Ag7  1  0.49579399  -0.00167496  0.83726602  1
  Ag  Ag8  1  0.34197175  -0.00111666  -0.00770755  1
  Ag  Ag9  1  0.16691442  0.50139391  -0.00381782  1
  Ag  Ag10  1  -0.01068647  0.16282688  0.49680955  1
  Ag  Ag11  1  0.16654380  0.49712084  0.66318172  1
  Ag  Ag12  1  0.33414739  0.66237145  0.33769198  1
  Ag  Ag13  1  0.66605727  0.66859188  0.00335709  1
  Ag  Ag14  1  0.50008343  0.83990062  0.00015492  1
  Ag  Ag15  1  0.82862076  0.49285080  0.66008317  1
  Ag  Ag16  1  0.33550812  0.83977628  0.83636794  1
  Ag  Ag17  1  -0.00475318  0.66449083  0.33451461  1
  Ag  Ag18  1  0.34251291  0.49835098  0.49784288  1
  Ag  Ag19  1  0.16411723  0.49921618  0.34150911  1
  Ag  Ag20  1  -0.00324741  -0.00061584  0.33626546  1
  Ag  Ag21  1  0.66253222  0.33295514  0.34068587  1
  Ag  Ag22  1  0.83083076  0.66411848  0.49512520  1
  Ag  Ag23  1  0.49902681  0.50091647  -0.00376182  1
  Ag  Ag24  1  0.82951378  0.17179415  0.66151971  1
  Ag  Ag25  1  0.66147825  0.16840079  0.16502987  1
  Ag  Ag26  1  0.50496220  0.15836046  0.00080000  1
  Ag  Ag27  1  0.83419038  0.50170776  0.34152066  1
  Ag  Ag28  1  0.50218965  0.00705297  0.50204887  1
  Ag  Ag29  1  0.82882914  0.82522065  0.33688487  1
  Ag  Ag30  1  0.00280323  0.50288184  0.83547564  1
  Ag  Ag31  1  0.17539712  0.00166731  0.83027422  1
  Ag  Ag32  1  0.83108530  0.16820740  0.34359224  1
  Ag  Ag33  1  0.16907652  0.84067947  0.66927305  1
  Ag  Ag34  1  0.33236058  0.00090043  0.67036568  1
  Ag  Ag35  1  0.50054891  0.33209160  0.17602848  1
  Ag  Ag36  1  0.66678231  0.33185900  0.66039606  1
  Ag  Ag37  1  0.83258074  0.33114621  0.83084027  1
  Ag  Ag38  1  0.82681116  0.01221953  0.49819241  1
  Ag  Ag39  1  0.67000178  0.66275525  0.33688244  1
  Ag  Ag40  1  0.33670997  0.16992386  0.49548207  1
  Ag  Ag41  1  0.50019597  0.49814252  0.65839632  1
  Ag  Ag42  1  0.33989991  0.16424759  0.17312369  1
  Ag  Ag43  1  0.82257232  0.16496007  -0.00216785  1
  Ag  Ag44  1  0.66729851  0.17324309  0.49871974  1
  Ag  Ag45  1  0.66149179  0.84162943  0.83732058  1
  Ag  Ag46  1  0.66013365  0.49379300  0.49916190  1
  Ag  Ag47  1  0.66810420  0.16461095  0.83768833  1
  Ag  Ag48  1  0.16758644  0.17285513  0.34340833  1
  Ag  Ag49  1  0.16526976  0.33176243  0.82916677  1
  Ag  Ag50  1  0.50205479  0.33405398  0.49622716  1
  Ag  Ag51  1  0.33702804  0.83944103  0.16573312  1
  Ag  Ag52  1  0.16622002  0.16799536  0.66158704  1
  Ag  Ag53  1  0.33910631  0.33462228  0.33660766  1
  Sb  Sb54  1  0.83188188  0.00245356  0.17320401  1
  Sb  Sb55  1  0.66491065  0.33037503  -0.00060591  1
  Sb  Sb56  1  0.33237769  0.00229329  0.33571031  1
  Sb  Sb57  1  0.49976278  0.00463990  0.16524754  1
  Sb  Sb58  1  -0.00168173  0.49691648  0.50041474  1
  Sb  Sb59  1  0.50057627  0.50135231  0.33782350  1
  Sb  Sb60  1  -0.00024494  0.83589761  0.50091494  1
  Sb  Sb61  1  0.33256990  0.49819290  0.17343008  1
  Sb  Sb62  1  -0.00162389  0.17191250  0.17378429  1
  Sb  Sb63  1  0.16836153  0.83126635  0.33917052  1
  Sb  Sb64  1  0.66588503  0.83275514  0.50172287  1
  Sb  Sb65  1  0.66848155  0.00220889  0.33367140  1
  Sb  Sb66  1  0.50110616  0.16899279  0.66550696  1
  Sb  Sb67  1  0.50046381  0.66278863  0.17147953  1
  Sb  Sb68  1  0.17192240  0.82884048  -0.00715876  1
  Sb  Sb69  1  0.83125560  0.00450089  0.82782761  1
  Sb  Sb70  1  0.82457317  0.33294088  0.50288290  1
  Sb  Sb71  1  0.82722647  0.33188687  0.16599439  1
  Sb  Sb72  1  0.16974773  0.00252989  0.50390992  1
  Sb  Sb73  1  0.33694323  0.16168069  0.83156116  1
  Sb  Sb74  1  0.33518408  0.66971711  0.00516988  1
  Sb  Sb75  1  0.49733925  0.83213994  0.66711976  1
  Sb  Sb76  1  0.66870870  0.49717592  0.82921011  1
  Sb  Sb77  1  0.50143417  0.16662262  0.33244707  1
  Sb  Sb78  1  0.66114577  0.83748475  0.16512273  1
  Sb  Sb79  1  0.17340961  0.33533821  0.50283534  1
  Sb  Sb80  1  0.32948315  0.50371136  0.82879283  1
  Sb  Sb81  1  0.82694972  0.83639620  0.00219306  1
  Sb  Sb82  1  0.00066732  0.66537710  0.66252567  1
  Sb  Sb83  1  0.16710046  0.66457434  0.17265276  1
  Sb  Sb84  1  0.16946656  0.16968437  -0.00305453  1
  Sb  Sb85  1  0.16910299  0.00151803  0.16420989  1
  Sb  Sb86  1  0.00020458  0.33815259  -0.00151108  1
  Sb  Sb87  1  0.83319056  0.49770692  -0.00115439  1
  Sb  Sb88  1  0.00399806  0.00155416  0.66283127  1
  Sb  Sb89  1  0.83301535  0.66356432  0.82865967  1
  Sb  Sb90  1  0.33597307  0.33026106  0.66141268  1
  Sb  Sb91  1  -0.00523083  0.33391343  0.66590393  1
  Sb  Sb92  1  0.83573135  0.83464483  0.66289701  1
  Sb  Sb93  1  0.33535025  0.83281061  0.49959274  1
  Sb  Sb94  1  0.33250226  0.66842471  0.66020520  1
  Sb  Sb95  1  -0.00087914  -0.00392813  0.00031953  1
  Sb  Sb96  1  0.66755890  0.49535555  0.17280840  1
  Sb  Sb97  1  -0.00199630  0.33634699  0.33521353  1
  Sb  Sb98  1  0.33571368  0.32982405  0.00428243  1
  Sb  Sb99  1  0.83283920  0.66511852  0.17429898  1
  Sb  Sb100  1  0.66181222  0.00640223  0.66911535  1
  Sb  Sb101  1  0.17238829  0.33370012  0.16741004  1
  Sb  Sb102  1  0.50131077  0.67062967  0.83208317  1
  Sb  Sb103  1  0.66601102  0.66126676  0.66181440  1
  Sb  Sb104  1  0.00421709  0.82844014  0.16589160  1
  Sb  Sb105  1  0.16485162  0.66707725  0.82768852  1
  Sb  Sb106  1  0.50074614  0.32955361  0.83091468  1
  Sb  Sb107  1  -0.00349962  0.16698288  0.82937943  1
  Te  Te108  1  0.17078195  0.16805904  0.16993063  1
  Te  Te109  1  0.17478681  0.16658900  0.50100066  1
  Te  Te110  1  0.16519331  0.16675646  0.82950919  1
  Te  Te111  1  0.16398433  0.49849513  0.16578026  1
  Te  Te112  1  0.16413511  0.50078994  0.49969364  1
  Te  Te113  1  0.16505969  0.49979902  0.83091265  1
  Te  Te114  1  0.17492747  0.83343599  0.16573749  1
  Te  Te115  1  0.16695448  0.82894504  0.50840295  1
  Te  Te116  1  0.16701620  0.83454742  0.82867827  1
  Te  Te117  1  0.50008525  0.16972169  0.16542380  1
  Te  Te118  1  0.50017228  0.16657748  0.49994622  1
  Te  Te119  1  0.50474121  0.16208875  0.83552467  1
  Te  Te120  1  0.50001085  0.49367317  0.15817316  1
  Te  Te121  1  0.50053370  0.49940871  0.49911266  1
  Te  Te122  1  0.49896776  0.49978907  0.83493985  1
  Te  Te123  1  0.49607690  0.83242866  0.16665637  1
  Te  Te124  1  0.50042270  0.83472802  0.49811541  1
  Te  Te125  1  0.50088956  0.83710897  0.83424687  1
  Te  Te126  1  0.82971358  0.16769430  0.16417081  1
  Te  Te127  1  0.82986221  0.16931671  0.50077054  1
  Te  Te128  1  0.83080121  0.16913687  0.83030235  1
  Te  Te129  1  0.83839769  0.49803743  0.17034865  1
  Te  Te130  1  0.83358389  0.50027190  0.50019325  1
  Te  Te131  1  0.83725329  0.49572890  0.82983108  1
  Te  Te132  1  0.83385107  0.83446387  0.17560873  1
  Te  Te133  1  0.83318587  0.82973065  0.49570902  1
  Te  Te134  1  0.83468248  0.83342871  0.83233826  1
  Te  Te135  1  0.16804814  -0.00037873  -0.00730248  1
  Te  Te136  1  0.16162743  0.00216769  0.33409320  1
  Te  Te137  1  0.16985223  0.00277872  0.66970483  1
  Te  Te138  1  0.16784703  0.33982028  -0.00552598  1
  Te  Te139  1  0.17029915  0.33295275  0.33345147  1
  Te  Te140  1  0.16862650  0.33306202  0.66955621  1
  Te  Te141  1  0.16414467  0.66105381  0.00039095  1
  Te  Te142  1  0.16660774  0.66517598  0.33810690  1
  Te  Te143  1  0.16651800  0.65839905  0.65915409  1
  Te  Te144  1  0.49996976  -0.00001936  0.00044856  1
  Te  Te145  1  0.49982612  -0.00790687  0.33784718  1
  Te  Te146  1  0.49468400  -0.00068478  0.66541761  1
  Te  Te147  1  0.49974688  0.33569273  -0.00108676  1
  Te  Te148  1  0.50045629  0.33358193  0.33499775  1
  Te  Te149  1  0.50391837  0.33860030  0.66360082  1
  Te  Te150  1  0.50275503  0.66627166  0.00048301  1
  Te  Te151  1  0.50164475  0.66787510  0.33615066  1
  Te  Te152  1  0.50001450  0.65970118  0.65997193  1
  Te  Te153  1  0.83107354  0.00457587  -0.00040464  1
  Te  Te154  1  0.83509714  0.00615458  0.33861932  1
  Te  Te155  1  0.83324416  0.00402246  0.65914539  1
  Te  Te156  1  0.83294832  0.32719587  -0.00576110  1
  Te  Te157  1  0.82902326  0.33347694  0.33148194  1
  Te  Te158  1  0.82973997  0.33295829  0.67039615  1
  Te  Te159  1  0.83202365  0.66718167  -0.00005173  1
  Te  Te160  1  0.83217590  0.66404880  0.33605869  1
  Te  Te161  1  0.83291718  0.66230538  0.65841544  1
  Te  Te162  1  -0.00148945  0.16513069  0.00285919  1
  Te  Te163  1  -0.00052163  0.16693546  0.33575019  1
  Te  Te164  1  0.00218997  0.16687658  0.66090408  1
  Te  Te165  1  0.00014004  0.50416851  -0.00317953  1
  Te  Te166  1  0.00197084  0.50263857  0.33461537  1
  Te  Te167  1  0.00311336  0.49986069  0.67097122  1
  Te  Te168  1  -0.00124093  0.82676718  -0.00265822  1
  Te  Te169  1  -0.00257293  0.83060010  0.33182531  1
  Te  Te170  1  0.00475441  0.83323005  0.67376327  1
  Te  Te171  1  0.33602054  0.16201470  0.00291177  1
  Te  Te172  1  0.33282093  0.16718028  0.33391037  1
  Te  Te173  1  0.33084792  0.16363665  0.66325286  1
  Te  Te174  1  0.33253884  0.50078066  0.00058285  1
  Te  Te175  1  0.33051974  0.50007873  0.33689192  1
  Te  Te176  1  0.33264146  0.50011625  0.66091635  1
  Te  Te177  1  0.33807557  0.83597928  -0.00061000  1
  Te  Te178  1  0.33549294  0.83160813  0.33072371  1
  Te  Te179  1  0.32987408  0.83675120  0.67091280  1
  Te  Te180  1  0.66491346  0.16848231  -0.00152199  1
  Te  Te181  1  0.66827182  0.16700499  0.33680637  1
  Te  Te182  1  0.66790981  0.17021125  0.66232783  1
  Te  Te183  1  0.66410107  0.50278435  0.00075980  1
  Te  Te184  1  0.66854213  0.50107766  0.33672119  1
  Te  Te185  1  0.66838575  0.49588955  0.66267530  1
  Te  Te186  1  0.66275394  0.83279368  -0.00144606  1
  Te  Te187  1  0.66681573  0.83121129  0.33251716  1
  Te  Te188  1  0.66772037  0.83293291  0.67633458  1
  Te  Te189  1  0.00083820  -0.00134972  0.17399803  1
  Te  Te190  1  -0.00228870  0.00339199  0.49536432  1
  Te  Te191  1  0.00306945  -0.00412291  0.83410984  1
  Te  Te192  1  0.00053894  0.34189418  0.16639986  1
  Te  Te193  1  0.00348828  0.32193570  0.49937946  1
  Te  Te194  1  0.00175885  0.33641482  0.83256386  1
  Te  Te195  1  0.00036902  0.66149409  0.16748759  1
  Te  Te196  1  -0.00202040  0.66665265  0.49479765  1
  Te  Te197  1  -0.00080379  0.66605502  0.83613870  1
  Te  Te198  1  0.33305265  0.00206670  0.16315793  1
  Te  Te199  1  0.33748430  0.00318140  0.50307157  1
  Te  Te200  1  0.33488730  -0.00039696  0.83270123  1
  Te  Te201  1  0.33909509  0.32875888  0.17291869  1
  Te  Te202  1  0.33970164  0.33429046  0.49608230  1
  Te  Te203  1  0.32801423  0.33383664  0.83290477  1
  Te  Te204  1  0.33389307  0.66993492  0.17521899  1
  Te  Te205  1  0.33507260  0.66451249  0.49576550  1
  Te  Te206  1  0.33319347  0.67581498  0.83473412  1
  Te  Te207  1  0.66669214  0.00745413  0.15808465  1
  Te  Te208  1  0.66424430  0.00220455  0.50128848  1
  Te  Te209  1  0.66510843  0.00208311  0.83548883  1
  Te  Te210  1  0.66093820  0.32798279  0.17260536  1
  Te  Te211  1  0.66304310  0.33435193  0.49939207  1
  Te  Te212  1  0.66858717  0.32927317  0.82874589  1
  Te  Te213  1  0.66632391  0.66740109  0.16590607  1
  Te  Te214  1  0.66573197  0.66638442  0.49667507  1
  Te  Te215  1  0.66706532  0.66886739  0.83863992  1
