# generated using pymatgen
data_AgSbTe2
_symmetry_space_group_name_H-M   'P 1'
_cell_length_a   18.32909684
_cell_length_b   18.32784002
_cell_length_c   18.32754522
_cell_angle_alpha   89.99767999
_cell_angle_beta   89.99966373
_cell_angle_gamma   89.99799662
_symmetry_Int_Tables_number   1
_chemical_formula_structural   AgSbTe2
_chemical_formula_sum   'Ag54 Sb54 Te108'
_cell_volume   6156.82274173
_cell_formula_units_Z   54
loop_
 _symmetry_equiv_pos_site_id
 _symmetry_equiv_pos_as_xyz
  1  'x, y, z'
loop_
 _atom_site_type_symbol
 _atom_site_label
 _atom_site_symmetry_multiplicity
 _atom_site_fract_x
 _atom_site_fract_y
 _atom_site_fract_z
 _atom_site_occupancy
  Ag  Ag0  1  0.33253677  0.48921633  0.83076827  1
  Ag  Ag1  1  0.16993785  0.67441249  0.82492975  1
  Ag  Ag2  1  0.49419831  0.00974900  0.82462295  1
  Ag  Ag3  1  0.17671112  0.67913482  0.50303162  1
  Ag  Ag4  1  0.82213010  0.16425403  0.32485942  1
  Ag  Ag5  1  0.16772043  0.83038029  0.34556332  1
  Ag  Ag6  1  0.49657342  0.32187932  0.83012276  1
  Ag  Ag7  1  0.49347208  0.84152280  0.66198381  1
  Ag  Ag8  1  0.49582706  0.16001150  0.67630651  1
  Ag  Ag9  1  0.33993866  0.32349552  0.67179299  1
  Ag  Ag10  1  0.17913004  0.15461305  0.67443529  1
  Ag  Ag11  1  0.00234866  0.83623430  0.82882456  1
  Ag  Ag12  1  0.66062628  0.66306097  0.34254114  1
  Ag  Ag13  1  0.83058712  -0.00433592  0.49841295  1
  Ag  Ag14  1  -0.00644804  0.83736910  0.16608984  1
  Ag  Ag15  1  0.16426430  0.49290492  -0.00057199  1
  Ag  Ag16  1  0.66266305  0.83014478  0.50031351  1
  Ag  Ag17  1  0.66386408  0.16448033  0.16281937  1
  Ag  Ag18  1  0.32989194  0.32652848  -0.00864486  1
  Ag  Ag19  1  0.83147709  0.83408831  0.66306017  1
  Ag  Ag20  1  0.66542954  0.50836005  0.49510982  1
  Ag  Ag21  1  0.65475598  0.16459298  0.83981485  1
  Ag  Ag22  1  0.65982338  0.33536977  0.66291002  1
  Ag  Ag23  1  0.33625692  0.67036500  0.34210026  1
  Ag  Ag24  1  0.66739852  0.49807907  0.17516105  1
  Ag  Ag25  1  0.50312604  0.16757707  0.33352886  1
  Ag  Ag26  1  0.82982622  -0.00021526  0.16378431  1
  Ag  Ag27  1  0.00343453  0.32622129  0.00157519  1
  Ag  Ag28  1  0.33405291  -0.00120167  0.66383715  1
  Ag  Ag29  1  0.33564328  0.67623655  0.66107956  1
  Ag  Ag30  1  0.67052045  0.84055801  0.17258612  1
  Ag  Ag31  1  0.33362256  -0.00083904  0.34498816  1
  Ag  Ag32  1  0.33012305  0.83379643  0.50360281  1
  Ag  Ag33  1  0.66051430  0.66787937  0.66053537  1
  Ag  Ag34  1  0.66538531  0.33479142  0.33696826  1
  Ag  Ag35  1  0.17289864  -0.00095808  0.82693901  1
  Ag  Ag36  1  0.17574727  -0.00896295  0.50658699  1
  Ag  Ag37  1  -0.00283046  0.33262304  0.33036086  1
  Ag  Ag38  1  0.34185255  0.16543319  0.15856622  1
  Ag  Ag39  1  0.49934330  0.16607138  -0.01200072  1
  Ag  Ag40  1  0.83538863  0.84370979  -0.00039306  1
  Ag  Ag41  1  -0.00703673  0.00263356  -0.00056800  1
  Ag  Ag42  1  0.34025700  0.16927780  0.83329905  1
  Ag  Ag43  1  0.83392441  0.49650487  -0.00171902  1
  Ag  Ag44  1  0.50337116  0.49754317  0.33633269  1
  Ag  Ag45  1  0.17478890  0.16910189  -0.00577345  1
  Ag  Ag46  1  0.17392118  0.50700394  0.33454818  1
  Ag  Ag47  1  0.82694266  0.50613422  0.66793887  1
  Ag  Ag48  1  0.67326433  0.00519657  0.00153884  1
  Ag  Ag49  1  0.17457649  0.83745685  0.65887716  1
  Ag  Ag50  1  0.49817088  0.67614032  0.50087877  1
  Ag  Ag51  1  0.01500060  0.83564451  0.50168884  1
  Ag  Ag52  1  0.82795257  0.15980644  0.00288443  1
  Ag  Ag53  1  0.49650845  -0.00503963  0.50488781  1
  Sb  Sb54  1  0.33573948  0.83914581  0.17496609  1
  Sb  Sb55  1  0.66642042  0.67004580  0.00013082  1
  Sb  Sb56  1  0.50252019  0.49913950  0.66182777  1
  Sb  Sb57  1  -0.00308072  0.16246817  0.16411239  1
  Sb  Sb58  1  0.66290413  0.00110583  0.33156493  1
  Sb  Sb59  1  0.65903073  -0.00179364  0.66854409  1
  Sb  Sb60  1  0.17099810  0.16387682  0.33285378  1
  Sb  Sb61  1  0.00266471  0.00149345  0.33127014  1
  Sb  Sb62  1  0.82758784  0.16200202  0.66871963  1
  Sb  Sb63  1  0.00043711  0.67025452  -0.00106079  1
  Sb  Sb64  1  0.16813755  0.33220991  0.50054281  1
  Sb  Sb65  1  0.32881732  0.83808776  0.82602065  1
  Sb  Sb66  1  0.83082655  0.67334705  0.16675028  1
  Sb  Sb67  1  0.16135216  0.83643759  -0.00457837  1
  Sb  Sb68  1  0.50516323  0.84310664  -0.00758751  1
  Sb  Sb69  1  0.83110695  0.32681161  0.16590046  1
  Sb  Sb70  1  0.66429607  0.16295273  0.49947660  1
  Sb  Sb71  1  0.33835437  0.50828910  0.50341159  1
  Sb  Sb72  1  0.16465612  -0.00000097  0.16516331  1
  Sb  Sb73  1  0.00713820  -0.00360639  0.67023985  1
  Sb  Sb74  1  0.33515468  0.15797289  0.50628955  1
  Sb  Sb75  1  0.83251093  -0.00107622  0.83471524  1
  Sb  Sb76  1  0.50104093  0.33032629  0.50442253  1
  Sb  Sb77  1  0.00043379  0.15961350  0.49907924  1
  Sb  Sb78  1  -0.00460812  0.50305808  0.16626001  1
  Sb  Sb79  1  0.66610723  0.32565981  0.00036305  1
  Sb  Sb80  1  0.00285013  0.67125538  0.66558160  1
  Sb  Sb81  1  0.16789894  0.66815201  0.16950692  1
  Sb  Sb82  1  0.00622523  0.50324491  0.83549012  1
  Sb  Sb83  1  0.50179278  0.66740415  0.17640220  1
  Sb  Sb84  1  0.82722412  0.33248466  0.83492409  1
  Sb  Sb85  1  0.00122654  0.66622475  0.33606979  1
  Sb  Sb86  1  0.16844377  0.50386996  0.66674051  1
  Sb  Sb87  1  0.17417199  0.32888575  0.83457617  1
  Sb  Sb88  1  0.33241866  0.00646735  -0.00380316  1
  Sb  Sb89  1  -0.00395945  0.50563877  0.49847432  1
  Sb  Sb90  1  0.83038101  0.32921127  0.49913016  1
  Sb  Sb91  1  0.33652731  0.33153393  0.33546894  1
  Sb  Sb92  1  0.83480641  0.83896251  0.33499390  1
  Sb  Sb93  1  0.66177456  0.49552528  0.83202434  1
  Sb  Sb94  1  0.33164272  0.66130481  -0.00482654  1
  Sb  Sb95  1  0.50380954  0.00256448  0.16761479  1
  Sb  Sb96  1  0.50154773  0.32872828  0.16447290  1
  Sb  Sb97  1  0.16685611  0.33229728  0.16480827  1
  Sb  Sb98  1  0.82679629  0.49483570  0.33308152  1
  Sb  Sb99  1  0.33638226  0.49545914  0.16561950  1
  Sb  Sb100  1  0.83537635  0.66793200  0.83100843  1
  Sb  Sb101  1  0.67004994  0.83831261  0.82891855  1
  Sb  Sb102  1  0.00024684  0.33304715  0.66986480  1
  Sb  Sb103  1  0.49836424  0.83483599  0.34305205  1
  Sb  Sb104  1  0.00360556  0.16147500  0.83766037  1
  Sb  Sb105  1  0.50064479  0.49245957  0.00279194  1
  Sb  Sb106  1  0.49507430  0.66884663  0.82381897  1
  Sb  Sb107  1  0.82754283  0.67407783  0.50144813  1
  Te  Te108  1  0.17010196  0.16582364  0.16103172  1
  Te  Te109  1  0.16582344  0.16197210  0.50404616  1
  Te  Te110  1  0.16861582  0.16265246  0.83347766  1
  Te  Te111  1  0.16611552  0.50082545  0.16587644  1
  Te  Te112  1  0.16469812  0.50186567  0.49541332  1
  Te  Te113  1  0.17122787  0.50404321  0.83591983  1
  Te  Te114  1  0.16521630  0.83393464  0.16708719  1
  Te  Te115  1  0.17058799  0.83494763  0.50126145  1
  Te  Te116  1  0.16280455  0.83533179  0.83165014  1
  Te  Te117  1  0.50258563  0.16609235  0.17323361  1
  Te  Te118  1  0.50028751  0.16175426  0.49432366  1
  Te  Te119  1  0.50000037  0.16634215  0.83213712  1
  Te  Te120  1  0.50588863  0.49926919  0.17244938  1
  Te  Te121  1  0.50557493  0.50067166  0.49495691  1
  Te  Te122  1  0.49331488  0.50027372  0.83476383  1
  Te  Te123  1  0.50817635  0.83435771  0.16237375  1
  Te  Te124  1  0.50191803  0.83444256  0.50293995  1
  Te  Te125  1  0.50051521  0.83770155  0.82460187  1
  Te  Te126  1  0.83092618  0.16122401  0.16505783  1
  Te  Te127  1  0.83336171  0.15833138  0.49870533  1
  Te  Te128  1  0.83145604  0.16643605  0.83859866  1
  Te  Te129  1  0.82832675  0.50101038  0.16325244  1
  Te  Te130  1  0.82793965  0.50078904  0.50339167  1
  Te  Te131  1  0.83428820  0.50059094  0.83408181  1
  Te  Te132  1  0.83144786  0.83836323  0.16604677  1
  Te  Te133  1  0.82442621  0.83685261  0.50136452  1
  Te  Te134  1  0.83862015  0.83249124  0.83446264  1
  Te  Te135  1  0.16420169  0.00452301  -0.00295860  1
  Te  Te136  1  0.17081857  -0.00315409  0.33617390  1
  Te  Te137  1  0.16788524  -0.00223429  0.66628536  1
  Te  Te138  1  0.16649972  0.33210421  -0.00052820  1
  Te  Te139  1  0.16523112  0.33699824  0.33361549  1
  Te  Te140  1  0.16896976  0.33187972  0.66667035  1
  Te  Te141  1  0.16766806  0.66145768  -0.00319938  1
  Te  Te142  1  0.16768476  0.66712992  0.33563094  1
  Te  Te143  1  0.16947108  0.66899606  0.66485078  1
  Te  Te144  1  0.50317945  0.00636909  -0.00314308  1
  Te  Te145  1  0.49502436  0.00234013  0.33684735  1
  Te  Te146  1  0.49807142  0.00082329  0.66521593  1
  Te  Te147  1  0.49631895  0.32732725  -0.00550363  1
  Te  Te148  1  0.50372545  0.33340033  0.33470303  1
  Te  Te149  1  0.50011920  0.33273046  0.66896803  1
  Te  Te150  1  0.49914666  0.66709848  -0.00073446  1
  Te  Te151  1  0.50033010  0.66668738  0.34010079  1
  Te  Te152  1  0.49884852  0.66687499  0.66089012  1
  Te  Te153  1  0.83285462  0.00004507  -0.00240963  1
  Te  Te154  1  0.83407088  0.00554333  0.33310414  1
  Te  Te155  1  0.83406190  -0.00397122  0.66319504  1
  Te  Te156  1  0.83684284  0.33569824  0.00028550  1
  Te  Te157  1  0.83135133  0.32633053  0.33291702  1
  Te  Te158  1  0.83000159  0.33255228  0.66687253  1
  Te  Te159  1  0.83268571  0.66197580  -0.00110699  1
  Te  Te160  1  0.82680071  0.66484311  0.33386793  1
  Te  Te161  1  0.82902926  0.66821206  0.66709535  1
  Te  Te162  1  -0.00259427  0.16628688  0.00113317  1
  Te  Te163  1  0.00121582  0.17316779  0.33195485  1
  Te  Te164  1  0.00258210  0.16823175  0.66808995  1
  Te  Te165  1  0.00114507  0.49808385  0.00121441  1
  Te  Te166  1  0.00228036  0.49437182  0.33230768  1
  Te  Te167  1  -0.01077474  0.49960293  0.66692712  1
  Te  Te168  1  -0.00385053  0.83604726  0.00132924  1
  Te  Te169  1  0.00369844  0.83359079  0.33534972  1
  Te  Te170  1  -0.00476682  0.83316837  0.66531383  1
  Te  Te171  1  0.33437245  0.16700019  -0.00153228  1
  Te  Te172  1  0.33644054  0.16544576  0.33090068  1
  Te  Te173  1  0.33530817  0.16417366  0.66861857  1
  Te  Te174  1  0.33047659  0.49369604  -0.00205831  1
  Te  Te175  1  0.33445137  0.50090695  0.33245803  1
  Te  Te176  1  0.33312999  0.49906209  0.67074114  1
  Te  Te177  1  0.33449216  0.83178782  0.00412517  1
  Te  Te178  1  0.33055770  0.83354188  0.33717258  1
  Te  Te179  1  0.33325074  0.83539812  0.66476874  1
  Te  Te180  1  0.66668189  0.16656229  0.00153566  1
  Te  Te181  1  0.66584240  0.16746485  0.33270105  1
  Te  Te182  1  0.66240222  0.17076137  0.66772278  1
  Te  Te183  1  0.66978895  0.49921909  0.00214003  1
  Te  Te184  1  0.66565495  0.49893057  0.33444459  1
  Te  Te185  1  0.66839633  0.49823252  0.66730372  1
  Te  Te186  1  0.67263540  0.83722878  0.00081903  1
  Te  Te187  1  0.66671533  0.83073055  0.33271880  1
  Te  Te188  1  0.66947766  0.83178876  0.66493359  1
  Te  Te189  1  -0.00472378  -0.00436779  0.16249601  1
  Te  Te190  1  -0.00349638  -0.00580800  0.49960100  1
  Te  Te191  1  0.00408602  -0.00451791  0.83901744  1
  Te  Te192  1  -0.00085861  0.33459108  0.16559623  1
  Te  Te193  1  -0.00087903  0.33415302  0.49564854  1
  Te  Te194  1  -0.00007306  0.33461522  0.83941940  1
  Te  Te195  1  -0.00065909  0.67665376  0.16757999  1
  Te  Te196  1  0.00630116  0.67391796  0.49917792  1
  Te  Te197  1  0.00816304  0.67351660  0.83276808  1
  Te  Te198  1  0.33349997  0.00585607  0.16994957  1
  Te  Te199  1  0.33434583  -0.00313333  0.50243572  1
  Te  Te200  1  0.33350299  0.00344601  0.83072651  1
  Te  Te201  1  0.33418398  0.32676883  0.16289141  1
  Te  Te202  1  0.33359789  0.33616676  0.50766851  1
  Te  Te203  1  0.33515039  0.33065567  0.83174735  1
  Te  Te204  1  0.33433396  0.66685849  0.17442347  1
  Te  Te205  1  0.33502121  0.66895388  0.50007473  1
  Te  Te206  1  0.32855608  0.66765873  0.82791667  1
  Te  Te207  1  0.66957169  0.00141759  0.16506973  1
  Te  Te208  1  0.66580918  -0.00493175  0.49995706  1
  Te  Te209  1  0.66293773  0.00458293  0.83759357  1
  Te  Te210  1  0.66640758  0.33184655  0.17152736  1
  Te  Te211  1  0.66681508  0.33676456  0.50004510  1
  Te  Te212  1  0.66008640  0.32851281  0.82942448  1
  Te  Te213  1  0.66637790  0.66536187  0.16847913  1
  Te  Te214  1  0.66644666  0.66723110  0.50126741  1
  Te  Te215  1  0.66450953  0.66577369  0.82612439  1
