# generated using pymatgen
data_AgSbTe2
_symmetry_space_group_name_H-M   'P 1'
_cell_length_a   18.32014349
_cell_length_b   18.32079830
_cell_length_c   18.32475513
_cell_angle_alpha   90.00136997
_cell_angle_beta   89.99947040
_cell_angle_gamma   90.00082942
_symmetry_Int_Tables_number   1
_chemical_formula_structural   AgSbTe2
_chemical_formula_sum   'Ag54 Sb54 Te108'
_cell_volume   6150.51446602
_cell_formula_units_Z   54
loop_
 _symmetry_equiv_pos_site_id
 _symmetry_equiv_pos_as_xyz
  1  'x, y, z'
loop_
 _atom_site_type_symbol
 _atom_site_label
 _atom_site_symmetry_multiplicity
 _atom_site_fract_x
 _atom_site_fract_y
 _atom_site_fract_z
 _atom_site_occupancy
  Ag  Ag0  1  0.66164558  0.16809126  0.16880837  1
  Ag  Ag1  1  0.83911283  0.83267862  0.00745423  1
  Ag  Ag2  1  0.15693291  0.16750301  0.66654642  1
  Ag  Ag3  1  0.15897310  0.83711565  0.66566968  1
  Ag  Ag4  1  0.49712876  0.33288111  0.17207913  1
  Ag  Ag5  1  0.16480221  0.33375355  0.49533021  1
  Ag  Ag6  1  0.67201631  0.00190224  0.66558285  1
  Ag  Ag7  1  0.67160306  0.66586037  0.66362378  1
  Ag  Ag8  1  0.17203511  0.33342377  0.17562185  1
  Ag  Ag9  1  0.00403806  0.00232218  0.34195091  1
  Ag  Ag10  1  0.50174324  0.16664220  0.66480259  1
  Ag  Ag11  1  0.83241235  0.50099718  0.66250530  1
  Ag  Ag12  1  0.83706050  -0.00061782  0.83024614  1
  Ag  Ag13  1  0.65912465  0.33805066  0.33240719  1
  Ag  Ag14  1  0.67422227  0.83379645  0.49713521  1
  Ag  Ag15  1  0.33038625  0.49690905  0.49068539  1
  Ag  Ag16  1  0.33626409  0.49361160  0.83409819  1
  Ag  Ag17  1  0.16772864  0.00381750  0.17731102  1
  Ag  Ag18  1  0.66893613  0.66091242  0.33681288  1
  Ag  Ag19  1  0.15882254  0.83420995  -0.00256654  1
  Ag  Ag20  1  0.00152931  0.83812783  0.82334849  1
  Ag  Ag21  1  0.16421319  0.66781624  0.50398023  1
  Ag  Ag22  1  0.16344825  0.00086855  0.49694657  1
  Ag  Ag23  1  0.16906391  0.49349586  0.33328564  1
  Ag  Ag24  1  0.32768741  0.00688233  0.33370793  1
  Ag  Ag25  1  0.00433298  0.32801916  0.66145079  1
  Ag  Ag26  1  0.33578860  0.33654195  0.00880333  1
  Ag  Ag27  1  0.33087632  0.49393485  0.17344294  1
  Ag  Ag28  1  0.83308608  0.66910768  0.17118589  1
  Ag  Ag29  1  0.49828712  0.00972308  0.17545150  1
  Ag  Ag30  1  0.00391647  0.50116647  0.17264030  1
  Ag  Ag31  1  0.66882178  0.33061825  0.66806613  1
  Ag  Ag32  1  0.33077056  0.33504030  0.32907806  1
  Ag  Ag33  1  0.00938507  0.33405613  0.33782397  1
  Ag  Ag34  1  0.83171008  0.50221270  0.33459988  1
  Ag  Ag35  1  0.00586264  0.15934324  0.50600643  1
  Ag  Ag36  1  0.00044262  0.67206475  0.66540240  1
  Ag  Ag37  1  0.49668807  0.49016677  0.32863322  1
  Ag  Ag38  1  0.00026911  0.83892594  0.50392677  1
  Ag  Ag39  1  0.16919098  0.33388177  0.83042852  1
  Ag  Ag40  1  0.49589141  0.00174856  0.49337555  1
  Ag  Ag41  1  0.67562247  0.83596736  0.17275707  1
  Ag  Ag42  1  0.66568671  0.17477742  0.82868573  1
  Ag  Ag43  1  0.83397655  0.82975494  0.32855138  1
  Ag  Ag44  1  0.66058862  0.33415261  0.00236443  1
  Ag  Ag45  1  0.49820052  0.49627952  0.00522240  1
  Ag  Ag46  1  0.32903515  0.17396669  0.82928934  1
  Ag  Ag47  1  -0.00415175  0.83204219  0.17013512  1
  Ag  Ag48  1  0.50091992  0.17148433  0.33414264  1
  Ag  Ag49  1  0.49934841  0.66148791  0.83028526  1
  Ag  Ag50  1  0.16733571  0.66280113  0.82504508  1
  Ag  Ag51  1  0.00506791  0.16364841  0.82371787  1
  Ag  Ag52  1  0.00070595  0.00145885  0.66131547  1
  Ag  Ag53  1  0.66209980  0.49407592  0.82867277  1
  Sb  Sb54  1  0.33029930  0.66466505  0.66714601  1
  Sb  Sb55  1  0.49566984  0.32940317  0.49440576  1
  Sb  Sb56  1  0.32997888  0.83205017  0.16795993  1
  Sb  Sb57  1  0.66722387  0.66313286  -0.00081049  1
  Sb  Sb58  1  0.66810741  -0.00042460  0.33696146  1
  Sb  Sb59  1  0.33243221  0.65928645  -0.00123076  1
  Sb  Sb60  1  0.16192070  0.66499535  0.16940539  1
  Sb  Sb61  1  0.50037568  0.17276677  0.00152889  1
  Sb  Sb62  1  0.33610491  0.17360044  0.16750250  1
  Sb  Sb63  1  0.67289723  0.83233566  0.83200752  1
  Sb  Sb64  1  0.15881947  0.83423988  0.33524449  1
  Sb  Sb65  1  -0.00151047  0.16602194  0.16967050  1
  Sb  Sb66  1  0.66257899  0.50193687  0.50077929  1
  Sb  Sb67  1  0.16198684  0.00171320  0.82765557  1
  Sb  Sb68  1  0.49863971  0.66910646  0.50342562  1
  Sb  Sb69  1  0.50630157  0.83463021  0.33309052  1
  Sb  Sb70  1  0.50462952  0.66213537  0.16602273  1
  Sb  Sb71  1  0.32829437  0.83246114  0.49816001  1
  Sb  Sb72  1  0.83209359  0.33844792  0.16968367  1
  Sb  Sb73  1  0.32472794  0.83290394  0.83454841  1
  Sb  Sb74  1  -0.00366230  0.66531349  0.33776104  1
  Sb  Sb75  1  0.66571775  0.49800841  0.16837476  1
  Sb  Sb76  1  0.33130354  0.00771306  0.00530168  1
  Sb  Sb77  1  0.83196837  0.16312586  -0.00162209  1
  Sb  Sb78  1  0.83592087  0.16927118  0.66767454  1
  Sb  Sb79  1  0.50129613  0.82880807  0.00102346  1
  Sb  Sb80  1  0.33105468  0.33278054  0.66538839  1
  Sb  Sb81  1  0.17150219  0.50075612  0.00314292  1
  Sb  Sb82  1  0.33686429  0.66001156  0.33387122  1
  Sb  Sb83  1  0.83927521  0.33485543  0.50028507  1
  Sb  Sb84  1  0.00199407  0.33358089  0.00082106  1
  Sb  Sb85  1  0.83735980  0.66739437  0.49712666  1
  Sb  Sb86  1  0.00590303  0.49979213  0.49636048  1
  Sb  Sb87  1  0.83908671  0.83071800  0.66506018  1
  Sb  Sb88  1  0.32971219  0.00277653  0.66122461  1
  Sb  Sb89  1  0.83063950  0.16788980  0.33246705  1
  Sb  Sb90  1  0.50461845  0.49459285  0.66586021  1
  Sb  Sb91  1  0.16975998  0.17047895  0.33857811  1
  Sb  Sb92  1  0.00130034  -0.00292824  -0.00126034  1
  Sb  Sb93  1  0.82871783  0.50337496  0.00190200  1
  Sb  Sb94  1  0.32929177  0.16986885  0.50181318  1
  Sb  Sb95  1  0.83574839  0.66959386  0.83360972  1
  Sb  Sb96  1  0.83774538  -0.00218559  0.50368897  1
  Sb  Sb97  1  0.66623749  0.00332512  -0.00152321  1
  Sb  Sb98  1  0.49984905  0.83742951  0.66650127  1
  Sb  Sb99  1  0.50336357  0.00120162  0.83195112  1
  Sb  Sb100  1  0.49751319  0.33602568  0.83720999  1
  Sb  Sb101  1  0.83465487  -0.00660933  0.16556750  1
  Sb  Sb102  1  0.66699289  0.16354498  0.50210039  1
  Sb  Sb103  1  0.16751175  0.16534446  -0.00484115  1
  Sb  Sb104  1  0.00078286  0.49925680  0.83257659  1
  Sb  Sb105  1  0.00175187  0.66872900  -0.00361694  1
  Sb  Sb106  1  0.16246130  0.49752140  0.66288144  1
  Sb  Sb107  1  0.83344042  0.33081364  0.83188960  1
  Te  Te108  1  0.16633055  0.16699468  0.16417042  1
  Te  Te109  1  0.16494173  0.16659659  0.50474016  1
  Te  Te110  1  0.16591617  0.16842431  0.82868489  1
  Te  Te111  1  0.16643652  0.49782156  0.16927097  1
  Te  Te112  1  0.17010749  0.49678507  0.49690151  1
  Te  Te113  1  0.16801368  0.49935949  0.83453923  1
  Te  Te114  1  0.16217416  0.83391149  0.16617405  1
  Te  Te115  1  0.16354038  0.83427896  0.50240901  1
  Te  Te116  1  0.16152265  0.83315365  0.83080773  1
  Te  Te117  1  0.50158098  0.16873064  0.16818304  1
  Te  Te118  1  0.49903706  0.16115300  0.50024956  1
  Te  Te119  1  0.50532653  0.16565890  0.83017536  1
  Te  Te120  1  0.49856286  0.49702480  0.16812059  1
  Te  Te121  1  0.49196010  0.50109566  0.49466634  1
  Te  Te122  1  0.50122525  0.50131232  0.83098906  1
  Te  Te123  1  0.50293888  0.83379196  0.16487928  1
  Te  Te124  1  0.50062631  0.83971806  0.50114171  1
  Te  Te125  1  0.49798415  0.82693528  0.83440024  1
  Te  Te126  1  0.82466487  0.16522220  0.16538942  1
  Te  Te127  1  0.84504547  0.16636896  0.49861574  1
  Te  Te128  1  0.82910898  0.16154080  0.83377021  1
  Te  Te129  1  0.83588632  0.50551031  0.17012557  1
  Te  Te130  1  0.83271746  0.50153610  0.49730657  1
  Te  Te131  1  0.82902496  0.50089993  0.83269205  1
  Te  Te132  1  0.83370144  0.83257074  0.16767777  1
  Te  Te133  1  0.83393250  0.83254022  0.49397338  1
  Te  Te134  1  0.84021787  0.83598576  0.83620349  1
  Te  Te135  1  0.16809814  -0.00539566  0.00784320  1
  Te  Te136  1  0.16477596  0.00115454  0.33540730  1
  Te  Te137  1  0.16304159  0.00232962  0.66187975  1
  Te  Te138  1  0.17049657  0.33341845  -0.00365515  1
  Te  Te139  1  0.16724029  0.33280306  0.33332058  1
  Te  Te140  1  0.16472848  0.33102069  0.66886916  1
  Te  Te141  1  0.16697992  0.67304520  -0.00530132  1
  Te  Te142  1  0.16764249  0.66133426  0.33862713  1
  Te  Te143  1  0.16416959  0.66498668  0.66562407  1
  Te  Te144  1  0.49861397  -0.00150068  0.00900543  1
  Te  Te145  1  0.50165096  0.00081872  0.33314699  1
  Te  Te146  1  0.50105332  0.00463542  0.66431547  1
  Te  Te147  1  0.50034455  0.33763018  0.00427911  1
  Te  Te148  1  0.49952222  0.33261800  0.33262031  1
  Te  Te149  1  0.50501089  0.32670295  0.66442700  1
  Te  Te150  1  0.50000434  0.65932305  -0.00661333  1
  Te  Te151  1  0.50691675  0.66296934  0.33528319  1
  Te  Te152  1  0.50463042  0.66781815  0.67044126  1
  Te  Te153  1  0.83362014  -0.00688360  -0.00648678  1
  Te  Te154  1  0.84044976  -0.00218434  0.33336208  1
  Te  Te155  1  0.83476970  -0.00231898  0.66991105  1
  Te  Te156  1  0.82567346  0.33382737  0.00073363  1
  Te  Te157  1  0.83361015  0.33692143  0.33349823  1
  Te  Te158  1  0.83162136  0.34016016  0.66639371  1
  Te  Te159  1  0.83404939  0.67202940  0.00614094  1
  Te  Te160  1  0.83020215  0.66444970  0.33179052  1
  Te  Te161  1  0.83245292  0.66261993  0.66694200  1
  Te  Te162  1  -0.00087689  0.16640971  -0.01022177  1
  Te  Te163  1  -0.00077023  0.16856370  0.33470161  1
  Te  Te164  1  -0.00127400  0.16821077  0.66669492  1
  Te  Te165  1  -0.00146730  0.50018139  0.00927798  1
  Te  Te166  1  -0.00039440  0.49859201  0.33196914  1
  Te  Te167  1  -0.00550585  0.49664135  0.66659074  1
  Te  Te168  1  0.00034425  0.83337340  0.00418951  1
  Te  Te169  1  -0.00407117  0.83260811  0.33306388  1
  Te  Te170  1  0.00036720  0.83384169  0.66472099  1
  Te  Te171  1  0.33421653  0.17555599  -0.00985372  1
  Te  Te172  1  0.33945210  0.16800874  0.33411164  1
  Te  Te173  1  0.33827511  0.16648898  0.67060954  1
  Te  Te174  1  0.33740983  0.49406490  -0.00513325  1
  Te  Te175  1  0.33318504  0.49779255  0.33229084  1
  Te  Te176  1  0.33469019  0.49974516  0.67382036  1
  Te  Te177  1  0.32784640  0.83383118  0.00100877  1
  Te  Te178  1  0.33384903  0.83883988  0.33265375  1
  Te  Te179  1  0.32379939  0.83408930  0.66690607  1
  Te  Te180  1  0.66590611  0.17209556  -0.00310344  1
  Te  Te181  1  0.66302640  0.17052591  0.33352427  1
  Te  Te182  1  0.66861346  0.16660952  0.66678650  1
  Te  Te183  1  0.66209113  0.49576432  -0.00456505  1
  Te  Te184  1  0.66859814  0.49956723  0.33399238  1
  Te  Te185  1  0.66955003  0.50065292  0.66693387  1
  Te  Te186  1  0.67000856  0.83323140  0.00359455  1
  Te  Te187  1  0.67119509  0.83249535  0.33368353  1
  Te  Te188  1  0.66763420  0.83365572  0.66414404  1
  Te  Te189  1  0.00287801  -0.00111570  0.16985294  1
  Te  Te190  1  0.00144803  -0.00070469  0.50122381  1
  Te  Te191  1  -0.00147529  -0.00028800  0.83075005  1
  Te  Te192  1  0.00406859  0.33350951  0.16966290  1
  Te  Te193  1  0.00506651  0.33390272  0.49980624  1
  Te  Te194  1  0.00348026  0.33076187  0.83177180  1
  Te  Te195  1  -0.00358669  0.66835168  0.16744041  1
  Te  Te196  1  0.00478072  0.67073242  0.50581736  1
  Te  Te197  1  0.00400778  0.66840797  0.82678991  1
  Te  Te198  1  0.33255106  0.00084062  0.17281742  1
  Te  Te199  1  0.33181685  0.00036957  0.49385231  1
  Te  Te200  1  0.33378405  0.00555082  0.83519596  1
  Te  Te201  1  0.33296626  0.33453427  0.16778433  1
  Te  Te202  1  0.32700525  0.33629322  0.49603879  1
  Te  Te203  1  0.33171661  0.33332313  0.83034564  1
  Te  Te204  1  0.33379246  0.65764865  0.16673679  1
  Te  Te205  1  0.32708976  0.66161882  0.50017001  1
  Te  Te206  1  0.33056167  0.66412405  0.83325368  1
  Te  Te207  1  0.66435711  0.00109228  0.16718267  1
  Te  Te208  1  0.66560957  -0.00332250  0.50470836  1
  Te  Te209  1  0.66917369  0.00134320  0.82847298  1
  Te  Te210  1  0.66495584  0.33144778  0.16998915  1
  Te  Te211  1  0.66676945  0.33266724  0.49938602  1
  Te  Te212  1  0.66615890  0.33450197  0.82921320  1
  Te  Te213  1  0.66989449  0.67025849  0.16964425  1
  Te  Te214  1  0.66511518  0.67159533  0.50128802  1
  Te  Te215  1  0.66648522  0.66478121  0.83017009  1
