# generated using pymatgen
data_AgSbTe2
_symmetry_space_group_name_H-M   'P 1'
_cell_length_a   18.32097668
_cell_length_b   18.32781406
_cell_length_c   18.32880322
_cell_angle_alpha   89.99998022
_cell_angle_beta   89.99968240
_cell_angle_gamma   89.99850384
_symmetry_Int_Tables_number   1
_chemical_formula_structural   AgSbTe2
_chemical_formula_sum   'Ag54 Sb54 Te108'
_cell_volume   6154.50885243
_cell_formula_units_Z   54
loop_
 _symmetry_equiv_pos_site_id
 _symmetry_equiv_pos_as_xyz
  1  'x, y, z'
loop_
 _atom_site_type_symbol
 _atom_site_label
 _atom_site_symmetry_multiplicity
 _atom_site_fract_x
 _atom_site_fract_y
 _atom_site_fract_z
 _atom_site_occupancy
  Ag  Ag0  1  0.00747083  0.16625401  0.49602483  1
  Ag  Ag1  1  0.49047467  0.33475494  0.50210199  1
  Ag  Ag2  1  0.49277034  0.66438791  0.49978836  1
  Ag  Ag3  1  0.00550137  -0.00538135  0.00222330  1
  Ag  Ag4  1  0.16880703  0.00326837  0.82717328  1
  Ag  Ag5  1  0.16550201  0.66295639  0.50551207  1
  Ag  Ag6  1  0.84546366  0.17554388  0.66286119  1
  Ag  Ag7  1  0.32717590  0.17085934  0.50308114  1
  Ag  Ag8  1  0.16364840  0.16826169  0.33753416  1
  Ag  Ag9  1  0.66197857  0.49900057  0.83424738  1
  Ag  Ag10  1  0.01030436  0.00094177  0.66101504  1
  Ag  Ag11  1  0.84182273  0.82170604  -0.00043082  1
  Ag  Ag12  1  0.00274370  0.00609982  0.33785877  1
  Ag  Ag13  1  0.00085857  0.66909195  0.34322918  1
  Ag  Ag14  1  0.33011105  0.83195935  0.83558179  1
  Ag  Ag15  1  0.16923439  0.32444778  0.16821986  1
  Ag  Ag16  1  0.66104465  0.33714347  0.66644659  1
  Ag  Ag17  1  0.17082658  0.32675349  0.50482200  1
  Ag  Ag18  1  0.48842686  -0.00719549  0.16932091  1
  Ag  Ag19  1  0.17056455  0.49709746  0.66591061  1
  Ag  Ag20  1  0.49580037  0.67244707  0.16522633  1
  Ag  Ag21  1  0.16922522  0.00748111  0.16282179  1
  Ag  Ag22  1  0.83759618  0.49680998  0.66900281  1
  Ag  Ag23  1  0.66569658  0.33378682  0.33486062  1
  Ag  Ag24  1  0.00219825  0.50212243  0.50260278  1
  Ag  Ag25  1  0.32693912  0.00700598  0.66841902  1
  Ag  Ag26  1  0.84521753  0.17429893  0.33597439  1
  Ag  Ag27  1  0.82903086  0.50346257  -0.00733006  1
  Ag  Ag28  1  0.49663045  0.83342081  0.32913764  1
  Ag  Ag29  1  -0.00417059  0.67141846  -0.00065287  1
  Ag  Ag30  1  0.66222232  0.34180914  -0.00156497  1
  Ag  Ag31  1  0.33276480  0.33416664  -0.00566104  1
  Ag  Ag32  1  0.32804502  0.17482431  0.82555684  1
  Ag  Ag33  1  0.33473675  0.84052374  0.16122047  1
  Ag  Ag34  1  0.17198963  0.32835842  0.82329357  1
  Ag  Ag35  1  0.48893846  0.49820680  0.66843150  1
  Ag  Ag36  1  0.49472442  -0.00080251  0.49741645  1
  Ag  Ag37  1  0.49113603  0.82664215  0.00749699  1
  Ag  Ag38  1  0.16670441  0.16909791  0.66077719  1
  Ag  Ag39  1  0.33250412  0.33055292  0.34198636  1
  Ag  Ag40  1  0.01076330  0.16416993  0.17697597  1
  Ag  Ag41  1  0.32508198  0.65796718  0.66532382  1
  Ag  Ag42  1  0.66853477  0.66090974  -0.00120601  1
  Ag  Ag43  1  0.16840321  0.83712080  0.66830830  1
  Ag  Ag44  1  0.83529904  0.66319996  0.83689884  1
  Ag  Ag45  1  0.50652979  0.50390262  -0.00564828  1
  Ag  Ag46  1  0.16831363  0.83452424  -0.00505302  1
  Ag  Ag47  1  0.33481358  0.49583391  0.82853936  1
  Ag  Ag48  1  0.00395633  0.83118643  0.50143987  1
  Ag  Ag49  1  0.00928551  0.66537350  0.65948875  1
  Ag  Ag50  1  0.83626455  0.33300933  0.16982704  1
  Ag  Ag51  1  0.83624540  0.49275996  0.33385081  1
  Ag  Ag52  1  0.32612646  0.16635764  0.16862433  1
  Ag  Ag53  1  0.32840224  0.33322901  0.66727082  1
  Sb  Sb54  1  0.00335097  0.33444028  0.00290925  1
  Sb  Sb55  1  0.66710330  0.49783890  0.15809258  1
  Sb  Sb56  1  0.84477066  0.82913189  0.67184707  1
  Sb  Sb57  1  0.66811214  0.00583655  0.33273383  1
  Sb  Sb58  1  0.83208552  0.66150943  0.16118788  1
  Sb  Sb59  1  0.49026860  0.17296913  0.66335603  1
  Sb  Sb60  1  0.66137413  0.82691387  0.83556509  1
  Sb  Sb61  1  0.49576846  0.33334121  0.16874122  1
  Sb  Sb62  1  0.00765191  0.16540271  0.82962830  1
  Sb  Sb63  1  0.16771031  0.00473723  0.50470088  1
  Sb  Sb64  1  0.49470158  0.16478451  0.33418973  1
  Sb  Sb65  1  0.16933185  0.66712509  0.16967460  1
  Sb  Sb66  1  0.32804368  0.49241192  0.50763280  1
  Sb  Sb67  1  0.66539363  0.16983273  0.16763463  1
  Sb  Sb68  1  0.83610651  0.17121554  -0.00013539  1
  Sb  Sb69  1  0.65854405  0.83233005  0.16493143  1
  Sb  Sb70  1  0.16484733  0.66783334  0.82522782  1
  Sb  Sb71  1  0.66831868  -0.00259783  0.00040813  1
  Sb  Sb72  1  0.16570680  0.50292795  -0.00673322  1
  Sb  Sb73  1  0.83707442  0.33769989  0.83372787  1
  Sb  Sb74  1  0.66431248  0.00807786  0.66703695  1
  Sb  Sb75  1  0.33327431  0.49645077  0.16050996  1
  Sb  Sb76  1  0.48931721  -0.00275620  0.83307767  1
  Sb  Sb77  1  0.83736556  0.33346611  0.49785975  1
  Sb  Sb78  1  0.00189454  0.50256990  0.82702253  1
  Sb  Sb79  1  0.16278377  0.49272636  0.34180719  1
  Sb  Sb80  1  0.32829283  0.00534644  0.33415264  1
  Sb  Sb81  1  0.66899776  0.65981501  0.32929159  1
  Sb  Sb82  1  0.00623653  0.83776032  0.16607366  1
  Sb  Sb83  1  0.49057631  0.33616583  0.82927190  1
  Sb  Sb84  1  0.16679782  0.16359541  0.00125183  1
  Sb  Sb85  1  0.00623733  0.33402245  0.66411020  1
  Sb  Sb86  1  0.33000880  0.66243104  0.33922476  1
  Sb  Sb87  1  0.49564634  0.16893459  0.00149256  1
  Sb  Sb88  1  0.50305692  0.50096710  0.33523849  1
  Sb  Sb89  1  0.66630477  0.65906732  0.67111275  1
  Sb  Sb90  1  0.49996327  0.66275082  0.83410471  1
  Sb  Sb91  1  0.66294345  0.17675240  0.83078776  1
  Sb  Sb92  1  0.66873408  0.49759403  0.50630502  1
  Sb  Sb93  1  0.84029506  0.00553425  0.16582323  1
  Sb  Sb94  1  0.84266937  -0.00360453  0.83325822  1
  Sb  Sb95  1  0.32811113  0.83674958  0.50186940  1
  Sb  Sb96  1  0.66619889  0.17052812  0.49992422  1
  Sb  Sb97  1  0.48995173  0.82811799  0.66630179  1
  Sb  Sb98  1  0.83480619  0.83203975  0.32829304  1
  Sb  Sb99  1  -0.00066209  0.49779651  0.17099365  1
  Sb  Sb100  1  0.00277816  0.32970196  0.33357374  1
  Sb  Sb101  1  0.16886794  0.83828318  0.33498437  1
  Sb  Sb102  1  0.83875909  0.66391316  0.50447415  1
  Sb  Sb103  1  0.33271751  0.66637101  -0.00565131  1
  Sb  Sb104  1  0.32753592  0.00031858  -0.00073311  1
  Sb  Sb105  1  0.83620942  0.00217375  0.50084164  1
  Sb  Sb106  1  0.00887247  0.83213729  0.83297255  1
  Sb  Sb107  1  0.66664119  0.83150775  0.50124248  1
  Te  Te108  1  0.16745057  0.16698676  0.16433734  1
  Te  Te109  1  0.16714516  0.16661756  0.50017562  1
  Te  Te110  1  0.17101655  0.16607318  0.83124318  1
  Te  Te111  1  0.16640689  0.49534586  0.16678892  1
  Te  Te112  1  0.16215949  0.50218541  0.50523052  1
  Te  Te113  1  0.17104450  0.49653459  0.82720110  1
  Te  Te114  1  0.17365515  0.83476506  0.16651178  1
  Te  Te115  1  0.16253194  0.82861034  0.50206983  1
  Te  Te116  1  0.17189520  0.83463650  0.83234791  1
  Te  Te117  1  0.49374684  0.16155935  0.16781463  1
  Te  Te118  1  0.49582576  0.16796780  0.49890185  1
  Te  Te119  1  0.49045721  0.16518261  0.83261515  1
  Te  Te120  1  0.49962531  0.50468914  0.16281779  1
  Te  Te121  1  0.50108230  0.50019596  0.50285760  1
  Te  Te122  1  0.49878387  0.49984319  0.83279574  1
  Te  Te123  1  0.49575344  0.83324958  0.16676401  1
  Te  Te124  1  0.49933577  0.83193034  0.49796705  1
  Te  Te125  1  0.49282044  0.83106088  0.83873773  1
  Te  Te126  1  0.83435447  0.17251676  0.16903324  1
  Te  Te127  1  0.83741433  0.16703636  0.50181231  1
  Te  Te128  1  0.83390432  0.16636212  0.82673772  1
  Te  Te129  1  0.83357139  0.49391197  0.16913481  1
  Te  Te130  1  0.83844401  0.49926476  0.50226371  1
  Te  Te131  1  0.83568205  0.50159485  0.83284462  1
  Te  Te132  1  0.83271055  0.83534595  0.15954553  1
  Te  Te133  1  0.84016939  0.83327780  0.49887749  1
  Te  Te134  1  0.83001773  0.82881044  0.83987445  1
  Te  Te135  1  0.16465316  -0.00417160  0.00224740  1
  Te  Te136  1  0.16211463  0.00403786  0.32806673  1
  Te  Te137  1  0.16734361  0.00016270  0.66545278  1
  Te  Te138  1  0.17068847  0.33608046  0.00486578  1
  Te  Te139  1  0.17075898  0.32920763  0.33204100  1
  Te  Te140  1  0.16780106  0.33249232  0.66440161  1
  Te  Te141  1  0.16299034  0.67146421  0.00055059  1
  Te  Te142  1  0.16153208  0.66564445  0.33849936  1
  Te  Te143  1  0.16581499  0.66613418  0.66585682  1
  Te  Te144  1  0.50107359  -0.00456433  0.00350923  1
  Te  Te145  1  0.50113059  -0.00272590  0.33338327  1
  Te  Te146  1  0.49572235  -0.00098624  0.66338150  1
  Te  Te147  1  0.49976138  0.33714398  0.00090203  1
  Te  Te148  1  0.49927782  0.33298331  0.33730281  1
  Te  Te149  1  0.49952524  0.33736774  0.66354121  1
  Te  Te150  1  0.49864814  0.66533490  0.00047675  1
  Te  Te151  1  0.50068778  0.66838948  0.33424742  1
  Te  Te152  1  0.49952291  0.66090183  0.66322035  1
  Te  Te153  1  0.83810307  -0.00230496  -0.00061081  1
  Te  Te154  1  0.83812340  0.00341591  0.33265557  1
  Te  Te155  1  0.83557350  0.00184959  0.66802180  1
  Te  Te156  1  0.83232621  0.33883078  0.00229106  1
  Te  Te157  1  0.83289722  0.33347670  0.33305047  1
  Te  Te158  1  0.83313481  0.33477222  0.66622061  1
  Te  Te159  1  0.83371809  0.66370581  0.00081167  1
  Te  Te160  1  0.83736284  0.66316296  0.33194350  1
  Te  Te161  1  0.83507403  0.66223225  0.67170246  1
  Te  Te162  1  -0.00141071  0.16119781  0.00251456  1
  Te  Te163  1  0.00194100  0.16598973  0.33442647  1
  Te  Te164  1  0.00376573  0.16494616  0.66449351  1
  Te  Te165  1  -0.00373380  0.50488952  0.00107915  1
  Te  Te166  1  -0.00370312  0.50520531  0.33775522  1
  Te  Te167  1  -0.00038773  0.50294493  0.66326686  1
  Te  Te168  1  0.00295288  0.83364994  0.00044673  1
  Te  Te169  1  -0.00080739  0.83211889  0.33636458  1
  Te  Te170  1  0.00536192  0.83349616  0.66472085  1
  Te  Te171  1  0.33367194  0.17259647  0.00197421  1
  Te  Te172  1  0.32905373  0.17065320  0.33323194  1
  Te  Te173  1  0.32987701  0.16795534  0.66557235  1
  Te  Te174  1  0.33408078  0.49731996  -0.00703426  1
  Te  Te175  1  0.33383942  0.49251810  0.33139776  1
  Te  Te176  1  0.33177420  0.49841124  0.66810910  1
  Te  Te177  1  0.33162224  0.83359723  0.00008664  1
  Te  Te178  1  0.33709855  0.83206812  0.33087959  1
  Te  Te179  1  0.32877046  0.83548169  0.66897868  1
  Te  Te180  1  0.66629681  0.17415085  -0.00119436  1
  Te  Te181  1  0.67538262  0.17359041  0.33369997  1
  Te  Te182  1  0.67320956  0.17537113  0.66716220  1
  Te  Te183  1  0.66670623  0.49968057  -0.00386954  1
  Te  Te184  1  0.67256159  0.49412084  0.33478754  1
  Te  Te185  1  0.67144240  0.49612884  0.67246098  1
  Te  Te186  1  0.66567580  0.82880071  -0.00114641  1
  Te  Te187  1  0.66190492  0.83315156  0.33387246  1
  Te  Te188  1  0.66841409  0.83620638  0.66806163  1
  Te  Te189  1  0.00418892  0.00389468  0.16673628  1
  Te  Te190  1  0.00002392  0.00235169  0.50122019  1
  Te  Te191  1  0.00842896  -0.00112147  0.83275351  1
  Te  Te192  1  0.00180029  0.32798521  0.16702455  1
  Te  Te193  1  0.00637233  0.33194720  0.49892384  1
  Te  Te194  1  0.01094698  0.33386437  0.83594457  1
  Te  Te195  1  0.00085761  0.66818417  0.16413405  1
  Te  Te196  1  0.00003832  0.66681641  0.50189267  1
  Te  Te197  1  -0.00448401  0.66744855  0.83594135  1
  Te  Te198  1  0.33098177  0.00135126  0.16673257  1
  Te  Te199  1  0.33644955  0.00417078  0.50156160  1
  Te  Te200  1  0.32722013  -0.00144581  0.83123502  1
  Te  Te201  1  0.33190910  0.33045234  0.16379777  1
  Te  Te202  1  0.33173310  0.33171904  0.50217002  1
  Te  Te203  1  0.32987672  0.33444113  0.83197711  1
  Te  Te204  1  0.33660492  0.66849996  0.16919709  1
  Te  Te205  1  0.33217582  0.66792548  0.50476212  1
  Te  Te206  1  0.33239738  0.66612403  0.82633438  1
  Te  Te207  1  0.65937195  0.00137030  0.16674032  1
  Te  Te208  1  0.65634516  0.00014840  0.50016289  1
  Te  Te209  1  0.66612532  0.00383722  0.83366954  1
  Te  Te210  1  0.66801198  0.33252940  0.16762790  1
  Te  Te211  1  0.66185370  0.33338792  0.50117157  1
  Te  Te212  1  0.66858208  0.33951683  0.83334607  1
  Te  Te213  1  0.66015420  0.66610958  0.16089925  1
  Te  Te214  1  0.65929465  0.66612146  0.49908461  1
  Te  Te215  1  0.67157257  0.66041587  0.83812756  1
