# generated using pymatgen
data_AgSbTe2
_symmetry_space_group_name_H-M   'P 1'
_cell_length_a   18.32974123
_cell_length_b   18.33675483
_cell_length_c   18.34195636
_cell_angle_alpha   90.00153851
_cell_angle_beta   89.99976345
_cell_angle_gamma   90.00428758
_symmetry_Int_Tables_number   1
_chemical_formula_structural   AgSbTe2
_chemical_formula_sum   'Ag54 Sb54 Te108'
_cell_volume   6164.87771717
_cell_formula_units_Z   54
loop_
 _symmetry_equiv_pos_site_id
 _symmetry_equiv_pos_as_xyz
  1  'x, y, z'
loop_
 _atom_site_type_symbol
 _atom_site_label
 _atom_site_symmetry_multiplicity
 _atom_site_fract_x
 _atom_site_fract_y
 _atom_site_fract_z
 _atom_site_occupancy
  Ag  Ag0  1  0.15837574  0.00647676  0.17028243  1
  Ag  Ag1  1  0.67781477  0.66844393  0.33072628  1
  Ag  Ag2  1  0.67091587  0.82532727  0.17401971  1
  Ag  Ag3  1  0.16594349  0.83143713  0.33664875  1
  Ag  Ag4  1  0.32593550  0.17091368  0.16636803  1
  Ag  Ag5  1  0.67069547  0.83287480  0.49137629  1
  Ag  Ag6  1  0.00844769  0.49541780  0.83207583  1
  Ag  Ag7  1  0.32858902  0.33841517  0.33193746  1
  Ag  Ag8  1  0.49669396  0.17475811  0.66528880  1
  Ag  Ag9  1  0.00371644  0.66589471  0.66120795  1
  Ag  Ag10  1  0.67543088  -0.00538812  0.00731177  1
  Ag  Ag11  1  0.00405719  0.17085796  0.82905640  1
  Ag  Ag12  1  0.32143790  0.65981094  0.66086857  1
  Ag  Ag13  1  0.83854524  -0.00607496  0.16944880  1
  Ag  Ag14  1  0.31995887  0.33539251  -0.00533915  1
  Ag  Ag15  1  0.16761988  0.48907891  -0.00340511  1
  Ag  Ag16  1  0.83168431  0.67009872  0.17392659  1
  Ag  Ag17  1  0.16476409  0.17655181  0.00077457  1
  Ag  Ag18  1  0.00521704  0.33581803  0.67129809  1
  Ag  Ag19  1  0.83530142  0.50526303  0.66216686  1
  Ag  Ag20  1  0.84175315  0.82480905  0.66531670  1
  Ag  Ag21  1  0.66680845  0.50109437  0.83746835  1
  Ag  Ag22  1  0.49983650  0.49919248  0.66829804  1
  Ag  Ag23  1  0.66934312  0.50768374  0.16544106  1
  Ag  Ag24  1  0.00192339  0.00038561  0.33244076  1
  Ag  Ag25  1  0.50363221  0.50409109  0.33438507  1
  Ag  Ag26  1  0.16055268  0.82860928  0.66100185  1
  Ag  Ag27  1  0.83151647  0.83312257  0.00596391  1
  Ag  Ag28  1  0.16222697  0.01147147  0.83626945  1
  Ag  Ag29  1  0.67042440  0.66556007  0.01164249  1
  Ag  Ag30  1  0.50272224  0.66396967  0.49738065  1
  Ag  Ag31  1  0.16143578  0.67033684  0.50016259  1
  Ag  Ag32  1  0.16819004  0.32672744  0.15421821  1
  Ag  Ag33  1  0.32384071  0.33982753  0.67396699  1
  Ag  Ag34  1  0.32312416  0.66033933  0.33739761  1
  Ag  Ag35  1  0.16600554  0.33295626  0.84065509  1
  Ag  Ag36  1  0.00138469  0.66775655  0.33998508  1
  Ag  Ag37  1  0.16187002  0.66735069  0.17326721  1
  Ag  Ag38  1  0.31928410  0.17736355  0.83450368  1
  Ag  Ag39  1  0.67706183  -0.00960908  0.32897296  1
  Ag  Ag40  1  0.83529631  0.34050711  0.49859604  1
  Ag  Ag41  1  -0.00032672  0.16478415  0.50201875  1
  Ag  Ag42  1  0.00101878  0.00532049  0.00268919  1
  Ag  Ag43  1  0.32479254  0.49589270  0.83240953  1
  Ag  Ag44  1  0.83068491  0.51075118  0.33700399  1
  Ag  Ag45  1  0.84313103  0.16571029  0.33595222  1
  Ag  Ag46  1  0.00278735  0.00230531  0.66498657  1
  Ag  Ag47  1  0.83552971  0.66414842  0.49318283  1
  Ag  Ag48  1  0.00817709  0.32928072  -0.00810756  1
  Ag  Ag49  1  0.16141384  -0.00314998  0.49625348  1
  Ag  Ag50  1  0.67724475  0.16087701  0.49641899  1
  Ag  Ag51  1  0.16545154  0.65764142  0.83049515  1
  Ag  Ag52  1  0.49798746  0.49926333  -0.00379686  1
  Ag  Ag53  1  0.16272398  0.16125582  0.32795378  1
  Sb  Sb54  1  0.66954173  0.82836954  0.83426333  1
  Sb  Sb55  1  0.83482789  0.50354352  -0.00018622  1
  Sb  Sb56  1  0.16449654  0.50664781  0.67464247  1
  Sb  Sb57  1  0.84239297  0.16218761  0.00753616  1
  Sb  Sb58  1  0.32422629  0.00129114  0.66876864  1
  Sb  Sb59  1  0.32700755  0.82798132  0.83224158  1
  Sb  Sb60  1  0.33184977  0.83410522  0.16800435  1
  Sb  Sb61  1  0.32545830  0.00168840  0.33225758  1
  Sb  Sb62  1  0.00234125  0.83345476  0.83032164  1
  Sb  Sb63  1  0.49607250  0.66122095  0.82796499  1
  Sb  Sb64  1  0.49871192  0.82761648  0.66358306  1
  Sb  Sb65  1  0.49747930  0.17141292  0.33836946  1
  Sb  Sb66  1  0.49277184  0.33571219  0.16704017  1
  Sb  Sb67  1  0.33397153  0.65903101  0.00049677  1
  Sb  Sb68  1  0.67501018  -0.00042229  0.66458376  1
  Sb  Sb69  1  0.84139572  -0.00027460  0.83815927  1
  Sb  Sb70  1  0.66959653  0.17032709  0.83082802  1
  Sb  Sb71  1  0.49902036  -0.00279748  0.49992077  1
  Sb  Sb72  1  0.32783953  0.16840250  0.50173250  1
  Sb  Sb73  1  -0.00161698  0.49952344  0.50571639  1
  Sb  Sb74  1  0.33362233  0.49679503  0.16468338  1
  Sb  Sb75  1  0.83888619  0.66398035  0.83116390  1
  Sb  Sb76  1  0.83709653  0.83150610  0.33321308  1
  Sb  Sb77  1  0.50869445  0.82510520  0.00158022  1
  Sb  Sb78  1  -0.00128492  0.50161696  0.16360780  1
  Sb  Sb79  1  -0.00451059  0.83467002  0.16779448  1
  Sb  Sb80  1  -0.00163484  0.66703623  -0.00081589  1
  Sb  Sb81  1  -0.00275088  0.83455351  0.50029941  1
  Sb  Sb82  1  0.16531838  0.50318659  0.32767056  1
  Sb  Sb83  1  0.49448414  0.17127305  -0.00482581  1
  Sb  Sb84  1  0.16044251  0.83493852  0.00221584  1
  Sb  Sb85  1  0.00711358  0.16507664  0.16898595  1
  Sb  Sb86  1  0.50278333  0.66222705  0.17290428  1
  Sb  Sb87  1  0.83989351  0.33417194  0.17163001  1
  Sb  Sb88  1  0.83661257  0.16880866  0.65945230  1
  Sb  Sb89  1  0.66597896  0.33754606  0.33430385  1
  Sb  Sb90  1  0.33092085  0.82884955  0.49949281  1
  Sb  Sb91  1  0.50031461  0.82595311  0.33454308  1
  Sb  Sb92  1  0.48799960  0.33772240  0.83113982  1
  Sb  Sb93  1  0.00358119  0.33347548  0.33506549  1
  Sb  Sb94  1  0.32499769  0.00855864  0.00058075  1
  Sb  Sb95  1  0.66889467  0.33695850  0.00007374  1
  Sb  Sb96  1  0.66891683  0.50431070  0.49800912  1
  Sb  Sb97  1  0.50372359  0.33769951  0.50201092  1
  Sb  Sb98  1  0.16599637  0.16431252  0.67040208  1
  Sb  Sb99  1  0.66461888  0.16587402  0.17140761  1
  Sb  Sb100  1  0.67012960  0.33559531  0.66567892  1
  Sb  Sb101  1  0.50168103  0.00120969  0.16776794  1
  Sb  Sb102  1  0.84400437  0.33629870  0.82694359  1
  Sb  Sb103  1  0.49404247  0.00353735  0.83363943  1
  Sb  Sb104  1  0.67063207  0.66535570  0.66330460  1
  Sb  Sb105  1  0.84001224  -0.00334625  0.49446460  1
  Sb  Sb106  1  0.16242304  0.33330810  0.50239991  1
  Sb  Sb107  1  0.33289156  0.50130853  0.50514279  1
  Te  Te108  1  0.16810432  0.16589505  0.16574026  1
  Te  Te109  1  0.16226192  0.16516546  0.49682098  1
  Te  Te110  1  0.16396559  0.16779483  0.83298236  1
  Te  Te111  1  0.16625391  0.50379482  0.15973572  1
  Te  Te112  1  0.16593188  0.50782126  0.49656309  1
  Te  Te113  1  0.16647808  0.49906887  0.83591883  1
  Te  Te114  1  0.16773409  0.83026402  0.17044038  1
  Te  Te115  1  0.16627379  0.83194607  0.49905094  1
  Te  Te116  1  0.16698891  0.83266632  0.83007297  1
  Te  Te117  1  0.49033556  0.16787012  0.16605363  1
  Te  Te118  1  0.50011751  0.16588325  0.50581584  1
  Te  Te119  1  0.50013964  0.16835536  0.82597834  1
  Te  Te120  1  0.50637017  0.49911688  0.16868400  1
  Te  Te121  1  0.50170194  0.50469464  0.50032464  1
  Te  Te122  1  0.50404778  0.50037036  0.83186438  1
  Te  Te123  1  0.50899078  0.83361523  0.16664890  1
  Te  Te124  1  0.50901439  0.82665831  0.50041470  1
  Te  Te125  1  0.49891014  0.83392345  0.83256606  1
  Te  Te126  1  0.83195761  0.16444730  0.17536355  1
  Te  Te127  1  0.83557032  0.16294948  0.49559414  1
  Te  Te128  1  0.83928730  0.16809897  0.83353507  1
  Te  Te129  1  0.83008878  0.50197194  0.17020985  1
  Te  Te130  1  0.83259092  0.50152975  0.49971341  1
  Te  Te131  1  0.82940272  0.50019497  0.82918204  1
  Te  Te132  1  0.82950673  0.83255163  0.16593021  1
  Te  Te133  1  0.82930933  0.82946812  0.50448073  1
  Te  Te134  1  0.83374346  0.83209761  0.82762607  1
  Te  Te135  1  0.16097345  -0.00064231  0.00146711  1
  Te  Te136  1  0.16460199  0.00034728  0.33160985  1
  Te  Te137  1  0.16165775  -0.00378162  0.66562929  1
  Te  Te138  1  0.16478703  0.33272768  -0.00168941  1
  Te  Te139  1  0.16915384  0.33262944  0.33545520  1
  Te  Te140  1  0.16577489  0.33322531  0.66686688  1
  Te  Te141  1  0.16615519  0.66945580  0.00005866  1
  Te  Te142  1  0.16322170  0.66492446  0.33271323  1
  Te  Te143  1  0.16475250  0.66732556  0.66639152  1
  Te  Te144  1  0.50469068  0.00073048  0.00016080  1
  Te  Te145  1  0.50414846  0.00091691  0.33460333  1
  Te  Te146  1  0.49951195  -0.00001360  0.66656630  1
  Te  Te147  1  0.49895449  0.33975712  -0.00008494  1
  Te  Te148  1  0.49360826  0.34044801  0.33458594  1
  Te  Te149  1  0.49754137  0.33753809  0.66548742  1
  Te  Te150  1  0.50528807  0.65863715  -0.00056851  1
  Te  Te151  1  0.49755819  0.66267135  0.33821469  1
  Te  Te152  1  0.49854317  0.66215948  0.66041623  1
  Te  Te153  1  0.83478459  -0.00278033  0.00488648  1
  Te  Te154  1  0.83529110  -0.00126560  0.33026254  1
  Te  Te155  1  0.84176871  -0.00250640  0.66797670  1
  Te  Te156  1  0.84014560  0.33267114  0.00163529  1
  Te  Te157  1  0.83436492  0.32937378  0.33736628  1
  Te  Te158  1  0.83909498  0.33734026  0.66013442  1
  Te  Te159  1  0.83037448  0.67005642  0.00280724  1
  Te  Te160  1  0.83650196  0.66916968  0.33259716  1
  Te  Te161  1  0.83684488  0.66534076  0.66587561  1
  Te  Te162  1  0.00443871  0.16513220  -0.00279719  1
  Te  Te163  1  0.00238505  0.16698105  0.33624445  1
  Te  Te164  1  -0.00052594  0.16587519  0.66586773  1
  Te  Te165  1  0.00303245  0.49913208  -0.00566770  1
  Te  Te166  1  -0.00686938  0.50312702  0.33300088  1
  Te  Te167  1  -0.00263115  0.50032497  0.67054476  1
  Te  Te168  1  -0.00761625  0.83967678  -0.00186990  1
  Te  Te169  1  0.00651348  0.83333961  0.33355579  1
  Te  Te170  1  0.00125487  0.83017803  0.66588414  1
  Te  Te171  1  0.32975242  0.17377431  -0.00310144  1
  Te  Te172  1  0.32966083  0.16928591  0.33203623  1
  Te  Te173  1  0.33576485  0.16891589  0.66981695  1
  Te  Te174  1  0.33367488  0.49568594  -0.00238517  1
  Te  Te175  1  0.33559903  0.50080418  0.33257219  1
  Te  Te176  1  0.33478567  0.50022970  0.66999930  1
  Te  Te177  1  0.33831884  0.83434554  0.00020978  1
  Te  Te178  1  0.32848161  0.82824147  0.33270519  1
  Te  Te179  1  0.32923776  0.82708319  0.66680469  1
  Te  Te180  1  0.66517062  0.16264339  -0.00005054  1
  Te  Te181  1  0.66443171  0.16646753  0.33743691  1
  Te  Te182  1  0.66327435  0.16628017  0.66233728  1
  Te  Te183  1  0.66730428  0.50215787  0.00112081  1
  Te  Te184  1  0.66816917  0.50387086  0.33237071  1
  Te  Te185  1  0.66595953  0.49954224  0.66894570  1
  Te  Te186  1  0.67209855  0.83314130  0.00073703  1
  Te  Te187  1  0.66589347  0.83187156  0.33296865  1
  Te  Te188  1  0.66994707  0.83393595  0.66493846  1
  Te  Te189  1  -0.00097997  -0.00012204  0.17010844  1
  Te  Te190  1  0.00316090  0.00318092  0.49743856  1
  Te  Te191  1  0.00425009  0.00203258  0.83100258  1
  Te  Te192  1  0.00723783  0.33419186  0.16223858  1
  Te  Te193  1  -0.00388042  0.32880392  0.50373778  1
  Te  Te194  1  0.00438056  0.33328698  0.83168868  1
  Te  Te195  1  -0.00108291  0.66757031  0.16776081  1
  Te  Te196  1  -0.00164234  0.66497253  0.50048788  1
  Te  Te197  1  0.00551161  0.66175716  0.83100585  1
  Te  Te198  1  0.32909085  0.00435069  0.16613294  1
  Te  Te199  1  0.32531744  -0.00131805  0.50062777  1
  Te  Te200  1  0.32555489  0.00467580  0.83426217  1
  Te  Te201  1  0.32703032  0.33189270  0.16933961  1
  Te  Te202  1  0.33428448  0.33376194  0.49960638  1
  Te  Te203  1  0.32758577  0.33500249  0.83206001  1
  Te  Te204  1  0.32970531  0.66661277  0.17104848  1
  Te  Te205  1  0.32927063  0.66669026  0.49928686  1
  Te  Te206  1  0.32825984  0.66023612  0.83124973  1
  Te  Te207  1  0.66825052  0.00117522  0.16827828  1
  Te  Te208  1  0.66659315  -0.00102162  0.49679635  1
  Te  Te209  1  0.66651630  0.00071281  0.83793146  1
  Te  Te210  1  0.66735344  0.33766777  0.16631212  1
  Te  Te211  1  0.67380831  0.32453037  0.49957063  1
  Te  Te212  1  0.66838731  0.33908647  0.83429796  1
  Te  Te213  1  0.66663492  0.66589720  0.16988424  1
  Te  Te214  1  0.67211332  0.66840722  0.49667400  1
  Te  Te215  1  0.66569525  0.66176162  0.83520171  1
