# generated using pymatgen
data_AgSbTe2
_symmetry_space_group_name_H-M   'P 1'
_cell_length_a   18.34693683
_cell_length_b   18.34676214
_cell_length_c   18.34975698
_cell_angle_alpha   89.99829008
_cell_angle_beta   90.00312523
_cell_angle_gamma   90.00049747
_symmetry_Int_Tables_number   1
_chemical_formula_structural   AgSbTe2
_chemical_formula_sum   'Ag54 Sb54 Te108'
_cell_volume   6176.65454403
_cell_formula_units_Z   54
loop_
 _symmetry_equiv_pos_site_id
 _symmetry_equiv_pos_as_xyz
  1  'x, y, z'
loop_
 _atom_site_type_symbol
 _atom_site_label
 _atom_site_symmetry_multiplicity
 _atom_site_fract_x
 _atom_site_fract_y
 _atom_site_fract_z
 _atom_site_occupancy
  Ag  Ag0  1  0.00428981  0.00423623  0.67203854  1
  Ag  Ag1  1  0.16285141  0.82408693  0.34346963  1
  Ag  Ag2  1  0.16949043  0.17196121  -0.01157455  1
  Ag  Ag3  1  0.83772380  0.84089519  0.00194300  1
  Ag  Ag4  1  0.33415384  0.34113181  -0.00462699  1
  Ag  Ag5  1  0.84502706  -0.00549231  0.49369991  1
  Ag  Ag6  1  0.48175790  0.48545085  0.00173629  1
  Ag  Ag7  1  0.32127599  0.49532024  0.84271941  1
  Ag  Ag8  1  0.84007126  0.16234668  0.00282063  1
  Ag  Ag9  1  0.83040027  0.15965659  0.32754727  1
  Ag  Ag10  1  0.16419893  0.00074302  0.16002640  1
  Ag  Ag11  1  0.16771671  0.33199832  0.82557359  1
  Ag  Ag12  1  0.16647861  0.49173950  0.66465300  1
  Ag  Ag13  1  0.16472602  0.64822678  0.82932972  1
  Ag  Ag14  1  0.16480912  0.66439199  0.49793159  1
  Ag  Ag15  1  0.01159943  0.51110799  0.50169158  1
  Ag  Ag16  1  0.66191000  0.16780753  0.16634041  1
  Ag  Ag17  1  0.49061278  0.16619417  0.66848108  1
  Ag  Ag18  1  0.16722218  0.50721169  0.35033828  1
  Ag  Ag19  1  0.32599502  0.49939465  0.15425456  1
  Ag  Ag20  1  0.84134378  0.00251296  0.17052626  1
  Ag  Ag21  1  0.66562496  0.33130244  0.33129537  1
  Ag  Ag22  1  0.01230914  0.50262888  0.83130661  1
  Ag  Ag23  1  0.17196633  0.49310892  -0.01950892  1
  Ag  Ag24  1  0.66240067  0.33087984  0.66907136  1
  Ag  Ag25  1  0.49490625  0.84364135  0.66500579  1
  Ag  Ag26  1  0.49426003  0.00134373  0.50005346  1
  Ag  Ag27  1  0.32163472  0.17792866  0.83473098  1
  Ag  Ag28  1  0.16415362  -0.00622474  0.50252372  1
  Ag  Ag29  1  0.00554477  0.83386305  0.82757306  1
  Ag  Ag30  1  0.67078431  0.66336048  0.33458668  1
  Ag  Ag31  1  0.50307812  0.16743941  0.32080443  1
  Ag  Ag32  1  0.01054886  0.16016985  0.83388513  1
  Ag  Ag33  1  0.49761177  0.00855283  0.16848555  1
  Ag  Ag34  1  0.00538994  0.82981740  0.50236273  1
  Ag  Ag35  1  0.16911781  0.17793067  0.67663669  1
  Ag  Ag36  1  0.00312250  0.00135176  -0.00447890  1
  Ag  Ag37  1  0.32085922  0.66423042  0.33448569  1
  Ag  Ag38  1  0.65478696  0.33046270  0.00178561  1
  Ag  Ag39  1  0.84682449  0.66798726  0.83199734  1
  Ag  Ag40  1  0.32157453  0.82971031  0.82941048  1
  Ag  Ag41  1  0.50052864  0.32820557  0.16167695  1
  Ag  Ag42  1  0.49636903  0.16998251  0.00325508  1
  Ag  Ag43  1  0.32336980  0.50406451  0.50157911  1
  Ag  Ag44  1  0.84135058  0.83491356  0.33553267  1
  Ag  Ag45  1  0.16703618  0.34966904  0.51284703  1
  Ag  Ag46  1  0.32166195  0.83010213  0.50267921  1
  Ag  Ag47  1  0.16323280  0.01728576  0.82940804  1
  Ag  Ag48  1  0.01371797  0.33035445  0.66857197  1
  Ag  Ag49  1  0.32991688  0.65543978  -0.00173602  1
  Ag  Ag50  1  0.32472119  0.33274411  0.67460199  1
  Ag  Ag51  1  0.84772296  0.67289236  0.49620599  1
  Ag  Ag52  1  0.00403689  0.66711540  0.34109941  1
  Ag  Ag53  1  0.01043001  0.50052941  0.16293416  1
  Sb  Sb54  1  0.66863045  0.00308578  0.33285584  1
  Sb  Sb55  1  0.32607847  0.00280245  -0.00162805  1
  Sb  Sb56  1  0.84133331  0.33474470  0.83362925  1
  Sb  Sb57  1  0.33231076  -0.00369611  0.33492142  1
  Sb  Sb58  1  0.49018296  0.00268649  0.83213445  1
  Sb  Sb59  1  0.49407332  0.32954983  0.49851351  1
  Sb  Sb60  1  0.83996731  0.49808957  -0.00019333  1
  Sb  Sb61  1  0.82940212  0.32669799  0.16643248  1
  Sb  Sb62  1  0.66617765  0.16968699  0.83779855  1
  Sb  Sb63  1  0.48961598  0.33161113  0.83924381  1
  Sb  Sb64  1  0.32499901  0.00464029  0.66700226  1
  Sb  Sb65  1  0.16686680  0.66485019  0.16927774  1
  Sb  Sb66  1  0.66770530  0.66237339  0.66228474  1
  Sb  Sb67  1  0.17090644  0.33450817  0.16421179  1
  Sb  Sb68  1  0.66570335  0.49735788  0.83360597  1
  Sb  Sb69  1  0.33677422  0.17203227  0.15985828  1
  Sb  Sb70  1  0.16369860  0.83375385  -0.00424426  1
  Sb  Sb71  1  0.49855445  0.83753543  0.33694465  1
  Sb  Sb72  1  0.84022299  0.50320875  0.33319170  1
  Sb  Sb73  1  0.49998733  0.83845593  -0.00315639  1
  Sb  Sb74  1  0.33479705  0.33797633  0.33317486  1
  Sb  Sb75  1  0.48978190  0.49318190  0.67182291  1
  Sb  Sb76  1  0.00208036  0.16340980  0.50525900  1
  Sb  Sb77  1  -0.00136499  0.33794973  0.33799295  1
  Sb  Sb78  1  0.66793474  0.84005669  0.16829430  1
  Sb  Sb79  1  0.16683077  0.16637725  0.33363823  1
  Sb  Sb80  1  0.49264550  0.49644486  0.32955002  1
  Sb  Sb81  1  0.16921693  0.83517941  0.66540028  1
  Sb  Sb82  1  0.33138163  0.16663312  0.50500474  1
  Sb  Sb83  1  0.66977823  0.83263327  0.49822452  1
  Sb  Sb84  1  0.49068615  0.66688559  0.83339410  1
  Sb  Sb85  1  0.83557659  0.67265035  0.16972492  1
  Sb  Sb86  1  0.33066456  0.82994675  0.16670365  1
  Sb  Sb87  1  0.66832266  0.00533530  0.66476359  1
  Sb  Sb88  1  0.66571776  0.16775279  0.49490774  1
  Sb  Sb89  1  0.00573632  0.66854325  -0.00162437  1
  Sb  Sb90  1  0.67118586  0.83170420  0.83329999  1
  Sb  Sb91  1  0.83516465  0.83494993  0.66426733  1
  Sb  Sb92  1  0.66727074  0.49898628  0.49781272  1
  Sb  Sb93  1  0.84386222  0.49946525  0.66644270  1
  Sb  Sb94  1  0.49282589  0.67114362  0.49840304  1
  Sb  Sb95  1  0.66577150  0.66119921  0.00364097  1
  Sb  Sb96  1  -0.00027003  -0.00442821  0.33446130  1
  Sb  Sb97  1  0.32906439  0.66373620  0.66689329  1
  Sb  Sb98  1  0.83772843  0.16594084  0.66937248  1
  Sb  Sb99  1  0.00455210  0.66670278  0.66464135  1
  Sb  Sb100  1  0.00593679  0.33011518  -0.00534396  1
  Sb  Sb101  1  0.83901056  0.33244859  0.49966691  1
  Sb  Sb102  1  0.84453945  -0.00318563  0.83592030  1
  Sb  Sb103  1  0.00228259  0.83183118  0.16869665  1
  Sb  Sb104  1  0.49809266  0.66506858  0.16815292  1
  Sb  Sb105  1  0.67266968  0.00820870  0.00239138  1
  Sb  Sb106  1  0.66456203  0.49263543  0.16730442  1
  Sb  Sb107  1  -0.00124971  0.16843347  0.16127558  1
  Te  Te108  1  0.16733277  0.16198905  0.16620587  1
  Te  Te109  1  0.16713725  0.15366411  0.49965855  1
  Te  Te110  1  0.16609690  0.17173351  0.83245152  1
  Te  Te111  1  0.16821202  0.49950299  0.16703209  1
  Te  Te112  1  0.16654747  0.50448056  0.50486647  1
  Te  Te113  1  0.16703485  0.49343367  0.82560110  1
  Te  Te114  1  0.16737070  0.84063526  0.17193955  1
  Te  Te115  1  0.16497049  0.83361635  0.50206864  1
  Te  Te116  1  0.16422744  0.83340145  0.83276074  1
  Te  Te117  1  0.49899155  0.16701291  0.16398539  1
  Te  Te118  1  0.49899149  0.16215555  0.50645965  1
  Te  Te119  1  0.49739243  0.16537643  0.83162165  1
  Te  Te120  1  0.49669829  0.49719814  0.16153065  1
  Te  Te121  1  0.49475801  0.50058341  0.50092273  1
  Te  Te122  1  0.49594962  0.50172705  0.84127133  1
  Te  Te123  1  0.49959154  0.84275339  0.16681228  1
  Te  Te124  1  0.49925552  0.83864806  0.50291409  1
  Te  Te125  1  0.49981575  0.83455463  0.82779500  1
  Te  Te126  1  0.83217029  0.16147084  0.16481431  1
  Te  Te127  1  0.83343852  0.16224389  0.49588215  1
  Te  Te128  1  0.83647773  0.16534947  0.83917255  1
  Te  Te129  1  0.83780059  0.50097776  0.16617700  1
  Te  Te130  1  0.83782210  0.50519526  0.49946839  1
  Te  Te131  1  0.83680284  0.50717577  0.83384557  1
  Te  Te132  1  0.83459403  0.84032319  0.16740884  1
  Te  Te133  1  0.83589617  0.83335476  0.49762871  1
  Te  Te134  1  0.83848608  0.82950216  0.83471756  1
  Te  Te135  1  0.16303144  0.00070614  -0.00042296  1
  Te  Te136  1  0.16639998  -0.00120773  0.33736634  1
  Te  Te137  1  0.16209276  0.00081211  0.66811949  1
  Te  Te138  1  0.17057795  0.33253556  0.00046304  1
  Te  Te139  1  0.16616616  0.33592332  0.33604457  1
  Te  Te140  1  0.16943791  0.33225444  0.66650780  1
  Te  Te141  1  0.17077935  0.66511215  -0.00145962  1
  Te  Te142  1  0.16465695  0.66602849  0.33280243  1
  Te  Te143  1  0.16705851  0.65942252  0.66791884  1
  Te  Te144  1  0.50135135  0.00579778  0.00204090  1
  Te  Te145  1  0.50064082  0.00529213  0.33399570  1
  Te  Te146  1  0.50098255  0.00447861  0.66543032  1
  Te  Te147  1  0.49698628  0.32976050  0.00070952  1
  Te  Te148  1  0.50334947  0.32886431  0.33076249  1
  Te  Te149  1  0.50096604  0.32805741  0.66565079  1
  Te  Te150  1  0.49614040  0.66830829  0.00096552  1
  Te  Te151  1  0.50565407  0.66728852  0.33321120  1
  Te  Te152  1  0.50122190  0.66901549  0.66611559  1
  Te  Te153  1  0.83751118  0.00172986  0.00173575  1
  Te  Te154  1  0.83354298  -0.00131577  0.33290247  1
  Te  Te155  1  0.83761001  0.00049190  0.65884723  1
  Te  Te156  1  0.83165312  0.32769118  -0.00002726  1
  Te  Te157  1  0.82736597  0.32935149  0.33427816  1
  Te  Te158  1  0.82352384  0.33240416  0.66571542  1
  Te  Te159  1  0.83266359  0.66813211  -0.00259909  1
  Te  Te160  1  0.83650447  0.66978940  0.33582109  1
  Te  Te161  1  0.83244203  0.66728996  0.66553422  1
  Te  Te162  1  0.00245827  0.16446525  -0.00396979  1
  Te  Te163  1  -0.00576741  0.16850574  0.33193357  1
  Te  Te164  1  0.00237903  0.16738303  0.67169527  1
  Te  Te165  1  0.00675384  0.49980010  -0.00213590  1
  Te  Te166  1  0.00459276  0.50319133  0.33896134  1
  Te  Te167  1  0.00358980  0.49625239  0.66747132  1
  Te  Te168  1  -0.00392955  0.83613308  -0.00115484  1
  Te  Te169  1  0.00116541  0.82974773  0.33545582  1
  Te  Te170  1  -0.00121655  0.83942418  0.66614888  1
  Te  Te171  1  0.33128128  0.16698470  -0.00541318  1
  Te  Te172  1  0.33938932  0.16790965  0.33321583  1
  Te  Te173  1  0.33053686  0.16989747  0.67140224  1
  Te  Te174  1  0.32753138  0.50029122  -0.00164397  1
  Te  Te175  1  0.32960457  0.50400489  0.34191868  1
  Te  Te176  1  0.33076368  0.49601114  0.66382382  1
  Te  Te177  1  0.33488343  0.83061198  -0.00357822  1
  Te  Te178  1  0.33058062  0.82658069  0.33687602  1
  Te  Te179  1  0.33616901  0.83292764  0.66609668  1
  Te  Te180  1  0.66320866  0.17170388  0.00356480  1
  Te  Te181  1  0.66649626  0.16876933  0.32889523  1
  Te  Te182  1  0.66662652  0.17152949  0.66744696  1
  Te  Te183  1  0.66695264  0.49274202  0.00080738  1
  Te  Te184  1  0.66541078  0.49772419  0.33223123  1
  Te  Te185  1  0.66376590  0.49335689  0.66629621  1
  Te  Te186  1  0.67421632  0.83142903  0.00057424  1
  Te  Te187  1  0.67110998  0.82718481  0.33215615  1
  Te  Te188  1  0.65831968  0.83266710  0.66667827  1
  Te  Te189  1  0.00111259  0.00053870  0.16227144  1
  Te  Te190  1  0.00160954  -0.00262036  0.50012836  1
  Te  Te191  1  0.00397453  -0.00094893  0.83349498  1
  Te  Te192  1  -0.00102834  0.34083323  0.16725564  1
  Te  Te193  1  0.00518294  0.33351305  0.50624842  1
  Te  Te194  1  0.00386431  0.33697646  0.82913737  1
  Te  Te195  1  -0.00019335  0.66024174  0.17093749  1
  Te  Te196  1  0.00369139  0.66924603  0.50176687  1
  Te  Te197  1  0.00494380  0.66766767  0.83287083  1
  Te  Te198  1  0.33266030  -0.00052296  0.16665271  1
  Te  Te199  1  0.33397773  -0.00544965  0.50117700  1
  Te  Te200  1  0.32416236  -0.00928252  0.83250537  1
  Te  Te201  1  0.33852289  0.33907895  0.16417146  1
  Te  Te202  1  0.32748674  0.33443621  0.50162284  1
  Te  Te203  1  0.33049391  0.33507344  0.83462629  1
  Te  Te204  1  0.33406550  0.66164550  0.16934258  1
  Te  Te205  1  0.32950326  0.66916549  0.49864946  1
  Te  Te206  1  0.32756028  0.66804832  0.83434279  1
  Te  Te207  1  0.66308626  0.00672400  0.16714179  1
  Te  Te208  1  0.66126894  -0.00015366  0.49999602  1
  Te  Te209  1  0.66761640  -0.00001615  0.83302323  1
  Te  Te210  1  0.66272604  0.32847495  0.16623605  1
  Te  Te211  1  0.66664830  0.33455172  0.49617808  1
  Te  Te212  1  0.66977396  0.33420845  0.83455645  1
  Te  Te213  1  0.66683372  0.66589647  0.17288327  1
  Te  Te214  1  0.66865189  0.66474802  0.49489406  1
  Te  Te215  1  0.67053313  0.66503016  0.83288948  1
