# generated using pymatgen
data_AgSbTe2
_symmetry_space_group_name_H-M   'P 1'
_cell_length_a   18.34865071
_cell_length_b   18.34492976
_cell_length_c   18.34168918
_cell_angle_alpha   90.00072869
_cell_angle_beta   90.00298961
_cell_angle_gamma   89.99853692
_symmetry_Int_Tables_number   1
_chemical_formula_structural   AgSbTe2
_chemical_formula_sum   'Ag54 Sb54 Te108'
_cell_volume   6173.89892852
_cell_formula_units_Z   54
loop_
 _symmetry_equiv_pos_site_id
 _symmetry_equiv_pos_as_xyz
  1  'x, y, z'
loop_
 _atom_site_type_symbol
 _atom_site_label
 _atom_site_symmetry_multiplicity
 _atom_site_fract_x
 _atom_site_fract_y
 _atom_site_fract_z
 _atom_site_occupancy
  Ag  Ag0  1  0.65450423  0.33460798  0.65908064  1
  Ag  Ag1  1  0.48808741  0.50615493  0.33417878  1
  Ag  Ag2  1  0.00968205  0.15966704  0.49721693  1
  Ag  Ag3  1  0.83961642  0.83527233  0.32537214  1
  Ag  Ag4  1  0.66751439  0.15766682  0.17569120  1
  Ag  Ag5  1  -0.00335274  0.83610909  0.83595522  1
  Ag  Ag6  1  0.16503886  -0.00486705  0.82963243  1
  Ag  Ag7  1  0.32847082  0.83226512  0.18025360  1
  Ag  Ag8  1  0.33373724  0.50146931  0.82211987  1
  Ag  Ag9  1  0.33461468  0.33303591  0.34019190  1
  Ag  Ag10  1  0.33708465  0.33798715  0.65894106  1
  Ag  Ag11  1  0.33531356  0.66394058  0.66611906  1
  Ag  Ag12  1  0.33244913  0.83505658  0.82923543  1
  Ag  Ag13  1  0.84103754  0.68040464  0.16975329  1
  Ag  Ag14  1  0.16573122  0.82995803  0.32999499  1
  Ag  Ag15  1  0.16847573  0.15319867  0.00088713  1
  Ag  Ag16  1  0.00426608  -0.00595849  0.33739124  1
  Ag  Ag17  1  0.49672611  0.32503324  0.50238107  1
  Ag  Ag18  1  0.65964031  0.67151653  0.66476059  1
  Ag  Ag19  1  0.33209982  0.49950372  0.50203627  1
  Ag  Ag20  1  0.67016618  -0.00435268  0.00381836  1
  Ag  Ag21  1  0.83174108  -0.00910957  0.17160070  1
  Ag  Ag22  1  0.49322255  0.83030512  0.33416662  1
  Ag  Ag23  1  0.66256308  0.33294397  0.33738310  1
  Ag  Ag24  1  0.83838227  -0.00258233  0.49753016  1
  Ag  Ag25  1  0.83738571  0.33235542  0.17168385  1
  Ag  Ag26  1  0.00547650  0.67666691  0.33125646  1
  Ag  Ag27  1  0.33350437  0.16395661  0.82077994  1
  Ag  Ag28  1  0.00275197  0.51549340  0.17215911  1
  Ag  Ag29  1  0.32731833  -0.00952434  0.33875783  1
  Ag  Ag30  1  -0.00423727  0.83217455  0.17409662  1
  Ag  Ag31  1  0.49423107  0.33762902  0.82166507  1
  Ag  Ag32  1  0.49820641  0.17095765  0.66114003  1
  Ag  Ag33  1  0.49607861  0.00298980  0.49889551  1
  Ag  Ag34  1  0.83603009  0.83749010  0.01127043  1
  Ag  Ag35  1  0.33494862  0.83876588  0.49748812  1
  Ag  Ag36  1  0.83910140  -0.00565123  0.83065972  1
  Ag  Ag37  1  0.49609911  0.66825777  0.82953427  1
  Ag  Ag38  1  0.65856349  0.15720107  0.49807875  1
  Ag  Ag39  1  0.66360249  0.83926213  0.49477957  1
  Ag  Ag40  1  0.16961656  0.50972937  0.33547940  1
  Ag  Ag41  1  0.16324677  0.33741098  0.17237032  1
  Ag  Ag42  1  -0.00112449  -0.00262145  0.65451747  1
  Ag  Ag43  1  0.68097385  0.83675279  0.17213730  1
  Ag  Ag44  1  0.17228255  0.50109657  0.65428810  1
  Ag  Ag45  1  0.33737915  0.16441908  0.50162859  1
  Ag  Ag46  1  0.67170970  0.83531838  0.82939218  1
  Ag  Ag47  1  0.16922227  -0.00408183  0.49846316  1
  Ag  Ag48  1  0.00463384  0.33312816  0.33177364  1
  Ag  Ag49  1  0.49894231  0.67242344  0.17349947  1
  Ag  Ag50  1  0.16357555  0.67488246  0.17503350  1
  Ag  Ag51  1  0.16417615  0.83533012  0.01143935  1
  Ag  Ag52  1  0.16978615  0.67778586  0.49474114  1
  Ag  Ag53  1  0.83089713  0.83638419  0.66698929  1
  Sb  Sb54  1  0.82617889  0.32602583  0.49353156  1
  Sb  Sb55  1  0.00632707  0.15729089  0.82635508  1
  Sb  Sb56  1  -0.00217594  0.16090718  0.17226457  1
  Sb  Sb57  1  0.33415936  -0.00356284  0.00256656  1
  Sb  Sb58  1  0.00158340  0.67268832  0.00854764  1
  Sb  Sb59  1  0.16559260  0.83330337  0.66226392  1
  Sb  Sb60  1  0.00059159  0.33133330  0.00899435  1
  Sb  Sb61  1  0.16232484  -0.00493870  0.17042653  1
  Sb  Sb62  1  0.83835771  0.50643835  0.66620415  1
  Sb  Sb63  1  0.82798793  0.16050708  0.66378229  1
  Sb  Sb64  1  0.32804742  0.50673687  0.17392981  1
  Sb  Sb65  1  0.66603409  0.32351731  0.00464753  1
  Sb  Sb66  1  0.17270564  0.32949220  0.83627864  1
  Sb  Sb67  1  0.32635551  0.67009709  0.33991875  1
  Sb  Sb68  1  0.50430999  -0.00665725  0.17621430  1
  Sb  Sb69  1  0.17374588  0.16843659  0.66575002  1
  Sb  Sb70  1  0.67018458  0.50475696  0.16964229  1
  Sb  Sb71  1  0.33646284  0.16349756  0.17223047  1
  Sb  Sb72  1  0.50057132  0.16412051  0.33961978  1
  Sb  Sb73  1  0.49987424  0.83388439  0.00392820  1
  Sb  Sb74  1  0.49630233  0.16460399  -0.00499835  1
  Sb  Sb75  1  0.33299576  0.66989571  -0.00251754  1
  Sb  Sb76  1  0.16899136  0.50611054  0.00637830  1
  Sb  Sb77  1  -0.00243570  -0.00328478  0.00238329  1
  Sb  Sb78  1  0.83282130  0.15942192  0.33323629  1
  Sb  Sb79  1  0.00880645  0.50632565  0.83547306  1
  Sb  Sb80  1  0.65888311  0.50052685  0.49894007  1
  Sb  Sb81  1  0.49152514  0.49636048  0.65950045  1
  Sb  Sb82  1  0.00318975  0.32836502  0.65896779  1
  Sb  Sb83  1  0.16720601  0.16398386  0.33188050  1
  Sb  Sb84  1  0.17254386  0.67456968  0.83000862  1
  Sb  Sb85  1  0.33236153  0.33179840  0.00019824  1
  Sb  Sb86  1  0.50117687  0.83506063  0.66162115  1
  Sb  Sb87  1  0.83407723  0.50851677  0.00432620  1
  Sb  Sb88  1  0.83731684  0.15794214  0.00350951  1
  Sb  Sb89  1  0.67019406  -0.00368363  0.66433554  1
  Sb  Sb90  1  0.00188384  0.84034766  0.49445820  1
  Sb  Sb91  1  0.17631124  0.33044735  0.49266560  1
  Sb  Sb92  1  0.00362075  0.67487191  0.65999942  1
  Sb  Sb93  1  0.00903216  0.49469026  0.49175429  1
  Sb  Sb94  1  0.82700122  0.32639821  0.83489680  1
  Sb  Sb95  1  0.32999354  -0.00112381  0.66004591  1
  Sb  Sb96  1  0.82934529  0.67684769  0.83610493  1
  Sb  Sb97  1  0.49845388  0.50086275  0.00450576  1
  Sb  Sb98  1  0.65807696  0.50599432  0.82931180  1
  Sb  Sb99  1  0.83733106  0.67814174  0.49491306  1
  Sb  Sb100  1  0.49749900  -0.00384646  0.82717226  1
  Sb  Sb101  1  0.66837082  0.66937350  0.33613363  1
  Sb  Sb102  1  0.83765189  0.50311173  0.33321966  1
  Sb  Sb103  1  0.49959840  0.33699237  0.17583879  1
  Sb  Sb104  1  0.66867065  -0.00155140  0.33476426  1
  Sb  Sb105  1  0.66639448  0.67588166  -0.00061916  1
  Sb  Sb106  1  0.49339250  0.66931800  0.49931823  1
  Sb  Sb107  1  0.66036532  0.16125768  0.82854474  1
  Te  Te108  1  0.16681703  0.16718283  0.16118233  1
  Te  Te109  1  0.17021395  0.16079892  0.49970045  1
  Te  Te110  1  0.17237061  0.16145511  0.83596670  1
  Te  Te111  1  0.16373527  0.49960484  0.17165592  1
  Te  Te112  1  0.17262285  0.49610299  0.49534482  1
  Te  Te113  1  0.17253814  0.50136105  0.83618156  1
  Te  Te114  1  0.16759682  0.83409429  0.16872854  1
  Te  Te115  1  0.16854516  0.83542866  0.49746415  1
  Te  Te116  1  0.16753421  0.83640402  0.82811536  1
  Te  Te117  1  0.50664306  0.16706797  0.16398916  1
  Te  Te118  1  0.49914579  0.16570197  0.50051384  1
  Te  Te119  1  0.49386571  0.16781590  0.82776167  1
  Te  Te120  1  0.49888693  0.50618172  0.17253428  1
  Te  Te121  1  0.49308453  0.49865994  0.49252230  1
  Te  Te122  1  0.49393246  0.50222504  0.83528721  1
  Te  Te123  1  0.48940827  0.83048443  0.17040719  1
  Te  Te124  1  0.50005360  0.83422937  0.49642103  1
  Te  Te125  1  0.49836813  0.83092956  0.83305285  1
  Te  Te126  1  0.82839449  0.17106676  0.16663193  1
  Te  Te127  1  0.82481092  0.15859794  0.49966142  1
  Te  Te128  1  0.83408508  0.15767927  0.83409161  1
  Te  Te129  1  0.83949282  0.49365941  0.16668223  1
  Te  Te130  1  0.83462308  0.50147476  0.50121241  1
  Te  Te131  1  0.83656198  0.49895557  0.83593906  1
  Te  Te132  1  0.83596405  0.83560616  0.16810963  1
  Te  Te133  1  0.83120209  0.83761537  0.50326243  1
  Te  Te134  1  0.83125005  0.83668461  0.83022926  1
  Te  Te135  1  0.16741139  -0.00522311  -0.00234272  1
  Te  Te136  1  0.16620940  -0.00187275  0.33584773  1
  Te  Te137  1  0.16152803  0.00097958  0.66624999  1
  Te  Te138  1  0.16594258  0.33583448  0.00731402  1
  Te  Te139  1  0.16713286  0.33019660  0.33106711  1
  Te  Te140  1  0.17158271  0.33858366  0.66756957  1
  Te  Te141  1  0.16692882  0.67439741  0.00723175  1
  Te  Te142  1  0.16541152  0.66771180  0.33351204  1
  Te  Te143  1  0.17041276  0.66265803  0.66205584  1
  Te  Te144  1  0.50791686  0.00036603  -0.00029257  1
  Te  Te145  1  0.49420729  -0.00560948  0.34013087  1
  Te  Te146  1  0.50045449  0.00572005  0.65973637  1
  Te  Te147  1  0.50049947  0.33292388  -0.00712059  1
  Te  Te148  1  0.49841035  0.33365158  0.33666387  1
  Te  Te149  1  0.49726497  0.33495143  0.66421212  1
  Te  Te150  1  0.50063600  0.66587147  -0.00231829  1
  Te  Te151  1  0.50179495  0.66794108  0.33283385  1
  Te  Te152  1  0.49949588  0.66583555  0.66800235  1
  Te  Te153  1  0.83068501  -0.00496401  0.00078492  1
  Te  Te154  1  0.83489563  -0.00520142  0.33401682  1
  Te  Te155  1  0.83658729  -0.00353685  0.66688609  1
  Te  Te156  1  0.83269460  0.33300269  0.00437729  1
  Te  Te157  1  0.83275296  0.33499987  0.33039154  1
  Te  Te158  1  0.83142918  0.33493079  0.66739463  1
  Te  Te159  1  0.83337584  0.67575248  0.00813610  1
  Te  Te160  1  0.83803434  0.67090787  0.32828019  1
  Te  Te161  1  0.83175988  0.67264710  0.66689454  1
  Te  Te162  1  0.00891540  0.16588569  -0.00356394  1
  Te  Te163  1  -0.00085334  0.16883038  0.33872994  1
  Te  Te164  1  -0.00059318  0.16068283  0.65897675  1
  Te  Te165  1  0.00064003  0.49993564  0.00813002  1
  Te  Te166  1  0.00441605  0.49301998  0.32877056  1
  Te  Te167  1  0.00829757  0.50069293  0.66707357  1
  Te  Te168  1  0.00129768  0.83409466  -0.00277674  1
  Te  Te169  1  0.00125042  0.83454888  0.33393103  1
  Te  Te170  1  -0.00376627  0.83724987  0.67054524  1
  Te  Te171  1  0.32812434  0.16442554  0.00114433  1
  Te  Te172  1  0.33418496  0.17080179  0.33701717  1
  Te  Te173  1  0.33706817  0.16706123  0.66334113  1
  Te  Te174  1  0.33354155  0.49965192  -0.01075438  1
  Te  Te175  1  0.33018744  0.49694099  0.33570603  1
  Te  Te176  1  0.33075588  0.49899733  0.66415144  1
  Te  Te177  1  0.32894602  0.83457791  -0.01047365  1
  Te  Te178  1  0.33138751  0.83129997  0.33732996  1
  Te  Te179  1  0.33419051  0.83033642  0.66692492  1
  Te  Te180  1  0.66760378  0.15834821  0.00076432  1
  Te  Te181  1  0.66667786  0.17142565  0.33510251  1
  Te  Te182  1  0.66162171  0.17209177  0.66227978  1
  Te  Te183  1  0.66727526  0.49824254  -0.00104945  1
  Te  Te184  1  0.66556920  0.49442388  0.33319780  1
  Te  Te185  1  0.66963130  0.49889150  0.66647618  1
  Te  Te186  1  0.66721762  0.83737869  0.00365318  1
  Te  Te187  1  0.66771417  0.83281449  0.33384644  1
  Te  Te188  1  0.66697868  0.83217385  0.66534957  1
  Te  Te189  1  -0.00587028  -0.00462579  0.17250932  1
  Te  Te190  1  -0.00017158  0.00132789  0.49695839  1
  Te  Te191  1  0.00119353  -0.00441441  0.83494202  1
  Te  Te192  1  0.00114470  0.32527441  0.17197894  1
  Te  Te193  1  -0.00388583  0.32572332  0.49474634  1
  Te  Te194  1  -0.00155822  0.33404265  0.83181449  1
  Te  Te195  1  0.00159973  0.67178182  0.17152728  1
  Te  Te196  1  0.00682372  0.66307116  0.49343648  1
  Te  Te197  1  -0.00020256  0.67243630  0.83213605  1
  Te  Te198  1  0.33490873  -0.00469472  0.17333469  1
  Te  Te199  1  0.33133990  -0.00122430  0.49903195  1
  Te  Te200  1  0.33117814  -0.00028355  0.83378211  1
  Te  Te201  1  0.33010967  0.33409514  0.16996563  1
  Te  Te202  1  0.33593946  0.33065451  0.50022522  1
  Te  Te203  1  0.33554263  0.32858135  0.83344402  1
  Te  Te204  1  0.33471259  0.67108611  0.16429254  1
  Te  Te205  1  0.32994434  0.66799968  0.50543801  1
  Te  Te206  1  0.33556964  0.66937771  0.82919690  1
  Te  Te207  1  0.66990398  -0.00246116  0.16852706  1
  Te  Te208  1  0.66629136  -0.00143672  0.49998190  1
  Te  Te209  1  0.66656021  -0.00499926  0.83332994  1
  Te  Te210  1  0.66758142  0.33375481  0.17081126  1
  Te  Te211  1  0.66210699  0.33408067  0.49948663  1
  Te  Te212  1  0.66131736  0.33272985  0.83050629  1
  Te  Te213  1  0.66339923  0.67235156  0.16746489  1
  Te  Te214  1  0.66765806  0.66934332  0.50488141  1
  Te  Te215  1  0.66202172  0.67346589  0.82920409  1
