# generated using pymatgen
data_AgSbTe2
_symmetry_space_group_name_H-M   'P 1'
_cell_length_a   18.32318557
_cell_length_b   18.32512571
_cell_length_c   18.32767863
_cell_angle_alpha   90.00143623
_cell_angle_beta   89.99992173
_cell_angle_gamma   89.99880913
_symmetry_Int_Tables_number   1
_chemical_formula_structural   AgSbTe2
_chemical_formula_sum   'Ag54 Sb54 Te108'
_cell_volume   6153.97040271
_cell_formula_units_Z   54
loop_
 _symmetry_equiv_pos_site_id
 _symmetry_equiv_pos_as_xyz
  1  'x, y, z'
loop_
 _atom_site_type_symbol
 _atom_site_label
 _atom_site_symmetry_multiplicity
 _atom_site_fract_x
 _atom_site_fract_y
 _atom_site_fract_z
 _atom_site_occupancy
  Ag  Ag0  1  0.49347997  0.17577142  0.33130175  1
  Ag  Ag1  1  0.33317875  0.17219648  0.83859165  1
  Ag  Ag2  1  0.17112567  0.16942266  0.33771262  1
  Ag  Ag3  1  0.16759690  0.83361386  0.33841886  1
  Ag  Ag4  1  0.66203885  0.33824949  0.32659764  1
  Ag  Ag5  1  -0.00030542  0.17450130  0.16556092  1
  Ag  Ag6  1  0.66853341  0.66050821  0.33152495  1
  Ag  Ag7  1  0.33270274  0.83235878  0.16312033  1
  Ag  Ag8  1  0.50319900  0.49423268  0.33293746  1
  Ag  Ag9  1  0.83023325  0.49982828  -0.00714367  1
  Ag  Ag10  1  0.33957726  0.66362384  -0.00287703  1
  Ag  Ag11  1  0.67121533  0.49575776  0.15910589  1
  Ag  Ag12  1  0.16989680  0.00149619  0.50346603  1
  Ag  Ag13  1  -0.00240720  0.33193813  0.00326298  1
  Ag  Ag14  1  0.83049203  0.49936499  0.67910397  1
  Ag  Ag15  1  0.66215121  0.82972985  0.50588083  1
  Ag  Ag16  1  0.33922933  0.32957533  0.32740315  1
  Ag  Ag17  1  -0.01403986  0.49574265  0.84081260  1
  Ag  Ag18  1  0.16579520  -0.00418292  0.83117762  1
  Ag  Ag19  1  0.50760535  0.33192599  0.16859044  1
  Ag  Ag20  1  0.50166084  0.83158766  0.67019889  1
  Ag  Ag21  1  0.33437970  0.33486236  0.00241965  1
  Ag  Ag22  1  0.33476566  0.17062576  0.16894549  1
  Ag  Ag23  1  0.17261546  0.83338633  0.66764953  1
  Ag  Ag24  1  0.66636291  0.17243735  0.84131889  1
  Ag  Ag25  1  0.66467043  0.00015425  0.67575131  1
  Ag  Ag26  1  0.00026080  0.17376586  0.83911592  1
  Ag  Ag27  1  0.00023713  0.33460775  0.32721305  1
  Ag  Ag28  1  0.16166222  0.32082205  0.49612910  1
  Ag  Ag29  1  0.50826553  0.66742472  0.83679378  1
  Ag  Ag30  1  -0.00864677  0.49331428  0.16162546  1
  Ag  Ag31  1  0.66847207  0.00229445  -0.00606350  1
  Ag  Ag32  1  -0.00157043  0.00838439  -0.00175805  1
  Ag  Ag33  1  0.66416291  0.17771539  0.16191194  1
  Ag  Ag34  1  0.17198954  0.83264513  -0.00513902  1
  Ag  Ag35  1  0.66494447  0.66228458  -0.00594392  1
  Ag  Ag36  1  0.49977481  0.82962921  -0.00558804  1
  Ag  Ag37  1  0.82763351  0.34204367  0.83278581  1
  Ag  Ag38  1  0.82832470  0.66045788  0.49974577  1
  Ag  Ag39  1  0.00840488  0.17146616  0.48932763  1
  Ag  Ag40  1  0.32824177  0.16991614  0.48758094  1
  Ag  Ag41  1  0.49871275  -0.00434064  0.50100353  1
  Ag  Ag42  1  0.33539101  0.49815544  0.83799186  1
  Ag  Ag43  1  0.66820404  0.33814189  0.00099163  1
  Ag  Ag44  1  -0.00295630  0.65811901  0.33311118  1
  Ag  Ag45  1  0.82984007  0.66209427  0.16131495  1
  Ag  Ag46  1  0.83372535  0.33953176  0.50317860  1
  Ag  Ag47  1  0.82513187  0.65529470  0.83596943  1
  Ag  Ag48  1  0.67360361  0.50237067  0.83989588  1
  Ag  Ag49  1  0.66941049  0.33154219  0.67708688  1
  Ag  Ag50  1  0.50831566  0.67306100  0.50084302  1
  Ag  Ag51  1  0.16652235  0.67065905  0.83385137  1
  Ag  Ag52  1  0.16650712  0.67196353  0.49917991  1
  Ag  Ag53  1  0.66308652  0.82420103  0.83329571  1
  Sb  Sb54  1  0.33920859  0.33155602  0.66864388  1
  Sb  Sb55  1  0.83307374  0.00192953  0.83477477  1
  Sb  Sb56  1  0.16693688  0.00115019  0.16491012  1
  Sb  Sb57  1  0.33504902  0.83065708  0.83853668  1
  Sb  Sb58  1  0.00089593  0.83460212  0.49840678  1
  Sb  Sb59  1  0.83276742  0.17513709  -0.00047538  1
  Sb  Sb60  1  0.83155999  0.17312787  0.66784738  1
  Sb  Sb61  1  0.66154423  0.82981006  0.16262475  1
  Sb  Sb62  1  0.82866493  0.49953171  0.32998673  1
  Sb  Sb63  1  0.16315756  0.50222167  -0.00241273  1
  Sb  Sb64  1  0.33435584  0.66159584  0.32902556  1
  Sb  Sb65  1  0.50642216  0.33864300  0.83903432  1
  Sb  Sb66  1  0.83256802  -0.00305633  0.16353922  1
  Sb  Sb67  1  0.33352002  0.49675343  0.50191406  1
  Sb  Sb68  1  0.00456751  0.83280317  0.16547261  1
  Sb  Sb69  1  0.66652821  0.66615389  0.66955185  1
  Sb  Sb70  1  0.16375058  0.33262889  0.82957271  1
  Sb  Sb71  1  0.16304141  0.66747571  0.16575585  1
  Sb  Sb72  1  -0.00224652  0.00134310  0.67050872  1
  Sb  Sb73  1  -0.00172740  0.66256424  0.00187248  1
  Sb  Sb74  1  -0.00006670  0.83078694  0.83550384  1
  Sb  Sb75  1  -0.00026683  0.66557847  0.66452297  1
  Sb  Sb76  1  0.50004929  -0.00316450  0.83125350  1
  Sb  Sb77  1  0.82890810  0.82728567  0.66817275  1
  Sb  Sb78  1  0.50189673  0.16544539  0.00323746  1
  Sb  Sb79  1  0.83016748  0.33937588  0.16353764  1
  Sb  Sb80  1  0.83382446  0.17281569  0.33294014  1
  Sb  Sb81  1  0.50529950  0.66162327  0.16497039  1
  Sb  Sb82  1  0.16081556  0.50358904  0.66898133  1
  Sb  Sb83  1  0.83035239  0.82579488  -0.00232632  1
  Sb  Sb84  1  0.33350040  0.66640079  0.67311638  1
  Sb  Sb85  1  0.16814820  0.49693639  0.33396947  1
  Sb  Sb86  1  0.33245654  0.00811716  0.33470088  1
  Sb  Sb87  1  0.83289585  0.00114056  0.50151363  1
  Sb  Sb88  1  0.50214508  0.16246899  0.66329904  1
  Sb  Sb89  1  0.49665964  0.83129023  0.33281627  1
  Sb  Sb90  1  0.50080263  0.00508076  0.16864542  1
  Sb  Sb91  1  0.83537707  0.82564212  0.33442957  1
  Sb  Sb92  1  0.16616170  0.33114336  0.17104367  1
  Sb  Sb93  1  0.33430345  0.00038113  -0.00192868  1
  Sb  Sb94  1  -0.00222764  0.49609011  0.49730324  1
  Sb  Sb95  1  0.66404997  0.00169584  0.33230137  1
  Sb  Sb96  1  0.16663191  0.16314268  0.66254920  1
  Sb  Sb97  1  0.33626555  -0.00087580  0.66692626  1
  Sb  Sb98  1  0.66590488  0.16678500  0.49786391  1
  Sb  Sb99  1  -0.00546899  0.33392390  0.66715880  1
  Sb  Sb100  1  0.00436223  0.00572113  0.33003877  1
  Sb  Sb101  1  0.50233704  0.33240123  0.49278562  1
  Sb  Sb102  1  0.33662148  0.49569752  0.16222134  1
  Sb  Sb103  1  0.50736632  0.50303345  0.00165365  1
  Sb  Sb104  1  0.16563397  0.16393194  0.00140542  1
  Sb  Sb105  1  0.33450035  0.83545830  0.49510439  1
  Sb  Sb106  1  0.50697530  0.50385711  0.66602863  1
  Sb  Sb107  1  0.66798524  0.50332592  0.49894884  1
  Te  Te108  1  0.16648117  0.16573543  0.17274202  1
  Te  Te109  1  0.16751949  0.16392593  0.49958449  1
  Te  Te110  1  0.16548769  0.16482749  0.83254321  1
  Te  Te111  1  0.15652183  0.49966684  0.16612199  1
  Te  Te112  1  0.16595963  0.51057202  0.50194797  1
  Te  Te113  1  0.17448630  0.50486019  0.83156077  1
  Te  Te114  1  0.17228087  0.83469683  0.16644012  1
  Te  Te115  1  0.16720006  0.83371952  0.49984633  1
  Te  Te116  1  0.16744763  0.83356878  0.83386067  1
  Te  Te117  1  0.50092666  0.17067853  0.16974354  1
  Te  Te118  1  0.49655729  0.16359100  0.49572314  1
  Te  Te119  1  0.50136735  0.16613933  0.83260176  1
  Te  Te120  1  0.50438748  0.49388789  0.17157998  1
  Te  Te121  1  0.49914262  0.50719007  0.49654259  1
  Te  Te122  1  0.49718089  0.50689018  0.83271765  1
  Te  Te123  1  0.49360514  0.83464617  0.16356302  1
  Te  Te124  1  0.50086388  0.83321342  0.49936039  1
  Te  Te125  1  0.50129923  0.83054138  0.83300726  1
  Te  Te126  1  0.83422127  0.16495054  0.16692701  1
  Te  Te127  1  0.83907135  0.17054351  0.50073921  1
  Te  Te128  1  0.83265640  0.17031493  0.83316011  1
  Te  Te129  1  0.83191163  0.50441830  0.16454218  1
  Te  Te130  1  0.83457341  0.50011111  0.50346109  1
  Te  Te131  1  0.83044005  0.49878422  0.83505487  1
  Te  Te132  1  0.83334356  0.82312631  0.16645150  1
  Te  Te133  1  0.82842262  0.82878545  0.50177999  1
  Te  Te134  1  0.82734858  0.82681208  0.83213645  1
  Te  Te135  1  0.16490682  -0.00393119  -0.00431917  1
  Te  Te136  1  0.16642123  -0.00126431  0.33880130  1
  Te  Te137  1  0.16584153  -0.00551883  0.66730741  1
  Te  Te138  1  0.16691351  0.33311642  -0.00202144  1
  Te  Te139  1  0.16215896  0.33086899  0.33721880  1
  Te  Te140  1  0.16909177  0.33500457  0.65647092  1
  Te  Te141  1  0.16729208  0.67134835  -0.00231606  1
  Te  Te142  1  0.16594277  0.66752318  0.33423951  1
  Te  Te143  1  0.16682815  0.67217970  0.66674377  1
  Te  Te144  1  0.50641126  -0.00712317  -0.00003550  1
  Te  Te145  1  0.49958454  0.00367352  0.34060467  1
  Te  Te146  1  0.50524886  -0.00605070  0.66214164  1
  Te  Te147  1  0.49928756  0.33295279  0.00591429  1
  Te  Te148  1  0.50163080  0.33292644  0.33183044  1
  Te  Te149  1  0.50875694  0.33417843  0.66493101  1
  Te  Te150  1  0.50096420  0.66875810  -0.00173006  1
  Te  Te151  1  0.50310422  0.66429726  0.33572421  1
  Te  Te152  1  0.49946940  0.67154124  0.66361777  1
  Te  Te153  1  0.83138163  -0.00396174  -0.00051838  1
  Te  Te154  1  0.83495437  -0.00251779  0.33290983  1
  Te  Te155  1  0.82409923  -0.00206772  0.66663757  1
  Te  Te156  1  0.83399628  0.33928735  -0.00353548  1
  Te  Te157  1  0.83688882  0.33446259  0.34030123  1
  Te  Te158  1  0.82828895  0.33777184  0.66733662  1
  Te  Te159  1  0.83098122  0.66138966  -0.00268132  1
  Te  Te160  1  0.83249471  0.66525553  0.33951707  1
  Te  Te161  1  0.83356205  0.66090565  0.66573733  1
  Te  Te162  1  -0.00019029  0.17003948  0.00102121  1
  Te  Te163  1  0.00203088  0.17102346  0.33089347  1
  Te  Te164  1  -0.00072748  0.16608560  0.67529496  1
  Te  Te165  1  -0.00299168  0.49658718  0.00045557  1
  Te  Te166  1  0.00109296  0.49802319  0.32975529  1
  Te  Te167  1  -0.00664324  0.49998019  0.67732312  1
  Te  Te168  1  0.00479673  0.83762688  0.00079903  1
  Te  Te169  1  0.00707107  0.83057010  0.33191325  1
  Te  Te170  1  0.00793255  0.83478672  0.66668318  1
  Te  Te171  1  0.33367285  0.17013784  0.00178363  1
  Te  Te172  1  0.33254689  0.17101682  0.33119652  1
  Te  Te173  1  0.33429196  0.16679406  0.67472008  1
  Te  Te174  1  0.33276444  0.49856952  -0.00196923  1
  Te  Te175  1  0.33837098  0.49195462  0.33239013  1
  Te  Te176  1  0.33433723  0.49819184  0.67450936  1
  Te  Te177  1  0.33348661  0.83335070  0.00266977  1
  Te  Te178  1  0.32807602  0.83087542  0.32608586  1
  Te  Te179  1  0.33456661  0.83348773  0.66578725  1
  Te  Te180  1  0.66656761  0.16869338  0.00129357  1
  Te  Te181  1  0.66458534  0.17004285  0.32856065  1
  Te  Te182  1  0.66636964  0.16719132  0.66925286  1
  Te  Te183  1  0.66728535  0.50061044  -0.00005322  1
  Te  Te184  1  0.66357834  0.50053434  0.33297536  1
  Te  Te185  1  0.66983081  0.49341391  0.67174253  1
  Te  Te186  1  0.66389019  0.82909583  -0.00206733  1
  Te  Te187  1  0.66623481  0.83013712  0.33421005  1
  Te  Te188  1  0.66422023  0.83437250  0.66796487  1
  Te  Te189  1  -0.00077097  0.00623089  0.15916162  1
  Te  Te190  1  0.00346100  0.00703835  0.50033196  1
  Te  Te191  1  0.00193143  0.00144874  0.83779336  1
  Te  Te192  1  -0.00196438  0.33300542  0.16549251  1
  Te  Te193  1  0.00024581  0.33127563  0.50084667  1
  Te  Te194  1  -0.00059888  0.33413458  0.83426247  1
  Te  Te195  1  -0.00484337  0.66558005  0.17124561  1
  Te  Te196  1  0.00076452  0.66615607  0.49438521  1
  Te  Te197  1  0.00382063  0.66268057  0.83341082  1
  Te  Te198  1  0.33397709  0.00633459  0.16624815  1
  Te  Te199  1  0.33182119  0.00552820  0.50112945  1
  Te  Te200  1  0.32815446  0.00790786  0.83367502  1
  Te  Te201  1  0.33294428  0.33125442  0.16534058  1
  Te  Te202  1  0.33153997  0.32950561  0.49786572  1
  Te  Te203  1  0.33400840  0.33268422  0.83637689  1
  Te  Te204  1  0.33382804  0.66547108  0.15946120  1
  Te  Te205  1  0.32918606  0.66603793  0.49895486  1
  Te  Te206  1  0.32954225  0.66584596  0.83856082  1
  Te  Te207  1  0.66732173  0.00358306  0.16079903  1
  Te  Te208  1  0.66504554  -0.00347757  0.50012322  1
  Te  Te209  1  0.66665111  0.00335676  0.83483636  1
  Te  Te210  1  0.66908415  0.33497596  0.16605402  1
  Te  Te211  1  0.67068741  0.33347986  0.49308791  1
  Te  Te212  1  0.66697914  0.33277104  0.83848431  1
  Te  Te213  1  0.66924261  0.66440189  0.16938635  1
  Te  Te214  1  0.66674487  0.66823477  0.49947582  1
  Te  Te215  1  0.66553102  0.66533429  0.83338830  1
