# generated using pymatgen
data_AgSbTe2
_symmetry_space_group_name_H-M   'P 1'
_cell_length_a   18.35447048
_cell_length_b   18.35734778
_cell_length_c   18.35292870
_cell_angle_alpha   90.00372504
_cell_angle_beta   89.99641892
_cell_angle_gamma   90.00023829
_symmetry_Int_Tables_number   1
_chemical_formula_structural   AgSbTe2
_chemical_formula_sum   'Ag54 Sb54 Te108'
_cell_volume   6183.82472239
_cell_formula_units_Z   54
loop_
 _symmetry_equiv_pos_site_id
 _symmetry_equiv_pos_as_xyz
  1  'x, y, z'
loop_
 _atom_site_type_symbol
 _atom_site_label
 _atom_site_symmetry_multiplicity
 _atom_site_fract_x
 _atom_site_fract_y
 _atom_site_fract_z
 _atom_site_occupancy
  Ag  Ag0  1  0.50220293  0.34311746  0.51346852  1
  Ag  Ag1  1  0.66591272  0.34288084  0.32621443  1
  Ag  Ag2  1  0.00738670  0.33883755  0.67453804  1
  Ag  Ag3  1  0.15921836  0.18134216  0.66980451  1
  Ag  Ag4  1  0.00645763  0.83232130  0.83746110  1
  Ag  Ag5  1  0.66043547  0.82002239  0.16273077  1
  Ag  Ag6  1  0.00009544  0.16640274  0.83210782  1
  Ag  Ag7  1  0.83860164  0.49969883  0.66823060  1
  Ag  Ag8  1  0.67295065  0.50293393  0.16216630  1
  Ag  Ag9  1  -0.00025423  0.00507022  0.67948959  1
  Ag  Ag10  1  0.32713350  0.34183977  0.67808174  1
  Ag  Ag11  1  0.83567230  0.50348508  0.00182814  1
  Ag  Ag12  1  0.66561530  0.17485806  0.50071281  1
  Ag  Ag13  1  0.83793163  0.66294868  0.15653106  1
  Ag  Ag14  1  0.16129170  0.49986697  0.67415106  1
  Ag  Ag15  1  0.50624165  0.50195034  0.00148073  1
  Ag  Ag16  1  0.33100680  0.83134407  0.83987606  1
  Ag  Ag17  1  0.33230483  0.66177661  0.66651484  1
  Ag  Ag18  1  0.49854589  -0.00641207  0.83930863  1
  Ag  Ag19  1  0.00905013  0.34561696  -0.00644745  1
  Ag  Ag20  1  0.16565533  0.82877172  0.32045051  1
  Ag  Ag21  1  0.49574821  0.33577515  0.83609788  1
  Ag  Ag22  1  0.67028949  -0.00767746  0.33007020  1
  Ag  Ag23  1  0.33361567  0.34103905  -0.00372509  1
  Ag  Ag24  1  0.66774141  0.66025198  0.67083489  1
  Ag  Ag25  1  0.16922420  0.82242481  0.00150611  1
  Ag  Ag26  1  0.50036252  -0.00391490  0.15745520  1
  Ag  Ag27  1  0.32948068  0.50505630  0.16155259  1
  Ag  Ag28  1  0.84235503  0.81880479  0.00031567  1
  Ag  Ag29  1  0.33543911  0.50306615  0.50795091  1
  Ag  Ag30  1  0.49330257  0.83045003  -0.00110229  1
  Ag  Ag31  1  -0.00152286  0.65776560  0.67480676  1
  Ag  Ag32  1  0.66586119  0.34103419  0.67002279  1
  Ag  Ag33  1  0.33744371  -0.01266294  -0.00088793  1
  Ag  Ag34  1  0.49885750  0.66032771  0.50993973  1
  Ag  Ag35  1  0.33487139  0.82475827  0.15965973  1
  Ag  Ag36  1  0.83929825  0.18208481  0.66969002  1
  Ag  Ag37  1  0.33345636  0.82456473  0.50620068  1
  Ag  Ag38  1  0.49984327  0.17112726  -0.00188016  1
  Ag  Ag39  1  -0.00795638  0.66402925  0.00001332  1
  Ag  Ag40  1  0.16035021  0.66414537  0.16275740  1
  Ag  Ag41  1  0.83130667  0.50255452  0.32028470  1
  Ag  Ag42  1  0.65857233  0.34264941  -0.00157196  1
  Ag  Ag43  1  0.67086628  0.66385648  0.31891553  1
  Ag  Ag44  1  0.16807221  0.33457748  0.83540568  1
  Ag  Ag45  1  0.16310527  0.50164675  0.00075336  1
  Ag  Ag46  1  -0.00074220  0.50466821  0.16141253  1
  Ag  Ag47  1  0.67529356  0.66382624  0.00325375  1
  Ag  Ag48  1  0.00452305  -0.01388920  -0.00171757  1
  Ag  Ag49  1  -0.00437600  -0.01000175  0.32408059  1
  Ag  Ag50  1  0.50365049  0.66519283  0.83376230  1
  Ag  Ag51  1  -0.00546583  0.66804855  0.31866969  1
  Ag  Ag52  1  0.83424388  0.66671712  0.84192323  1
  Ag  Ag53  1  0.16797302  0.34558967  0.15250714  1
  Sb  Sb54  1  0.33379336  0.16764823  0.16182141  1
  Sb  Sb55  1  0.83556477  0.82612716  0.67391949  1
  Sb  Sb56  1  0.49824511  0.83111198  0.32765507  1
  Sb  Sb57  1  0.66998853  0.00103436  0.66440869  1
  Sb  Sb58  1  0.33564273  0.66669141  0.33515826  1
  Sb  Sb59  1  0.16620125  0.82880291  0.67090916  1
  Sb  Sb60  1  0.33816286  0.17113674  0.50475242  1
  Sb  Sb61  1  0.66242856  -0.00408755  0.00310277  1
  Sb  Sb62  1  0.16883501  -0.00420428  0.16293845  1
  Sb  Sb63  1  0.33401628  0.50277781  0.83597426  1
  Sb  Sb64  1  0.33430851  0.66544709  -0.00444154  1
  Sb  Sb65  1  0.83288016  -0.00518433  0.83501894  1
  Sb  Sb66  1  0.66217225  0.49799658  0.49696500  1
  Sb  Sb67  1  -0.00092195  0.50250148  0.83995917  1
  Sb  Sb68  1  0.83450987  0.34041546  0.83203622  1
  Sb  Sb69  1  0.66447703  0.82798832  0.84175300  1
  Sb  Sb70  1  0.16601481  -0.00235653  0.50081739  1
  Sb  Sb71  1  0.50314008  0.50139118  0.32845334  1
  Sb  Sb72  1  0.16267664  0.50515715  0.32658480  1
  Sb  Sb73  1  0.50247320  0.16767987  0.32990156  1
  Sb  Sb74  1  0.66848300  0.16879299  0.83092949  1
  Sb  Sb75  1  0.50080812  -0.00184497  0.50005352  1
  Sb  Sb76  1  0.66587847  0.17073911  0.16709067  1
  Sb  Sb77  1  0.17308681  0.33606954  0.50591286  1
  Sb  Sb78  1  0.83138809  0.17174066  -0.00507184  1
  Sb  Sb79  1  0.33170644  0.16765814  0.83591160  1
  Sb  Sb80  1  0.16837663  0.17246835  -0.00476517  1
  Sb  Sb81  1  0.83358653  0.00131627  0.49967299  1
  Sb  Sb82  1  0.83418530  0.34223628  0.16383086  1
  Sb  Sb83  1  0.16233625  0.16385839  0.33634985  1
  Sb  Sb84  1  -0.00362683  0.33767627  0.32994514  1
  Sb  Sb85  1  0.82935165  0.66379187  0.50134131  1
  Sb  Sb86  1  0.00413426  0.50149371  0.49983590  1
  Sb  Sb87  1  0.00095113  0.17108193  0.15905770  1
  Sb  Sb88  1  0.00277958  0.82577402  0.15809881  1
  Sb  Sb89  1  0.00393984  0.83083438  0.50256483  1
  Sb  Sb90  1  0.83651286  0.82648480  0.32733285  1
  Sb  Sb91  1  0.49756027  0.33329359  0.15954263  1
  Sb  Sb92  1  0.66139004  0.83011169  0.49431152  1
  Sb  Sb93  1  0.83033492  0.17111811  0.33791084  1
  Sb  Sb94  1  0.50100399  0.50031157  0.67318943  1
  Sb  Sb95  1  0.49923853  0.82904712  0.67279914  1
  Sb  Sb96  1  0.16552136  0.66312364  0.83787261  1
  Sb  Sb97  1  -0.00391700  0.16698986  0.50982734  1
  Sb  Sb98  1  0.32911485  -0.00156536  0.67329201  1
  Sb  Sb99  1  0.50068922  0.17112589  0.67182500  1
  Sb  Sb100  1  0.83080992  -0.00942081  0.16386725  1
  Sb  Sb101  1  0.17060830  0.66523376  0.49732018  1
  Sb  Sb102  1  0.33396493  -0.00562049  0.32714037  1
  Sb  Sb103  1  0.16565099  0.00291229  0.83609236  1
  Sb  Sb104  1  0.50160863  0.66814848  0.16028436  1
  Sb  Sb105  1  0.82783312  0.33511121  0.50381069  1
  Sb  Sb106  1  0.33702100  0.33629736  0.33119602  1
  Sb  Sb107  1  0.66682236  0.50272450  0.84123380  1
  Te  Te108  1  0.16592782  0.17406771  0.17022506  1
  Te  Te109  1  0.16761195  0.16628729  0.50734818  1
  Te  Te110  1  0.16199201  0.17093043  0.82839223  1
  Te  Te111  1  0.16542470  0.50299225  0.16588895  1
  Te  Te112  1  0.17495455  0.49962850  0.50392568  1
  Te  Te113  1  0.16763933  0.49505693  0.83431532  1
  Te  Te114  1  0.17047482  0.83116661  0.16324091  1
  Te  Te115  1  0.17337423  0.83298806  0.50028384  1
  Te  Te116  1  0.16799964  0.83431152  0.83874704  1
  Te  Te117  1  0.50035893  0.15901609  0.16020646  1
  Te  Te118  1  0.50523346  0.16760875  0.49931481  1
  Te  Te119  1  0.50051838  0.17077686  0.83915917  1
  Te  Te120  1  0.49434104  0.49880507  0.16121049  1
  Te  Te121  1  0.49531876  0.49989410  0.49591003  1
  Te  Te122  1  0.49957650  0.50054858  0.84145249  1
  Te  Te123  1  0.49849637  0.83528096  0.16338288  1
  Te  Te124  1  0.49292695  0.83072332  0.49938357  1
  Te  Te125  1  0.49812237  0.83184601  0.83794429  1
  Te  Te126  1  0.83385336  0.16531044  0.16872028  1
  Te  Te127  1  0.82599966  0.16708998  0.50759675  1
  Te  Te128  1  0.83843799  0.16336060  0.82801454  1
  Te  Te129  1  0.83343054  0.50320268  0.16383853  1
  Te  Te130  1  0.83590421  0.50006220  0.50851709  1
  Te  Te131  1  0.83296439  0.50757338  0.83088950  1
  Te  Te132  1  0.82672683  0.82513879  0.16120931  1
  Te  Te133  1  0.83254663  0.83317235  0.49876535  1
  Te  Te134  1  0.83556891  0.82801538  0.84037983  1
  Te  Te135  1  0.16578421  0.00244265  0.00082373  1
  Te  Te136  1  0.16158205  -0.00410524  0.33236403  1
  Te  Te137  1  0.15938177  -0.00247556  0.66768114  1
  Te  Te138  1  0.16733982  0.33303158  -0.00355273  1
  Te  Te139  1  0.16616031  0.33308691  0.33439214  1
  Te  Te140  1  0.16849639  0.33789565  0.66833334  1
  Te  Te141  1  0.16774894  0.66363929  0.00209798  1
  Te  Te142  1  0.16301226  0.67093621  0.32965149  1
  Te  Te143  1  0.16613902  0.66094862  0.66666136  1
  Te  Te144  1  0.50141916  -0.00517644  -0.00115919  1
  Te  Te145  1  0.50536033  -0.00008676  0.33103000  1
  Te  Te146  1  0.49991239  0.00152463  0.67351794  1
  Te  Te147  1  0.49892177  0.33691307  -0.00098395  1
  Te  Te148  1  0.50632965  0.33293029  0.33314600  1
  Te  Te149  1  0.50210244  0.33344692  0.67052720  1
  Te  Te150  1  0.50021174  0.66540696  -0.00372967  1
  Te  Te151  1  0.50782025  0.66706746  0.33894222  1
  Te  Te152  1  0.49965004  0.66601482  0.67012225  1
  Te  Te153  1  0.83819956  0.00237597  0.00025006  1
  Te  Te154  1  0.83393391  -0.00002829  0.33197089  1
  Te  Te155  1  0.84041161  -0.00419083  0.66681468  1
  Te  Te156  1  0.83152445  0.33794360  -0.00189938  1
  Te  Te157  1  0.82706724  0.33927438  0.33440674  1
  Te  Te158  1  0.82997423  0.33726713  0.66837820  1
  Te  Te159  1  0.83121623  0.66422149  0.00070384  1
  Te  Te160  1  0.83272929  0.66225434  0.33433343  1
  Te  Te161  1  0.83559246  0.66165822  0.66816572  1
  Te  Te162  1  -0.00009105  0.17009600  -0.00774210  1
  Te  Te163  1  -0.00163554  0.16459241  0.33457483  1
  Te  Te164  1  -0.00089927  0.16861861  0.66966747  1
  Te  Te165  1  0.00031664  0.50240182  0.00154653  1
  Te  Te166  1  -0.00471243  0.50531424  0.33072981  1
  Te  Te167  1  0.00229610  0.49785025  0.66506620  1
  Te  Te168  1  0.00187860  0.82913963  -0.00022380  1
  Te  Te169  1  0.00301249  0.83063426  0.33565604  1
  Te  Te170  1  0.00056032  0.83317433  0.67140057  1
  Te  Te171  1  0.33892639  0.16830833  -0.00029484  1
  Te  Te172  1  0.33251090  0.16495839  0.33472038  1
  Te  Te173  1  0.32883255  0.16937136  0.66692071  1
  Te  Te174  1  0.32657847  0.49872048  0.00122911  1
  Te  Te175  1  0.33198504  0.49983997  0.32741713  1
  Te  Te176  1  0.33680021  0.50041703  0.66657403  1
  Te  Te177  1  0.33154066  0.82960359  -0.00006657  1
  Te  Te178  1  0.32715755  0.83358041  0.32920045  1
  Te  Te179  1  0.33287699  0.83050112  0.66472834  1
  Te  Te180  1  0.66294391  0.17171654  -0.00030643  1
  Te  Te181  1  0.66682976  0.17089900  0.33730203  1
  Te  Te182  1  0.66947466  0.16496563  0.66298847  1
  Te  Te183  1  0.66882071  0.50153628  0.00184610  1
  Te  Te184  1  0.66963378  0.50245713  0.33123708  1
  Te  Te185  1  0.66651333  0.50032906  0.66356198  1
  Te  Te186  1  0.66488233  0.83147782  0.00457811  1
  Te  Te187  1  0.66795373  0.83050689  0.32663407  1
  Te  Te188  1  0.66795879  0.83122618  0.66464761  1
  Te  Te189  1  -0.00045998  0.00252277  0.16483732  1
  Te  Te190  1  0.00001528  -0.00040776  0.49563150  1
  Te  Te191  1  -0.00040924  -0.00454839  0.83720518  1
  Te  Te192  1  0.00482161  0.33886954  0.16365000  1
  Te  Te193  1  0.00024913  0.33220685  0.50232469  1
  Te  Te194  1  -0.00088552  0.33352364  0.83332880  1
  Te  Te195  1  -0.00065799  0.66628923  0.16251045  1
  Te  Te196  1  0.00027518  0.66700509  0.50745913  1
  Te  Te197  1  0.00022357  0.67053619  0.83485634  1
  Te  Te198  1  0.33663930  -0.00077435  0.15978657  1
  Te  Te199  1  0.33468428  -0.00269344  0.50007261  1
  Te  Te200  1  0.33722410  -0.00339961  0.83778810  1
  Te  Te201  1  0.32833592  0.33469379  0.16336411  1
  Te  Te202  1  0.34130161  0.33738604  0.49930165  1
  Te  Te203  1  0.33343550  0.33254475  0.83426158  1
  Te  Te204  1  0.33278658  0.66636181  0.16925610  1
  Te  Te205  1  0.33697991  0.66490176  0.50183068  1
  Te  Te206  1  0.33369616  0.67197590  0.82552015  1
  Te  Te207  1  0.66421145  0.00387165  0.17150174  1
  Te  Te208  1  0.66640584  0.00021886  0.49326372  1
  Te  Te209  1  0.66051815  -0.00040938  0.83256147  1
  Te  Te210  1  0.66672384  0.33903320  0.16464070  1
  Te  Te211  1  0.66199111  0.33416652  0.50671812  1
  Te  Te212  1  0.66462486  0.33266663  0.83326790  1
  Te  Te213  1  0.66264812  0.66356534  0.16329424  1
  Te  Te214  1  0.66021585  0.66719477  0.51153776  1
  Te  Te215  1  0.66543064  0.66764061  0.83043217  1
