# generated using pymatgen
data_AgSbTe2
_symmetry_space_group_name_H-M   'P 1'
_cell_length_a   18.33786464
_cell_length_b   18.33678362
_cell_length_c   18.33531530
_cell_angle_alpha   90.00045364
_cell_angle_beta   89.99722652
_cell_angle_gamma   89.99917589
_symmetry_Int_Tables_number   1
_chemical_formula_structural   AgSbTe2
_chemical_formula_sum   'Ag54 Sb54 Te108'
_cell_volume   6165.38647035
_cell_formula_units_Z   54
loop_
 _symmetry_equiv_pos_site_id
 _symmetry_equiv_pos_as_xyz
  1  'x, y, z'
loop_
 _atom_site_type_symbol
 _atom_site_label
 _atom_site_symmetry_multiplicity
 _atom_site_fract_x
 _atom_site_fract_y
 _atom_site_fract_z
 _atom_site_occupancy
  Ag  Ag0  1  0.33838154  0.17151876  0.50355220  1
  Ag  Ag1  1  0.65535024  0.33472021  0.00135176  1
  Ag  Ag2  1  0.33623509  0.66838329  0.32979543  1
  Ag  Ag3  1  0.33141742  0.82069366  0.83954107  1
  Ag  Ag4  1  0.67119745  0.33584645  0.34237945  1
  Ag  Ag5  1  0.82701954  0.65850610  0.17053074  1
  Ag  Ag6  1  0.17592516  0.82933337  0.67116482  1
  Ag  Ag7  1  0.16710307  0.33372403  0.16548915  1
  Ag  Ag8  1  0.83528999  0.65470307  0.49812019  1
  Ag  Ag9  1  0.17312444  0.82899889  -0.00213012  1
  Ag  Ag10  1  0.33105546  0.65527900  -0.00924811  1
  Ag  Ag11  1  0.33156694  -0.00319807  0.32838734  1
  Ag  Ag12  1  0.51072942  0.33213481  0.49975292  1
  Ag  Ag13  1  0.16597061  0.33755179  0.49844584  1
  Ag  Ag14  1  0.17659531  0.50209865  -0.00006660  1
  Ag  Ag15  1  0.48899262  0.17758586  -0.00181265  1
  Ag  Ag16  1  0.33311903  0.33766836  0.66743753  1
  Ag  Ag17  1  0.65908990  0.49755575  0.17007982  1
  Ag  Ag18  1  0.33637190  0.16997908  0.84097381  1
  Ag  Ag19  1  0.33434075  0.34196375  -0.00383295  1
  Ag  Ag20  1  0.01291899  -0.00248817  0.00036000  1
  Ag  Ag21  1  0.48891064  0.49775725  0.00553058  1
  Ag  Ag22  1  0.17642234  0.66569435  0.83506570  1
  Ag  Ag23  1  0.00009740  0.00234760  0.66527307  1
  Ag  Ag24  1  0.83269578  0.49849626  0.66069757  1
  Ag  Ag25  1  0.00678312  0.00514098  0.33597598  1
  Ag  Ag26  1  0.17414084  0.16626240  -0.00019159  1
  Ag  Ag27  1  0.66543739  0.00396530  0.66347241  1
  Ag  Ag28  1  0.01498863  0.66379214  -0.00032347  1
  Ag  Ag29  1  0.33116919  0.50971002  0.84308442  1
  Ag  Ag30  1  0.33021655  0.00091841  0.00332910  1
  Ag  Ag31  1  0.33940028  0.50492709  0.15495311  1
  Ag  Ag32  1  0.65808450  0.65741184  0.66513890  1
  Ag  Ag33  1  0.33225096  0.82099549  0.15589732  1
  Ag  Ag34  1  0.33601439  0.66306671  0.67714277  1
  Ag  Ag35  1  0.49523651  0.82494673  0.33860520  1
  Ag  Ag36  1  0.00152535  0.33834721  0.65844411  1
  Ag  Ag37  1  -0.00680489  0.49456873  0.50301092  1
  Ag  Ag38  1  0.83352101  0.33964944  0.17594035  1
  Ag  Ag39  1  0.66565905  0.33595145  0.65548312  1
  Ag  Ag40  1  0.49933508  0.50244573  0.32824730  1
  Ag  Ag41  1  0.83347052  0.17557155  0.33568512  1
  Ag  Ag42  1  0.65837191  0.17100767  0.82596052  1
  Ag  Ag43  1  0.49761969  0.00699472  0.50077486  1
  Ag  Ag44  1  0.48795856  0.66492235  0.83537228  1
  Ag  Ag45  1  -0.00648555  0.33393293  0.34097217  1
  Ag  Ag46  1  0.66975623  0.49420650  0.49984981  1
  Ag  Ag47  1  0.82401621  0.33669200  0.49672093  1
  Ag  Ag48  1  0.17085517  0.00290606  0.16040991  1
  Ag  Ag49  1  0.65966080  0.18173931  0.50499925  1
  Ag  Ag50  1  0.16892015  0.65849088  0.50659348  1
  Ag  Ag51  1  0.49275980  0.66109833  0.16422018  1
  Ag  Ag52  1  0.00875656  0.49999565  0.83039922  1
  Ag  Ag53  1  0.49370111  0.82934350  0.66225147  1
  Sb  Sb54  1  0.33348609  -0.00142610  0.66766024  1
  Sb  Sb55  1  0.50040452  0.16617649  0.66829140  1
  Sb  Sb56  1  0.82831299  0.49438008  0.33946815  1
  Sb  Sb57  1  0.00608993  0.33604925  0.00000932  1
  Sb  Sb58  1  0.50130871  0.50173198  0.66631660  1
  Sb  Sb59  1  0.49625801  -0.00212477  0.82878823  1
  Sb  Sb60  1  0.83358704  0.00176607  0.83199744  1
  Sb  Sb61  1  0.83191889  0.33551764  0.82969705  1
  Sb  Sb62  1  0.82997381  0.17458122  0.66101844  1
  Sb  Sb63  1  0.65677627  0.82414151  0.16595738  1
  Sb  Sb64  1  0.84011821  0.00143775  0.16856664  1
  Sb  Sb65  1  0.49730890  0.66232637  0.50060689  1
  Sb  Sb66  1  0.00898535  0.83177038  0.16596786  1
  Sb  Sb67  1  0.33455403  0.49591344  0.50188515  1
  Sb  Sb68  1  0.83187341  0.82772251  0.66568333  1
  Sb  Sb69  1  0.66390189  0.82938883  0.50105234  1
  Sb  Sb70  1  0.49204116  -0.00608455  0.17073235  1
  Sb  Sb71  1  0.17432048  0.83327144  0.33180896  1
  Sb  Sb72  1  0.83102403  0.00487458  0.50009258  1
  Sb  Sb73  1  0.16909191  0.16533750  0.67058823  1
  Sb  Sb74  1  0.00058795  0.17495089  0.50019247  1
  Sb  Sb75  1  0.49003285  0.82935198  -0.00120184  1
  Sb  Sb76  1  0.33430822  0.33420019  0.33409366  1
  Sb  Sb77  1  0.83430985  0.16966947  0.00467397  1
  Sb  Sb78  1  0.66553785  0.17665870  0.16844497  1
  Sb  Sb79  1  0.33444808  0.83300162  0.50161875  1
  Sb  Sb80  1  0.16595227  0.50236829  0.66987145  1
  Sb  Sb81  1  0.66213276  0.49582777  0.83167321  1
  Sb  Sb82  1  0.00206009  0.16805353  0.16709453  1
  Sb  Sb83  1  0.00850671  0.82801582  0.83229806  1
  Sb  Sb84  1  0.33378148  0.17034920  0.16266390  1
  Sb  Sb85  1  0.65615760  0.83454552  0.83122518  1
  Sb  Sb86  1  0.66193936  0.65837381  0.33796433  1
  Sb  Sb87  1  0.00362836  0.66421614  0.33119386  1
  Sb  Sb88  1  0.82904094  0.83544197  0.33296407  1
  Sb  Sb89  1  0.83395103  0.49882403  -0.00138795  1
  Sb  Sb90  1  0.00124593  0.49990082  0.16729435  1
  Sb  Sb91  1  0.17263937  0.49959524  0.33010264  1
  Sb  Sb92  1  0.16899559  -0.00570129  0.84045985  1
  Sb  Sb93  1  0.83385326  0.66273016  0.83140130  1
  Sb  Sb94  1  0.17107333  0.33940988  0.83396380  1
  Sb  Sb95  1  0.49817311  0.34045217  0.16707166  1
  Sb  Sb96  1  0.00329137  0.17076954  0.83385662  1
  Sb  Sb97  1  0.84304262  0.83029794  0.00271924  1
  Sb  Sb98  1  0.65995781  0.66064982  -0.00376561  1
  Sb  Sb99  1  0.17385425  0.66446404  0.16181549  1
  Sb  Sb100  1  0.17024763  0.00165145  0.49763517  1
  Sb  Sb101  1  0.00280071  0.82914247  0.50100746  1
  Sb  Sb102  1  0.00392576  0.66246419  0.66905787  1
  Sb  Sb103  1  0.66247223  0.00722510  0.33797648  1
  Sb  Sb104  1  0.66011158  0.00900296  -0.00346977  1
  Sb  Sb105  1  0.50095864  0.17026252  0.33339931  1
  Sb  Sb106  1  0.16610545  0.16797906  0.33052056  1
  Sb  Sb107  1  0.49691617  0.33766500  0.83158850  1
  Te  Te108  1  0.16734169  0.16846262  0.16072975  1
  Te  Te109  1  0.17241227  0.17036818  0.50127336  1
  Te  Te110  1  0.17099819  0.16752906  0.83906634  1
  Te  Te111  1  0.16873361  0.49631581  0.16209999  1
  Te  Te112  1  0.16593470  0.49900208  0.49880986  1
  Te  Te113  1  0.16881177  0.50462435  0.83678257  1
  Te  Te114  1  0.17433464  0.83708629  0.16394556  1
  Te  Te115  1  0.16685089  0.82995952  0.50468903  1
  Te  Te116  1  0.17196570  0.82764992  0.83332319  1
  Te  Te117  1  0.50189212  0.16325514  0.15879362  1
  Te  Te118  1  0.50021594  0.16861995  0.49989050  1
  Te  Te119  1  0.49937337  0.16568793  0.83788319  1
  Te  Te120  1  0.49948193  0.50129678  0.16616747  1
  Te  Te121  1  0.50441200  0.49533199  0.49814121  1
  Te  Te122  1  0.49562744  0.50484667  0.83791581  1
  Te  Te123  1  0.49198738  0.82627548  0.17170019  1
  Te  Te124  1  0.50020972  0.83610393  0.50073135  1
  Te  Te125  1  0.49223082  0.82770518  0.82804727  1
  Te  Te126  1  0.83298924  0.17265415  0.17387040  1
  Te  Te127  1  0.82976062  0.17203569  0.49543988  1
  Te  Te128  1  0.82812091  0.16761532  0.83424846  1
  Te  Te129  1  0.83247644  0.49907293  0.16589503  1
  Te  Te130  1  0.83237206  0.49737568  0.50054209  1
  Te  Te131  1  0.83845834  0.50016963  0.82559549  1
  Te  Te132  1  0.83132870  0.82604391  0.16782394  1
  Te  Te133  1  0.83355263  0.82514781  0.49892116  1
  Te  Te134  1  0.83270824  0.83261580  0.83408092  1
  Te  Te135  1  0.16922109  -0.00070060  0.00066239  1
  Te  Te136  1  0.16725225  0.00046160  0.32914245  1
  Te  Te137  1  0.16275794  -0.00527442  0.66639190  1
  Te  Te138  1  0.16910795  0.33576358  0.00117458  1
  Te  Te139  1  0.16371463  0.33258208  0.33166094  1
  Te  Te140  1  0.16750383  0.33259651  0.66418882  1
  Te  Te141  1  0.17116040  0.66607665  0.00196088  1
  Te  Te142  1  0.17081496  0.66769834  0.33908995  1
  Te  Te143  1  0.16889193  0.66910587  0.66740236  1
  Te  Te144  1  0.49528122  0.00060638  0.00080480  1
  Te  Te145  1  0.49575302  0.00024939  0.33853849  1
  Te  Te146  1  0.50224293  -0.00485350  0.66180919  1
  Te  Te147  1  0.49617991  0.33560447  0.00026130  1
  Te  Te148  1  0.50287339  0.33634695  0.33613697  1
  Te  Te149  1  0.49924195  0.33394549  0.66248902  1
  Te  Te150  1  0.49567319  0.66407136  0.00043676  1
  Te  Te151  1  0.49773489  0.66487321  0.33336743  1
  Te  Te152  1  0.49758158  0.66788313  0.66633415  1
  Te  Te153  1  0.83827957  -0.00031687  0.00137367  1
  Te  Te154  1  0.83778974  0.00426155  0.33308309  1
  Te  Te155  1  0.83315636  -0.00163511  0.66495383  1
  Te  Te156  1  0.83525198  0.33280249  0.00484754  1
  Te  Te157  1  0.83330261  0.33354117  0.33454725  1
  Te  Te158  1  0.83261406  0.33749495  0.66286486  1
  Te  Te159  1  0.83005863  0.66683788  0.00478512  1
  Te  Te160  1  0.83381424  0.66863884  0.33336447  1
  Te  Te161  1  0.83334009  0.66211673  0.66249859  1
  Te  Te162  1  0.00428241  0.16176761  -0.00166617  1
  Te  Te163  1  -0.00309187  0.16688497  0.33385675  1
  Te  Te164  1  -0.00061440  0.16503815  0.66808905  1
  Te  Te165  1  0.00143207  0.50376085  -0.00349827  1
  Te  Te166  1  0.00284548  0.49629230  0.33872569  1
  Te  Te167  1  -0.00088306  0.49777391  0.66466807  1
  Te  Te168  1  0.00959752  0.83416213  -0.00091242  1
  Te  Te169  1  -0.00097150  0.83983096  0.33305555  1
  Te  Te170  1  0.00177870  0.83812571  0.66742708  1
  Te  Te171  1  0.33207553  0.16548055  0.00119758  1
  Te  Te172  1  0.33432810  0.16250806  0.33833755  1
  Te  Te173  1  0.33404725  0.17024756  0.66538058  1
  Te  Te174  1  0.33291505  0.49883199  -0.00089314  1
  Te  Te175  1  0.33925727  0.50236169  0.33237327  1
  Te  Te176  1  0.33428297  0.49913472  0.66982948  1
  Te  Te177  1  0.33258054  0.83797181  -0.00147057  1
  Te  Te178  1  0.33698552  0.83462027  0.33474118  1
  Te  Te179  1  0.33368580  0.83201901  0.66805886  1
  Te  Te180  1  0.66627321  0.17240254  -0.00316544  1
  Te  Te181  1  0.66877151  0.17266788  0.33860629  1
  Te  Te182  1  0.66622542  0.16908427  0.66504981  1
  Te  Te183  1  0.66624215  0.49491778  0.00030151  1
  Te  Te184  1  0.66196302  0.49600731  0.33267339  1
  Te  Te185  1  0.66766450  0.49745123  0.66629960  1
  Te  Te186  1  0.66768909  0.83703780  -0.00130125  1
  Te  Te187  1  0.65789089  0.83459578  0.33246439  1
  Te  Te188  1  0.66396597  0.83626278  0.66762514  1
  Te  Te189  1  0.00568133  -0.00071010  0.16528105  1
  Te  Te190  1  0.00035450  0.00110634  0.49917843  1
  Te  Te191  1  -0.00021391  0.00046588  0.83235320  1
  Te  Te192  1  0.00044188  0.33461698  0.16946182  1
  Te  Te193  1  0.00511284  0.33415377  0.50085039  1
  Te  Te194  1  0.00027797  0.33870198  0.82778531  1
  Te  Te195  1  -0.00458139  0.66665626  0.16226917  1
  Te  Te196  1  0.00074265  0.66127694  0.49934120  1
  Te  Te197  1  0.00157311  0.66123377  0.83871534  1
  Te  Te198  1  0.33008790  0.00228276  0.16760405  1
  Te  Te199  1  0.33633554  0.00488466  0.49950275  1
  Te  Te200  1  0.33323880  0.01010335  0.83606028  1
  Te  Te201  1  0.32998667  0.33815567  0.16591840  1
  Te  Te202  1  0.32642976  0.33163215  0.50079297  1
  Te  Te203  1  0.33372516  0.32864775  0.83137900  1
  Te  Te204  1  0.33310178  0.66448611  0.17019478  1
  Te  Te205  1  0.33009737  0.66480359  0.49640426  1
  Te  Te206  1  0.33209312  0.66575465  0.83232978  1
  Te  Te207  1  0.66926480  -0.00148540  0.16689211  1
  Te  Te208  1  0.66301363  0.00021368  0.50368877  1
  Te  Te209  1  0.66575292  0.00657016  0.82749077  1
  Te  Te210  1  0.66700821  0.33817354  0.16245311  1
  Te  Te211  1  0.66724898  0.33627227  0.50046806  1
  Te  Te212  1  0.66498401  0.32978426  0.83860685  1
  Te  Te213  1  0.66497423  0.65911112  0.16583218  1
  Te  Te214  1  0.66876505  0.66183311  0.50524691  1
  Te  Te215  1  0.66449224  0.66598842  0.82600322  1
