# generated using pymatgen
data_AgSbTe2
_symmetry_space_group_name_H-M   'P 1'
_cell_length_a   18.33221594
_cell_length_b   18.33754346
_cell_length_c   18.33562124
_cell_angle_alpha   90.00110666
_cell_angle_beta   89.99932453
_cell_angle_gamma   89.99661636
_symmetry_Int_Tables_number   1
_chemical_formula_structural   AgSbTe2
_chemical_formula_sum   'Ag54 Sb54 Te108'
_cell_volume   6163.84556132
_cell_formula_units_Z   54
loop_
 _symmetry_equiv_pos_site_id
 _symmetry_equiv_pos_as_xyz
  1  'x, y, z'
loop_
 _atom_site_type_symbol
 _atom_site_label
 _atom_site_symmetry_multiplicity
 _atom_site_fract_x
 _atom_site_fract_y
 _atom_site_fract_z
 _atom_site_occupancy
  Ag  Ag0  1  0.50358518  -0.01034954  0.50096705  1
  Ag  Ag1  1  0.15974394  0.33231711  0.83844393  1
  Ag  Ag2  1  0.16008289  0.67115190  0.82725434  1
  Ag  Ag3  1  0.67733767  0.16325203  0.83181706  1
  Ag  Ag4  1  -0.00418191  0.32639124  -0.00170353  1
  Ag  Ag5  1  0.66883693  0.67794781  0.33084680  1
  Ag  Ag6  1  0.82346628  0.83461717  0.67704676  1
  Ag  Ag7  1  -0.00905007  0.83520676  0.83257560  1
  Ag  Ag8  1  0.00398902  0.66906804  0.67050736  1
  Ag  Ag9  1  0.32870081  0.67092597  0.66793868  1
  Ag  Ag10  1  0.16168319  0.67151863  0.16196275  1
  Ag  Ag11  1  0.83482093  0.32574806  0.83871728  1
  Ag  Ag12  1  0.65976366  0.83143429  0.48463567  1
  Ag  Ag13  1  0.66787581  -0.01178441  0.67066906  1
  Ag  Ag14  1  0.67004612  0.83265326  0.16549396  1
  Ag  Ag15  1  0.32691718  0.32711324  0.00146305  1
  Ag  Ag16  1  0.16855006  -0.00694460  0.50642156  1
  Ag  Ag17  1  -0.00665808  0.50181326  0.50486506  1
  Ag  Ag18  1  0.83533457  0.16679018  -0.00267844  1
  Ag  Ag19  1  0.67277359  0.67754416  0.00017822  1
  Ag  Ag20  1  0.16531811  -0.00713108  0.16160588  1
  Ag  Ag21  1  0.51407715  0.83409000  -0.00224998  1
  Ag  Ag22  1  0.82947111  0.16217689  0.68013422  1
  Ag  Ag23  1  0.66892424  0.33475411  0.66938999  1
  Ag  Ag24  1  0.83257135  0.67609195  0.83682616  1
  Ag  Ag25  1  0.16632632  0.83467891  0.33945694  1
  Ag  Ag26  1  0.83647427  0.33363463  0.15625283  1
  Ag  Ag27  1  0.16583242  -0.00537707  0.83593712  1
  Ag  Ag28  1  0.51030228  0.83013974  0.65925749  1
  Ag  Ag29  1  -0.00516757  0.16258218  0.83705722  1
  Ag  Ag30  1  0.16659537  0.83032209  0.66832186  1
  Ag  Ag31  1  0.50439653  0.67731908  0.50420211  1
  Ag  Ag32  1  -0.00414513  0.00455972  -0.00429435  1
  Ag  Ag33  1  0.66784544  -0.01139382  0.33439825  1
  Ag  Ag34  1  0.67222897  0.83435581  0.84688281  1
  Ag  Ag35  1  -0.00334363  0.16758668  0.15416511  1
  Ag  Ag36  1  0.16285745  0.33459290  0.15778445  1
  Ag  Ag37  1  0.32656357  0.00060049  -0.00236802  1
  Ag  Ag38  1  0.32688500  0.16673041  0.83555248  1
  Ag  Ag39  1  0.67041265  -0.01024485  -0.00462835  1
  Ag  Ag40  1  0.66816183  0.50897076  0.50821739  1
  Ag  Ag41  1  0.83161277  0.16436150  0.32790413  1
  Ag  Ag42  1  0.83188217  0.50065712  -0.00352072  1
  Ag  Ag43  1  0.34747299  0.83338006  0.50164378  1
  Ag  Ag44  1  0.33542658  0.33342495  0.32572385  1
  Ag  Ag45  1  0.50653466  0.51217890  0.66588059  1
  Ag  Ag46  1  0.82246069  0.83368983  0.33130859  1
  Ag  Ag47  1  0.66904496  0.33301388  0.33530495  1
  Ag  Ag48  1  0.32973866  0.49849822  0.16479459  1
  Ag  Ag49  1  0.83317053  0.66852272  0.15649759  1
  Ag  Ag50  1  0.16737120  0.51169035  0.66868180  1
  Ag  Ag51  1  0.82746864  0.83243525  -0.00600003  1
  Ag  Ag52  1  0.51314531  0.83374332  0.34852925  1
  Ag  Ag53  1  0.67152676  0.50467005  0.82914729  1
  Sb  Sb54  1  0.83189441  0.33495853  0.50268769  1
  Sb  Sb55  1  0.83382628  -0.00046198  0.83734032  1
  Sb  Sb56  1  0.67262226  0.33214882  -0.00250595  1
  Sb  Sb57  1  0.33287864  0.16081999  0.50407460  1
  Sb  Sb58  1  0.33590531  -0.00586388  0.67025577  1
  Sb  Sb59  1  0.67612495  0.16186877  0.16262382  1
  Sb  Sb60  1  -0.00669428  0.66892547  -0.00546976  1
  Sb  Sb61  1  0.50767392  0.16158660  0.66904153  1
  Sb  Sb62  1  0.83559800  -0.00244838  0.16379033  1
  Sb  Sb63  1  0.16791320  0.50394253  0.33591283  1
  Sb  Sb64  1  0.15734454  0.16575037  -0.00222446  1
  Sb  Sb65  1  0.50105395  0.33516277  0.16601491  1
  Sb  Sb66  1  0.16038056  0.16356517  0.67255254  1
  Sb  Sb67  1  0.83193482  -0.00310539  0.49945449  1
  Sb  Sb68  1  0.66816257  0.67170560  0.66851228  1
  Sb  Sb69  1  0.49884114  -0.00404598  0.16740498  1
  Sb  Sb70  1  0.50290549  0.33426029  0.50075019  1
  Sb  Sb71  1  0.16307868  0.83515423  -0.00404192  1
  Sb  Sb72  1  0.50338295  0.66941151  0.16989048  1
  Sb  Sb73  1  -0.00516913  0.33676815  0.67520801  1
  Sb  Sb74  1  0.66870607  0.16118540  0.50444689  1
  Sb  Sb75  1  0.50165319  -0.00345636  0.83082535  1
  Sb  Sb76  1  0.66634391  0.50377431  0.16508530  1
  Sb  Sb77  1  0.50507816  0.16169964  -0.00158665  1
  Sb  Sb78  1  -0.00201185  0.16808180  0.50435946  1
  Sb  Sb79  1  -0.00476776  0.50147995  0.83181545  1
  Sb  Sb80  1  0.50534732  0.66930937  0.82743210  1
  Sb  Sb81  1  0.16161344  0.49785564  -0.00456270  1
  Sb  Sb82  1  -0.00505323  0.83682066  0.16058063  1
  Sb  Sb83  1  0.32472557  0.16977540  0.15958201  1
  Sb  Sb84  1  0.33654535  0.50575702  0.49969395  1
  Sb  Sb85  1  0.00125327  0.49760819  0.16692542  1
  Sb  Sb86  1  0.33592142  0.66952884  -0.00310898  1
  Sb  Sb87  1  0.50544132  0.33359423  0.83409019  1
  Sb  Sb88  1  0.33361566  0.83536541  0.82950807  1
  Sb  Sb89  1  0.33632266  0.33800863  0.67030920  1
  Sb  Sb90  1  0.50284408  0.50573314  0.33871845  1
  Sb  Sb91  1  0.82700350  0.66843865  0.50357731  1
  Sb  Sb92  1  0.83042527  0.50422437  0.67409234  1
  Sb  Sb93  1  0.16993748  0.67255736  0.50440710  1
  Sb  Sb94  1  -0.00427508  -0.00576949  0.67464252  1
  Sb  Sb95  1  -0.00342685  0.82997909  0.50730938  1
  Sb  Sb96  1  0.33615557  0.66735281  0.33560056  1
  Sb  Sb97  1  0.33395187  0.49791346  0.83497639  1
  Sb  Sb98  1  0.50530190  0.50421287  -0.00480095  1
  Sb  Sb99  1  0.33369059  0.83102469  0.16920406  1
  Sb  Sb100  1  0.16304912  0.16319357  0.33056426  1
  Sb  Sb101  1  0.33520311  0.00136553  0.33051079  1
  Sb  Sb102  1  -0.00371600  -0.00140836  0.32843766  1
  Sb  Sb103  1  -0.00451493  0.66914643  0.33626406  1
  Sb  Sb104  1  -0.00299707  0.33244357  0.32640440  1
  Sb  Sb105  1  0.50804841  0.16191031  0.33442561  1
  Sb  Sb106  1  0.16764269  0.33242727  0.50145143  1
  Sb  Sb107  1  0.83071991  0.50192525  0.32864958  1
  Te  Te108  1  0.15844183  0.17294376  0.16798154  1
  Te  Te109  1  0.16621782  0.15724220  0.50065950  1
  Te  Te110  1  0.16671497  0.17037512  0.83256425  1
  Te  Te111  1  0.16813466  0.49648191  0.16736055  1
  Te  Te112  1  0.16746292  0.50019325  0.50589526  1
  Te  Te113  1  0.16598487  0.49951738  0.82891114  1
  Te  Te114  1  0.16585415  0.83217290  0.16554915  1
  Te  Te115  1  0.16170977  0.83555423  0.50201225  1
  Te  Te116  1  0.16752665  0.83197560  0.83067859  1
  Te  Te117  1  0.49977657  0.16602982  0.16684827  1
  Te  Te118  1  0.49916268  0.15687865  0.50084394  1
  Te  Te119  1  0.49671398  0.16621383  0.83362536  1
  Te  Te120  1  0.49230938  0.50168099  0.16582323  1
  Te  Te121  1  0.50503886  0.50173622  0.50595263  1
  Te  Te122  1  0.50637757  0.50134985  0.82649749  1
  Te  Te123  1  0.50318296  0.83272661  0.16194399  1
  Te  Te124  1  0.50276811  0.83377363  0.50343871  1
  Te  Te125  1  0.50498387  0.83271682  0.83500563  1
  Te  Te126  1  0.83758476  0.16969743  0.16654387  1
  Te  Te127  1  0.83468625  0.16697487  0.49188450  1
  Te  Te128  1  0.83459689  0.16502686  0.83677888  1
  Te  Te129  1  0.83375878  0.50091199  0.16084881  1
  Te  Te130  1  0.82930861  0.50103904  0.50050360  1
  Te  Te131  1  0.82938305  0.49833300  0.83710324  1
  Te  Te132  1  0.83180860  0.83031947  0.17036677  1
  Te  Te133  1  0.82932824  0.83270368  0.49260967  1
  Te  Te134  1  0.83230279  0.83511912  0.83314935  1
  Te  Te135  1  0.16646468  0.00000207  -0.00199233  1
  Te  Te136  1  0.16676888  -0.00331440  0.32730962  1
  Te  Te137  1  0.16672553  -0.00340872  0.67036588  1
  Te  Te138  1  0.16737444  0.33398887  -0.00112731  1
  Te  Te139  1  0.16911434  0.33370775  0.33175213  1
  Te  Te140  1  0.16714624  0.33279305  0.67118916  1
  Te  Te141  1  0.16619066  0.66609705  0.00149036  1
  Te  Te142  1  0.16709681  0.67112998  0.32877933  1
  Te  Te143  1  0.16660136  0.66862758  0.66614051  1
  Te  Te144  1  0.50647521  -0.00502102  0.00012498  1
  Te  Te145  1  0.50322398  -0.00542450  0.33636574  1
  Te  Te146  1  0.50416769  -0.00556448  0.66220593  1
  Te  Te147  1  0.49031118  0.33464684  0.00040804  1
  Te  Te148  1  0.50134559  0.33304978  0.33336992  1
  Te  Te149  1  0.50586086  0.33422090  0.66633868  1
  Te  Te150  1  0.50498761  0.67156444  0.00001176  1
  Te  Te151  1  0.50421183  0.67309936  0.33780719  1
  Te  Te152  1  0.49759257  0.66987064  0.66446356  1
  Te  Te153  1  0.83241941  -0.00178123  0.00238412  1
  Te  Te154  1  0.82913369  -0.00163737  0.33230635  1
  Te  Te155  1  0.82859822  -0.00237468  0.66473519  1
  Te  Te156  1  0.83310453  0.33111841  -0.00104909  1
  Te  Te157  1  0.83085926  0.33356526  0.33139873  1
  Te  Te158  1  0.82880115  0.33142068  0.67030077  1
  Te  Te159  1  0.83288311  0.66975276  -0.00200699  1
  Te  Te160  1  0.82898471  0.66948999  0.33002339  1
  Te  Te161  1  0.83883878  0.67153855  0.67168178  1
  Te  Te162  1  -0.00457041  0.16561084  -0.00291106  1
  Te  Te163  1  -0.00730959  0.16670464  0.33425195  1
  Te  Te164  1  -0.00885395  0.16687520  0.67229250  1
  Te  Te165  1  -0.00667304  0.49395233  0.00036807  1
  Te  Te166  1  -0.00015118  0.50036281  0.34307837  1
  Te  Te167  1  0.00235202  0.50336218  0.66467269  1
  Te  Te168  1  -0.00523353  0.83824770  -0.00633911  1
  Te  Te169  1  0.00673461  0.83371373  0.33354292  1
  Te  Te170  1  0.00251268  0.82979840  0.67250185  1
  Te  Te171  1  0.33775468  0.16460049  -0.00440493  1
  Te  Te172  1  0.33461005  0.17217246  0.33325478  1
  Te  Te173  1  0.33440395  0.16743877  0.67245630  1
  Te  Te174  1  0.33504295  0.49943788  0.00324635  1
  Te  Te175  1  0.33479994  0.49528258  0.33014338  1
  Te  Te176  1  0.33229057  0.50454517  0.66633064  1
  Te  Te177  1  0.33540297  0.83811793  0.00024365  1
  Te  Te178  1  0.32664946  0.83427656  0.33704828  1
  Te  Te179  1  0.32893275  0.83076605  0.66326519  1
  Te  Te180  1  0.67206048  0.16370048  -0.00505145  1
  Te  Te181  1  0.67153521  0.17185088  0.33286781  1
  Te  Te182  1  0.67128362  0.16966472  0.67100077  1
  Te  Te183  1  0.66993860  0.50142506  -0.00392102  1
  Te  Te184  1  0.66528000  0.49387734  0.33541888  1
  Te  Te185  1  0.66686415  0.50178939  0.66755905  1
  Te  Te186  1  0.67020214  0.83370613  0.00345282  1
  Te  Te187  1  0.66681678  0.83335826  0.32848084  1
  Te  Te188  1  0.66770562  0.83168147  0.66753845  1
  Te  Te189  1  0.00591414  0.00434177  0.16115327  1
  Te  Te190  1  0.00786375  0.00035046  0.50077377  1
  Te  Te191  1  0.00628860  0.00071915  0.83629729  1
  Te  Te192  1  -0.00099219  0.33112511  0.16181050  1
  Te  Te193  1  0.00102913  0.33911698  0.50045780  1
  Te  Te194  1  -0.00138333  0.33310841  0.83821876  1
  Te  Te195  1  -0.00018596  0.66599647  0.16682556  1
  Te  Te196  1  -0.00045315  0.66172390  0.50488715  1
  Te  Te197  1  -0.00024263  0.66821838  0.83111882  1
  Te  Te198  1  0.32655630  0.00117534  0.16046757  1
  Te  Te199  1  0.33090818  -0.00539381  0.49909072  1
  Te  Te200  1  0.32915290  0.00310253  0.83758433  1
  Te  Te201  1  0.33137692  0.33424114  0.16448360  1
  Te  Te202  1  0.33431850  0.33176304  0.49543297  1
  Te  Te203  1  0.33114688  0.33082492  0.83672284  1
  Te  Te204  1  0.32818771  0.66306603  0.16656227  1
  Te  Te205  1  0.33941687  0.67199496  0.50291168  1
  Te  Te206  1  0.32576305  0.66584905  0.82971774  1
  Te  Te207  1  0.66650864  -0.00448844  0.16834214  1
  Te  Te208  1  0.66600343  -0.00410372  0.49931011  1
  Te  Te209  1  0.66539206  -0.00122577  0.83243125  1
  Te  Te210  1  0.67072934  0.33406574  0.16953480  1
  Te  Te211  1  0.66617553  0.33352734  0.50136155  1
  Te  Te212  1  0.67033426  0.33034369  0.83180273  1
  Te  Te213  1  0.66990016  0.66793576  0.16620295  1
  Te  Te214  1  0.66473796  0.66797275  0.49780061  1
  Te  Te215  1  0.67027173  0.66860148  0.83582887  1
