# generated using pymatgen
data_AgSbTe2
_symmetry_space_group_name_H-M   'P 1'
_cell_length_a   18.33853235
_cell_length_b   18.34017348
_cell_length_c   18.33752620
_cell_angle_alpha   90.00116095
_cell_angle_beta   89.99746582
_cell_angle_gamma   90.00149677
_symmetry_Int_Tables_number   1
_chemical_formula_structural   AgSbTe2
_chemical_formula_sum   'Ag54 Sb54 Te108'
_cell_volume   6167.49437013
_cell_formula_units_Z   54
loop_
 _symmetry_equiv_pos_site_id
 _symmetry_equiv_pos_as_xyz
  1  'x, y, z'
loop_
 _atom_site_type_symbol
 _atom_site_label
 _atom_site_symmetry_multiplicity
 _atom_site_fract_x
 _atom_site_fract_y
 _atom_site_fract_z
 _atom_site_occupancy
  Ag  Ag0  1  0.00706892  0.65788632  -0.00045935  1
  Ag  Ag1  1  0.32345044  0.67051558  -0.00537584  1
  Ag  Ag2  1  0.16092547  0.17153041  0.34177342  1
  Ag  Ag3  1  0.16226731  0.82618478  0.32917074  1
  Ag  Ag4  1  0.16108591  0.34496406  0.51193228  1
  Ag  Ag5  1  0.16232041  0.66803192  0.16196361  1
  Ag  Ag6  1  0.32218586  0.33431673  0.67017443  1
  Ag  Ag7  1  0.16822843  0.82919139  0.67632526  1
  Ag  Ag8  1  0.15676464  0.33580477  0.82255472  1
  Ag  Ag9  1  0.49690417  0.33880719  0.50238054  1
  Ag  Ag10  1  0.16004835  0.50676576  -0.00172141  1
  Ag  Ag11  1  0.32266987  0.83169649  0.15453782  1
  Ag  Ag12  1  0.33505124  -0.01081930  -0.00673695  1
  Ag  Ag13  1  -0.00066069  0.18018015  0.82900165  1
  Ag  Ag14  1  0.83691931  0.83681252  0.33026212  1
  Ag  Ag15  1  0.83906385  0.15927828  0.34160432  1
  Ag  Ag16  1  0.84569814  0.67041374  0.15959707  1
  Ag  Ag17  1  0.49310456  0.16867284  0.67030808  1
  Ag  Ag18  1  0.32733601  0.66623613  0.67315638  1
  Ag  Ag19  1  0.66989506  0.66944724  0.33480625  1
  Ag  Ag20  1  0.84561575  0.50020240  -0.00226284  1
  Ag  Ag21  1  0.32128955  0.49920544  0.50411035  1
  Ag  Ag22  1  0.16761333  0.82365108  -0.00224786  1
  Ag  Ag23  1  0.83918286  0.66445737  0.83783018  1
  Ag  Ag24  1  0.00201194  0.49240488  0.84162817  1
  Ag  Ag25  1  0.48935250  0.65921484  0.50606021  1
  Ag  Ag26  1  0.66868303  0.49940193  0.49913038  1
  Ag  Ag27  1  -0.00074786  0.17726365  0.50957020  1
  Ag  Ag28  1  0.00264488  0.50542754  0.15341402  1
  Ag  Ag29  1  0.49728042  -0.00317119  0.83580932  1
  Ag  Ag30  1  0.16450229  0.50389955  0.34646833  1
  Ag  Ag31  1  0.66438636  0.83228316  0.83561859  1
  Ag  Ag32  1  0.49774424  0.33270758  0.15746346  1
  Ag  Ag33  1  0.00538471  0.82942989  0.83920866  1
  Ag  Ag34  1  0.49815497  0.16822310  -0.00877034  1
  Ag  Ag35  1  0.16666793  0.49364592  0.66044406  1
  Ag  Ag36  1  0.66769714  0.33290427  -0.00104077  1
  Ag  Ag37  1  0.67301481  -0.00400015  0.33029711  1
  Ag  Ag38  1  0.32656122  0.83007869  0.83598961  1
  Ag  Ag39  1  0.16838385  0.65636315  0.50015128  1
  Ag  Ag40  1  0.66420851  0.00096540  -0.00028752  1
  Ag  Ag41  1  0.16418198  0.18000469  0.66287232  1
  Ag  Ag42  1  0.49696432  0.67066029  0.83192985  1
  Ag  Ag43  1  0.00753060  0.49447006  0.50290669  1
  Ag  Ag44  1  0.00603521  0.34666176  -0.01059892  1
  Ag  Ag45  1  0.83362300  -0.00720194  0.17282101  1
  Ag  Ag46  1  0.00483934  0.82304659  0.15958853  1
  Ag  Ag47  1  0.84458166  0.33664449  0.82963286  1
  Ag  Ag48  1  0.01042148  0.33264546  0.67781021  1
  Ag  Ag49  1  0.84659371  0.33078137  0.50767597  1
  Ag  Ag50  1  0.84582808  0.16963817  0.66268410  1
  Ag  Ag51  1  0.83390887  0.01150278  0.49252439  1
  Ag  Ag52  1  0.33189337  0.00062734  0.67209981  1
  Ag  Ag53  1  0.32697241  0.33641303  -0.00805211  1
  Sb  Sb54  1  0.00253948  0.83001870  0.49931695  1
  Sb  Sb55  1  0.84122037  0.83728196  0.66597680  1
  Sb  Sb56  1  0.32465637  0.50349585  0.83048762  1
  Sb  Sb57  1  0.66116771  0.66614540  0.66439963  1
  Sb  Sb58  1  0.83087712  0.00001324  0.83403781  1
  Sb  Sb59  1  0.33482053  -0.00275644  0.33281948  1
  Sb  Sb60  1  0.32909863  0.16406541  0.83154238  1
  Sb  Sb61  1  0.00063283  0.66567990  0.32609735  1
  Sb  Sb62  1  0.32962175  0.82736360  0.50455440  1
  Sb  Sb63  1  0.66855555  0.83051652  0.50171964  1
  Sb  Sb64  1  0.32625497  0.17448308  0.50511103  1
  Sb  Sb65  1  0.66856870  0.66685962  0.00089219  1
  Sb  Sb66  1  0.33071479  0.33369166  0.33592237  1
  Sb  Sb67  1  0.66901627  0.33419987  0.33251089  1
  Sb  Sb68  1  0.83390832  0.33516241  0.16361655  1
  Sb  Sb69  1  0.32545541  0.50336516  0.16722928  1
  Sb  Sb70  1  0.67501569  0.17244183  0.50052496  1
  Sb  Sb71  1  0.00051576  0.33344799  0.33705682  1
  Sb  Sb72  1  0.17147487  0.00016120  0.83273039  1
  Sb  Sb73  1  0.66901674  0.83340868  0.16281926  1
  Sb  Sb74  1  0.00633785  0.00820483  0.66814959  1
  Sb  Sb75  1  0.50311754  0.00347954  0.15920951  1
  Sb  Sb76  1  0.49582702  0.50028288  0.33650789  1
  Sb  Sb77  1  0.49625234  0.66352539  0.16413194  1
  Sb  Sb78  1  0.83128336  0.17075246  -0.00180397  1
  Sb  Sb79  1  0.49274870  0.83692143  -0.00322340  1
  Sb  Sb80  1  0.66864026  0.16703397  0.16626580  1
  Sb  Sb81  1  0.33021480  0.66713283  0.33455990  1
  Sb  Sb82  1  -0.00574858  -0.00088940  0.33376410  1
  Sb  Sb83  1  0.49150324  0.49634653  0.66461697  1
  Sb  Sb84  1  0.16783656  0.33939196  0.16507231  1
  Sb  Sb85  1  0.49604393  0.49557597  -0.00244070  1
  Sb  Sb86  1  0.16475230  0.66267006  0.83525524  1
  Sb  Sb87  1  0.00822073  0.65986046  0.67435600  1
  Sb  Sb88  1  0.66428780  0.00056683  0.66907063  1
  Sb  Sb89  1  0.49755603  0.33259662  0.83212546  1
  Sb  Sb90  1  0.67366270  0.50345227  0.83134806  1
  Sb  Sb91  1  0.50062402  0.83182853  0.33351487  1
  Sb  Sb92  1  0.83817307  0.66212943  0.50045979  1
  Sb  Sb93  1  0.49277411  0.83451520  0.67054545  1
  Sb  Sb94  1  0.00006374  0.16928762  0.16468614  1
  Sb  Sb95  1  0.83920985  0.82948314  0.00270561  1
  Sb  Sb96  1  0.66949565  0.16561445  0.83407337  1
  Sb  Sb97  1  0.50385745  0.00235988  0.50568844  1
  Sb  Sb98  1  0.16934992  0.17023214  -0.00376113  1
  Sb  Sb99  1  0.33122053  0.16410677  0.16346265  1
  Sb  Sb100  1  0.16284822  0.00209317  0.50148237  1
  Sb  Sb101  1  0.67261719  0.50140040  0.16849874  1
  Sb  Sb102  1  0.66847867  0.33335290  0.66879241  1
  Sb  Sb103  1  0.84361511  0.49438247  0.66940093  1
  Sb  Sb104  1  0.83953385  0.50084612  0.33212579  1
  Sb  Sb105  1  0.50150430  0.16715094  0.33615009  1
  Sb  Sb106  1  0.16218656  -0.00923331  0.16669116  1
  Sb  Sb107  1  0.00092456  -0.00095800  -0.00076079  1
  Te  Te108  1  0.16500567  0.16533037  0.17464964  1
  Te  Te109  1  0.16122516  0.16685115  0.50142902  1
  Te  Te110  1  0.16092202  0.17017956  0.82883576  1
  Te  Te111  1  0.16245469  0.50559045  0.15846818  1
  Te  Te112  1  0.16660649  0.49941987  0.50142155  1
  Te  Te113  1  0.16260264  0.49599994  0.83833743  1
  Te  Te114  1  0.16449284  0.82992415  0.16615068  1
  Te  Te115  1  0.16645244  0.83303082  0.49199073  1
  Te  Te116  1  0.16805591  0.83528426  0.83605209  1
  Te  Te117  1  0.49955899  0.17238502  0.16660856  1
  Te  Te118  1  0.49970062  0.16973920  0.50438244  1
  Te  Te119  1  0.50082423  0.16497455  0.83187705  1
  Te  Te120  1  0.49925681  0.49364437  0.16796094  1
  Te  Te121  1  0.50385755  0.50128173  0.49976760  1
  Te  Te122  1  0.50321663  0.50700646  0.83174796  1
  Te  Te123  1  0.49468681  0.83349460  0.16739632  1
  Te  Te124  1  0.49999419  0.82647368  0.50140523  1
  Te  Te125  1  0.49944696  0.83280501  0.83334770  1
  Te  Te126  1  0.83519555  0.16356627  0.17202598  1
  Te  Te127  1  0.83612058  0.17043812  0.50134892  1
  Te  Te128  1  0.83702587  0.16915579  0.82987247  1
  Te  Te129  1  0.83950951  0.50451465  0.16407719  1
  Te  Te130  1  0.83247928  0.49474202  0.50002985  1
  Te  Te131  1  0.83818168  0.49990256  0.83552408  1
  Te  Te132  1  0.83426538  0.83066920  0.16892605  1
  Te  Te133  1  0.83425366  0.83380615  0.49550337  1
  Te  Te134  1  0.83716510  0.83110987  0.83294180  1
  Te  Te135  1  0.17418538  0.00160355  0.00040253  1
  Te  Te136  1  0.16815770  -0.00166577  0.33399835  1
  Te  Te137  1  0.17340403  -0.00922116  0.66688611  1
  Te  Te138  1  0.16714179  0.33256356  0.00004449  1
  Te  Te139  1  0.16710874  0.33256999  0.33364940  1
  Te  Te140  1  0.16676048  0.33474800  0.66626194  1
  Te  Te141  1  0.16675050  0.66745519  -0.00105405  1
  Te  Te142  1  0.16664387  0.66601263  0.33493629  1
  Te  Te143  1  0.16963098  0.66949498  0.66433658  1
  Te  Te144  1  0.49922110  0.00446328  -0.00381302  1
  Te  Te145  1  0.50870652  0.00053808  0.33358780  1
  Te  Te146  1  0.49507775  0.00437056  0.67109061  1
  Te  Te147  1  0.49818027  0.33007656  -0.00194761  1
  Te  Te148  1  0.50020990  0.33197512  0.33834989  1
  Te  Te149  1  0.49869066  0.32962889  0.66473443  1
  Te  Te150  1  0.49795644  0.66501732  -0.00370476  1
  Te  Te151  1  0.50520243  0.66698431  0.33644515  1
  Te  Te152  1  0.49369155  0.66637903  0.66629137  1
  Te  Te153  1  0.82854493  0.00122137  0.00302034  1
  Te  Te154  1  0.83153757  -0.00114809  0.33308879  1
  Te  Te155  1  0.83312130  0.00620425  0.66425882  1
  Te  Te156  1  0.83304212  0.33547753  -0.00106964  1
  Te  Te157  1  0.83170256  0.32939236  0.33656292  1
  Te  Te158  1  0.83349083  0.32931266  0.66723860  1
  Te  Te159  1  0.83278369  0.66370882  -0.00024811  1
  Te  Te160  1  0.83077479  0.66894613  0.33301135  1
  Te  Te161  1  0.83296304  0.66749985  0.67251559  1
  Te  Te162  1  0.00004919  0.16776997  -0.00603370  1
  Te  Te163  1  -0.00003231  0.16624691  0.33318634  1
  Te  Te164  1  0.00297746  0.16943239  0.66824597  1
  Te  Te165  1  0.00008793  0.50256227  -0.00255138  1
  Te  Te166  1  0.00555217  0.49959834  0.34160175  1
  Te  Te167  1  0.00611178  0.49415716  0.66346852  1
  Te  Te168  1  0.00513862  0.83437890  0.00137376  1
  Te  Te169  1  -0.00009997  0.83257800  0.33076996  1
  Te  Te170  1  0.00704518  0.83391396  0.66814670  1
  Te  Te171  1  0.33790921  0.17236817  -0.00098891  1
  Te  Te172  1  0.32664876  0.16414837  0.33333543  1
  Te  Te173  1  0.33014136  0.16872567  0.66769623  1
  Te  Te174  1  0.32892249  0.49845499  0.00001156  1
  Te  Te175  1  0.32527188  0.50068508  0.33860909  1
  Te  Te176  1  0.32733190  0.49964953  0.66474164  1
  Te  Te177  1  0.33118950  0.83193697  -0.00306878  1
  Te  Te178  1  0.32891029  0.83418237  0.33059531  1
  Te  Te179  1  0.32868437  0.83115913  0.67049344  1
  Te  Te180  1  0.66174070  0.16628145  -0.00022894  1
  Te  Te181  1  0.67141541  0.16174390  0.33356876  1
  Te  Te182  1  0.65879172  0.16553528  0.66671413  1
  Te  Te183  1  0.66785172  0.49587723  0.00028923  1
  Te  Te184  1  0.66819171  0.50321861  0.33670144  1
  Te  Te185  1  0.66735895  0.50030633  0.66031721  1
  Te  Te186  1  0.66680054  0.83628838  -0.00475497  1
  Te  Te187  1  0.66983241  0.83377897  0.33345123  1
  Te  Te188  1  0.66866306  0.83388258  0.67455582  1
  Te  Te189  1  -0.00729115  -0.00301202  0.16580341  1
  Te  Te190  1  -0.00735962  0.00209981  0.50130802  1
  Te  Te191  1  -0.00045692  -0.01092668  0.83391621  1
  Te  Te192  1  -0.00068716  0.33839594  0.15864453  1
  Te  Te193  1  0.00187704  0.33294389  0.49720117  1
  Te  Te194  1  -0.00013469  0.33556485  0.83387763  1
  Te  Te195  1  0.00151359  0.66628506  0.16363972  1
  Te  Te196  1  0.00620436  0.66200136  0.50295999  1
  Te  Te197  1  -0.00191377  0.67024040  0.83796211  1
  Te  Te198  1  0.33487899  -0.00566205  0.16228581  1
  Te  Te199  1  0.33660266  0.00001305  0.50539216  1
  Te  Te200  1  0.33704572  -0.00229114  0.83342338  1
  Te  Te201  1  0.33705143  0.33369792  0.16384149  1
  Te  Te202  1  0.33391403  0.33782087  0.50248334  1
  Te  Te203  1  0.33153924  0.33390698  0.83176437  1
  Te  Te204  1  0.33070038  0.67057166  0.16202964  1
  Te  Te205  1  0.33124029  0.66269907  0.50100371  1
  Te  Te206  1  0.33440969  0.66804968  0.83346350  1
  Te  Te207  1  0.67053784  -0.00021491  0.16382425  1
  Te  Te208  1  0.67222209  -0.00108404  0.49757468  1
  Te  Te209  1  0.66264163  -0.00441900  0.83709276  1
  Te  Te210  1  0.66264096  0.33482165  0.16127960  1
  Te  Te211  1  0.66014163  0.33783237  0.49990835  1
  Te  Te212  1  0.66831867  0.33506221  0.83853666  1
  Te  Te213  1  0.66554808  0.66667904  0.17250472  1
  Te  Te214  1  0.66871300  0.66326935  0.49671827  1
  Te  Te215  1  0.66489882  0.67095327  0.83253940  1
