# generated using pymatgen
data_AgSbTe2
_symmetry_space_group_name_H-M   'P 1'
_cell_length_a   18.31780586
_cell_length_b   18.31744363
_cell_length_c   18.32369428
_cell_angle_alpha   89.99988636
_cell_angle_beta   90.00298560
_cell_angle_gamma   90.00322444
_symmetry_Int_Tables_number   1
_chemical_formula_structural   AgSbTe2
_chemical_formula_sum   'Ag54 Sb54 Te108'
_cell_volume   6148.24763690
_cell_formula_units_Z   54
loop_
 _symmetry_equiv_pos_site_id
 _symmetry_equiv_pos_as_xyz
  1  'x, y, z'
loop_
 _atom_site_type_symbol
 _atom_site_label
 _atom_site_symmetry_multiplicity
 _atom_site_fract_x
 _atom_site_fract_y
 _atom_site_fract_z
 _atom_site_occupancy
  Ag  Ag0  1  0.16376281  0.17507895  0.33649319  1
  Ag  Ag1  1  0.84233190  0.50588364  0.32697953  1
  Ag  Ag2  1  0.83151865  -0.00221070  0.83306548  1
  Ag  Ag3  1  0.50356249  -0.00061508  0.82137906  1
  Ag  Ag4  1  0.00127590  0.66895211  0.32883644  1
  Ag  Ag5  1  0.16587573  0.66721371  0.49645696  1
  Ag  Ag6  1  0.83431093  0.50358440  0.00166270  1
  Ag  Ag7  1  0.00017002  -0.01238871  0.33266316  1
  Ag  Ag8  1  0.00404767  0.16714032  0.50192722  1
  Ag  Ag9  1  0.65855747  -0.00282662  0.66451437  1
  Ag  Ag10  1  0.66417475  0.16038627  0.50156251  1
  Ag  Ag11  1  0.16721404  0.33982971  0.18132592  1
  Ag  Ag12  1  0.33444428  0.67267542  -0.00330421  1
  Ag  Ag13  1  -0.00344553  -0.00611471  0.00287867  1
  Ag  Ag14  1  0.32641979  0.33200219  0.34193362  1
  Ag  Ag15  1  0.50205340  -0.00611920  0.16916219  1
  Ag  Ag16  1  0.49693076  0.32826371  0.82996435  1
  Ag  Ag17  1  0.49982093  0.83307284  0.00632386  1
  Ag  Ag18  1  0.49572388  0.67709203  0.50148097  1
  Ag  Ag19  1  0.66258097  0.33335593  0.33344262  1
  Ag  Ag20  1  0.16657717  0.33467319  0.49841408  1
  Ag  Ag21  1  0.65494137  0.83593985  0.49657653  1
  Ag  Ag22  1  0.33898315  0.83222646  0.17031047  1
  Ag  Ag23  1  0.33759304  0.83344554  0.50136509  1
  Ag  Ag24  1  0.50016258  -0.00401519  0.50384278  1
  Ag  Ag25  1  0.83164134  0.16479094  0.66966536  1
  Ag  Ag26  1  -0.00317376  0.50794613  0.17346722  1
  Ag  Ag27  1  0.83180513  0.66804463  0.83472119  1
  Ag  Ag28  1  0.83622791  0.82945044  0.33350077  1
  Ag  Ag29  1  0.32725855  0.32970475  0.66224717  1
  Ag  Ag30  1  0.67428549  0.50366860  0.83768879  1
  Ag  Ag31  1  0.16602220  0.33370766  0.82259363  1
  Ag  Ag32  1  0.83439456  0.16749758  -0.00746212  1
  Ag  Ag33  1  0.67015785  0.66715393  -0.00198355  1
  Ag  Ag34  1  -0.00194494  0.66754877  0.00827418  1
  Ag  Ag35  1  0.33189566  0.16260641  0.50278147  1
  Ag  Ag36  1  -0.00217188  0.17058696  0.82605023  1
  Ag  Ag37  1  0.67394944  0.50635874  0.16492746  1
  Ag  Ag38  1  0.66145540  0.67343077  0.66698695  1
  Ag  Ag39  1  0.50383799  0.83424016  0.33442267  1
  Ag  Ag40  1  -0.00490375  0.49783599  0.83545333  1
  Ag  Ag41  1  0.00101430  0.82622856  0.17473347  1
  Ag  Ag42  1  0.17078913  0.83113958  0.66198328  1
  Ag  Ag43  1  0.16219063  0.66490997  0.17385709  1
  Ag  Ag44  1  0.33563849  0.83281997  0.81943133  1
  Ag  Ag45  1  0.66643723  0.16535466  0.17269228  1
  Ag  Ag46  1  0.00282460  0.83235569  0.49317291  1
  Ag  Ag47  1  0.15959231  0.49712415  0.33380239  1
  Ag  Ag48  1  0.66066999  0.83161957  0.17317980  1
  Ag  Ag49  1  0.00292606  0.50494817  0.48983839  1
  Ag  Ag50  1  0.50302212  0.16274417  0.66424943  1
  Ag  Ag51  1  0.00743170  0.33090638  0.66610215  1
  Ag  Ag52  1  0.33678170  0.67663437  0.66423765  1
  Ag  Ag53  1  0.33944979  -0.00500537  0.66429609  1
  Sb  Sb54  1  0.16356973  0.66321591  0.83117767  1
  Sb  Sb55  1  0.66673765  0.33765993  0.00308972  1
  Sb  Sb56  1  0.83502607  0.83641645  0.66327819  1
  Sb  Sb57  1  0.83125368  0.83002748  0.00369841  1
  Sb  Sb58  1  0.84033064  0.33240609  0.49901287  1
  Sb  Sb59  1  0.16911343  0.83052264  -0.00042366  1
  Sb  Sb60  1  0.50092266  0.49730251  0.66704768  1
  Sb  Sb61  1  0.83489037  0.33384014  0.83279951  1
  Sb  Sb62  1  0.32753511  0.50194408  0.49971383  1
  Sb  Sb63  1  0.32784908  0.66601699  0.33649975  1
  Sb  Sb64  1  0.67269919  0.50246888  0.49849896  1
  Sb  Sb65  1  0.49394656  0.33043037  0.50305992  1
  Sb  Sb66  1  0.67289850  0.66762243  0.33226688  1
  Sb  Sb67  1  0.83579277  0.16583407  0.33556016  1
  Sb  Sb68  1  0.00378833  0.33731640  0.33788836  1
  Sb  Sb69  1  0.82988518  0.00011029  0.50397527  1
  Sb  Sb70  1  0.16465493  0.50068070  0.66147359  1
  Sb  Sb71  1  0.50263206  0.67037836  0.82869431  1
  Sb  Sb72  1  0.33074220  0.50327168  0.83272690  1
  Sb  Sb73  1  0.83060795  -0.00134008  0.16386940  1
  Sb  Sb74  1  0.33028792  0.50529752  0.16742420  1
  Sb  Sb75  1  0.83836592  0.66618349  0.16161346  1
  Sb  Sb76  1  0.66201641  0.83076678  0.83059295  1
  Sb  Sb77  1  0.66905256  -0.00102765  0.33677056  1
  Sb  Sb78  1  0.00108841  0.66391645  0.66504760  1
  Sb  Sb79  1  0.83490491  0.49791949  0.66815268  1
  Sb  Sb80  1  0.16438038  0.83020007  0.33743038  1
  Sb  Sb81  1  0.16921351  -0.00146060  0.49966993  1
  Sb  Sb82  1  0.50697892  0.50813252  -0.00094918  1
  Sb  Sb83  1  0.33047469  0.16371194  0.82590356  1
  Sb  Sb84  1  0.83749530  0.33591465  0.16891410  1
  Sb  Sb85  1  0.00292562  0.83321824  0.83270820  1
  Sb  Sb86  1  0.16149662  0.16800852  0.00383688  1
  Sb  Sb87  1  0.49841964  0.32911929  0.16490028  1
  Sb  Sb88  1  -0.00301971  0.16696282  0.16874231  1
  Sb  Sb89  1  0.49489673  0.83968032  0.66294966  1
  Sb  Sb90  1  0.66988835  -0.00524978  -0.00278127  1
  Sb  Sb91  1  0.16682342  0.16691143  0.66044594  1
  Sb  Sb92  1  -0.00017728  0.33683764  -0.00409104  1
  Sb  Sb93  1  0.67172809  0.16838203  0.83071472  1
  Sb  Sb94  1  0.15804475  0.50191881  0.00550185  1
  Sb  Sb95  1  0.66580774  0.33042712  0.66377468  1
  Sb  Sb96  1  0.33088919  0.00005428  0.33984207  1
  Sb  Sb97  1  0.83614138  0.66871604  0.50312439  1
  Sb  Sb98  1  0.16844891  -0.00331241  0.16941676  1
  Sb  Sb99  1  0.33270105  -0.00723185  -0.00427186  1
  Sb  Sb100  1  -0.00023251  0.00365192  0.66489740  1
  Sb  Sb101  1  0.49781519  0.67337189  0.16985112  1
  Sb  Sb102  1  0.49921188  0.16204671  0.33956147  1
  Sb  Sb103  1  0.16562048  0.00277256  0.83091726  1
  Sb  Sb104  1  0.33687636  0.16195388  0.17360642  1
  Sb  Sb105  1  0.50096645  0.50433100  0.33329855  1
  Sb  Sb106  1  0.50537259  0.15951764  -0.00435991  1
  Sb  Sb107  1  0.33262839  0.33898562  -0.00166638  1
  Te  Te108  1  0.16752078  0.17011952  0.17210417  1
  Te  Te109  1  0.16665433  0.16669607  0.49763883  1
  Te  Te110  1  0.15993238  0.17199743  0.83498280  1
  Te  Te111  1  0.16439679  0.50176136  0.17110124  1
  Te  Te112  1  0.16153275  0.50055632  0.49588251  1
  Te  Te113  1  0.16193032  0.49449015  0.83436822  1
  Te  Te114  1  0.16331578  0.82911306  0.16749430  1
  Te  Te115  1  0.16628697  0.83194529  0.50071533  1
  Te  Te116  1  0.17275706  0.83266897  0.82793081  1
  Te  Te117  1  0.50590337  0.16037429  0.16625194  1
  Te  Te118  1  0.50061651  0.16372947  0.50404590  1
  Te  Te119  1  0.49959870  0.16336122  0.82888450  1
  Te  Te120  1  0.50730708  0.49907153  0.16585055  1
  Te  Te121  1  0.50175813  0.50631898  0.49906454  1
  Te  Te122  1  0.50316867  0.49671697  0.83417254  1
  Te  Te123  1  0.50094265  0.83372478  0.16985403  1
  Te  Te124  1  0.49870441  0.83434340  0.49919387  1
  Te  Te125  1  0.49608263  0.83715718  0.83819594  1
  Te  Te126  1  0.82700127  0.16726382  0.16434511  1
  Te  Te127  1  0.83192032  0.16638608  0.50415963  1
  Te  Te128  1  0.83681183  0.16607486  0.83267850  1
  Te  Te129  1  0.83436649  0.50015209  0.16628696  1
  Te  Te130  1  0.84187447  0.50024716  0.49606744  1
  Te  Te131  1  0.83370621  0.50085014  0.83428288  1
  Te  Te132  1  0.83500446  0.83312050  0.17179764  1
  Te  Te133  1  0.83929016  0.83407346  0.49535645  1
  Te  Te134  1  0.83317557  0.83494268  0.83258701  1
  Te  Te135  1  0.15678334  0.00043582  0.00039670  1
  Te  Te136  1  0.16034369  0.00894683  0.33246374  1
  Te  Te137  1  0.17487021  -0.00529488  0.66724511  1
  Te  Te138  1  0.16831138  0.33400181  -0.00227341  1
  Te  Te139  1  0.16643233  0.33539152  0.33739455  1
  Te  Te140  1  0.16685827  0.33321092  0.66304335  1
  Te  Te141  1  0.16422977  0.66610713  0.00166102  1
  Te  Te142  1  0.16270481  0.66341514  0.33492889  1
  Te  Te143  1  0.17090960  0.66840173  0.66299633  1
  Te  Te144  1  0.50049570  -0.00621462  0.00252137  1
  Te  Te145  1  0.49999071  -0.00538203  0.33377831  1
  Te  Te146  1  0.50032974  0.00224301  0.66482519  1
  Te  Te147  1  0.49856279  0.33243320  -0.00814293  1
  Te  Te148  1  0.49947806  0.33376337  0.33270577  1
  Te  Te149  1  0.49758459  0.32774710  0.67003334  1
  Te  Te150  1  0.49864714  0.67306364  -0.00085464  1
  Te  Te151  1  0.49927046  0.67219374  0.34033340  1
  Te  Te152  1  0.49959423  0.66394133  0.66208901  1
  Te  Te153  1  0.83683021  0.00153028  -0.00525304  1
  Te  Te154  1  0.83978894  -0.00364164  0.33299429  1
  Te  Te155  1  0.83045258  0.00387527  0.67228128  1
  Te  Te156  1  0.83272861  0.33171973  0.00075413  1
  Te  Te157  1  0.82450262  0.33720715  0.33342741  1
  Te  Te158  1  0.83568088  0.32608530  0.66617108  1
  Te  Te159  1  0.83317653  0.66458982  -0.00476216  1
  Te  Te160  1  0.83978014  0.66692393  0.33581601  1
  Te  Te161  1  0.82848024  0.66693040  0.67365955  1
  Te  Te162  1  -0.00531669  0.16521780  0.00018678  1
  Te  Te163  1  0.00107491  0.16875017  0.33709601  1
  Te  Te164  1  0.00012404  0.16800793  0.66501746  1
  Te  Te165  1  -0.00601463  0.50385957  -0.00166249  1
  Te  Te166  1  -0.00078533  0.49958311  0.33263635  1
  Te  Te167  1  -0.00059666  0.49470590  0.67134607  1
  Te  Te168  1  -0.00011128  0.83036768  0.00122294  1
  Te  Te169  1  0.00197538  0.83089005  0.33338690  1
  Te  Te170  1  0.00569735  0.83414281  0.66235694  1
  Te  Te171  1  0.33398325  0.16529026  0.00158148  1
  Te  Te172  1  0.33085997  0.17015302  0.34013790  1
  Te  Te173  1  0.33368449  0.16906941  0.66206307  1
  Te  Te174  1  0.33454463  0.51137123  0.00026530  1
  Te  Te175  1  0.33088626  0.49361587  0.33210668  1
  Te  Te176  1  0.33267503  0.49558312  0.66761791  1
  Te  Te177  1  0.33549613  0.83029706  0.00706613  1
  Te  Te178  1  0.33436444  0.83363114  0.33621718  1
  Te  Te179  1  0.33353365  0.83388673  0.66251526  1
  Te  Te180  1  0.67239170  0.16612646  0.00258107  1
  Te  Te181  1  0.66735386  0.16808372  0.33596069  1
  Te  Te182  1  0.66707123  0.16524577  0.66372888  1
  Te  Te183  1  0.67252636  0.50462404  0.00083741  1
  Te  Te184  1  0.66882255  0.49892916  0.32969449  1
  Te  Te185  1  0.66842396  0.50395889  0.66918389  1
  Te  Te186  1  0.66377135  0.82775214  0.00242989  1
  Te  Te187  1  0.66806193  0.83326159  0.33540821  1
  Te  Te188  1  0.66844006  0.83326696  0.66195075  1
  Te  Te189  1  -0.00008350  -0.00215692  0.16698742  1
  Te  Te190  1  -0.00094498  -0.00007955  0.49756287  1
  Te  Te191  1  -0.00255282  0.00229336  0.83439592  1
  Te  Te192  1  0.00735137  0.33619169  0.16547649  1
  Te  Te193  1  0.00498555  0.32953411  0.50360775  1
  Te  Te194  1  0.00145556  0.33279531  0.83001609  1
  Te  Te195  1  0.00168451  0.66656313  0.16682491  1
  Te  Te196  1  0.00321099  0.66738010  0.50040551  1
  Te  Te197  1  -0.00374773  0.66379531  0.83384291  1
  Te  Te198  1  0.33756770  -0.00625667  0.16587383  1
  Te  Te199  1  0.33695478  -0.00042319  0.50304453  1
  Te  Te200  1  0.33665407  -0.00397271  0.82881573  1
  Te  Te201  1  0.32884634  0.33242384  0.16813572  1
  Te  Te202  1  0.32952507  0.33402827  0.50065772  1
  Te  Te203  1  0.33199960  0.33365773  0.83009583  1
  Te  Te204  1  0.32830118  0.67201833  0.16585755  1
  Te  Te205  1  0.33022568  0.66848914  0.50312072  1
  Te  Te206  1  0.33289913  0.67082628  0.83057339  1
  Te  Te207  1  0.66347887  -0.00386803  0.16682759  1
  Te  Te208  1  0.66377334  -0.00064912  0.50248204  1
  Te  Te209  1  0.66593711  0.00023300  0.82861019  1
  Te  Te210  1  0.66492342  0.33224182  0.17040017  1
  Te  Te211  1  0.66354715  0.33268954  0.49556538  1
  Te  Te212  1  0.66184547  0.33880831  0.83297764  1
  Te  Te213  1  0.66524787  0.66831887  0.16452202  1
  Te  Te214  1  0.66630795  0.66997857  0.50223470  1
  Te  Te215  1  0.66778897  0.66495402  0.83305886  1
