# generated using pymatgen
data_AgSbTe2
_symmetry_space_group_name_H-M   'P 1'
_cell_length_a   18.33552885
_cell_length_b   18.33915213
_cell_length_c   18.33855156
_cell_angle_alpha   90.00142618
_cell_angle_beta   90.00375527
_cell_angle_gamma   89.99956869
_symmetry_Int_Tables_number   1
_chemical_formula_structural   AgSbTe2
_chemical_formula_sum   'Ag54 Sb54 Te108'
_cell_volume   6166.48562723
_cell_formula_units_Z   54
loop_
 _symmetry_equiv_pos_site_id
 _symmetry_equiv_pos_as_xyz
  1  'x, y, z'
loop_
 _atom_site_type_symbol
 _atom_site_label
 _atom_site_symmetry_multiplicity
 _atom_site_fract_x
 _atom_site_fract_y
 _atom_site_fract_z
 _atom_site_occupancy
  Ag  Ag0  1  0.33795499  0.49799426  0.50102624  1
  Ag  Ag1  1  0.17319452  0.16887443  0.66688629  1
  Ag  Ag2  1  -0.00705971  -0.00198534  0.33424414  1
  Ag  Ag3  1  0.83420829  0.49841114  0.33239544  1
  Ag  Ag4  1  0.65568491  0.66387403  0.66694831  1
  Ag  Ag5  1  0.49851536  0.16402581  0.01163737  1
  Ag  Ag6  1  0.50247842  0.68136406  0.16461359  1
  Ag  Ag7  1  0.82250970  0.83365683  0.01335155  1
  Ag  Ag8  1  0.82130704  0.32671106  0.16946753  1
  Ag  Ag9  1  0.49691424  0.49684182  0.66544936  1
  Ag  Ag10  1  0.50273404  -0.00143353  0.16727296  1
  Ag  Ag11  1  0.17741792  0.16444522  0.00212046  1
  Ag  Ag12  1  0.65668220  0.49097323  0.50141816  1
  Ag  Ag13  1  0.50070835  0.00746255  0.48841719  1
  Ag  Ag14  1  0.66251146  0.49852700  0.82852973  1
  Ag  Ag15  1  0.33527844  0.32231315  0.00366700  1
  Ag  Ag16  1  0.33756716  0.16423680  0.16364569  1
  Ag  Ag17  1  0.65753746  0.83583581  0.16653900  1
  Ag  Ag18  1  0.49904208  0.49124400  -0.00015848  1
  Ag  Ag19  1  0.17702030  0.32856173  0.16666047  1
  Ag  Ag20  1  0.65742775  0.16790258  0.49896733  1
  Ag  Ag21  1  0.50363158  0.84482953  0.32545497  1
  Ag  Ag22  1  0.82736037  0.84193614  0.32960298  1
  Ag  Ag23  1  0.17052678  0.00459078  0.49665552  1
  Ag  Ag24  1  0.17447397  0.33059710  0.49967422  1
  Ag  Ag25  1  0.65363707  0.32712053  0.00899342  1
  Ag  Ag26  1  0.17842397  0.84232080  -0.00073736  1
  Ag  Ag27  1  0.82534048  0.68260071  0.17013235  1
  Ag  Ag28  1  -0.00257579  0.67479639  0.33143609  1
  Ag  Ag29  1  0.17103904  0.83285540  0.66963365  1
  Ag  Ag30  1  0.17057307  0.66231546  0.83087690  1
  Ag  Ag31  1  0.49820702  0.84246966  0.01006335  1
  Ag  Ag32  1  0.82660693  0.16102645  0.33219767  1
  Ag  Ag33  1  0.49732843  0.32637404  0.49366178  1
  Ag  Ag34  1  0.33536332  0.16162269  0.84199862  1
  Ag  Ag35  1  0.33472124  0.66514285  0.67374879  1
  Ag  Ag36  1  0.66070437  0.00426272  0.00283451  1
  Ag  Ag37  1  0.49608957  0.16901483  0.66032193  1
  Ag  Ag38  1  0.50043167  0.32781831  0.16559447  1
  Ag  Ag39  1  0.50253764  0.16473261  0.32996151  1
  Ag  Ag40  1  0.00571447  0.16612068  0.16812811  1
  Ag  Ag41  1  0.82850099  0.00257450  0.48980754  1
  Ag  Ag42  1  0.34317991  0.83951379  0.16092547  1
  Ag  Ag43  1  0.17542105  0.49726418  0.66154987  1
  Ag  Ag44  1  0.66424060  0.33306444  0.32759913  1
  Ag  Ag45  1  0.34435171  -0.00048725  0.33403699  1
  Ag  Ag46  1  0.82478039  -0.00298097  0.17059951  1
  Ag  Ag47  1  0.33346682  0.83756194  0.84346578  1
  Ag  Ag48  1  0.16578548  0.49627744  0.34058830  1
  Ag  Ag49  1  0.49645933  0.00377204  0.84935504  1
  Ag  Ag50  1  0.82283099  0.16558500  0.65735223  1
  Ag  Ag51  1  0.00304958  0.83759300  0.49599533  1
  Ag  Ag52  1  0.17052606  0.33395505  0.83117108  1
  Ag  Ag53  1  0.33457307  0.67730595  -0.00206318  1
  Sb  Sb54  1  -0.00213062  0.32972959  0.33149106  1
  Sb  Sb55  1  0.66234663  0.33484518  0.66565501  1
  Sb  Sb56  1  0.66669366  0.83677043  0.49423787  1
  Sb  Sb57  1  0.00340507  0.33154438  0.66509438  1
  Sb  Sb58  1  0.17200603  0.00256147  0.16940374  1
  Sb  Sb59  1  0.50141993  0.66690037  0.49771521  1
  Sb  Sb60  1  0.66845465  0.66143133  0.33456892  1
  Sb  Sb61  1  0.17552946  0.49654207  -0.00045708  1
  Sb  Sb62  1  0.17055404  0.16872257  0.33196247  1
  Sb  Sb63  1  0.83545651  0.83643476  0.66276785  1
  Sb  Sb64  1  0.00236687  0.50210461  0.49709837  1
  Sb  Sb65  1  0.00837078  0.16498422  0.83691441  1
  Sb  Sb66  1  0.16808725  0.66689900  0.50189202  1
  Sb  Sb67  1  0.65668304  0.66643817  0.00021099  1
  Sb  Sb68  1  0.83258655  0.33165657  0.83931467  1
  Sb  Sb69  1  0.33406193  -0.00091293  0.66126280  1
  Sb  Sb70  1  0.33700744  0.32891400  0.32953432  1
  Sb  Sb71  1  0.00066419  0.49969425  0.83189983  1
  Sb  Sb72  1  0.82702629  0.32706253  0.49322765  1
  Sb  Sb73  1  0.00858300  0.83424000  0.83112361  1
  Sb  Sb74  1  0.33283239  0.66976407  0.33113225  1
  Sb  Sb75  1  -0.00052767  0.83829137  0.17091332  1
  Sb  Sb76  1  0.66028237  0.83070554  0.83962208  1
  Sb  Sb77  1  0.49691706  0.83453233  0.66682911  1
  Sb  Sb78  1  0.00507581  0.66769391  0.66168650  1
  Sb  Sb79  1  0.82622065  0.16396755  0.00745020  1
  Sb  Sb80  1  0.83191047  0.67008697  0.49412853  1
  Sb  Sb81  1  0.33837615  0.16973927  0.49879681  1
  Sb  Sb82  1  0.82744007  0.49591976  0.65954574  1
  Sb  Sb83  1  0.00563687  0.66994771  0.00567943  1
  Sb  Sb84  1  0.83314402  0.66726616  0.83983979  1
  Sb  Sb85  1  -0.00437856  0.00140768  0.00786975  1
  Sb  Sb86  1  0.33229047  0.83302709  0.49756994  1
  Sb  Sb87  1  0.00180432  0.00121995  0.65915572  1
  Sb  Sb88  1  0.65958142  0.16452365  0.17287912  1
  Sb  Sb89  1  0.16711576  0.83433699  0.33216556  1
  Sb  Sb90  1  0.49447697  0.66678790  0.83743828  1
  Sb  Sb91  1  0.49617629  0.33029771  0.83878988  1
  Sb  Sb92  1  -0.00071013  0.49604302  0.16855089  1
  Sb  Sb93  1  0.33372047  0.33511401  0.67075139  1
  Sb  Sb94  1  0.65858385  0.16972648  0.82997005  1
  Sb  Sb95  1  0.82334502  0.50263933  0.00725679  1
  Sb  Sb96  1  0.33620512  0.50000065  0.83117965  1
  Sb  Sb97  1  0.33476582  0.49859036  0.16822362  1
  Sb  Sb98  1  0.00629246  0.33142210  0.00355765  1
  Sb  Sb99  1  -0.00047601  0.16372526  0.49480891  1
  Sb  Sb100  1  0.33980715  0.00113273  0.00689928  1
  Sb  Sb101  1  0.66477942  0.00640515  0.32850093  1
  Sb  Sb102  1  0.49943383  0.49690599  0.33381184  1
  Sb  Sb103  1  0.17561706  0.00150501  0.83155911  1
  Sb  Sb104  1  0.82631550  0.00171738  0.83642848  1
  Sb  Sb105  1  0.16961023  0.66472603  0.16458346  1
  Sb  Sb106  1  0.66347027  -0.00166291  0.66851088  1
  Sb  Sb107  1  0.66466216  0.49964797  0.16930859  1
  Te  Te108  1  0.17164030  0.16835037  0.16622490  1
  Te  Te109  1  0.16719468  0.16655443  0.50120259  1
  Te  Te110  1  0.17254230  0.16893740  0.83319510  1
  Te  Te111  1  0.16636126  0.49488060  0.16827696  1
  Te  Te112  1  0.16770177  0.49898137  0.50068811  1
  Te  Te113  1  0.16615896  0.49795457  0.82969368  1
  Te  Te114  1  0.16869707  0.83262453  0.16005516  1
  Te  Te115  1  0.16446649  0.83690100  0.50030670  1
  Te  Te116  1  0.17283451  0.83416836  0.83402961  1
  Te  Te117  1  0.49955297  0.16691251  0.16963431  1
  Te  Te118  1  0.49871305  0.16730238  0.49920560  1
  Te  Te119  1  0.49570345  0.16456362  0.82785553  1
  Te  Te120  1  0.49990506  0.48972970  0.16421635  1
  Te  Te121  1  0.49919643  0.50168374  0.50169219  1
  Te  Te122  1  0.50330099  0.49997428  0.82984908  1
  Te  Te123  1  0.49982456  0.83597319  0.16783470  1
  Te  Te124  1  0.50146789  0.83843532  0.49654885  1
  Te  Te125  1  0.49381748  0.83767302  0.83336835  1
  Te  Te126  1  0.83023340  0.16592092  0.16888255  1
  Te  Te127  1  0.83413531  0.16285560  0.49924645  1
  Te  Te128  1  0.83630556  0.16697761  0.82962156  1
  Te  Te129  1  0.83238585  0.49355006  0.17242560  1
  Te  Te130  1  0.83273290  0.49782823  0.49384927  1
  Te  Te131  1  0.82987582  0.49931854  0.83097190  1
  Te  Te132  1  0.83848411  0.83607214  0.16891232  1
  Te  Te133  1  0.83467013  0.83992707  0.49662573  1
  Te  Te134  1  0.83344804  0.83429400  0.83347175  1
  Te  Te135  1  0.16232312  0.00181650  -0.00003457  1
  Te  Te136  1  0.16330977  0.00048249  0.33808297  1
  Te  Te137  1  0.16785499  0.00099558  0.66174250  1
  Te  Te138  1  0.17182937  0.32907734  0.00503933  1
  Te  Te139  1  0.16720748  0.33616518  0.33151402  1
  Te  Te140  1  0.16870827  0.33277824  0.66527881  1
  Te  Te141  1  0.17267705  0.66606121  -0.00410770  1
  Te  Te142  1  0.16356045  0.66156593  0.33237649  1
  Te  Te143  1  0.16845116  0.66755618  0.66975598  1
  Te  Te144  1  0.50022676  0.00232247  0.00546501  1
  Te  Te145  1  0.50193321  0.00133052  0.33099797  1
  Te  Te146  1  0.49999631  0.00294003  0.65923164  1
  Te  Te147  1  0.49705665  0.33033869  -0.00062014  1
  Te  Te148  1  0.50251492  0.33119733  0.33401645  1
  Te  Te149  1  0.50005441  0.33368101  0.66125633  1
  Te  Te150  1  0.49480283  0.66887311  0.00329136  1
  Te  Te151  1  0.49971846  0.66821880  0.32592735  1
  Te  Te152  1  0.49692973  0.66484993  0.66651449  1
  Te  Te153  1  0.82737390  -0.00422796  0.00430451  1
  Te  Te154  1  0.82972556  0.00021255  0.33295012  1
  Te  Te155  1  0.83249252  0.00593632  0.66693212  1
  Te  Te156  1  0.83292674  0.33380345  0.00776318  1
  Te  Te157  1  0.83146633  0.33363460  0.32993229  1
  Te  Te158  1  0.83411323  0.32632323  0.66745968  1
  Te  Te159  1  0.83548432  0.67183674  0.00690189  1
  Te  Te160  1  0.83498544  0.66516039  0.32985742  1
  Te  Te161  1  0.83477411  0.66574028  0.66857647  1
  Te  Te162  1  0.00429659  0.16660089  0.00600767  1
  Te  Te163  1  -0.00468107  0.16242768  0.32822333  1
  Te  Te164  1  0.00972046  0.16636976  0.66857239  1
  Te  Te165  1  -0.00290721  0.50099508  -0.00101176  1
  Te  Te166  1  0.00035561  0.50193961  0.33300441  1
  Te  Te167  1  0.00719859  0.50009965  0.66586048  1
  Te  Te168  1  0.00091943  0.83384705  -0.00208138  1
  Te  Te169  1  0.00019872  0.83531562  0.33617230  1
  Te  Te170  1  0.00592760  0.83414255  0.66113611  1
  Te  Te171  1  0.33553324  0.16452021  0.00083294  1
  Te  Te172  1  0.33859601  0.16140398  0.32864223  1
  Te  Te173  1  0.33428293  0.16778987  0.66758093  1
  Te  Te174  1  0.34058792  0.50154098  0.00012361  1
  Te  Te175  1  0.32774013  0.50118131  0.33907552  1
  Te  Te176  1  0.33486549  0.50087370  0.66627343  1
  Te  Te177  1  0.33554705  0.83626525  0.00151977  1
  Te  Te178  1  0.33745036  0.83664451  0.32985648  1
  Te  Te179  1  0.32889373  0.82804091  0.66534274  1
  Te  Te180  1  0.66066689  0.16781306  -0.00521988  1
  Te  Te181  1  0.66538393  0.17194357  0.33777648  1
  Te  Te182  1  0.66398147  0.16553085  0.66255169  1
  Te  Te183  1  0.65928862  0.49754591  -0.00229967  1
  Te  Te184  1  0.66846928  0.49421563  0.33909980  1
  Te  Te185  1  0.66474954  0.50196366  0.66380400  1
  Te  Te186  1  0.66425943  0.83334962  0.00333277  1
  Te  Te187  1  0.66651062  0.82848581  0.32882918  1
  Te  Te188  1  0.66743249  0.82448150  0.66788242  1
  Te  Te189  1  -0.00375624  0.00605618  0.17255332  1
  Te  Te190  1  -0.00007975  -0.00182351  0.49441576  1
  Te  Te191  1  -0.00372550  -0.00022832  0.83337531  1
  Te  Te192  1  0.00151620  0.32701144  0.16701373  1
  Te  Te193  1  0.01156215  0.33396332  0.49861781  1
  Te  Te194  1  0.00799390  0.33222461  0.83499532  1
  Te  Te195  1  -0.00061876  0.66520840  0.17274962  1
  Te  Te196  1  -0.00055596  0.67269641  0.49317178  1
  Te  Te197  1  0.00784158  0.66732112  0.83458031  1
  Te  Te198  1  0.33536648  -0.00032889  0.17349628  1
  Te  Te199  1  0.33459939  -0.00073020  0.49354882  1
  Te  Te200  1  0.33906703  -0.00001096  0.82665955  1
  Te  Te201  1  0.33599866  0.33194172  0.16368524  1
  Te  Te202  1  0.33470194  0.33824829  0.49717682  1
  Te  Te203  1  0.32857950  0.33078119  0.84067309  1
  Te  Te204  1  0.33779705  0.66884241  0.16265226  1
  Te  Te205  1  0.33445943  0.66083181  0.50270500  1
  Te  Te206  1  0.33010352  0.66707541  0.83369148  1
  Te  Te207  1  0.66529165  -0.00191484  0.16318345  1
  Te  Te208  1  0.66517459  0.00443220  0.50337206  1
  Te  Te209  1  0.65774925  -0.00027219  0.84013569  1
  Te  Te210  1  0.66349706  0.33476871  0.16613353  1
  Te  Te211  1  0.66219471  0.33086824  0.49939106  1
  Te  Te212  1  0.66827929  0.33974904  0.83728232  1
  Te  Te213  1  0.66582357  0.66891016  0.16657342  1
  Te  Te214  1  0.66754060  0.66386800  0.50645679  1
  Te  Te215  1  0.66857749  0.66106720  0.82850376  1
