# generated using pymatgen
data_AgSbTe2
_symmetry_space_group_name_H-M   'P 1'
_cell_length_a   18.34556933
_cell_length_b   18.34744389
_cell_length_c   18.35502905
_cell_angle_alpha   89.99940256
_cell_angle_beta   90.00792624
_cell_angle_gamma   89.99945791
_symmetry_Int_Tables_number   1
_chemical_formula_structural   AgSbTe2
_chemical_formula_sum   'Ag54 Sb54 Te108'
_cell_volume   6178.19816753
_cell_formula_units_Z   54
loop_
 _symmetry_equiv_pos_site_id
 _symmetry_equiv_pos_as_xyz
  1  'x, y, z'
loop_
 _atom_site_type_symbol
 _atom_site_label
 _atom_site_symmetry_multiplicity
 _atom_site_fract_x
 _atom_site_fract_y
 _atom_site_fract_z
 _atom_site_occupancy
  Ag  Ag0  1  0.33129888  0.83763151  0.16127722  1
  Ag  Ag1  1  0.67032979  0.49375971  0.49812320  1
  Ag  Ag2  1  0.50189378  0.50005059  0.66397926  1
  Ag  Ag3  1  0.00251007  0.32886015  -0.00782920  1
  Ag  Ag4  1  0.65674325  0.65306317  0.33327610  1
  Ag  Ag5  1  0.00735320  0.17442325  0.15473024  1
  Ag  Ag6  1  0.00171000  0.49052298  0.17172096  1
  Ag  Ag7  1  -0.00583428  0.49383364  0.49977302  1
  Ag  Ag8  1  0.32759915  0.83049314  0.51542267  1
  Ag  Ag9  1  0.00812473  0.82385484  0.50933645  1
  Ag  Ag10  1  0.66722657  0.32866796  0.67376647  1
  Ag  Ag11  1  0.82406704  0.32997155  0.83236856  1
  Ag  Ag12  1  0.32982952  0.67890024  0.66697190  1
  Ag  Ag13  1  0.00335418  0.17466218  0.83519024  1
  Ag  Ag14  1  0.50285306  0.17017728  0.00324275  1
  Ag  Ag15  1  0.81788041  0.17088187  -0.00060954  1
  Ag  Ag16  1  0.65872584  0.83729585  0.83124990  1
  Ag  Ag17  1  0.33487699  0.00415800  0.00084546  1
  Ag  Ag18  1  0.17314097  0.00983642  0.16332812  1
  Ag  Ag19  1  0.66542177  0.33545687  0.33640652  1
  Ag  Ag20  1  0.33730342  0.16619366  0.83799544  1
  Ag  Ag21  1  0.17361705  0.66759926  0.16869306  1
  Ag  Ag22  1  0.65966216  0.32735764  -0.01175608  1
  Ag  Ag23  1  0.16665703  0.16488849  0.66928352  1
  Ag  Ag24  1  0.65056782  0.17067770  0.15320452  1
  Ag  Ag25  1  0.51116600  0.33243550  0.83897001  1
  Ag  Ag26  1  0.66885715  0.17748532  0.50375224  1
  Ag  Ag27  1  0.49979824  0.33074133  0.15942320  1
  Ag  Ag28  1  0.50424979  0.49612682  0.33502649  1
  Ag  Ag29  1  0.82803942  0.33400146  0.50457006  1
  Ag  Ag30  1  0.17336364  0.83620825  0.67101083  1
  Ag  Ag31  1  -0.00326721  0.17255841  0.50547986  1
  Ag  Ag32  1  0.48996238  0.66036184  0.16991431  1
  Ag  Ag33  1  0.65844319  0.01244494  0.67516733  1
  Ag  Ag34  1  0.33735738  0.67197758  0.32262356  1
  Ag  Ag35  1  0.33298102  0.83905801  0.83031280  1
  Ag  Ag36  1  0.66421537  0.48405070  0.82705984  1
  Ag  Ag37  1  0.01142037  0.83674871  0.82788649  1
  Ag  Ag38  1  0.82209732  0.49675755  0.33566889  1
  Ag  Ag39  1  0.17038371  0.32875922  0.16046813  1
  Ag  Ag40  1  0.16757198  0.66947321  0.50305600  1
  Ag  Ag41  1  0.66316150  0.17186097  0.84033739  1
  Ag  Ag42  1  0.50122945  0.17680232  0.32152517  1
  Ag  Ag43  1  0.16514274  0.32755714  0.83964479  1
  Ag  Ag44  1  0.33387423  0.16452911  0.15597478  1
  Ag  Ag45  1  0.33571064  -0.00818646  0.67176288  1
  Ag  Ag46  1  0.65932536  0.01626459  -0.00684411  1
  Ag  Ag47  1  -0.00176231  0.33108778  0.67434514  1
  Ag  Ag48  1  0.48620219  0.82870446  0.66973513  1
  Ag  Ag49  1  0.00804880  0.66315971  0.66418200  1
  Ag  Ag50  1  0.33389602  -0.00428421  0.31921248  1
  Ag  Ag51  1  0.33667452  0.32245198  -0.00139519  1
  Ag  Ag52  1  0.17264413  0.83276027  -0.00870576  1
  Ag  Ag53  1  0.33227578  0.67817819  0.00780317  1
  Sb  Sb54  1  0.33426312  0.33095005  0.67396117  1
  Sb  Sb55  1  0.83220045  0.82611454  0.33556143  1
  Sb  Sb56  1  0.17138841  0.00301222  0.83700604  1
  Sb  Sb57  1  0.15976245  0.33611632  0.50140932  1
  Sb  Sb58  1  0.83262501  0.66092194  0.83253812  1
  Sb  Sb59  1  0.00501545  0.66423488  0.33691070  1
  Sb  Sb60  1  0.83347824  0.00819506  0.50124288  1
  Sb  Sb61  1  0.00742337  0.00252430  0.33284670  1
  Sb  Sb62  1  0.49619809  0.83187602  0.33529059  1
  Sb  Sb63  1  0.83725361  0.83371922  0.66863731  1
  Sb  Sb64  1  0.66485211  0.83139825  0.50653193  1
  Sb  Sb65  1  0.33781594  0.49650927  0.83358839  1
  Sb  Sb66  1  0.49818964  0.66272694  0.83615651  1
  Sb  Sb67  1  0.16721334  0.49955881  0.00082474  1
  Sb  Sb68  1  -0.00486942  0.33355928  0.33227379  1
  Sb  Sb69  1  0.82952439  0.49509437  0.66212100  1
  Sb  Sb70  1  0.34146930  0.33236935  0.32531832  1
  Sb  Sb71  1  0.49864340  0.00003289  0.50212228  1
  Sb  Sb72  1  0.82695137  0.17314758  0.33025679  1
  Sb  Sb73  1  0.66717229  0.49089691  0.16934690  1
  Sb  Sb74  1  0.50014244  0.49149768  0.00203165  1
  Sb  Sb75  1  0.49889733  0.00719216  0.83343203  1
  Sb  Sb76  1  0.50587422  0.33414746  0.50061778  1
  Sb  Sb77  1  0.49357988  0.66554131  0.49692206  1
  Sb  Sb78  1  0.83688501  0.84109186  -0.00318217  1
  Sb  Sb79  1  0.83438693  0.17004238  0.67258592  1
  Sb  Sb80  1  0.82987661  0.00843683  0.83347145  1
  Sb  Sb81  1  0.83783621  0.66031537  0.50068695  1
  Sb  Sb82  1  0.65826773  0.66431290  0.00413701  1
  Sb  Sb83  1  0.83188788  0.33078741  0.16356551  1
  Sb  Sb84  1  0.33181460  0.49908822  0.16672428  1
  Sb  Sb85  1  0.65855545  0.00795897  0.33140672  1
  Sb  Sb86  1  0.16850647  -0.00415206  0.49961372  1
  Sb  Sb87  1  0.16956586  0.66705299  0.83167048  1
  Sb  Sb88  1  0.17253125  0.16702033  -0.00476761  1
  Sb  Sb89  1  0.65646157  0.83925047  0.16103632  1
  Sb  Sb90  1  0.17077009  0.83196335  0.33608904  1
  Sb  Sb91  1  0.00315409  0.00355758  0.66825912  1
  Sb  Sb92  1  0.49171105  0.00640893  0.16513015  1
  Sb  Sb93  1  0.01193572  0.83427499  0.16440925  1
  Sb  Sb94  1  0.83388123  0.66303202  0.16774362  1
  Sb  Sb95  1  0.00517918  0.00726764  -0.00186922  1
  Sb  Sb96  1  0.17024748  0.50029961  0.33257687  1
  Sb  Sb97  1  0.83627426  0.00401660  0.16534186  1
  Sb  Sb98  1  0.33432112  0.16204236  0.50238002  1
  Sb  Sb99  1  -0.00467810  0.49384753  0.83001489  1
  Sb  Sb100  1  0.00651130  0.66343949  -0.00316315  1
  Sb  Sb101  1  0.16819102  0.50062388  0.66697157  1
  Sb  Sb102  1  0.50014401  0.16851667  0.66959856  1
  Sb  Sb103  1  0.33432836  0.50558491  0.49976782  1
  Sb  Sb104  1  0.49150401  0.83804219  -0.00550057  1
  Sb  Sb105  1  0.83271303  0.49042301  0.00293554  1
  Sb  Sb106  1  0.66291722  0.66201075  0.66383828  1
  Sb  Sb107  1  0.17163057  0.16794120  0.33327932  1
  Te  Te108  1  0.16880468  0.16917516  0.16942231  1
  Te  Te109  1  0.16362725  0.16726042  0.50507927  1
  Te  Te110  1  0.16482558  0.16756684  0.82942758  1
  Te  Te111  1  0.16105125  0.49960330  0.16712974  1
  Te  Te112  1  0.16079132  0.50557519  0.49975727  1
  Te  Te113  1  0.16520813  0.49163206  0.83290726  1
  Te  Te114  1  0.17121340  0.82773366  0.16775070  1
  Te  Te115  1  0.16708783  0.83030908  0.50297551  1
  Te  Te116  1  0.17040860  0.83294091  0.83124459  1
  Te  Te117  1  0.49527314  0.16952379  0.16483964  1
  Te  Te118  1  0.50409544  0.16692951  0.49866994  1
  Te  Te119  1  0.49977504  0.17266968  0.83386497  1
  Te  Te120  1  0.50191703  0.49757214  0.17061876  1
  Te  Te121  1  0.50444371  0.50042913  0.49984862  1
  Te  Te122  1  0.50478883  0.49491445  0.83074129  1
  Te  Te123  1  0.49357509  0.82678333  0.16588314  1
  Te  Te124  1  0.49537673  0.83253618  0.50795576  1
  Te  Te125  1  0.49680089  0.83038723  0.82954864  1
  Te  Te126  1  0.84567736  0.16643109  0.16276355  1
  Te  Te127  1  0.83335749  0.17297495  0.49788719  1
  Te  Te128  1  0.83427763  0.17193322  0.83855005  1
  Te  Te129  1  0.84054316  0.49836350  0.17332984  1
  Te  Te130  1  0.83242130  0.49492979  0.49655595  1
  Te  Te131  1  0.82586692  0.49355831  0.83403024  1
  Te  Te132  1  0.83474086  0.83359955  0.16679783  1
  Te  Te133  1  0.84111780  0.83468669  0.50041150  1
  Te  Te134  1  0.83504976  0.83210933  0.83439778  1
  Te  Te135  1  0.17058973  -0.00859427  0.00407007  1
  Te  Te136  1  0.17498159  0.00031891  0.32682996  1
  Te  Te137  1  0.16993648  -0.00014919  0.66664787  1
  Te  Te138  1  0.16621416  0.33449075  0.00160493  1
  Te  Te139  1  0.16886498  0.33377345  0.32549232  1
  Te  Te140  1  0.16396440  0.33025176  0.66708001  1
  Te  Te141  1  0.17146718  0.67038142  0.00307514  1
  Te  Te142  1  0.17333407  0.66607129  0.33250955  1
  Te  Te143  1  0.16748666  0.66729526  0.66572695  1
  Te  Te144  1  0.49957534  0.00474163  0.00011186  1
  Te  Te145  1  0.49201321  0.00271935  0.33357993  1
  Te  Te146  1  0.49983134  -0.00434587  0.66753676  1
  Te  Te147  1  0.49926035  0.33105857  -0.00029330  1
  Te  Te148  1  0.50422608  0.33465715  0.33241677  1
  Te  Te149  1  0.50233392  0.33613277  0.67074874  1
  Te  Te150  1  0.49374587  0.66594778  0.00721589  1
  Te  Te151  1  0.49781817  0.66591967  0.33124040  1
  Te  Te152  1  0.49690263  0.66546630  0.66671921  1
  Te  Te153  1  0.82720778  0.00856101  0.00009950  1
  Te  Te154  1  0.83272700  -0.00210390  0.33325937  1
  Te  Te155  1  0.81901440  0.00049593  0.66663936  1
  Te  Te156  1  0.83631915  0.32883867  -0.00292019  1
  Te  Te157  1  0.82780049  0.33750829  0.33812539  1
  Te  Te158  1  0.83478933  0.33316776  0.66693500  1
  Te  Te159  1  0.83385059  0.66655549  0.00043014  1
  Te  Te160  1  0.82839551  0.65883842  0.33384152  1
  Te  Te161  1  0.84538544  0.66529722  0.66671763  1
  Te  Te162  1  0.00622987  0.16982767  -0.00320448  1
  Te  Te163  1  -0.00125776  0.16577752  0.33822585  1
  Te  Te164  1  0.00109546  0.16882821  0.66974418  1
  Te  Te165  1  -0.00059218  0.49461447  0.00337684  1
  Te  Te166  1  0.00095712  0.50055844  0.33606421  1
  Te  Te167  1  0.00031459  0.49749042  0.66257621  1
  Te  Te168  1  0.00584468  0.83398433  -0.00509515  1
  Te  Te169  1  -0.00049296  0.83367699  0.33970775  1
  Te  Te170  1  0.00353697  0.83718490  0.66738108  1
  Te  Te171  1  0.33340605  0.16558259  -0.00226456  1
  Te  Te172  1  0.33972316  0.16408385  0.33480249  1
  Te  Te173  1  0.33119884  0.16328577  0.67015780  1
  Te  Te174  1  0.33362757  0.50195288  -0.00140063  1
  Te  Te175  1  0.34160966  0.50546810  0.33475203  1
  Te  Te176  1  0.33954115  0.50166399  0.66580879  1
  Te  Te177  1  0.33205563  0.83559549  0.00052377  1
  Te  Te178  1  0.33461190  0.83297017  0.32298964  1
  Te  Te179  1  0.33020722  0.83489536  0.67096710  1
  Te  Te180  1  0.66274290  0.17167228  -0.00113897  1
  Te  Te181  1  0.66222657  0.17007809  0.34038679  1
  Te  Te182  1  0.66620009  0.16933474  0.66449717  1
  Te  Te183  1  0.66761364  0.49534852  -0.00521923  1
  Te  Te184  1  0.66391403  0.49691238  0.33158700  1
  Te  Te185  1  0.66334489  0.49847190  0.66556837  1
  Te  Te186  1  0.66736090  0.83366490  -0.00502204  1
  Te  Te187  1  0.66550995  0.83470016  0.33372579  1
  Te  Te188  1  0.66823828  0.82976722  0.66990457  1
  Te  Te189  1  0.00882938  0.00359108  0.16640403  1
  Te  Te190  1  0.00044619  0.00880231  0.50040821  1
  Te  Te191  1  -0.00150181  -0.00345835  0.83314582  1
  Te  Te192  1  -0.00073566  0.33156284  0.16721781  1
  Te  Te193  1  -0.00308555  0.33346851  0.50017877  1
  Te  Te194  1  0.00370354  0.33331432  0.83309971  1
  Te  Te195  1  0.00499600  0.66530068  0.16716313  1
  Te  Te196  1  0.00413596  0.66704706  0.50241415  1
  Te  Te197  1  0.00072426  0.66761561  0.82768166  1
  Te  Te198  1  0.33100843  0.00309303  0.16218187  1
  Te  Te199  1  0.33215329  -0.00716391  0.50843181  1
  Te  Te200  1  0.33373100  0.00131036  0.83466226  1
  Te  Te201  1  0.33429373  0.33180649  0.16189206  1
  Te  Te202  1  0.33072225  0.33422210  0.49924626  1
  Te  Te203  1  0.32676131  0.33006474  0.83783276  1
  Te  Te204  1  0.33224854  0.66128419  0.16567261  1
  Te  Te205  1  0.32865872  0.67050299  0.50537151  1
  Te  Te206  1  0.33308290  0.66722188  0.83018810  1
  Te  Te207  1  0.66704194  0.00857973  0.16242919  1
  Te  Te208  1  0.66701962  0.00076970  0.50199572  1
  Te  Te209  1  0.66523261  -0.00093165  0.83404844  1
  Te  Te210  1  0.66520316  0.32828118  0.16966015  1
  Te  Te211  1  0.66663477  0.33523560  0.50014947  1
  Te  Te212  1  0.66729221  0.32861506  0.83098257  1
  Te  Te213  1  0.66529935  0.66895933  0.17213643  1
  Te  Te214  1  0.66798878  0.66357629  0.49464011  1
  Te  Te215  1  0.66684398  0.67538543  0.83387464  1
