# generated using pymatgen
data_AgSbTe2
_symmetry_space_group_name_H-M   'P 1'
_cell_length_a   18.33667486
_cell_length_b   18.33849935
_cell_length_c   18.35086454
_cell_angle_alpha   90.00166947
_cell_angle_beta   90.00020566
_cell_angle_gamma   90.00128327
_symmetry_Int_Tables_number   1
_chemical_formula_structural   AgSbTe2
_chemical_formula_sum   'Ag54 Sb54 Te108'
_cell_volume   6170.79199554
_cell_formula_units_Z   54
loop_
 _symmetry_equiv_pos_site_id
 _symmetry_equiv_pos_as_xyz
  1  'x, y, z'
loop_
 _atom_site_type_symbol
 _atom_site_label
 _atom_site_symmetry_multiplicity
 _atom_site_fract_x
 _atom_site_fract_y
 _atom_site_fract_z
 _atom_site_occupancy
  Ag  Ag0  1  0.51017876  0.50648546  0.33624806  1
  Ag  Ag1  1  0.49833142  0.16423903  0.33292501  1
  Ag  Ag2  1  0.00170445  -0.00234043  0.32671781  1
  Ag  Ag3  1  0.32385455  0.16533377  0.16189106  1
  Ag  Ag4  1  0.50130059  0.67189516  0.83629936  1
  Ag  Ag5  1  0.82815252  0.66427469  0.48942991  1
  Ag  Ag6  1  0.82955654  0.50612967  0.33024905  1
  Ag  Ag7  1  0.83270794  0.83362031  0.00956581  1
  Ag  Ag8  1  0.16891341  0.16555139  0.00936619  1
  Ag  Ag9  1  0.49872439  0.83983350  0.00306156  1
  Ag  Ag10  1  0.66762044  0.33154610  0.65910022  1
  Ag  Ag11  1  0.33986512  0.67776199  -0.00047199  1
  Ag  Ag12  1  0.00258883  0.00373527  0.66685921  1
  Ag  Ag13  1  -0.00443773  0.50236888  0.49639224  1
  Ag  Ag14  1  0.33403295  0.16313379  0.84029508  1
  Ag  Ag15  1  0.00158443  0.32404530  0.00514622  1
  Ag  Ag16  1  0.83705884  0.82695066  0.32821690  1
  Ag  Ag17  1  0.33602011  0.84600099  0.83771340  1
  Ag  Ag18  1  0.16914742  0.16419794  0.32330482  1
  Ag  Ag19  1  0.16301013  0.00976718  0.16652818  1
  Ag  Ag20  1  0.65570900  0.16737812  0.49177076  1
  Ag  Ag21  1  0.49146764  0.15963628  0.00406090  1
  Ag  Ag22  1  0.33728713  0.16666131  0.49823301  1
  Ag  Ag23  1  0.65491755  0.00176537  0.00194224  1
  Ag  Ag24  1  0.00584291  0.16842639  0.84508536  1
  Ag  Ag25  1  0.34154796  0.49690670  0.49981201  1
  Ag  Ag26  1  0.49440088  0.00104308  0.83889496  1
  Ag  Ag27  1  -0.00149129  0.83391158  0.48690999  1
  Ag  Ag28  1  0.50766268  0.66792560  0.17274624  1
  Ag  Ag29  1  0.00147106  0.00499405  0.00574838  1
  Ag  Ag30  1  0.33897898  0.00267382  -0.00434314  1
  Ag  Ag31  1  0.83854462  0.33616491  0.16776970  1
  Ag  Ag32  1  0.33681216  0.00491165  0.67457980  1
  Ag  Ag33  1  0.66687674  0.33686112  0.33315381  1
  Ag  Ag34  1  0.50074519  0.16631023  0.65818514  1
  Ag  Ag35  1  0.00996101  0.16477889  0.16231709  1
  Ag  Ag36  1  0.15811479  0.32217623  0.16734284  1
  Ag  Ag37  1  -0.00309138  0.49332815  0.83398924  1
  Ag  Ag38  1  0.50256196  0.83271113  0.33022705  1
  Ag  Ag39  1  0.83027970  0.49636268  0.65801922  1
  Ag  Ag40  1  0.49779489  0.01229781  0.50117964  1
  Ag  Ag41  1  0.66729780  0.65865248  0.33113843  1
  Ag  Ag42  1  -0.00670709  0.49464814  0.16994396  1
  Ag  Ag43  1  0.50432084  0.66628888  0.49095457  1
  Ag  Ag44  1  0.16261037  0.32707620  0.83838613  1
  Ag  Ag45  1  0.82920546  0.66182022  0.17274438  1
  Ag  Ag46  1  0.67473468  0.49543414  0.17256817  1
  Ag  Ag47  1  0.50607727  0.49634180  0.65773018  1
  Ag  Ag48  1  0.83031298  0.66599454  0.83480218  1
  Ag  Ag49  1  0.15291483  0.84178147  0.33145606  1
  Ag  Ag50  1  0.66470821  0.17069702  0.17138714  1
  Ag  Ag51  1  -0.00216786  0.84501266  0.16990481  1
  Ag  Ag52  1  0.16507977  0.33161207  0.49400764  1
  Ag  Ag53  1  0.82969923  0.17200354  0.66588386  1
  Sb  Sb54  1  0.16442800  0.49667824  0.66448008  1
  Sb  Sb55  1  0.66623434  0.65936508  0.66018074  1
  Sb  Sb56  1  0.16472858  0.66637880  0.16729484  1
  Sb  Sb57  1  0.33763045  0.32725528  0.66457951  1
  Sb  Sb58  1  -0.00358189  0.32918398  0.66984140  1
  Sb  Sb59  1  0.00069428  0.66837492  0.00235401  1
  Sb  Sb60  1  -0.00340985  0.66705176  0.66582504  1
  Sb  Sb61  1  0.33217774  0.49659133  0.82880740  1
  Sb  Sb62  1  0.49925109  0.83750505  0.66679126  1
  Sb  Sb63  1  0.67046704  0.83481166  0.16774387  1
  Sb  Sb64  1  0.83302357  0.16733125  0.33345594  1
  Sb  Sb65  1  0.67190546  0.32716537  0.00512747  1
  Sb  Sb66  1  0.16658327  0.66396545  0.49577971  1
  Sb  Sb67  1  0.83663004  0.16147946  -0.00043237  1
  Sb  Sb68  1  0.66355567  0.00806644  0.66890293  1
  Sb  Sb69  1  0.49667409  -0.00038863  0.16608349  1
  Sb  Sb70  1  0.32845637  0.32589377  0.00069376  1
  Sb  Sb71  1  0.49972997  0.50235476  0.00242894  1
  Sb  Sb72  1  0.33615739  0.32975929  0.33420585  1
  Sb  Sb73  1  0.83811514  0.33552117  0.83751679  1
  Sb  Sb74  1  0.16964002  0.16676236  0.66683448  1
  Sb  Sb75  1  0.16329217  0.49632562  0.33337675  1
  Sb  Sb76  1  0.49574325  0.32873445  0.83268474  1
  Sb  Sb77  1  0.00413931  0.83694478  0.83803042  1
  Sb  Sb78  1  0.66814904  0.83587478  0.49654945  1
  Sb  Sb79  1  0.83889426  -0.00008518  0.16632381  1
  Sb  Sb80  1  0.16638921  0.83701751  0.66128568  1
  Sb  Sb81  1  -0.00756815  0.67109466  0.33166296  1
  Sb  Sb82  1  0.33363743  0.49601514  0.17073531  1
  Sb  Sb83  1  0.83225970  -0.00235011  0.49975714  1
  Sb  Sb84  1  0.83210861  -0.00212317  0.83454506  1
  Sb  Sb85  1  0.16784937  0.66304833  0.83668648  1
  Sb  Sb86  1  0.34307804  0.66693438  0.32854048  1
  Sb  Sb87  1  0.66456609  0.16718054  0.83484586  1
  Sb  Sb88  1  0.33165682  0.83771859  0.16414319  1
  Sb  Sb89  1  0.00234404  0.16611575  0.49726299  1
  Sb  Sb90  1  0.16826399  0.84163758  0.00587754  1
  Sb  Sb91  1  0.66781577  0.00219630  0.32904861  1
  Sb  Sb92  1  0.16964822  0.00521463  0.49476042  1
  Sb  Sb93  1  0.17154998  0.00626309  0.83979668  1
  Sb  Sb94  1  0.83629863  0.33758760  0.49592887  1
  Sb  Sb95  1  0.49858031  0.33243993  0.49831587  1
  Sb  Sb96  1  0.83469453  0.50605933  0.00553101  1
  Sb  Sb97  1  -0.00284577  0.32982257  0.32656172  1
  Sb  Sb98  1  0.66712035  0.49427757  0.49296347  1
  Sb  Sb99  1  0.33269760  0.83551758  0.50057984  1
  Sb  Sb100  1  0.16434610  0.49207592  0.00105184  1
  Sb  Sb101  1  0.50139169  0.33146394  0.16791417  1
  Sb  Sb102  1  0.66423987  0.67075773  0.00607449  1
  Sb  Sb103  1  0.83605502  0.83168513  0.66496856  1
  Sb  Sb104  1  0.66984162  0.50080211  0.83605169  1
  Sb  Sb105  1  0.33948866  0.66931073  0.66931829  1
  Sb  Sb106  1  0.66124697  0.83318187  0.83618063  1
  Sb  Sb107  1  0.33135158  0.00286138  0.33066969  1
  Te  Te108  1  0.16637400  0.16625366  0.16722968  1
  Te  Te109  1  0.17090772  0.17090693  0.49713212  1
  Te  Te110  1  0.16552567  0.16864626  0.83275755  1
  Te  Te111  1  0.16219059  0.49662448  0.16825220  1
  Te  Te112  1  0.16191556  0.49586298  0.49920504  1
  Te  Te113  1  0.15994125  0.49337650  0.83277913  1
  Te  Te114  1  0.16183668  0.83337384  0.17273734  1
  Te  Te115  1  0.16212070  0.83298251  0.49253872  1
  Te  Te116  1  0.17334671  0.83204010  0.83345271  1
  Te  Te117  1  0.50314260  0.16638756  0.16831531  1
  Te  Te118  1  0.49828442  0.16951484  0.49860349  1
  Te  Te119  1  0.49732422  0.16405373  0.83689245  1
  Te  Te120  1  0.49855385  0.50319350  0.17113011  1
  Te  Te121  1  0.50165542  0.50014706  0.49813405  1
  Te  Te122  1  0.50007768  0.50189353  0.83231611  1
  Te  Te123  1  0.49963914  0.83072712  0.16481109  1
  Te  Te124  1  0.49984214  0.82649114  0.49871594  1
  Te  Te125  1  0.49552189  0.83378895  0.83382772  1
  Te  Te126  1  0.82736059  0.17079673  0.16779640  1
  Te  Te127  1  0.83284550  0.16645739  0.50405344  1
  Te  Te128  1  0.83725031  0.16679075  0.82809608  1
  Te  Te129  1  0.83381238  0.50194589  0.16779597  1
  Te  Te130  1  0.83332177  0.50279297  0.49950662  1
  Te  Te131  1  0.83708594  0.50353340  0.83488598  1
  Te  Te132  1  0.83664360  0.83267190  0.16812535  1
  Te  Te133  1  0.83690570  0.82868024  0.49709701  1
  Te  Te134  1  0.83449624  0.82760104  0.83384439  1
  Te  Te135  1  0.16167982  0.00519371  0.00478529  1
  Te  Te136  1  0.16473438  0.00212538  0.32937637  1
  Te  Te137  1  0.16511918  0.00041257  0.66530399  1
  Te  Te138  1  0.16247818  0.32696711  0.00159698  1
  Te  Te139  1  0.16617570  0.32883261  0.33113503  1
  Te  Te140  1  0.16630770  0.33300607  0.66572463  1
  Te  Te141  1  0.17599159  0.66791274  0.00087813  1
  Te  Te142  1  0.17126072  0.67210000  0.33196218  1
  Te  Te143  1  0.16849164  0.66728951  0.66663019  1
  Te  Te144  1  0.49775137  -0.00015676  0.00148286  1
  Te  Te145  1  0.50063161  0.00159287  0.33644513  1
  Te  Te146  1  0.49868384  0.00453087  0.66484106  1
  Te  Te147  1  0.50155175  0.32642586  -0.00094417  1
  Te  Te148  1  0.50596911  0.32981234  0.33213619  1
  Te  Te149  1  0.50521565  0.33331498  0.66724365  1
  Te  Te150  1  0.49995117  0.66829158  -0.00278579  1
  Te  Te151  1  0.50425138  0.66528100  0.33191861  1
  Te  Te152  1  0.50222464  0.66249378  0.66963817  1
  Te  Te153  1  0.84039099  -0.00670813  -0.00118338  1
  Te  Te154  1  0.83808644  -0.00721638  0.33432675  1
  Te  Te155  1  0.83540597  0.00403114  0.66759562  1
  Te  Te156  1  0.83954072  0.33328786  0.00554460  1
  Te  Te157  1  0.82863162  0.33592227  0.32901947  1
  Te  Te158  1  0.82967280  0.33548101  0.66722331  1
  Te  Te159  1  0.83234458  0.67320730  -0.00194878  1
  Te  Te160  1  0.83050977  0.66708277  0.33264753  1
  Te  Te161  1  0.83219816  0.66068863  0.67087353  1
  Te  Te162  1  -0.00207331  0.16534864  0.00184782  1
  Te  Te163  1  0.00115741  0.16153149  0.32917445  1
  Te  Te164  1  -0.00233651  0.16357216  0.66450512  1
  Te  Te165  1  0.00082308  0.50006263  -0.00079124  1
  Te  Te166  1  -0.00383504  0.49909158  0.33424569  1
  Te  Te167  1  -0.00424929  0.49952288  0.66597874  1
  Te  Te168  1  -0.00041398  0.83674997  0.00493711  1
  Te  Te169  1  -0.00286844  0.83425827  0.33010081  1
  Te  Te170  1  0.00114181  0.84050346  0.66648583  1
  Te  Te171  1  0.33169917  0.16411035  0.00091162  1
  Te  Te172  1  0.33561166  0.16601060  0.33525830  1
  Te  Te173  1  0.33758642  0.16367297  0.66337264  1
  Te  Te174  1  0.33279172  0.50081933  -0.00034443  1
  Te  Te175  1  0.33512321  0.49899334  0.33971188  1
  Te  Te176  1  0.33805244  0.49958313  0.66054993  1
  Te  Te177  1  0.33511878  0.83804047  -0.00151353  1
  Te  Te178  1  0.34407723  0.83463405  0.33287807  1
  Te  Te179  1  0.33249888  0.84094911  0.67258997  1
  Te  Te180  1  0.66726958  0.16280151  0.00295678  1
  Te  Te181  1  0.66610846  0.16700613  0.33306332  1
  Te  Te182  1  0.66486529  0.17093412  0.66804236  1
  Te  Te183  1  0.66596319  0.49858444  0.01005182  1
  Te  Te184  1  0.66780111  0.49893481  0.33086796  1
  Te  Te185  1  0.66744190  0.49393666  0.66879583  1
  Te  Te186  1  0.66440640  0.83918736  0.00082539  1
  Te  Te187  1  0.66199191  0.83359933  0.33302497  1
  Te  Te188  1  0.66841351  0.83373319  0.66675824  1
  Te  Te189  1  0.00070084  0.00318030  0.16703082  1
  Te  Te190  1  0.00070175  -0.00275255  0.50133112  1
  Te  Te191  1  0.00064072  0.00300177  0.83224208  1
  Te  Te192  1  -0.00136464  0.33253425  0.16618871  1
  Te  Te193  1  0.00405271  0.33742315  0.49988429  1
  Te  Te194  1  0.00245189  0.33105936  0.83623949  1
  Te  Te195  1  -0.00398765  0.65728327  0.16543139  1
  Te  Te196  1  -0.00243638  0.66539693  0.50038960  1
  Te  Te197  1  -0.00165993  0.66439241  0.83394567  1
  Te  Te198  1  0.32794731  0.00469571  0.16191917  1
  Te  Te199  1  0.33697802  0.00237009  0.50300825  1
  Te  Te200  1  0.33474384  0.00518976  0.83447841  1
  Te  Te201  1  0.32655780  0.32749400  0.16686675  1
  Te  Te202  1  0.32624712  0.33300243  0.50002149  1
  Te  Te203  1  0.32587205  0.32748479  0.83261703  1
  Te  Te204  1  0.33714963  0.66534655  0.16113138  1
  Te  Te205  1  0.33841803  0.66424799  0.50104869  1
  Te  Te206  1  0.33664275  0.66359355  0.83751416  1
  Te  Te207  1  0.66727986  0.00584667  0.16176152  1
  Te  Te208  1  0.66078895  0.00580685  0.50030406  1
  Te  Te209  1  0.65941565  -0.00009335  0.83940330  1
  Te  Te210  1  0.66780795  0.33373072  0.16972751  1
  Te  Te211  1  0.66959698  0.32626042  0.49853213  1
  Te  Te212  1  0.66712967  0.33484613  0.83144336  1
  Te  Te213  1  0.66750204  0.66781118  0.17045908  1
  Te  Te214  1  0.66624469  0.66813878  0.49447002  1
  Te  Te215  1  0.66542816  0.66597239  0.83293722  1
