# generated using pymatgen
data_AgSbTe2
_symmetry_space_group_name_H-M   'P 1'
_cell_length_a   18.33397629
_cell_length_b   18.33465222
_cell_length_c   18.33859650
_cell_angle_alpha   89.99958760
_cell_angle_beta   90.00086162
_cell_angle_gamma   90.00279227
_symmetry_Int_Tables_number   1
_chemical_formula_structural   AgSbTe2
_chemical_formula_sum   'Ag54 Sb54 Te108'
_cell_volume   6164.46563710
_cell_formula_units_Z   54
loop_
 _symmetry_equiv_pos_site_id
 _symmetry_equiv_pos_as_xyz
  1  'x, y, z'
loop_
 _atom_site_type_symbol
 _atom_site_label
 _atom_site_symmetry_multiplicity
 _atom_site_fract_x
 _atom_site_fract_y
 _atom_site_fract_z
 _atom_site_occupancy
  Ag  Ag0  1  0.33308751  0.83308234  0.84041383  1
  Ag  Ag1  1  0.49898013  0.16640848  0.32891227  1
  Ag  Ag2  1  0.17486781  0.83747118  0.00067796  1
  Ag  Ag3  1  0.33612356  0.83370472  0.16271235  1
  Ag  Ag4  1  0.32918834  0.00779729  0.66904717  1
  Ag  Ag5  1  0.17005370  0.32587476  0.49549839  1
  Ag  Ag6  1  0.17283771  0.16448374  0.00374850  1
  Ag  Ag7  1  0.50107085  0.83487879  0.32544581  1
  Ag  Ag8  1  0.00197062  0.00665802  0.33778098  1
  Ag  Ag9  1  0.49611571  0.83559440  0.66419847  1
  Ag  Ag10  1  0.01188436  0.67295794  0.66439466  1
  Ag  Ag11  1  0.33618917  0.66632323  0.32042013  1
  Ag  Ag12  1  0.66696210  0.49381100  0.16883495  1
  Ag  Ag13  1  0.82684050  0.67385472  0.49959714  1
  Ag  Ag14  1  0.17596563  0.66843759  0.15915748  1
  Ag  Ag15  1  0.82832352  0.33186041  0.16773832  1
  Ag  Ag16  1  0.16952355  0.00300295  0.83115729  1
  Ag  Ag17  1  0.17391668  0.32545115  0.16713850  1
  Ag  Ag18  1  0.82686672  0.83458995  0.32772129  1
  Ag  Ag19  1  0.33056199  0.49495476  0.83271797  1
  Ag  Ag20  1  0.17166507  0.16383501  0.67052841  1
  Ag  Ag21  1  0.66291478  0.33164327  0.32823424  1
  Ag  Ag22  1  0.33428103  0.32259629  0.00360181  1
  Ag  Ag23  1  0.48840208  0.16440412  0.66373760  1
  Ag  Ag24  1  0.66583124  0.49315426  0.49347404  1
  Ag  Ag25  1  0.65761801  0.33450249  0.01199684  1
  Ag  Ag26  1  0.65663580  0.67082085  0.00488957  1
  Ag  Ag27  1  0.00623111  0.32466015  0.32824560  1
  Ag  Ag28  1  0.84006884  -0.00248083  0.82839391  1
  Ag  Ag29  1  0.17261865  0.32045450  0.83696344  1
  Ag  Ag30  1  0.82917382  0.83368866  0.00472425  1
  Ag  Ag31  1  0.65466933  0.82817396  0.16303720  1
  Ag  Ag32  1  0.33370609  0.33221257  0.32129361  1
  Ag  Ag33  1  0.33244786  0.66991661  0.67651558  1
  Ag  Ag34  1  0.50002948  0.66983321  0.49397659  1
  Ag  Ag35  1  0.17242498  0.00776248  0.16383956  1
  Ag  Ag36  1  0.65881931  0.83315653  0.84169241  1
  Ag  Ag37  1  0.66637927  0.17169493  0.50046009  1
  Ag  Ag38  1  0.01011264  -0.00068575  0.66027944  1
  Ag  Ag39  1  0.01394337  0.17046284  0.17432843  1
  Ag  Ag40  1  0.49019787  0.00167719  0.16820839  1
  Ag  Ag41  1  0.49008368  0.17027043  0.01267910  1
  Ag  Ag42  1  0.49469163  0.32711369  0.16899834  1
  Ag  Ag43  1  0.17356659  0.67185550  0.83787482  1
  Ag  Ag44  1  0.16125568  0.00667445  0.50779433  1
  Ag  Ag45  1  0.00485198  0.16362823  0.49398927  1
  Ag  Ag46  1  0.33100129  0.16830874  0.83899777  1
  Ag  Ag47  1  0.00026688  0.48898069  0.16871905  1
  Ag  Ag48  1  0.84063568  -0.00105134  0.50118972  1
  Ag  Ag49  1  0.33375733  0.32251752  0.67408799  1
  Ag  Ag50  1  0.33406287  0.66810844  0.00257957  1
  Ag  Ag51  1  0.33191750  0.17008259  0.16129184  1
  Ag  Ag52  1  0.65725116  0.33050980  0.66320752  1
  Ag  Ag53  1  0.49305506  0.67371198  0.17000376  1
  Sb  Sb54  1  0.00397233  0.66776618  0.33540150  1
  Sb  Sb55  1  0.33029277  0.00188402  0.33234940  1
  Sb  Sb56  1  0.33417427  0.83285859  0.49932215  1
  Sb  Sb57  1  0.83141928  0.50232343  0.33219677  1
  Sb  Sb58  1  -0.00361098  0.49503909  0.49584090  1
  Sb  Sb59  1  0.49803698  0.33331373  0.49541439  1
  Sb  Sb60  1  0.49141222  0.67066896  0.83711257  1
  Sb  Sb61  1  0.83599891  0.32692410  0.83961720  1
  Sb  Sb62  1  0.16763054  0.49622259  0.33017647  1
  Sb  Sb63  1  0.49325387  -0.00077510  0.83684901  1
  Sb  Sb64  1  0.00416060  0.83626117  0.16718605  1
  Sb  Sb65  1  0.65993112  0.16390359  0.83135783  1
  Sb  Sb66  1  0.16872052  0.49474435  0.66799332  1
  Sb  Sb67  1  0.83588737  0.00208151  0.16870305  1
  Sb  Sb68  1  0.01063885  0.16480251  0.83218995  1
  Sb  Sb69  1  0.33072470  0.16791577  0.50015940  1
  Sb  Sb70  1  0.00585904  0.66832031  -0.00059714  1
  Sb  Sb71  1  0.00798411  0.50048564  0.83689639  1
  Sb  Sb72  1  0.49152611  0.32990899  0.83730173  1
  Sb  Sb73  1  0.49780867  0.49748347  0.66452623  1
  Sb  Sb74  1  0.17169881  0.16690577  0.33114090  1
  Sb  Sb75  1  0.82898645  0.83594616  0.66764103  1
  Sb  Sb76  1  0.49984079  0.49805605  0.33118623  1
  Sb  Sb77  1  0.66630918  0.83390769  0.49759482  1
  Sb  Sb78  1  0.83260322  0.16357454  0.00308502  1
  Sb  Sb79  1  0.66220876  0.00326707  0.66652655  1
  Sb  Sb80  1  0.00659840  0.32834530  0.66064757  1
  Sb  Sb81  1  0.33735514  0.49890796  0.50324888  1
  Sb  Sb82  1  0.66811122  0.00312381  0.33302733  1
  Sb  Sb83  1  -0.00135149  0.84148194  0.49959891  1
  Sb  Sb84  1  0.83218297  0.50066854  0.66502522  1
  Sb  Sb85  1  0.83529314  0.16461132  0.66586715  1
  Sb  Sb86  1  0.33418852  0.49866128  0.16237885  1
  Sb  Sb87  1  0.00683079  0.33078916  0.00958568  1
  Sb  Sb88  1  0.65927394  0.16945130  0.16968178  1
  Sb  Sb89  1  0.17115597  0.83592183  0.32606982  1
  Sb  Sb90  1  0.49598790  0.83670155  0.00476656  1
  Sb  Sb91  1  0.83031646  0.50502149  0.00252195  1
  Sb  Sb92  1  0.83253477  0.16439627  0.33298793  1
  Sb  Sb93  1  0.83736016  0.67454701  0.83038164  1
  Sb  Sb94  1  0.17023797  0.66805303  0.50228792  1
  Sb  Sb95  1  0.83225532  0.66614107  0.17033398  1
  Sb  Sb96  1  0.33171114  0.00202585  -0.00118128  1
  Sb  Sb97  1  0.17053900  0.49695643  0.00152172  1
  Sb  Sb98  1  0.00360514  0.00069543  0.00217986  1
  Sb  Sb99  1  0.66004869  0.50137123  0.83567538  1
  Sb  Sb100  1  0.66071547  0.66517045  0.66859675  1
  Sb  Sb101  1  0.49817514  -0.00062981  0.49730129  1
  Sb  Sb102  1  0.65927430  0.66476295  0.32902166  1
  Sb  Sb103  1  0.66563634  -0.00102157  0.00076122  1
  Sb  Sb104  1  0.00558494  0.83576894  0.83237115  1
  Sb  Sb105  1  0.83162280  0.33057068  0.49457300  1
  Sb  Sb106  1  0.49737028  0.49582629  0.00408636  1
  Sb  Sb107  1  0.17649019  0.84050189  0.67329759  1
  Te  Te108  1  0.17064925  0.16644095  0.16690208  1
  Te  Te109  1  0.16554268  0.16687655  0.50027416  1
  Te  Te110  1  0.17104421  0.16380020  0.83384224  1
  Te  Te111  1  0.16365222  0.50466862  0.16650695  1
  Te  Te112  1  0.16453430  0.49171291  0.49967776  1
  Te  Te113  1  0.17200888  0.50639247  0.83437684  1
  Te  Te114  1  0.17102802  0.82949490  0.16117187  1
  Te  Te115  1  0.16626588  0.83962176  0.49874111  1
  Te  Te116  1  0.17131913  0.83510579  0.83841162  1
  Te  Te117  1  0.49777311  0.16698210  0.16903455  1
  Te  Te118  1  0.50398945  0.16555036  0.50164843  1
  Te  Te119  1  0.49309691  0.16439631  0.82425513  1
  Te  Te120  1  0.50706978  0.50068691  0.16716909  1
  Te  Te121  1  0.50714702  0.50832163  0.49912982  1
  Te  Te122  1  0.49161999  0.50077821  0.83272292  1
  Te  Te123  1  0.49718755  0.83346249  0.16593857  1
  Te  Te124  1  0.50109371  0.83087056  0.49980113  1
  Te  Te125  1  0.49873798  0.83538127  0.82981908  1
  Te  Te126  1  0.83758322  0.17104261  0.16591058  1
  Te  Te127  1  0.83118504  0.16281025  0.49964391  1
  Te  Te128  1  0.83297834  0.15827358  0.83470984  1
  Te  Te129  1  0.83042190  0.49433955  0.16686224  1
  Te  Te130  1  0.82662927  0.50418679  0.49930490  1
  Te  Te131  1  0.83453717  0.49892685  0.83370754  1
  Te  Te132  1  0.83357269  0.83460535  0.16671185  1
  Te  Te133  1  0.83197557  0.83507645  0.49710441  1
  Te  Te134  1  0.83102382  0.83817441  0.83613481  1
  Te  Te135  1  0.16576789  -0.00063982  0.00261869  1
  Te  Te136  1  0.16263866  -0.00063448  0.33004811  1
  Te  Te137  1  0.16843167  0.00092149  0.66781027  1
  Te  Te138  1  0.17199314  0.33066531  0.00109111  1
  Te  Te139  1  0.16961809  0.33277864  0.33043297  1
  Te  Te140  1  0.16946672  0.32834887  0.66801716  1
  Te  Te141  1  0.16903387  0.66907672  -0.00057450  1
  Te  Te142  1  0.17343412  0.66742512  0.33289352  1
  Te  Te143  1  0.16957596  0.66806621  0.66657013  1
  Te  Te144  1  0.50046888  0.01007340  0.00692400  1
  Te  Te145  1  0.49955333  0.00035464  0.32996767  1
  Te  Te146  1  0.49469495  0.00034540  0.66523238  1
  Te  Te147  1  0.49751937  0.32970752  0.00309691  1
  Te  Te148  1  0.49741345  0.33034694  0.33120770  1
  Te  Te149  1  0.49687238  0.32990671  0.66458415  1
  Te  Te150  1  0.49904244  0.66723699  0.00478782  1
  Te  Te151  1  0.49649645  0.66966362  0.33087910  1
  Te  Te152  1  0.49619926  0.66918972  0.66608625  1
  Te  Te153  1  0.83415583  -0.00477311  -0.00367443  1
  Te  Te154  1  0.83704859  -0.00453649  0.33650610  1
  Te  Te155  1  0.83530456  -0.00090282  0.66496672  1
  Te  Te156  1  0.82896695  0.33311313  0.00480506  1
  Te  Te157  1  0.83058466  0.33396312  0.32838138  1
  Te  Te158  1  0.83245609  0.33293022  0.66838159  1
  Te  Te159  1  0.83353277  0.67368459  -0.00028785  1
  Te  Te160  1  0.83475524  0.67342615  0.33847981  1
  Te  Te161  1  0.83237192  0.66781613  0.66080876  1
  Te  Te162  1  0.00467924  0.16626984  0.00417925  1
  Te  Te163  1  -0.00261271  0.16718281  0.33353646  1
  Te  Te164  1  0.00489741  0.16209807  0.66207713  1
  Te  Te165  1  -0.00147049  0.49999998  0.00848573  1
  Te  Te166  1  -0.00132114  0.49601980  0.32779027  1
  Te  Te167  1  0.00003312  0.50532086  0.66624607  1
  Te  Te168  1  -0.00471960  0.83274391  -0.00003354  1
  Te  Te169  1  -0.00425951  0.83601176  0.33272023  1
  Te  Te170  1  -0.00169154  0.83337022  0.66625123  1
  Te  Te171  1  0.33157980  0.16598888  0.00030337  1
  Te  Te172  1  0.33967641  0.17021744  0.32852987  1
  Te  Te173  1  0.33138592  0.16699237  0.66283441  1
  Te  Te174  1  0.33336647  0.50776321  -0.00710912  1
  Te  Te175  1  0.33327965  0.49859522  0.33451354  1
  Te  Te176  1  0.33323166  0.50550053  0.67234370  1
  Te  Te177  1  0.33324484  0.83102450  0.00237334  1
  Te  Te178  1  0.33849389  0.83095814  0.32813361  1
  Te  Te179  1  0.33762891  0.82962137  0.66539972  1
  Te  Te180  1  0.66406735  0.17332191  -0.00165898  1
  Te  Te181  1  0.66333627  0.17070685  0.33679381  1
  Te  Te182  1  0.66581097  0.17105193  0.66428726  1
  Te  Te183  1  0.66497117  0.49816412  0.00332146  1
  Te  Te184  1  0.66629118  0.49471755  0.33209846  1
  Te  Te185  1  0.66581821  0.49281327  0.66608570  1
  Te  Te186  1  0.66363840  0.83250533  0.00149673  1
  Te  Te187  1  0.66410315  0.83292272  0.32934874  1
  Te  Te188  1  0.65935784  0.83421872  0.66982826  1
  Te  Te189  1  0.00391690  0.00455639  0.17133611  1
  Te  Te190  1  0.00076060  0.00355215  0.50006692  1
  Te  Te191  1  0.00303748  0.00072748  0.82738965  1
  Te  Te192  1  0.00561077  0.33106630  0.16943747  1
  Te  Te193  1  0.00075378  0.32854973  0.49315559  1
  Te  Te194  1  0.00709913  0.33423870  0.83265914  1
  Te  Te195  1  0.00306867  0.66448551  0.16854687  1
  Te  Te196  1  0.00030721  0.66397211  0.50402285  1
  Te  Te197  1  0.00646244  0.66608809  0.82655966  1
  Te  Te198  1  0.33234411  -0.00128592  0.16874311  1
  Te  Te199  1  0.32808622  0.00006273  0.50467861  1
  Te  Te200  1  0.32984543  -0.00261259  0.82979799  1
  Te  Te201  1  0.33402796  0.33637384  0.16371257  1
  Te  Te202  1  0.32972134  0.33536670  0.50275877  1
  Te  Te203  1  0.33028197  0.33001320  0.83343586  1
  Te  Te204  1  0.33399879  0.66097583  0.16426306  1
  Te  Te205  1  0.33753231  0.66491428  0.50168022  1
  Te  Te206  1  0.33089355  0.67419850  0.83500978  1
  Te  Te207  1  0.66637561  -0.00559994  0.16706632  1
  Te  Te208  1  0.67067250  0.00572320  0.50089440  1
  Te  Te209  1  0.66963648  -0.00552898  0.83295274  1
  Te  Te210  1  0.66357493  0.33082349  0.16840068  1
  Te  Te211  1  0.66629070  0.33275268  0.49978884  1
  Te  Te212  1  0.66843162  0.33418300  0.83001184  1
  Te  Te213  1  0.66764075  0.66878042  0.16389225  1
  Te  Te214  1  0.66517784  0.66589037  0.49970408  1
  Te  Te215  1  0.66809847  0.67009434  0.83936878  1
