# generated using pymatgen
data_AgSbTe2
_symmetry_space_group_name_H-M   'P 1'
_cell_length_a   18.32059548
_cell_length_b   18.32600739
_cell_length_c   18.32473479
_cell_angle_alpha   90.00248825
_cell_angle_beta   89.99903861
_cell_angle_gamma   89.99863179
_symmetry_Int_Tables_number   1
_chemical_formula_structural   AgSbTe2
_chemical_formula_sum   'Ag54 Sb54 Te108'
_cell_volume   6152.40817040
_cell_formula_units_Z   54
loop_
 _symmetry_equiv_pos_site_id
 _symmetry_equiv_pos_as_xyz
  1  'x, y, z'
loop_
 _atom_site_type_symbol
 _atom_site_label
 _atom_site_symmetry_multiplicity
 _atom_site_fract_x
 _atom_site_fract_y
 _atom_site_fract_z
 _atom_site_occupancy
  Ag  Ag0  1  0.33148136  0.66736651  0.67107774  1
  Ag  Ag1  1  0.66665224  0.49815870  0.50120166  1
  Ag  Ag2  1  0.00994464  0.17101237  0.49398851  1
  Ag  Ag3  1  0.00303785  0.00392958  0.01040942  1
  Ag  Ag4  1  0.82989038  0.83292420  0.32990148  1
  Ag  Ag5  1  0.33149639  0.82584694  0.83618423  1
  Ag  Ag6  1  0.16325884  0.83975172  0.32860135  1
  Ag  Ag7  1  0.50583591  0.33165092  0.50098541  1
  Ag  Ag8  1  0.00261287  0.16964117  0.16788468  1
  Ag  Ag9  1  0.16286590  0.83871997  0.00663259  1
  Ag  Ag10  1  0.66503122  0.67499029  0.33738848  1
  Ag  Ag11  1  0.83354254  0.50029247  0.66428424  1
  Ag  Ag12  1  0.84129284  0.33736020  0.16387727  1
  Ag  Ag13  1  0.65634946  0.32826420  0.00272402  1
  Ag  Ag14  1  0.00314405  0.32849222  0.00909508  1
  Ag  Ag15  1  0.50315618  0.83047230  0.66973735  1
  Ag  Ag16  1  0.16061589  0.32958031  0.16231058  1
  Ag  Ag17  1  0.66420532  -0.00519824  0.32924391  1
  Ag  Ag18  1  0.33591530  0.50718289  0.83691774  1
  Ag  Ag19  1  0.00020549  0.49267091  0.49946464  1
  Ag  Ag20  1  0.49793765  0.33909725  0.84228702  1
  Ag  Ag21  1  0.00336311  0.83708837  0.16598648  1
  Ag  Ag22  1  0.66337209  0.83217421  0.49173812  1
  Ag  Ag23  1  0.66589497  0.66413266  0.66168765  1
  Ag  Ag24  1  0.49308835  0.66524997  0.82974942  1
  Ag  Ag25  1  0.00259375  0.48731340  0.16961370  1
  Ag  Ag26  1  0.50335737  0.17092049  0.00538600  1
  Ag  Ag27  1  0.16760634  0.00255154  0.49283601  1
  Ag  Ag28  1  0.16227018  0.16074256  0.33643194  1
  Ag  Ag29  1  0.17447260  0.66720023  0.82759497  1
  Ag  Ag30  1  0.66656003  0.33821905  0.66476361  1
  Ag  Ag31  1  0.16432540  0.16681244  0.00422280  1
  Ag  Ag32  1  0.66437639  0.00376992  0.01109207  1
  Ag  Ag33  1  0.16404786  0.17205613  0.65422012  1
  Ag  Ag34  1  0.50250361  0.00382962  0.49058065  1
  Ag  Ag35  1  0.16019828  0.32850470  0.50131360  1
  Ag  Ag36  1  0.33596498  0.50173339  0.16397250  1
  Ag  Ag37  1  0.33052930  0.83195538  0.16589613  1
  Ag  Ag38  1  0.00760005  -0.00180343  0.32869032  1
  Ag  Ag39  1  0.66554175  0.16216909  0.16822847  1
  Ag  Ag40  1  0.66517316  0.16769409  0.49391302  1
  Ag  Ag41  1  0.00191015  0.33848862  0.66590324  1
  Ag  Ag42  1  0.50084812  0.49024451  0.00495074  1
  Ag  Ag43  1  0.50637499  0.00233811  0.17107965  1
  Ag  Ag44  1  0.00805126  0.83152438  0.83969985  1
  Ag  Ag45  1  0.66631703  0.84100228  0.17016021  1
  Ag  Ag46  1  0.83372499  0.66522620  0.16981763  1
  Ag  Ag47  1  0.50053766  0.33097258  0.15894901  1
  Ag  Ag48  1  0.66164754  0.83199250  0.83317706  1
  Ag  Ag49  1  0.16395621  0.66887343  0.50527359  1
  Ag  Ag50  1  0.00378466  0.66119318  0.66567256  1
  Ag  Ag51  1  0.32999127  -0.00324516  0.33173254  1
  Ag  Ag52  1  0.16793713  0.33558851  0.83676709  1
  Ag  Ag53  1  0.50143191  0.49759972  0.32927205  1
  Sb  Sb54  1  0.33340153  0.66675349  -0.00588516  1
  Sb  Sb55  1  0.83149562  -0.00059938  0.49693435  1
  Sb  Sb56  1  0.50322887  0.50253677  0.66682381  1
  Sb  Sb57  1  0.49985339  -0.00135863  0.83668381  1
  Sb  Sb58  1  0.16362627  0.66789924  0.16631743  1
  Sb  Sb59  1  0.83337293  -0.00353507  0.83553169  1
  Sb  Sb60  1  0.83409529  0.33498659  0.83659861  1
  Sb  Sb61  1  0.50259610  0.83411146  0.33431929  1
  Sb  Sb62  1  0.49883419  0.16692773  0.33011136  1
  Sb  Sb63  1  0.66430860  0.66784541  0.00018265  1
  Sb  Sb64  1  0.65974646  0.50293079  0.82934562  1
  Sb  Sb65  1  0.33402727  0.33369684  0.00152177  1
  Sb  Sb66  1  0.33662549  0.83355585  0.49866522  1
  Sb  Sb67  1  0.16730354  -0.00120519  0.83254579  1
  Sb  Sb68  1  -0.00143608  0.67134206  0.33576275  1
  Sb  Sb69  1  -0.00046682  0.83453473  0.49742892  1
  Sb  Sb70  1  0.33288213  -0.00598506  0.66159419  1
  Sb  Sb71  1  0.66421184  -0.00135190  0.66288590  1
  Sb  Sb72  1  0.33212231  -0.00237517  0.00716828  1
  Sb  Sb73  1  0.83680900  0.17465003  0.66223909  1
  Sb  Sb74  1  0.33305931  0.32981872  0.33178548  1
  Sb  Sb75  1  0.83377095  0.33488757  0.49495414  1
  Sb  Sb76  1  0.50238427  0.66617814  0.16368088  1
  Sb  Sb77  1  0.49787996  0.16663532  0.66697208  1
  Sb  Sb78  1  0.83024672  0.50482737  0.33467415  1
  Sb  Sb79  1  0.33647862  0.67063392  0.33703996  1
  Sb  Sb80  1  0.83348471  0.16784691  0.00502060  1
  Sb  Sb81  1  0.00195109  0.32803486  0.33208504  1
  Sb  Sb82  1  0.49833906  0.83512384  -0.00209544  1
  Sb  Sb83  1  0.33195054  0.33916540  0.66821226  1
  Sb  Sb84  1  0.33254968  0.16601940  0.16756664  1
  Sb  Sb85  1  0.33450227  0.50046547  0.49964226  1
  Sb  Sb86  1  0.16288308  0.49807310  0.66555225  1
  Sb  Sb87  1  0.83618622  0.16202059  0.33022207  1
  Sb  Sb88  1  0.82841361  0.82687833  0.66199815  1
  Sb  Sb89  1  0.83402175  0.66567893  0.49705747  1
  Sb  Sb90  1  0.66564589  0.49818248  0.17088671  1
  Sb  Sb91  1  0.00229895  0.66700938  -0.00151301  1
  Sb  Sb92  1  0.16973344  0.49653643  0.00071482  1
  Sb  Sb93  1  0.83324772  0.66735278  0.83469948  1
  Sb  Sb94  1  0.16867218  0.83133119  0.66613091  1
  Sb  Sb95  1  0.66462708  0.33160874  0.33243435  1
  Sb  Sb96  1  0.00372147  0.16509107  0.83692205  1
  Sb  Sb97  1  0.33076270  0.16684880  0.49873240  1
  Sb  Sb98  1  0.16629933  0.00341050  0.17299992  1
  Sb  Sb99  1  0.00381234  0.00100732  0.66382816  1
  Sb  Sb100  1  0.16900782  0.49995513  0.33291773  1
  Sb  Sb101  1  0.83662472  0.83328491  0.00740674  1
  Sb  Sb102  1  0.00591911  0.50190953  0.83279937  1
  Sb  Sb103  1  0.33153826  0.16740893  0.83451399  1
  Sb  Sb104  1  0.50177169  0.66638100  0.50467245  1
  Sb  Sb105  1  0.66385325  0.16525782  0.83680395  1
  Sb  Sb106  1  0.83128340  -0.00163018  0.16826209  1
  Sb  Sb107  1  0.83020242  0.49745686  -0.00076879  1
  Te  Te108  1  0.16616534  0.16947908  0.16513049  1
  Te  Te109  1  0.16694355  0.16795007  0.49706224  1
  Te  Te110  1  0.16718017  0.17171053  0.84098193  1
  Te  Te111  1  0.16481162  0.49680009  0.16699071  1
  Te  Te112  1  0.16266548  0.49610437  0.49819818  1
  Te  Te113  1  0.17337458  0.49963536  0.83451662  1
  Te  Te114  1  0.16573409  0.83345455  0.16656346  1
  Te  Te115  1  0.16720317  0.83538874  0.49749320  1
  Te  Te116  1  0.16695565  0.83211761  0.83142459  1
  Te  Te117  1  0.49998890  0.16765565  0.16562991  1
  Te  Te118  1  0.50341880  0.16785417  0.49930192  1
  Te  Te119  1  0.49815405  0.17245052  0.83842819  1
  Te  Te120  1  0.49861425  0.49941921  0.16607196  1
  Te  Te121  1  0.50213091  0.49684608  0.49709611  1
  Te  Te122  1  0.49587727  0.49848673  0.83389144  1
  Te  Te123  1  0.50055954  0.83454710  0.16532547  1
  Te  Te124  1  0.50417187  0.83544047  0.50369823  1
  Te  Te125  1  0.50007855  0.83267050  0.83216976  1
  Te  Te126  1  0.83282794  0.17547043  0.16765715  1
  Te  Te127  1  0.82900124  0.16746896  0.49745928  1
  Te  Te128  1  0.83381666  0.16567130  0.83135134  1
  Te  Te129  1  0.83816902  0.50014608  0.16703992  1
  Te  Te130  1  0.83514616  0.49988629  0.50269698  1
  Te  Te131  1  0.83395067  0.50096103  0.82649164  1
  Te  Te132  1  0.83254449  0.83158571  0.17064881  1
  Te  Te133  1  0.82511926  0.83277953  0.49316973  1
  Te  Te134  1  0.83137523  0.83133025  0.83252021  1
  Te  Te135  1  0.16324732  0.00001090  -0.00099359  1
  Te  Te136  1  0.16610261  -0.00055052  0.33445442  1
  Te  Te137  1  0.16777362  0.00763420  0.65941047  1
  Te  Te138  1  0.16462466  0.33164012  0.00044347  1
  Te  Te139  1  0.16802248  0.33002279  0.33527635  1
  Te  Te140  1  0.16530993  0.33211876  0.66470394  1
  Te  Te141  1  0.16624753  0.67411688  -0.00625004  1
  Te  Te142  1  0.16776223  0.67186513  0.33825338  1
  Te  Te143  1  0.16338539  0.66652491  0.66678558  1
  Te  Te144  1  0.50266157  0.00440296  0.00424290  1
  Te  Te145  1  0.50296905  0.00058309  0.33241791  1
  Te  Te146  1  0.49863491  -0.00354585  0.66179424  1
  Te  Te147  1  0.49877333  0.33150022  -0.00130550  1
  Te  Te148  1  0.49891075  0.33561779  0.33858017  1
  Te  Te149  1  0.50316157  0.33214554  0.66201977  1
  Te  Te150  1  0.50094344  0.66178232  -0.00872297  1
  Te  Te151  1  0.50443158  0.66126008  0.33468509  1
  Te  Te152  1  0.50588735  0.66875974  0.66964823  1
  Te  Te153  1  0.83357649  0.00060044  0.00061039  1
  Te  Te154  1  0.82881253  -0.00683653  0.33379042  1
  Te  Te155  1  0.83413021  0.00079596  0.66646790  1
  Te  Te156  1  0.83814434  0.33408489  0.00430962  1
  Te  Te157  1  0.83283568  0.33436772  0.32306253  1
  Te  Te158  1  0.83313666  0.33890540  0.66742891  1
  Te  Te159  1  0.83320937  0.66469067  0.00896918  1
  Te  Te160  1  0.82773240  0.67178566  0.32913815  1
  Te  Te161  1  0.83076928  0.66133660  0.66656383  1
  Te  Te162  1  0.00144284  0.16628924  0.00343574  1
  Te  Te163  1  0.00175921  0.16148954  0.33218933  1
  Te  Te164  1  0.00368232  0.17020049  0.66413808  1
  Te  Te165  1  -0.00041675  0.49422251  0.00453148  1
  Te  Te166  1  -0.00038517  0.50249485  0.33275520  1
  Te  Te167  1  -0.00261598  0.49917249  0.66548309  1
  Te  Te168  1  0.00221770  0.83454034  0.00178753  1
  Te  Te169  1  0.00234387  0.83714729  0.33159172  1
  Te  Te170  1  -0.00247328  0.83092716  0.66830151  1
  Te  Te171  1  0.32993271  0.16412256  0.00011283  1
  Te  Te172  1  0.32472402  0.15818960  0.33225344  1
  Te  Te173  1  0.32508621  0.16569959  0.66775233  1
  Te  Te174  1  0.33839950  0.50059142  0.00259748  1
  Te  Te175  1  0.33861121  0.50170894  0.32869804  1
  Te  Te176  1  0.33479739  0.50715368  0.67054664  1
  Te  Te177  1  0.32829454  0.83356704  0.00273316  1
  Te  Te178  1  0.33040035  0.83628819  0.32882320  1
  Te  Te179  1  0.33757105  0.82746928  0.66972210  1
  Te  Te180  1  0.66507498  0.16705118  0.00301461  1
  Te  Te181  1  0.66665372  0.16178604  0.33236468  1
  Te  Te182  1  0.66740134  0.17104410  0.66384216  1
  Te  Te183  1  0.66223049  0.49400908  -0.00030647  1
  Te  Te184  1  0.66360254  0.50234679  0.33916115  1
  Te  Te185  1  0.66834268  0.49855611  0.66300916  1
  Te  Te186  1  0.66736088  0.83640864  0.00367344  1
  Te  Te187  1  0.66360891  0.83332346  0.33147020  1
  Te  Te188  1  0.66461195  0.83175997  0.66840670  1
  Te  Te189  1  -0.00110746  -0.00036186  0.16789276  1
  Te  Te190  1  0.00294901  0.00460781  0.49606027  1
  Te  Te191  1  0.00064848  -0.00739586  0.83704697  1
  Te  Te192  1  0.00322678  0.33126017  0.16810858  1
  Te  Te193  1  -0.00038239  0.33243580  0.50049609  1
  Te  Te194  1  0.00330610  0.33391284  0.82895560  1
  Te  Te195  1  -0.00229991  0.67258090  0.16688717  1
  Te  Te196  1  0.00301095  0.66565070  0.50414903  1
  Te  Te197  1  0.00115997  0.66970332  0.82934497  1
  Te  Te198  1  0.34015200  -0.00416086  0.17135782  1
  Te  Te199  1  0.33562110  0.00002471  0.49390766  1
  Te  Te200  1  0.33393389  -0.01022509  0.83272430  1
  Te  Te201  1  0.33815564  0.33859792  0.16816447  1
  Te  Te202  1  0.33619840  0.33486045  0.50012858  1
  Te  Te203  1  0.33229303  0.33646567  0.83212695  1
  Te  Te204  1  0.33290552  0.66781015  0.16830905  1
  Te  Te205  1  0.32648686  0.66562482  0.50683217  1
  Te  Te206  1  0.33315949  0.66794671  0.83001886  1
  Te  Te207  1  0.66711368  0.00174333  0.16762066  1
  Te  Te208  1  0.66400470  0.00136435  0.49812773  1
  Te  Te209  1  0.66578964  -0.00604935  0.83605523  1
  Te  Te210  1  0.65906587  0.33161782  0.16518964  1
  Te  Te211  1  0.66779498  0.33349886  0.50045705  1
  Te  Te212  1  0.66467365  0.33356236  0.83370675  1
  Te  Te213  1  0.66905197  0.66828785  0.16878930  1
  Te  Te214  1  0.66652542  0.66677157  0.50087900  1
  Te  Te215  1  0.66554237  0.67100428  0.83162376  1
