# generated using pymatgen
data_AgSbTe2
_symmetry_space_group_name_H-M   'P 1'
_cell_length_a   18.32319480
_cell_length_b   18.31969056
_cell_length_c   18.32634157
_cell_angle_alpha   90.00063958
_cell_angle_beta   89.99899982
_cell_angle_gamma   89.99968898
_symmetry_Int_Tables_number   1
_chemical_formula_structural   AgSbTe2
_chemical_formula_sum   'Ag54 Sb54 Te108'
_cell_volume   6151.69944546
_cell_formula_units_Z   54
loop_
 _symmetry_equiv_pos_site_id
 _symmetry_equiv_pos_as_xyz
  1  'x, y, z'
loop_
 _atom_site_type_symbol
 _atom_site_label
 _atom_site_symmetry_multiplicity
 _atom_site_fract_x
 _atom_site_fract_y
 _atom_site_fract_z
 _atom_site_occupancy
  Ag  Ag0  1  -0.00548390  0.67280041  0.34082378  1
  Ag  Ag1  1  0.33741137  -0.00451543  -0.00633194  1
  Ag  Ag2  1  0.66325736  0.16660847  0.83662938  1
  Ag  Ag3  1  0.83014753  0.83204787  0.66533804  1
  Ag  Ag4  1  0.49742428  0.16018157  0.33160401  1
  Ag  Ag5  1  0.00503024  -0.00043303  0.33701512  1
  Ag  Ag6  1  0.17604660  0.00556666  0.15721640  1
  Ag  Ag7  1  0.50021995  0.83684940  0.32712163  1
  Ag  Ag8  1  0.82297652  0.66754189  0.17131711  1
  Ag  Ag9  1  0.17179087  0.00469035  0.84060914  1
  Ag  Ag10  1  0.49731789  -0.00322579  0.49972817  1
  Ag  Ag11  1  0.00820094  0.16991446  0.83182171  1
  Ag  Ag12  1  0.49648843  -0.00232390  0.15992028  1
  Ag  Ag13  1  0.66320969  0.50505629  0.50117637  1
  Ag  Ag14  1  0.65757038  0.00164274  0.66907997  1
  Ag  Ag15  1  0.50430570  0.67328548  0.50068429  1
  Ag  Ag16  1  0.65477868  0.00628633  -0.00565096  1
  Ag  Ag17  1  0.82797895  -0.00427353  0.50306953  1
  Ag  Ag18  1  0.66785928  0.32658263  0.67041406  1
  Ag  Ag19  1  0.66518586  0.66570081  0.34150339  1
  Ag  Ag20  1  0.17839723  0.84689491  -0.00178785  1
  Ag  Ag21  1  0.32931430  0.15721006  0.83468472  1
  Ag  Ag22  1  0.17212441  0.32332801  0.16227891  1
  Ag  Ag23  1  0.49300260  0.67030423  0.82857664  1
  Ag  Ag24  1  0.17599451  0.67307369  0.83376035  1
  Ag  Ag25  1  0.33545469  0.50141999  0.16480765  1
  Ag  Ag26  1  0.33823201  0.50810381  0.49976600  1
  Ag  Ag27  1  0.33753618  0.67597534  -0.00990240  1
  Ag  Ag28  1  -0.00179575  0.32934208  0.67492433  1
  Ag  Ag29  1  0.66060397  0.83121748  0.16477780  1
  Ag  Ag30  1  0.82344576  0.67129882  0.50023749  1
  Ag  Ag31  1  0.66938645  0.32540171  -0.00254405  1
  Ag  Ag32  1  0.00379932  0.16456324  0.50423651  1
  Ag  Ag33  1  0.33573701  0.83287503  0.50887119  1
  Ag  Ag34  1  0.50262316  0.16171816  0.67222193  1
  Ag  Ag35  1  0.50300482  0.67844860  0.16765901  1
  Ag  Ag36  1  0.33798270  -0.00467868  0.67227124  1
  Ag  Ag37  1  0.83680556  0.32859810  0.83674832  1
  Ag  Ag38  1  0.50057548  0.16027803  -0.00225722  1
  Ag  Ag39  1  0.17034612  0.16401323  -0.00550599  1
  Ag  Ag40  1  0.16659180  0.32321505  0.50123122  1
  Ag  Ag41  1  0.66233965  0.67057360  0.66082523  1
  Ag  Ag42  1  0.34049270  0.67457315  0.67198745  1
  Ag  Ag43  1  0.83024936  0.49053675  0.00029703  1
  Ag  Ag44  1  -0.00182809  0.66610635  0.66399950  1
  Ag  Ag45  1  0.49896423  0.32729982  0.16568194  1
  Ag  Ag46  1  0.16196694  0.32188244  0.83631576  1
  Ag  Ag47  1  0.17045652  0.00479950  0.49906481  1
  Ag  Ag48  1  0.66374869  0.33341265  0.33221093  1
  Ag  Ag49  1  0.49569246  0.84161043  0.00523875  1
  Ag  Ag50  1  0.33337575  0.83778549  0.83361968  1
  Ag  Ag51  1  0.82607393  0.16882087  -0.00362796  1
  Ag  Ag52  1  -0.00294595  0.32795600  -0.00808834  1
  Ag  Ag53  1  0.17031696  0.16385433  0.33158779  1
  Sb  Sb54  1  0.16810251  0.50001166  0.66636748  1
  Sb  Sb55  1  0.00357891  0.49981212  0.16549815  1
  Sb  Sb56  1  0.66207701  0.16441593  0.15989988  1
  Sb  Sb57  1  0.83123798  0.50276579  0.66865675  1
  Sb  Sb58  1  0.00189941  0.00259524  0.66296221  1
  Sb  Sb59  1  0.83039955  0.33693466  0.15859326  1
  Sb  Sb60  1  0.49782179  0.33153255  0.49732850  1
  Sb  Sb61  1  0.16753042  0.49479752  0.33361937  1
  Sb  Sb62  1  0.33439364  0.16602161  0.15938302  1
  Sb  Sb63  1  0.66177429  0.50304475  0.16877825  1
  Sb  Sb64  1  0.83256545  0.66395566  0.83064527  1
  Sb  Sb65  1  0.50035655  0.50132408  0.66484365  1
  Sb  Sb66  1  0.00372103  0.66232525  -0.00338454  1
  Sb  Sb67  1  0.33109771  0.16172601  0.50653925  1
  Sb  Sb68  1  0.65876743  0.83821971  0.83481722  1
  Sb  Sb69  1  0.66712032  0.49537388  0.83045068  1
  Sb  Sb70  1  0.16966859  0.66922054  0.50311836  1
  Sb  Sb71  1  0.49962554  0.33011351  0.83670245  1
  Sb  Sb72  1  -0.00240482  0.83400219  0.16656202  1
  Sb  Sb73  1  0.49280940  -0.00088598  0.83498621  1
  Sb  Sb74  1  0.82963116  -0.00377817  0.16895450  1
  Sb  Sb75  1  0.16849184  0.83475209  0.67098161  1
  Sb  Sb76  1  0.33285698  0.00059693  0.33390519  1
  Sb  Sb77  1  0.66719553  0.16744941  0.50402332  1
  Sb  Sb78  1  0.33311822  0.50312317  0.83372886  1
  Sb  Sb79  1  -0.00009070  0.49253582  0.83328836  1
  Sb  Sb80  1  0.66034883  0.66728736  -0.00193851  1
  Sb  Sb81  1  0.33399893  0.32993660  0.00010260  1
  Sb  Sb82  1  0.66322751  -0.00036008  0.33519068  1
  Sb  Sb83  1  0.83564328  0.00516750  0.82999178  1
  Sb  Sb84  1  0.17144161  0.66960141  0.16221767  1
  Sb  Sb85  1  -0.00036195  0.49828720  0.50096891  1
  Sb  Sb86  1  0.17017211  0.16537603  0.66996849  1
  Sb  Sb87  1  -0.00123268  0.32968730  0.33409292  1
  Sb  Sb88  1  0.83219344  0.16524594  0.33096596  1
  Sb  Sb89  1  0.83443145  0.33271237  0.50527425  1
  Sb  Sb90  1  0.00440366  0.00675606  0.00197537  1
  Sb  Sb91  1  0.16624591  0.49406890  -0.00005048  1
  Sb  Sb92  1  0.82870336  0.83570896  -0.00358757  1
  Sb  Sb93  1  0.17257088  0.83950764  0.32919248  1
  Sb  Sb94  1  0.50187527  0.49918364  0.00198443  1
  Sb  Sb95  1  0.00384870  0.83788777  0.50078616  1
  Sb  Sb96  1  0.33954272  0.83216318  0.16104034  1
  Sb  Sb97  1  0.66017214  0.83021921  0.49868913  1
  Sb  Sb98  1  0.33763188  0.66890879  0.33515216  1
  Sb  Sb99  1  0.33396953  0.33144772  0.66680117  1
  Sb  Sb100  1  0.50019351  0.83629425  0.66595468  1
  Sb  Sb101  1  0.33798832  0.33139054  0.33297160  1
  Sb  Sb102  1  0.50093919  0.50279886  0.33278488  1
  Sb  Sb103  1  0.82960625  0.16391268  0.67129711  1
  Sb  Sb104  1  0.83173687  0.50205771  0.33033849  1
  Sb  Sb105  1  0.00473042  0.16663863  0.16362727  1
  Sb  Sb106  1  0.82747099  0.83179681  0.33815225  1
  Sb  Sb107  1  0.00668522  0.83826731  0.83254118  1
  Te  Te108  1  0.16916837  0.16517586  0.16938198  1
  Te  Te109  1  0.16601537  0.16574281  0.50144622  1
  Te  Te110  1  0.16822765  0.16517085  0.83310925  1
  Te  Te111  1  0.17375824  0.49618593  0.16747081  1
  Te  Te112  1  0.17028988  0.49601842  0.49872733  1
  Te  Te113  1  0.16645837  0.50339856  0.83368713  1
  Te  Te114  1  0.16656486  0.83952889  0.16036676  1
  Te  Te115  1  0.17382134  0.83912962  0.49885855  1
  Te  Te116  1  0.17202019  0.83359870  0.83730531  1
  Te  Te117  1  0.49869864  0.16504930  0.16784335  1
  Te  Te118  1  0.49883966  0.16274128  0.49720985  1
  Te  Te119  1  0.50187002  0.16716621  0.83494878  1
  Te  Te120  1  0.49460215  0.49373034  0.16782330  1
  Te  Te121  1  0.49989336  0.50211817  0.49924815  1
  Te  Te122  1  0.50026883  0.51045321  0.83363582  1
  Te  Te123  1  0.49981165  0.83669573  0.16613954  1
  Te  Te124  1  0.49641142  0.83465749  0.49948211  1
  Te  Te125  1  0.49444130  0.82767198  0.84055697  1
  Te  Te126  1  0.83418803  0.16653953  0.15883897  1
  Te  Te127  1  0.83867439  0.16260929  0.49986763  1
  Te  Te128  1  0.83052962  0.16936948  0.83710528  1
  Te  Te129  1  0.83311825  0.50712556  0.16122401  1
  Te  Te130  1  0.82945856  0.50537952  0.49965892  1
  Te  Te131  1  0.83306525  0.49226555  0.84007820  1
  Te  Te132  1  0.82695345  0.82727573  0.16549372  1
  Te  Te133  1  0.83526406  0.83313660  0.50409847  1
  Te  Te134  1  0.83399179  0.83377360  0.82739806  1
  Te  Te135  1  0.16635264  0.00290700  0.00051140  1
  Te  Te136  1  0.16610289  0.00335820  0.33592787  1
  Te  Te137  1  0.17088970  -0.00077100  0.66210336  1
  Te  Te138  1  0.16698761  0.32910562  -0.00002575  1
  Te  Te139  1  0.16457999  0.32641932  0.33264662  1
  Te  Te140  1  0.16449604  0.33284763  0.66764784  1
  Te  Te141  1  0.17073723  0.66480111  -0.00387324  1
  Te  Te142  1  0.16126285  0.66913920  0.33216555  1
  Te  Te143  1  0.16598838  0.66735544  0.67136260  1
  Te  Te144  1  0.49843673  0.00107203  -0.00073778  1
  Te  Te145  1  0.49990953  -0.00009152  0.33467489  1
  Te  Te146  1  0.49917449  0.00124078  0.66495488  1
  Te  Te147  1  0.50268772  0.32883210  0.00380132  1
  Te  Te148  1  0.50451949  0.32806688  0.32993631  1
  Te  Te149  1  0.50478072  0.32758249  0.66663417  1
  Te  Te150  1  0.49720368  0.66537841  0.00658138  1
  Te  Te151  1  0.50352888  0.66950941  0.33325904  1
  Te  Te152  1  0.50070636  0.66737655  0.66273764  1
  Te  Te153  1  0.83119523  0.00478021  0.00072598  1
  Te  Te154  1  0.83794175  -0.00075277  0.33901959  1
  Te  Te155  1  0.83335772  -0.00363313  0.66235494  1
  Te  Te156  1  0.83186972  0.32960399  -0.00190111  1
  Te  Te157  1  0.82630144  0.33328943  0.33241278  1
  Te  Te158  1  0.83172622  0.33356019  0.67190013  1
  Te  Te159  1  0.83363854  0.66714561  0.00129402  1
  Te  Te160  1  0.83026760  0.66794765  0.33507199  1
  Te  Te161  1  0.83023004  0.66818487  0.66455333  1
  Te  Te162  1  0.00625509  0.17053589  -0.00272350  1
  Te  Te163  1  0.00175859  0.16406338  0.33698253  1
  Te  Te164  1  -0.00242811  0.16995246  0.66758451  1
  Te  Te165  1  -0.00627821  0.49187705  0.00033280  1
  Te  Te166  1  -0.00034176  0.50967330  0.33354904  1
  Te  Te167  1  -0.00078236  0.50126319  0.66603210  1
  Te  Te168  1  0.00322890  0.83294255  -0.00072284  1
  Te  Te169  1  0.00053744  0.83281231  0.33339073  1
  Te  Te170  1  -0.00471113  0.82820979  0.66691493  1
  Te  Te171  1  0.33326412  0.16376787  -0.00587131  1
  Te  Te172  1  0.33334308  0.16662624  0.33542370  1
  Te  Te173  1  0.34081911  0.16373478  0.67354969  1
  Te  Te174  1  0.33369034  0.50561553  0.00302263  1
  Te  Te175  1  0.33305585  0.50010948  0.33649059  1
  Te  Te176  1  0.33457372  0.50587700  0.66116556  1
  Te  Te177  1  0.33448898  0.83396014  -0.00129732  1
  Te  Te178  1  0.34034258  0.83378051  0.34104205  1
  Te  Te179  1  0.33338711  0.83401615  0.66962007  1
  Te  Te180  1  0.66313999  0.16561036  -0.00126351  1
  Te  Te181  1  0.66320360  0.16969508  0.33389925  1
  Te  Te182  1  0.66381617  0.16517395  0.66969571  1
  Te  Te183  1  0.67067693  0.49435634  -0.00021040  1
  Te  Te184  1  0.66656307  0.50047622  0.33879004  1
  Te  Te185  1  0.66641459  0.50069739  0.66187745  1
  Te  Te186  1  0.66247780  0.83831170  0.00267362  1
  Te  Te187  1  0.66103454  0.83017230  0.32841612  1
  Te  Te188  1  0.66868904  0.83488289  0.66765970  1
  Te  Te189  1  0.00095042  -0.00035315  0.17435064  1
  Te  Te190  1  0.00413748  0.00349123  0.49837339  1
  Te  Te191  1  0.00741123  0.00696428  0.83195599  1
  Te  Te192  1  0.00440127  0.33431669  0.16478278  1
  Te  Te193  1  0.00336602  0.33005736  0.50170181  1
  Te  Te194  1  0.00166774  0.32931968  0.83195708  1
  Te  Te195  1  -0.00143214  0.66649116  0.16762850  1
  Te  Te196  1  0.00084430  0.66653350  0.50209281  1
  Te  Te197  1  0.00221907  0.66789580  0.82764835  1
  Te  Te198  1  0.33502723  -0.00075079  0.16102164  1
  Te  Te199  1  0.33598917  -0.00136625  0.50240431  1
  Te  Te200  1  0.33100948  -0.00151535  0.83257101  1
  Te  Te201  1  0.33362115  0.33722210  0.16660699  1
  Te  Te202  1  0.32772954  0.33788695  0.50091999  1
  Te  Te203  1  0.32765159  0.33315981  0.83190972  1
  Te  Te204  1  0.33774232  0.66371822  0.16663755  1
  Te  Te205  1  0.33467068  0.66808940  0.50248017  1
  Te  Te206  1  0.33400081  0.66578996  0.83161162  1
  Te  Te207  1  0.66304873  -0.00495879  0.16527764  1
  Te  Te208  1  0.66562172  -0.00045255  0.50389840  1
  Te  Te209  1  0.66921787  0.00422603  0.83110846  1
  Te  Te210  1  0.66333784  0.33468907  0.16608444  1
  Te  Te211  1  0.66711592  0.33699231  0.50282277  1
  Te  Te212  1  0.66516380  0.32951478  0.83261817  1
  Te  Te213  1  0.66336912  0.66790136  0.16494957  1
  Te  Te214  1  0.66551149  0.66795211  0.50048885  1
  Te  Te215  1  0.66380402  0.66729524  0.82833673  1
