# generated using pymatgen
data_AgSbTe2
_symmetry_space_group_name_H-M   'P 1'
_cell_length_a   18.33197675
_cell_length_b   18.33506636
_cell_length_c   18.33826378
_cell_angle_alpha   90.00219654
_cell_angle_beta   89.99885800
_cell_angle_gamma   90.00078877
_symmetry_Int_Tables_number   1
_chemical_formula_structural   AgSbTe2
_chemical_formula_sum   'Ag54 Sb54 Te108'
_cell_volume   6163.82072661
_cell_formula_units_Z   54
loop_
 _symmetry_equiv_pos_site_id
 _symmetry_equiv_pos_as_xyz
  1  'x, y, z'
loop_
 _atom_site_type_symbol
 _atom_site_label
 _atom_site_symmetry_multiplicity
 _atom_site_fract_x
 _atom_site_fract_y
 _atom_site_fract_z
 _atom_site_occupancy
  Ag  Ag0  1  0.66231328  0.50021205  0.16920917  1
  Ag  Ag1  1  0.83774835  0.16587885  0.66774125  1
  Ag  Ag2  1  0.66778845  0.49927036  0.82569798  1
  Ag  Ag3  1  0.48969931  0.49899963  0.66349229  1
  Ag  Ag4  1  0.84782434  0.33224092  0.16725069  1
  Ag  Ag5  1  0.16880111  0.82011293  0.66969362  1
  Ag  Ag6  1  0.32689716  0.00602677  -0.00649327  1
  Ag  Ag7  1  0.32893873  0.50150875  0.50391513  1
  Ag  Ag8  1  0.32295660  0.65513775  0.66399531  1
  Ag  Ag9  1  0.00885918  0.33880524  0.66767747  1
  Ag  Ag10  1  0.32736641  0.33650678  0.33451363  1
  Ag  Ag11  1  0.16864548  0.33362562  0.83592608  1
  Ag  Ag12  1  0.50168882  0.66966599  0.16856893  1
  Ag  Ag13  1  0.65964883  0.66036235  0.33272614  1
  Ag  Ag14  1  0.01097896  0.49289903  0.51043331  1
  Ag  Ag15  1  0.01274559  0.65506230  0.67125733  1
  Ag  Ag16  1  0.16794608  0.83950395  -0.00126550  1
  Ag  Ag17  1  0.32799767  0.00161075  0.67049248  1
  Ag  Ag18  1  0.00779966  0.00313842  0.67306613  1
  Ag  Ag19  1  0.00501281  0.49674812  0.82877543  1
  Ag  Ag20  1  0.48959587  0.83367172  0.00700662  1
  Ag  Ag21  1  0.66527938  0.66495991  -0.00116965  1
  Ag  Ag22  1  0.49539754  0.82992378  0.32924729  1
  Ag  Ag23  1  0.01026114  0.00103521  -0.00715062  1
  Ag  Ag24  1  0.66271799  0.00319623  0.66418204  1
  Ag  Ag25  1  0.66459078  0.65579487  0.66720419  1
  Ag  Ag26  1  0.16833117  0.16633075  -0.00146261  1
  Ag  Ag27  1  0.00937429  0.33060419  0.00245585  1
  Ag  Ag28  1  0.16540966  0.33336529  0.15851466  1
  Ag  Ag29  1  0.33037204  0.17036376  0.83580376  1
  Ag  Ag30  1  0.66495262  0.33576382  0.66605666  1
  Ag  Ag31  1  0.17243216  0.82855350  0.33376120  1
  Ag  Ag32  1  0.16850533  0.66177364  0.51135913  1
  Ag  Ag33  1  0.48655130  0.33701043  0.82995133  1
  Ag  Ag34  1  0.32601177  0.16909641  0.15752900  1
  Ag  Ag35  1  0.00002636  0.17233143  0.50628464  1
  Ag  Ag36  1  0.84808486  0.00310140  0.83051866  1
  Ag  Ag37  1  0.00554925  0.84043671  0.16389784  1
  Ag  Ag38  1  0.16630872  0.00104829  0.83473889  1
  Ag  Ag39  1  0.32667253  0.32741489  -0.00753443  1
  Ag  Ag40  1  0.16423399  0.66052560  0.82424870  1
  Ag  Ag41  1  0.33146920  0.82638183  0.50151856  1
  Ag  Ag42  1  0.65979478  -0.00019846  0.34075652  1
  Ag  Ag43  1  0.66871688  0.16581639  0.50363744  1
  Ag  Ag44  1  0.49899758  -0.00570193  0.17120257  1
  Ag  Ag45  1  0.00606593  0.17127556  0.16544520  1
  Ag  Ag46  1  0.17109457  0.49930937  0.34242107  1
  Ag  Ag47  1  0.49823657  0.50186988  0.33751905  1
  Ag  Ag48  1  0.16863425  0.50493062  0.66233863  1
  Ag  Ag49  1  0.32680648  0.33674580  0.66905673  1
  Ag  Ag50  1  0.00558427  0.66618638  -0.00503900  1
  Ag  Ag51  1  0.49954431  -0.00132629  0.49924974  1
  Ag  Ag52  1  0.66252265  0.33713272  0.33622074  1
  Ag  Ag53  1  0.00975318  0.33507937  0.32972414  1
  Sb  Sb54  1  0.66430360  0.49747387  0.50156725  1
  Sb  Sb55  1  0.33599054  0.00317670  0.33382442  1
  Sb  Sb56  1  0.66592342  0.82869289  0.16746661  1
  Sb  Sb57  1  0.50141648  0.17209402  0.66618777  1
  Sb  Sb58  1  0.83413854  0.49847851  -0.00034706  1
  Sb  Sb59  1  0.83900960  0.32987242  0.83370261  1
  Sb  Sb60  1  0.66631005  0.17189697  0.17109266  1
  Sb  Sb61  1  0.33028755  0.16897235  0.50242625  1
  Sb  Sb62  1  0.83101559  0.49651706  0.33239040  1
  Sb  Sb63  1  0.49304918  0.83007348  0.66567072  1
  Sb  Sb64  1  0.49970025  0.33153744  0.50334706  1
  Sb  Sb65  1  0.49106940  0.16227222  0.00111891  1
  Sb  Sb66  1  0.83242537  0.00539068  0.16222397  1
  Sb  Sb67  1  0.83239399  0.83409414  0.33174118  1
  Sb  Sb68  1  0.83751964  0.49391302  0.66692092  1
  Sb  Sb69  1  0.17039261  0.00444481  0.16142361  1
  Sb  Sb70  1  0.84337382  0.16753650  -0.00499340  1
  Sb  Sb71  1  0.33133207  0.83762887  0.16888123  1
  Sb  Sb72  1  0.00563508  0.83265270  0.83658644  1
  Sb  Sb73  1  0.82992606  0.66093992  0.16580001  1
  Sb  Sb74  1  0.32994674  0.83762080  0.82882326  1
  Sb  Sb75  1  0.83379742  0.16849061  0.33693508  1
  Sb  Sb76  1  0.66220952  0.17105725  0.82775461  1
  Sb  Sb77  1  0.83835252  0.66507520  0.50273289  1
  Sb  Sb78  1  0.33600976  0.49404056  0.17299130  1
  Sb  Sb79  1  0.32950759  0.49301097  0.82610073  1
  Sb  Sb80  1  0.17099040  -0.00549829  0.50777726  1
  Sb  Sb81  1  0.84016000  0.83829876  0.66767660  1
  Sb  Sb82  1  0.33503565  0.66275629  0.33776648  1
  Sb  Sb83  1  0.49465228  0.33409797  0.16528534  1
  Sb  Sb84  1  0.16519875  0.33849229  0.50303611  1
  Sb  Sb85  1  0.83555058  0.33267745  0.49871792  1
  Sb  Sb86  1  0.16373300  0.17018800  0.67085364  1
  Sb  Sb87  1  0.66316885  -0.00468931  -0.00311456  1
  Sb  Sb88  1  0.16626110  0.17155356  0.32836089  1
  Sb  Sb89  1  0.65845510  0.83635412  0.49999270  1
  Sb  Sb90  1  0.82939475  0.00295145  0.50623169  1
  Sb  Sb91  1  0.00756518  0.16912223  0.83248607  1
  Sb  Sb92  1  0.33068118  0.66796569  -0.00624546  1
  Sb  Sb93  1  -0.00070616  0.00392326  0.33373600  1
  Sb  Sb94  1  0.66535420  0.33777627  -0.00146572  1
  Sb  Sb95  1  0.00060349  0.49523836  0.16513347  1
  Sb  Sb96  1  0.66402391  0.82808591  0.83132685  1
  Sb  Sb97  1  0.49565678  0.66053110  0.83313993  1
  Sb  Sb98  1  0.49547221  0.66810429  0.49802434  1
  Sb  Sb99  1  0.49392419  0.00376349  0.83106828  1
  Sb  Sb100  1  0.83916283  0.83347666  0.00039987  1
  Sb  Sb101  1  0.00975504  0.83328288  0.49876294  1
  Sb  Sb102  1  0.00051250  0.66127174  0.33384116  1
  Sb  Sb103  1  0.49928684  0.50243960  -0.00101131  1
  Sb  Sb104  1  0.50028933  0.16837324  0.33382581  1
  Sb  Sb105  1  0.16609711  0.49679519  -0.00468386  1
  Sb  Sb106  1  0.16981061  0.66280693  0.16500314  1
  Sb  Sb107  1  0.83862326  0.66866313  0.83144936  1
  Te  Te108  1  0.16595218  0.17041021  0.16254448  1
  Te  Te109  1  0.16068357  0.16308929  0.49709782  1
  Te  Te110  1  0.17110808  0.16795502  0.83795774  1
  Te  Te111  1  0.16801941  0.49489264  0.17418642  1
  Te  Te112  1  0.16765707  0.50128814  0.50098232  1
  Te  Te113  1  0.16445710  0.49915657  0.82971025  1
  Te  Te114  1  0.16527055  0.83086934  0.16610442  1
  Te  Te115  1  0.17257415  0.82833182  0.49981885  1
  Te  Te116  1  0.16698017  0.83556661  0.83300519  1
  Te  Te117  1  0.49747401  0.16045993  0.16654806  1
  Te  Te118  1  0.50416806  0.15983637  0.50008093  1
  Te  Te119  1  0.49270703  0.17512245  0.83382741  1
  Te  Te120  1  0.50278583  0.50345049  0.17023531  1
  Te  Te121  1  0.49705711  0.50018946  0.50060049  1
  Te  Te122  1  0.50504374  0.49640649  0.82912356  1
  Te  Te123  1  0.49962990  0.83233902  0.16832739  1
  Te  Te124  1  0.49217602  0.83682774  0.49636719  1
  Te  Te125  1  0.49771761  0.83203450  0.84157191  1
  Te  Te126  1  0.83759564  0.17245160  0.16544565  1
  Te  Te127  1  0.83491834  0.16704725  0.50619248  1
  Te  Te128  1  0.83024852  0.16209917  0.82829147  1
  Te  Te129  1  0.82395245  0.49323402  0.16634805  1
  Te  Te130  1  0.84839864  0.50031755  0.49907853  1
  Te  Te131  1  0.82982186  0.50079009  0.83335364  1
  Te  Te132  1  0.84299360  0.83407360  0.16725765  1
  Te  Te133  1  0.83423780  0.83396434  0.49896627  1
  Te  Te134  1  0.83174960  0.84400531  0.83341021  1
  Te  Te135  1  0.16698168  -0.00085090  0.00055988  1
  Te  Te136  1  0.16637024  -0.00820075  0.33369571  1
  Te  Te137  1  0.16764890  0.00435771  0.67206538  1
  Te  Te138  1  0.16672668  0.33587972  -0.00187318  1
  Te  Te139  1  0.16706157  0.33583582  0.33460521  1
  Te  Te140  1  0.16687920  0.33532398  0.67025885  1
  Te  Te141  1  0.16421249  0.66939707  -0.00269071  1
  Te  Te142  1  0.16681901  0.66626128  0.33344597  1
  Te  Te143  1  0.16731620  0.66525559  0.66776758  1
  Te  Te144  1  0.49701124  -0.00570534  0.00133552  1
  Te  Te145  1  0.50086627  -0.00056456  0.33305139  1
  Te  Te146  1  0.49939381  -0.00205774  0.66476643  1
  Te  Te147  1  0.49609342  0.33325399  -0.00563279  1
  Te  Te148  1  0.50207361  0.33809446  0.33350243  1
  Te  Te149  1  0.50256792  0.33858270  0.66812410  1
  Te  Te150  1  0.49922826  0.67044429  0.00200000  1
  Te  Te151  1  0.50113304  0.66636859  0.33225235  1
  Te  Te152  1  0.50533450  0.66246012  0.66612764  1
  Te  Te153  1  0.83597396  0.00019619  -0.00645518  1
  Te  Te154  1  0.82390859  0.00051228  0.33201532  1
  Te  Te155  1  0.83434842  0.00326608  0.67068667  1
  Te  Te156  1  0.83848899  0.33223342  0.00525734  1
  Te  Te157  1  0.82846585  0.33260697  0.32738979  1
  Te  Te158  1  0.82952441  0.32726645  0.66694524  1
  Te  Te159  1  0.83190929  0.66711153  -0.00053311  1
  Te  Te160  1  0.82240911  0.66682361  0.33390773  1
  Te  Te161  1  0.82384183  0.67019639  0.66714631  1
  Te  Te162  1  0.00655280  0.16735238  0.00087755  1
  Te  Te163  1  -0.00063124  0.17307102  0.33122458  1
  Te  Te164  1  -0.00143720  0.16470361  0.66676430  1
  Te  Te165  1  0.00024797  0.50194363  -0.00492598  1
  Te  Te166  1  0.00256500  0.49492182  0.33283617  1
  Te  Te167  1  0.00021271  0.49935009  0.66876228  1
  Te  Te168  1  0.00465087  0.83374266  0.00280483  1
  Te  Te169  1  0.00324648  0.83253034  0.32801638  1
  Te  Te170  1  0.00754901  0.83754133  0.66593845  1
  Te  Te171  1  0.32913695  0.16721090  -0.00063261  1
  Te  Te172  1  0.33265137  0.17479636  0.33255134  1
  Te  Te173  1  0.33365071  0.16857137  0.66796409  1
  Te  Te174  1  0.33374723  0.49397926  0.00064190  1
  Te  Te175  1  0.33437387  0.49706564  0.33892564  1
  Te  Te176  1  0.33212582  0.49769589  0.66526029  1
  Te  Te177  1  0.32989115  0.83636080  0.00087703  1
  Te  Te178  1  0.33392159  0.83412959  0.33636591  1
  Te  Te179  1  0.32940978  0.83993057  0.66272357  1
  Te  Te180  1  0.66783455  0.16641952  0.00035575  1
  Te  Te181  1  0.66711374  0.16816866  0.33905899  1
  Te  Te182  1  0.66762593  0.16568448  0.66380581  1
  Te  Te183  1  0.66594406  0.50543493  0.00221966  1
  Te  Te184  1  0.66352703  0.49943079  0.33565999  1
  Te  Te185  1  0.67060810  0.49686352  0.66526938  1
  Te  Te186  1  0.66561757  0.82592965  -0.00040700  1
  Te  Te187  1  0.66125460  0.83561955  0.33330958  1
  Te  Te188  1  0.66597850  0.83948320  0.66588120  1
  Te  Te189  1  -0.00122860  0.00424621  0.16512404  1
  Te  Te190  1  -0.00092602  0.00293771  0.50318154  1
  Te  Te191  1  0.00561797  0.00126105  0.83392718  1
  Te  Te192  1  0.00458642  0.33345226  0.16561167  1
  Te  Te193  1  -0.00077839  0.33219026  0.50423754  1
  Te  Te194  1  0.00240250  0.33559925  0.83073190  1
  Te  Te195  1  -0.00126579  0.66544104  0.16264862  1
  Te  Te196  1  0.00532506  0.66501187  0.50403251  1
  Te  Te197  1  0.00230065  0.66480455  0.83191539  1
  Te  Te198  1  0.33774211  0.00535450  0.16551576  1
  Te  Te199  1  0.33748855  0.00189963  0.50372248  1
  Te  Te200  1  0.32939588  0.00462916  0.83277281  1
  Te  Te201  1  0.33019659  0.32884616  0.16949293  1
  Te  Te202  1  0.33438248  0.33621216  0.50177532  1
  Te  Te203  1  0.32966722  0.33264998  0.83099311  1
  Te  Te204  1  0.34009162  0.66619637  0.16406331  1
  Te  Te205  1  0.33006666  0.66558853  0.50395354  1
  Te  Te206  1  0.32732206  0.66704901  0.82548106  1
  Te  Te207  1  0.66337093  0.00104015  0.16681775  1
  Te  Te208  1  0.66350703  0.00270888  0.50121480  1
  Te  Te209  1  0.66228388  0.00046130  0.82768016  1
  Te  Te210  1  0.66232016  0.33724130  0.16782689  1
  Te  Te211  1  0.66750794  0.32990877  0.50081236  1
  Te  Te212  1  0.67038426  0.33833281  0.83100154  1
  Te  Te213  1  0.66420719  0.66336511  0.16719732  1
  Te  Te214  1  0.66794371  0.66638333  0.50120613  1
  Te  Te215  1  0.66746683  0.66182324  0.83286517  1
