# generated using pymatgen
data_AgSbTe2
_symmetry_space_group_name_H-M   'P 1'
_cell_length_a   18.32569649
_cell_length_b   18.32353135
_cell_length_c   18.32445811
_cell_angle_alpha   90.00191476
_cell_angle_beta   90.00184422
_cell_angle_gamma   90.00300311
_symmetry_Int_Tables_number   1
_chemical_formula_structural   AgSbTe2
_chemical_formula_sum   'Ag54 Sb54 Te108'
_cell_volume   6153.19678574
_cell_formula_units_Z   54
loop_
 _symmetry_equiv_pos_site_id
 _symmetry_equiv_pos_as_xyz
  1  'x, y, z'
loop_
 _atom_site_type_symbol
 _atom_site_label
 _atom_site_symmetry_multiplicity
 _atom_site_fract_x
 _atom_site_fract_y
 _atom_site_fract_z
 _atom_site_occupancy
  Ag  Ag0  1  0.50085950  0.33569494  0.50248802  1
  Ag  Ag1  1  0.82654821  0.50851886  0.34073203  1
  Ag  Ag2  1  0.16957135  0.16410047  0.33273799  1
  Ag  Ag3  1  0.00374817  -0.00215670  0.32877204  1
  Ag  Ag4  1  0.33506050  0.17061804  0.50010188  1
  Ag  Ag5  1  0.83276441  0.66249948  0.49208304  1
  Ag  Ag6  1  0.66926069  0.49898704  0.49679193  1
  Ag  Ag7  1  -0.00498038  0.00005936  0.00385778  1
  Ag  Ag8  1  0.17015175  0.66877164  0.17527234  1
  Ag  Ag9  1  0.83251415  -0.00320131  0.83308067  1
  Ag  Ag10  1  0.67223126  -0.00416485  -0.00201152  1
  Ag  Ag11  1  0.49364740  0.17403662  0.33689463  1
  Ag  Ag12  1  0.83079779  0.82952841  0.00186135  1
  Ag  Ag13  1  0.50618802  0.50132567  0.33394936  1
  Ag  Ag14  1  0.50164756  0.49980414  0.67224005  1
  Ag  Ag15  1  0.66787200  0.50978786  0.17336181  1
  Ag  Ag16  1  0.83269431  0.82363649  0.66561318  1
  Ag  Ag17  1  0.33607470  0.00416798  0.66337282  1
  Ag  Ag18  1  0.50534367  0.65736426  0.84077401  1
  Ag  Ag19  1  0.66185295  0.17777722  0.49980839  1
  Ag  Ag20  1  -0.00614111  0.50478194  0.17008861  1
  Ag  Ag21  1  0.66282531  0.34379946  -0.00271810  1
  Ag  Ag22  1  0.81987937  0.66717580  0.18089676  1
  Ag  Ag23  1  0.50837075  0.66405756  0.16556702  1
  Ag  Ag24  1  0.34266650  0.66294915  0.00722355  1
  Ag  Ag25  1  0.50106794  0.50202235  -0.00558435  1
  Ag  Ag26  1  0.33428923  0.82727241  0.16821255  1
  Ag  Ag27  1  0.34038531  0.34025274  -0.00897404  1
  Ag  Ag28  1  0.67122670  0.66567243  0.66637545  1
  Ag  Ag29  1  0.00262856  0.16739591  0.83577387  1
  Ag  Ag30  1  0.66748903  -0.00695172  0.66884653  1
  Ag  Ag31  1  0.82723183  0.66508469  0.82949188  1
  Ag  Ag32  1  -0.01128958  0.66509502  0.33235067  1
  Ag  Ag33  1  0.82842340  0.33846757  0.82912544  1
  Ag  Ag34  1  0.16628588  -0.00613834  0.16970155  1
  Ag  Ag35  1  0.82593948  0.50627015  0.66123488  1
  Ag  Ag36  1  0.33173247  0.17530601  0.82939189  1
  Ag  Ag37  1  0.16400397  0.82645606  0.66304095  1
  Ag  Ag38  1  0.32869767  -0.00084552  0.33529304  1
  Ag  Ag39  1  0.33333488  0.66837615  0.32685817  1
  Ag  Ag40  1  0.83534339  0.82094342  0.33453381  1
  Ag  Ag41  1  0.16916127  0.16675268  0.00369769  1
  Ag  Ag42  1  0.33616801  0.33475157  0.67045732  1
  Ag  Ag43  1  0.16833659  0.33798416  0.49942936  1
  Ag  Ag44  1  0.82796602  0.34317473  0.50310240  1
  Ag  Ag45  1  0.49632607  0.33956791  0.83008569  1
  Ag  Ag46  1  0.16884207  0.50433482  0.66323826  1
  Ag  Ag47  1  -0.00252533  0.82966079  0.49726053  1
  Ag  Ag48  1  0.34012814  0.49549901  0.83121634  1
  Ag  Ag49  1  0.67668157  0.66229403  0.32375880  1
  Ag  Ag50  1  0.66745167  0.82190183  0.16533680  1
  Ag  Ag51  1  0.66369950  0.66393275  0.01043743  1
  Ag  Ag52  1  -0.00093136  0.34207140  0.33564776  1
  Ag  Ag53  1  0.16211852  0.66140261  0.49512578  1
  Sb  Sb54  1  0.50373115  0.82619133  0.66678154  1
  Sb  Sb55  1  0.00176376  0.16721916  0.16565130  1
  Sb  Sb56  1  0.83078729  0.16847415  0.66673270  1
  Sb  Sb57  1  0.83433438  0.16880692  0.33598572  1
  Sb  Sb58  1  0.33360974  -0.00027000  0.00064636  1
  Sb  Sb59  1  0.50366765  0.00284897  0.83261472  1
  Sb  Sb60  1  0.83233574  -0.00360071  0.50263094  1
  Sb  Sb61  1  0.33300012  0.83170604  0.83562630  1
  Sb  Sb62  1  -0.00041931  -0.00164617  0.66698358  1
  Sb  Sb63  1  0.17080954  0.16808030  0.66356177  1
  Sb  Sb64  1  0.83211557  0.34424579  0.16780173  1
  Sb  Sb65  1  0.16706380  -0.00025071  0.49589642  1
  Sb  Sb66  1  0.33196433  0.16332320  0.16963839  1
  Sb  Sb67  1  0.67000713  0.82920420  0.83888607  1
  Sb  Sb68  1  -0.00471777  0.83492936  0.83067016  1
  Sb  Sb69  1  0.49722242  -0.00672525  0.16689854  1
  Sb  Sb70  1  -0.00675231  0.50357339  0.49441957  1
  Sb  Sb71  1  0.66663802  -0.00460448  0.33345777  1
  Sb  Sb72  1  0.16274153  0.00248495  0.83567857  1
  Sb  Sb73  1  0.16249478  0.83484957  -0.00015782  1
  Sb  Sb74  1  0.32871319  0.83446687  0.49658077  1
  Sb  Sb75  1  0.66493533  0.16747661  0.17027342  1
  Sb  Sb76  1  0.16783011  0.33665381  0.17064500  1
  Sb  Sb77  1  -0.00767674  0.66673709  0.65987957  1
  Sb  Sb78  1  0.67308062  0.82476647  0.49709587  1
  Sb  Sb79  1  0.66495858  0.16843722  0.82928187  1
  Sb  Sb80  1  0.83743654  -0.00960650  0.16282058  1
  Sb  Sb81  1  0.16670955  0.66499690  0.83151590  1
  Sb  Sb82  1  0.16190261  0.83313842  0.33559799  1
  Sb  Sb83  1  0.66928242  0.34163066  0.33441964  1
  Sb  Sb84  1  0.16601343  0.50202268  0.33723282  1
  Sb  Sb85  1  0.50040173  0.00834954  0.50024111  1
  Sb  Sb86  1  0.66363373  0.33929891  0.66711534  1
  Sb  Sb87  1  0.00162162  0.33538685  0.66225632  1
  Sb  Sb88  1  0.49623528  0.17413910  0.00341729  1
  Sb  Sb89  1  -0.00132107  0.32995568  0.00262514  1
  Sb  Sb90  1  0.50272388  0.82585803  0.33257679  1
  Sb  Sb91  1  0.49896188  0.17472586  0.66268656  1
  Sb  Sb92  1  0.83472507  0.16287982  -0.00304385  1
  Sb  Sb93  1  0.66050463  0.50263515  0.83259503  1
  Sb  Sb94  1  0.82482098  0.50643798  -0.00089266  1
  Sb  Sb95  1  0.33684554  0.49574734  0.50363024  1
  Sb  Sb96  1  -0.00190327  0.82774007  0.17282026  1
  Sb  Sb97  1  -0.00111331  0.49633909  0.83792304  1
  Sb  Sb98  1  -0.00615524  0.67028247  0.00767037  1
  Sb  Sb99  1  0.50333655  0.65744708  0.49735624  1
  Sb  Sb100  1  0.33214743  0.33397541  0.33579320  1
  Sb  Sb101  1  0.33699723  0.50808692  0.16488438  1
  Sb  Sb102  1  0.33577462  0.66372781  0.66612081  1
  Sb  Sb103  1  0.00114702  0.16588753  0.50085282  1
  Sb  Sb104  1  0.50619378  0.82410840  0.00140279  1
  Sb  Sb105  1  0.50006665  0.34311827  0.16737358  1
  Sb  Sb106  1  0.17316343  0.49693235  -0.00154963  1
  Sb  Sb107  1  0.17093808  0.33287924  0.82807987  1
  Te  Te108  1  0.16639484  0.16453578  0.16892027  1
  Te  Te109  1  0.16893710  0.17010358  0.49577144  1
  Te  Te110  1  0.16888049  0.16672756  0.83594888  1
  Te  Te111  1  0.16412334  0.50513640  0.16695363  1
  Te  Te112  1  0.16711370  0.50006344  0.50360907  1
  Te  Te113  1  0.17088935  0.49973445  0.82731400  1
  Te  Te114  1  0.16869509  0.83234100  0.16574199  1
  Te  Te115  1  0.16231154  0.82925599  0.50414323  1
  Te  Te116  1  0.16459411  0.83382959  0.82468117  1
  Te  Te117  1  0.49948905  0.16568203  0.17583327  1
  Te  Te118  1  0.49848401  0.17388948  0.49710185  1
  Te  Te119  1  0.49344409  0.17319384  0.83426539  1
  Te  Te120  1  0.50355822  0.50574950  0.16965936  1
  Te  Te121  1  0.50366018  0.49472770  0.49938849  1
  Te  Te122  1  0.49841015  0.49953341  0.83346662  1
  Te  Te123  1  0.50029552  0.82623147  0.16740917  1
  Te  Te124  1  0.49960269  0.83424138  0.50005470  1
  Te  Te125  1  0.49924278  0.82475258  0.83320505  1
  Te  Te126  1  0.83292640  0.16782956  0.16643591  1
  Te  Te127  1  0.83075360  0.17355328  0.50078594  1
  Te  Te128  1  0.83486378  0.16838280  0.83284067  1
  Te  Te129  1  0.83084891  0.50741015  0.16633749  1
  Te  Te130  1  0.83279156  0.50118783  0.50050757  1
  Te  Te131  1  0.83492073  0.49856944  0.82928999  1
  Te  Te132  1  0.83193097  0.82677296  0.16741064  1
  Te  Te133  1  0.83634366  0.82964537  0.50071682  1
  Te  Te134  1  0.83359852  0.83346434  0.82906908  1
  Te  Te135  1  0.16454977  0.00256938  0.00482977  1
  Te  Te136  1  0.16793054  -0.00000979  0.33076560  1
  Te  Te137  1  0.17025922  -0.00352095  0.66592272  1
  Te  Te138  1  0.16817896  0.32822103  0.00115744  1
  Te  Te139  1  0.16420337  0.33101064  0.33745960  1
  Te  Te140  1  0.17148510  0.33586745  0.66050357  1
  Te  Te141  1  0.16738569  0.66717031  0.00062468  1
  Te  Te142  1  0.17344202  0.66739814  0.33584096  1
  Te  Te143  1  0.16727944  0.66624674  0.66391610  1
  Te  Te144  1  0.50652091  0.00055153  -0.00082660  1
  Te  Te145  1  0.49608842  0.00258443  0.33259629  1
  Te  Te146  1  0.49981404  -0.00285109  0.66811317  1
  Te  Te147  1  0.50063737  0.33797500  -0.00096842  1
  Te  Te148  1  0.50057970  0.33563156  0.33630713  1
  Te  Te149  1  0.49743658  0.33891149  0.66722005  1
  Te  Te150  1  0.50168707  0.66388197  0.00040907  1
  Te  Te151  1  0.49643742  0.66198301  0.33162412  1
  Te  Te152  1  0.50404948  0.66022725  0.66711065  1
  Te  Te153  1  0.83299976  -0.00321457  -0.00339228  1
  Te  Te154  1  0.83642937  -0.00114813  0.33304121  1
  Te  Te155  1  0.83109309  -0.00149063  0.67036397  1
  Te  Te156  1  0.82978965  0.33356793  -0.00339035  1
  Te  Te157  1  0.83786789  0.33691897  0.33623877  1
  Te  Te158  1  0.83290600  0.33815119  0.66619992  1
  Te  Te159  1  0.82938458  0.67088232  -0.00804518  1
  Te  Te160  1  0.83325373  0.66493393  0.33574571  1
  Te  Te161  1  0.83248550  0.66576571  0.66919893  1
  Te  Te162  1  0.00495362  0.16252612  -0.00253463  1
  Te  Te163  1  0.00384954  0.16157664  0.33352770  1
  Te  Te164  1  0.00186293  0.16635066  0.67426956  1
  Te  Te165  1  0.00210011  0.49875107  0.00688354  1
  Te  Te166  1  -0.00000303  0.50192092  0.32982514  1
  Te  Te167  1  0.00470485  0.49934992  0.66954524  1
  Te  Te168  1  -0.00581760  0.83996645  0.00040441  1
  Te  Te169  1  -0.00443122  0.83231346  0.33599034  1
  Te  Te170  1  -0.00151037  0.83412576  0.66117493  1
  Te  Te171  1  0.32984520  0.16777982  -0.00242243  1
  Te  Te172  1  0.33212764  0.16615794  0.33599368  1
  Te  Te173  1  0.33405633  0.16606935  0.66600184  1
  Te  Te174  1  0.33713622  0.50130146  -0.00336847  1
  Te  Te175  1  0.33790856  0.50300728  0.33390240  1
  Te  Te176  1  0.33513050  0.49785517  0.66944603  1
  Te  Te177  1  0.33151767  0.82894179  0.00430817  1
  Te  Te178  1  0.33421602  0.83462353  0.32979785  1
  Te  Te179  1  0.33224727  0.83732994  0.66631653  1
  Te  Te180  1  0.66496951  0.16304051  0.00037950  1
  Te  Te181  1  0.66353390  0.16551398  0.33898212  1
  Te  Te182  1  0.66470765  0.15944615  0.66037387  1
  Te  Te183  1  0.66199067  0.50209786  0.00234008  1
  Te  Te184  1  0.66758387  0.50199990  0.33381827  1
  Te  Te185  1  0.66706617  0.50222151  0.66330734  1
  Te  Te186  1  0.67132345  0.83206082  0.00441479  1
  Te  Te187  1  0.67154276  0.82818199  0.32904693  1
  Te  Te188  1  0.67093458  0.83287960  0.66476153  1
  Te  Te189  1  0.00435512  -0.00127960  0.16723162  1
  Te  Te190  1  -0.00092862  -0.00358993  0.49452759  1
  Te  Te191  1  -0.00499107  0.00394185  0.83599269  1
  Te  Te192  1  0.00005411  0.33899991  0.17357653  1
  Te  Te193  1  0.00160588  0.33239995  0.49519488  1
  Te  Te194  1  -0.00390689  0.32831427  0.83452398  1
  Te  Te195  1  0.00680720  0.66437587  0.17177032  1
  Te  Te196  1  0.00080316  0.66831030  0.49425371  1
  Te  Te197  1  -0.00534218  0.66583024  0.83651320  1
  Te  Te198  1  0.32972633  -0.00548394  0.17044834  1
  Te  Te199  1  0.33346745  0.00482737  0.49922041  1
  Te  Te200  1  0.33447082  0.00193359  0.82958852  1
  Te  Te201  1  0.33283220  0.33345862  0.15720397  1
  Te  Te202  1  0.33362326  0.33032206  0.50130941  1
  Te  Te203  1  0.33362704  0.33416594  0.83205477  1
  Te  Te204  1  0.32925295  0.66816095  0.16606144  1
  Te  Te205  1  0.33051880  0.66683490  0.49635038  1
  Te  Te206  1  0.33532996  0.66399191  0.83589618  1
  Te  Te207  1  0.66656852  -0.00210885  0.16289530  1
  Te  Te208  1  0.66699430  0.00198904  0.50386683  1
  Te  Te209  1  0.67039105  0.00078633  0.83279955  1
  Te  Te210  1  0.66679282  0.33563836  0.15825515  1
  Te  Te211  1  0.66742443  0.33614726  0.50048563  1
  Te  Te212  1  0.66757988  0.33260566  0.83627312  1
  Te  Te213  1  0.66510038  0.66589097  0.16637112  1
  Te  Te214  1  0.66984652  0.66112449  0.50294723  1
  Te  Te215  1  0.66617946  0.66683686  0.82748467  1
