# generated using pymatgen
data_AgSbTe2
_symmetry_space_group_name_H-M   'P 1'
_cell_length_a   18.32432118
_cell_length_b   18.32390415
_cell_length_c   18.32267299
_cell_angle_alpha   89.99849354
_cell_angle_beta   89.99842095
_cell_angle_gamma   89.99895885
_symmetry_Int_Tables_number   1
_chemical_formula_structural   AgSbTe2
_chemical_formula_sum   'Ag54 Sb54 Te108'
_cell_volume   6152.26079390
_cell_formula_units_Z   54
loop_
 _symmetry_equiv_pos_site_id
 _symmetry_equiv_pos_as_xyz
  1  'x, y, z'
loop_
 _atom_site_type_symbol
 _atom_site_label
 _atom_site_symmetry_multiplicity
 _atom_site_fract_x
 _atom_site_fract_y
 _atom_site_fract_z
 _atom_site_occupancy
  Ag  Ag0  1  0.82262061  0.49956871  0.33703657  1
  Ag  Ag1  1  0.50777908  0.65872823  0.17176643  1
  Ag  Ag2  1  0.00375204  0.83369627  0.16969683  1
  Ag  Ag3  1  0.66492376  -0.00130321  0.66457931  1
  Ag  Ag4  1  0.50265283  0.33952238  0.17610656  1
  Ag  Ag5  1  0.66319074  0.49566434  0.17246671  1
  Ag  Ag6  1  0.33591891  0.33194095  -0.00164101  1
  Ag  Ag7  1  0.16915763  0.66391513  0.83052946  1
  Ag  Ag8  1  0.33485206  -0.00115376  0.33063599  1
  Ag  Ag9  1  0.66413558  0.34289400  0.32973523  1
  Ag  Ag10  1  0.17259273  0.16926383  0.00001731  1
  Ag  Ag11  1  0.00076034  -0.00499521  0.66349083  1
  Ag  Ag12  1  0.65954110  0.00365581  0.01042419  1
  Ag  Ag13  1  0.65698437  0.17141767  0.83438620  1
  Ag  Ag14  1  0.00160822  0.66547243  -0.00086312  1
  Ag  Ag15  1  0.65582138  0.49638539  0.83283209  1
  Ag  Ag16  1  0.49693796  0.49691820  0.66774778  1
  Ag  Ag17  1  0.33288659  0.83365138  0.83309536  1
  Ag  Ag18  1  0.66661134  0.17128285  0.16622046  1
  Ag  Ag19  1  -0.00106362  0.66744588  0.66803844  1
  Ag  Ag20  1  0.33158332  0.83721470  0.16984608  1
  Ag  Ag21  1  0.66811691  0.65868170  0.66228054  1
  Ag  Ag22  1  0.66892422  0.65996439  0.33322456  1
  Ag  Ag23  1  0.49428773  0.83042776  0.66250319  1
  Ag  Ag24  1  0.33796694  0.17516102  0.82977164  1
  Ag  Ag25  1  0.33496323  0.49124955  0.50874612  1
  Ag  Ag26  1  0.17810718  0.49732898  -0.00444712  1
  Ag  Ag27  1  0.49841669  0.17892705  0.66836504  1
  Ag  Ag28  1  0.17078158  -0.00284669  0.17136417  1
  Ag  Ag29  1  0.82145521  0.34036665  0.17441081  1
  Ag  Ag30  1  -0.01135920  0.33491040  0.33631225  1
  Ag  Ag31  1  0.83179024  0.65728294  0.49362419  1
  Ag  Ag32  1  0.82659489  0.66508744  0.17602644  1
  Ag  Ag33  1  0.50359683  0.49633308  0.33049229  1
  Ag  Ag34  1  0.82382487  0.50200573  0.65701796  1
  Ag  Ag35  1  0.17924455  0.32984007  0.49845659  1
  Ag  Ag36  1  0.49688514  0.49681301  0.00027342  1
  Ag  Ag37  1  0.33783415  0.49177624  0.82853856  1
  Ag  Ag38  1  0.50044884  0.82948492  0.33428899  1
  Ag  Ag39  1  0.66363621  -0.00172181  0.33055562  1
  Ag  Ag40  1  0.33533455  0.00493594  0.00492493  1
  Ag  Ag41  1  0.16873928  0.00497007  0.49655052  1
  Ag  Ag42  1  0.49151226  0.33602553  0.49882854  1
  Ag  Ag43  1  0.49593718  0.33784563  0.82926415  1
  Ag  Ag44  1  0.17249136  0.82935729  0.66307145  1
  Ag  Ag45  1  0.33027633  0.17807632  0.50374678  1
  Ag  Ag46  1  0.33749708  0.33705254  0.66012184  1
  Ag  Ag47  1  0.17654305  0.50449621  0.66958084  1
  Ag  Ag48  1  0.17045439  0.83540515  0.33425116  1
  Ag  Ag49  1  0.82638758  0.82678661  0.33096688  1
  Ag  Ag50  1  0.83281510  0.33907460  0.49236455  1
  Ag  Ag51  1  0.33951141  0.33264994  0.34480577  1
  Ag  Ag52  1  0.82919587  -0.00245436  0.17120240  1
  Ag  Ag53  1  0.00851165  0.16966640  0.50074244  1
  Sb  Sb54  1  0.66248558  0.49805184  0.49708291  1
  Sb  Sb55  1  0.17086699  -0.00310992  0.83192918  1
  Sb  Sb56  1  0.83580579  0.00166117  0.49526049  1
  Sb  Sb57  1  0.00296030  -0.00319545  -0.00003266  1
  Sb  Sb58  1  0.33245982  0.83295734  0.49911343  1
  Sb  Sb59  1  0.65833997  0.83186224  0.82934577  1
  Sb  Sb60  1  0.66537468  0.83311341  0.49726989  1
  Sb  Sb61  1  0.33846095  0.16444793  0.16670720  1
  Sb  Sb62  1  0.82110720  0.33644109  0.83215899  1
  Sb  Sb63  1  0.17667619  0.33825654  0.82812913  1
  Sb  Sb64  1  0.16597984  0.67022619  0.16468543  1
  Sb  Sb65  1  0.16231948  0.66428994  0.50458728  1
  Sb  Sb66  1  -0.00778788  0.66545637  0.33489716  1
  Sb  Sb67  1  0.83321621  0.16759558  0.00226767  1
  Sb  Sb68  1  0.33078182  0.66303476  -0.00091205  1
  Sb  Sb69  1  0.50045930  0.17325173  0.33612609  1
  Sb  Sb70  1  0.82892130  -0.00027931  0.83482643  1
  Sb  Sb71  1  -0.00290401  0.16383136  0.17091832  1
  Sb  Sb72  1  0.34089961  0.66741557  0.33101011  1
  Sb  Sb73  1  0.49567310  0.17282351  -0.00374270  1
  Sb  Sb74  1  0.49894185  0.00464549  0.83125680  1
  Sb  Sb75  1  0.00036629  0.49516811  0.50058682  1
  Sb  Sb76  1  0.00641257  0.83137524  0.83449227  1
  Sb  Sb77  1  0.50088347  0.00101545  0.16900592  1
  Sb  Sb78  1  0.17348673  0.16730080  0.66613202  1
  Sb  Sb79  1  0.17006954  0.83261521  0.00142990  1
  Sb  Sb80  1  0.83535175  0.66412061  0.83149609  1
  Sb  Sb81  1  0.66243537  0.16922382  0.49892387  1
  Sb  Sb82  1  0.00170728  0.83599183  0.49601503  1
  Sb  Sb83  1  0.83059452  0.17281298  0.33370048  1
  Sb  Sb84  1  0.49472151  0.00554782  0.49920711  1
  Sb  Sb85  1  0.65919699  0.33184772  0.00751157  1
  Sb  Sb86  1  0.66436970  0.83307357  0.17001278  1
  Sb  Sb87  1  0.49749052  0.82874026  0.00251452  1
  Sb  Sb88  1  0.82757240  0.17154549  0.66425691  1
  Sb  Sb89  1  0.00056818  0.00173927  0.33587514  1
  Sb  Sb90  1  0.17074574  0.50232255  0.33435386  1
  Sb  Sb91  1  0.82870731  0.50007886  0.00249156  1
  Sb  Sb92  1  -0.00604947  0.50474090  0.16701896  1
  Sb  Sb93  1  0.33522248  0.66047525  0.66704372  1
  Sb  Sb94  1  0.00754038  0.33800578  0.00676696  1
  Sb  Sb95  1  0.66847137  0.66692865  0.00216446  1
  Sb  Sb96  1  0.00460923  0.49982173  0.83117698  1
  Sb  Sb97  1  0.34158498  0.50055628  0.16550907  1
  Sb  Sb98  1  0.17176086  0.32981787  0.17214048  1
  Sb  Sb99  1  0.83307543  0.82781017  0.65952222  1
  Sb  Sb100  1  0.49578444  0.65933577  0.83344148  1
  Sb  Sb101  1  0.16929060  0.16257097  0.33380990  1
  Sb  Sb102  1  0.65827709  0.33677535  0.66068048  1
  Sb  Sb103  1  0.00466709  0.33555256  0.65897787  1
  Sb  Sb104  1  0.00537678  0.16664598  0.82826331  1
  Sb  Sb105  1  0.83337958  0.83263393  0.00989178  1
  Sb  Sb106  1  0.33471062  0.00214688  0.66438471  1
  Sb  Sb107  1  0.50418111  0.65971860  0.49769300  1
  Te  Te108  1  0.16567124  0.16085033  0.16254237  1
  Te  Te109  1  0.16954316  0.16723390  0.50051835  1
  Te  Te110  1  0.17261404  0.16704155  0.83725100  1
  Te  Te111  1  0.16598808  0.50036553  0.16189508  1
  Te  Te112  1  0.17038539  0.49644859  0.50212507  1
  Te  Te113  1  0.17082645  0.50248668  0.83265157  1
  Te  Te114  1  0.16920536  0.83668635  0.16826085  1
  Te  Te115  1  0.16661063  0.83669118  0.50125019  1
  Te  Te116  1  0.17154579  0.82946151  0.82824583  1
  Te  Te117  1  0.50675282  0.17333655  0.16508080  1
  Te  Te118  1  0.49473371  0.17265235  0.50555626  1
  Te  Te119  1  0.49850840  0.17032411  0.83037249  1
  Te  Te120  1  0.50265067  0.49961307  0.16986706  1
  Te  Te121  1  0.49677232  0.49630420  0.50109820  1
  Te  Te122  1  0.49807006  0.49912454  0.83067446  1
  Te  Te123  1  0.49498488  0.83059497  0.16995554  1
  Te  Te124  1  0.49823037  0.83230608  0.50060504  1
  Te  Te125  1  0.49307579  0.83103197  0.82992321  1
  Te  Te126  1  0.82943869  0.16344046  0.16685134  1
  Te  Te127  1  0.83839544  0.17067732  0.50091384  1
  Te  Te128  1  0.82644065  0.16791013  0.83380125  1
  Te  Te129  1  0.82795488  0.50030384  0.16853550  1
  Te  Te130  1  0.83494768  0.49942765  0.49873923  1
  Te  Te131  1  0.82795347  0.49954651  0.83045462  1
  Te  Te132  1  0.83330856  0.83277160  0.17235510  1
  Te  Te133  1  0.83415654  0.83088712  0.49049621  1
  Te  Te134  1  0.83343961  0.83235242  0.83412074  1
  Te  Te135  1  0.16951514  0.00199538  0.00312104  1
  Te  Te136  1  0.16762924  -0.00319197  0.33252420  1
  Te  Te137  1  0.16598781  -0.00215199  0.66389555  1
  Te  Te138  1  0.17192879  0.33557167  0.00151723  1
  Te  Te139  1  0.17611344  0.33386884  0.33809909  1
  Te  Te140  1  0.17142065  0.33678908  0.66109452  1
  Te  Te141  1  0.16366465  0.66197578  -0.00318380  1
  Te  Te142  1  0.16528058  0.67305861  0.33461415  1
  Te  Te143  1  0.16597158  0.66629890  0.66801376  1
  Te  Te144  1  0.49906733  -0.00117391  0.00042187  1
  Te  Te145  1  0.49850485  -0.00476853  0.33396452  1
  Te  Te146  1  0.50410926  -0.00829885  0.66484382  1
  Te  Te147  1  0.49594157  0.33761961  -0.00361291  1
  Te  Te148  1  0.50052750  0.33402008  0.33548094  1
  Te  Te149  1  0.49836557  0.33626970  0.66505099  1
  Te  Te150  1  0.50084082  0.65973499  0.00715926  1
  Te  Te151  1  0.50676876  0.66811652  0.33193453  1
  Te  Te152  1  0.50618026  0.66680456  0.66555064  1
  Te  Te153  1  0.83141592  0.00042005  0.00636158  1
  Te  Te154  1  0.83211027  -0.00327989  0.33082936  1
  Te  Te155  1  0.83069924  -0.00076474  0.66541379  1
  Te  Te156  1  0.83725780  0.33403377  0.00757726  1
  Te  Te157  1  0.82847432  0.33546228  0.33132526  1
  Te  Te158  1  0.83482015  0.34009503  0.66386996  1
  Te  Te159  1  0.83886477  0.66588313  0.00442095  1
  Te  Te160  1  0.83029801  0.66464517  0.33327971  1
  Te  Te161  1  0.83058179  0.66292726  0.66558370  1
  Te  Te162  1  0.00806078  0.16697873  -0.00167102  1
  Te  Te163  1  0.00116913  0.17335208  0.33862595  1
  Te  Te164  1  0.00016035  0.16337993  0.66253788  1
  Te  Te165  1  0.00284294  0.50536027  -0.00111125  1
  Te  Te166  1  -0.00030894  0.49462316  0.33291840  1
  Te  Te167  1  0.00240875  0.50430449  0.66724934  1
  Te  Te168  1  0.00142725  0.82775942  0.00528884  1
  Te  Te169  1  0.00350760  0.83313608  0.32888389  1
  Te  Te170  1  0.00183765  0.83204398  0.66653639  1
  Te  Te171  1  0.33178276  0.16467313  -0.00022370  1
  Te  Te172  1  0.33476836  0.16558524  0.33635873  1
  Te  Te173  1  0.33768828  0.16932693  0.66811982  1
  Te  Te174  1  0.33558467  0.49736771  -0.00087679  1
  Te  Te175  1  0.33817658  0.49739737  0.33329912  1
  Te  Te176  1  0.33491147  0.49875270  0.66865211  1
  Te  Te177  1  0.33404155  0.83874007  -0.00122798  1
  Te  Te178  1  0.33448065  0.83493476  0.33267560  1
  Te  Te179  1  0.33300612  0.83394079  0.66739733  1
  Te  Te180  1  0.66596291  0.16205584  -0.00088310  1
  Te  Te181  1  0.66518689  0.15760104  0.32976773  1
  Te  Te182  1  0.66060539  0.16573178  0.66933508  1
  Te  Te183  1  0.66101652  0.49990734  -0.00282591  1
  Te  Te184  1  0.66525398  0.50105735  0.33282219  1
  Te  Te185  1  0.66488780  0.50028764  0.66771887  1
  Te  Te186  1  0.66548106  0.84227770  -0.00217561  1
  Te  Te187  1  0.66399141  0.83583043  0.33247768  1
  Te  Te188  1  0.66468817  0.83575083  0.66627791  1
  Te  Te189  1  -0.00110878  -0.00374147  0.16546710  1
  Te  Te190  1  0.00409581  0.00491630  0.50356202  1
  Te  Te191  1  -0.00169794  -0.00014687  0.82569680  1
  Te  Te192  1  -0.00036436  0.33253443  0.17492859  1
  Te  Te193  1  -0.00546550  0.32942507  0.49594345  1
  Te  Te194  1  -0.00355690  0.33125669  0.83521883  1
  Te  Te195  1  -0.00274490  0.67175971  0.16602872  1
  Te  Te196  1  -0.00601849  0.66653474  0.50716275  1
  Te  Te197  1  0.00497388  0.66668262  0.83106536  1
  Te  Te198  1  0.33326243  -0.00100341  0.16905782  1
  Te  Te199  1  0.32807640  0.00140704  0.49511874  1
  Te  Te200  1  0.33334055  -0.00115375  0.83708559  1
  Te  Te201  1  0.33873614  0.33257133  0.16167301  1
  Te  Te202  1  0.33544423  0.33419786  0.50112875  1
  Te  Te203  1  0.33574020  0.33384558  0.83607916  1
  Te  Te204  1  0.33527446  0.67519777  0.16536268  1
  Te  Te205  1  0.33232253  0.65706623  0.49873359  1
  Te  Te206  1  0.32903067  0.66958566  0.83362921  1
  Te  Te207  1  0.66697191  0.00000755  0.16806674  1
  Te  Te208  1  0.66679848  0.00220286  0.49950200  1
  Te  Te209  1  0.66594278  0.00406698  0.82831486  1
  Te  Te210  1  0.66435434  0.33384946  0.16851633  1
  Te  Te211  1  0.67276206  0.33128936  0.49168305  1
  Te  Te212  1  0.65890607  0.33293565  0.83453397  1
  Te  Te213  1  0.66737038  0.66526677  0.16710615  1
  Te  Te214  1  0.67219873  0.66696160  0.50066588  1
  Te  Te215  1  0.66661925  0.66151652  0.83167779  1
