# generated using pymatgen
data_AgSbTe2
_symmetry_space_group_name_H-M   'P 1'
_cell_length_a   18.34922796
_cell_length_b   18.34712722
_cell_length_c   18.34580978
_cell_angle_alpha   89.99949852
_cell_angle_beta   89.99952910
_cell_angle_gamma   89.99865121
_symmetry_Int_Tables_number   1
_chemical_formula_structural   AgSbTe2
_chemical_formula_sum   'Ag54 Sb54 Te108'
_cell_volume   6176.21995806
_cell_formula_units_Z   54
loop_
 _symmetry_equiv_pos_site_id
 _symmetry_equiv_pos_as_xyz
  1  'x, y, z'
loop_
 _atom_site_type_symbol
 _atom_site_label
 _atom_site_symmetry_multiplicity
 _atom_site_fract_x
 _atom_site_fract_y
 _atom_site_fract_z
 _atom_site_occupancy
  Ag  Ag0  1  0.17432987  0.14981818  0.67012260  1
  Ag  Ag1  1  0.33500772  -0.00286085  0.67501065  1
  Ag  Ag2  1  0.17091094  0.67400161  0.83401095  1
  Ag  Ag3  1  0.82428445  0.33220104  0.16381253  1
  Ag  Ag4  1  0.33155355  0.83283615  0.51626585  1
  Ag  Ag5  1  0.65900106  -0.01060669  0.67841211  1
  Ag  Ag6  1  0.49845472  0.67091796  0.50409491  1
  Ag  Ag7  1  0.49788676  -0.00053446  0.83220041  1
  Ag  Ag8  1  0.83043704  0.15647220  0.32672936  1
  Ag  Ag9  1  0.33472301  0.67029496  0.32511873  1
  Ag  Ag10  1  0.83371641  0.82885748  0.67299063  1
  Ag  Ag11  1  0.50369334  0.33159119  0.15863791  1
  Ag  Ag12  1  0.66149339  0.50581621  0.83426524  1
  Ag  Ag13  1  0.82832810  0.83609200  0.32575412  1
  Ag  Ag14  1  0.00690808  0.67122937  -0.00756176  1
  Ag  Ag15  1  0.49887119  0.83578620  0.67216971  1
  Ag  Ag16  1  0.34068162  0.16965269  0.15845022  1
  Ag  Ag17  1  0.50475265  0.83368402  0.33291950  1
  Ag  Ag18  1  0.16727504  -0.00590839  0.51381821  1
  Ag  Ag19  1  0.66927552  0.83843437  0.15427073  1
  Ag  Ag20  1  0.83161278  0.50743432  0.67474464  1
  Ag  Ag21  1  0.49811282  0.32485535  0.83639678  1
  Ag  Ag22  1  0.33497771  0.50206885  0.83613672  1
  Ag  Ag23  1  -0.00138795  0.33622686  -0.00022117  1
  Ag  Ag24  1  -0.00851374  0.83644545  0.15241042  1
  Ag  Ag25  1  0.83535218  0.50634930  -0.00449332  1
  Ag  Ag26  1  0.66393645  0.83517912  0.83533562  1
  Ag  Ag27  1  0.16629852  0.50898025  0.67343481  1
  Ag  Ag28  1  0.49347794  0.15702710  0.67244644  1
  Ag  Ag29  1  0.66629872  -0.00452289  0.32976377  1
  Ag  Ag30  1  0.16628432  0.50863478  -0.00825583  1
  Ag  Ag31  1  0.18226450  -0.01139709  0.83290157  1
  Ag  Ag32  1  0.33899648  0.15628270  0.83416545  1
  Ag  Ag33  1  0.32785175  0.84146915  0.83465455  1
  Ag  Ag34  1  0.83901097  0.82968060  -0.00475335  1
  Ag  Ag35  1  0.66647867  -0.00707369  -0.00316496  1
  Ag  Ag36  1  0.16965456  0.83229460  0.67452014  1
  Ag  Ag37  1  0.00451947  0.83066317  0.51185028  1
  Ag  Ag38  1  0.33441857  0.32261811  0.67208825  1
  Ag  Ag39  1  0.32831156  0.67409247  -0.00202249  1
  Ag  Ag40  1  -0.00475961  0.16120518  0.16234837  1
  Ag  Ag41  1  0.33899188  0.49740979  0.15466125  1
  Ag  Ag42  1  0.65864721  0.15301588  0.83568571  1
  Ag  Ag43  1  0.66650419  0.16214414  0.16008667  1
  Ag  Ag44  1  0.50031181  0.83530649  -0.00845001  1
  Ag  Ag45  1  -0.00270065  0.67018067  0.67123480  1
  Ag  Ag46  1  0.01373950  0.83368630  0.83693622  1
  Ag  Ag47  1  0.00121671  -0.01192199  -0.00045471  1
  Ag  Ag48  1  0.33272844  -0.00947309  -0.00928720  1
  Ag  Ag49  1  0.67065754  0.67300875  0.67013965  1
  Ag  Ag50  1  0.15468914  0.83005198  -0.01043517  1
  Ag  Ag51  1  0.67120716  0.50444138  0.51556422  1
  Ag  Ag52  1  -0.00272856  0.50939600  0.50812550  1
  Ag  Ag53  1  0.66473659  0.50041574  0.15980951  1
  Sb  Sb54  1  0.33336348  0.67480380  0.67363952  1
  Sb  Sb55  1  0.66762822  0.67252320  -0.00534584  1
  Sb  Sb56  1  0.50070406  0.50471816  0.33193256  1
  Sb  Sb57  1  0.49975958  0.33872123  0.50530187  1
  Sb  Sb58  1  0.33834774  -0.00522602  0.33262524  1
  Sb  Sb59  1  0.16930321  0.67177736  0.50926560  1
  Sb  Sb60  1  0.00090965  0.16185969  0.49796932  1
  Sb  Sb61  1  0.00246618  0.15915741  0.83683196  1
  Sb  Sb62  1  0.83532719  -0.00505482  0.50143373  1
  Sb  Sb63  1  0.83292801  0.16329233  0.00295283  1
  Sb  Sb64  1  0.66210862  0.33465449  0.67029682  1
  Sb  Sb65  1  0.50011522  0.50562115  -0.00224826  1
  Sb  Sb66  1  0.17200818  0.33348763  0.83383717  1
  Sb  Sb67  1  0.33313979  0.50738764  0.50644551  1
  Sb  Sb68  1  0.33575264  0.83333127  0.15693158  1
  Sb  Sb69  1  0.50020228  0.50582586  0.67085771  1
  Sb  Sb70  1  0.83024756  0.00075084  0.16442070  1
  Sb  Sb71  1  0.16766669  -0.00260727  0.16034719  1
  Sb  Sb72  1  0.49988437  0.66799026  0.16713885  1
  Sb  Sb73  1  0.49570648  0.67662055  0.83134855  1
  Sb  Sb74  1  0.33599161  0.33639452  0.33207355  1
  Sb  Sb75  1  0.16725267  0.33276813  0.50581188  1
  Sb  Sb76  1  0.83719340  0.67074226  0.83221568  1
  Sb  Sb77  1  0.00417538  0.34064071  0.67265569  1
  Sb  Sb78  1  0.00376967  -0.00948575  0.67257559  1
  Sb  Sb79  1  0.66253446  0.67266485  0.33699816  1
  Sb  Sb80  1  0.83094554  0.50380557  0.33129351  1
  Sb  Sb81  1  0.66570294  0.16655329  0.50163989  1
  Sb  Sb82  1  0.49826306  -0.00818501  0.50917791  1
  Sb  Sb83  1  0.50163484  0.00041037  0.15790448  1
  Sb  Sb84  1  0.82904918  0.33686558  0.83769572  1
  Sb  Sb85  1  0.83287258  0.66848938  0.16334720  1
  Sb  Sb86  1  0.16834014  0.50235575  0.33349008  1
  Sb  Sb87  1  0.33212510  0.33364993  -0.00628962  1
  Sb  Sb88  1  -0.00348063  -0.00303520  0.32867986  1
  Sb  Sb89  1  0.33296842  0.15881488  0.50781365  1
  Sb  Sb90  1  -0.00329326  0.33320531  0.32774650  1
  Sb  Sb91  1  0.66522362  0.83126335  0.50695489  1
  Sb  Sb92  1  0.83305954  0.33544820  0.49724294  1
  Sb  Sb93  1  0.66622146  0.33002620  0.32954093  1
  Sb  Sb94  1  0.50360918  0.15981021  0.33189053  1
  Sb  Sb95  1  0.00251311  0.50589178  0.83347083  1
  Sb  Sb96  1  0.16798030  0.66888462  0.15644711  1
  Sb  Sb97  1  0.00434794  0.67009211  0.33430621  1
  Sb  Sb98  1  0.16782751  0.83318912  0.33429269  1
  Sb  Sb99  1  0.82952633  -0.00482634  0.83364120  1
  Sb  Sb100  1  0.16528803  0.16366348  0.33399654  1
  Sb  Sb101  1  0.83112279  0.16401841  0.66643090  1
  Sb  Sb102  1  0.16783923  0.16164327  -0.00372742  1
  Sb  Sb103  1  -0.00092349  0.50223630  0.16318032  1
  Sb  Sb104  1  0.66841938  0.33167781  0.00097420  1
  Sb  Sb105  1  0.50018077  0.16123026  -0.00788910  1
  Sb  Sb106  1  0.83111544  0.66846701  0.50366386  1
  Sb  Sb107  1  0.16774178  0.33328852  0.16191538  1
  Te  Te108  1  0.16601404  0.16608170  0.16609180  1
  Te  Te109  1  0.16613247  0.16142555  0.50698153  1
  Te  Te110  1  0.17084001  0.16700074  0.82773968  1
  Te  Te111  1  0.17060166  0.49998131  0.16486532  1
  Te  Te112  1  0.16217421  0.50086106  0.50434904  1
  Te  Te113  1  0.16784795  0.49889169  0.83323039  1
  Te  Te114  1  0.16076936  0.83353078  0.16497059  1
  Te  Te115  1  0.16782071  0.83624032  0.49855183  1
  Te  Te116  1  0.16975811  0.83257243  0.83442857  1
  Te  Te117  1  0.50138308  0.16978558  0.16783123  1
  Te  Te118  1  0.49980758  0.17020818  0.50581753  1
  Te  Te119  1  0.49948290  0.16603906  0.83179514  1
  Te  Te120  1  0.49937082  0.49705684  0.16551642  1
  Te  Te121  1  0.50285305  0.50718174  0.49975141  1
  Te  Te122  1  0.50012774  0.49624322  0.83337177  1
  Te  Te123  1  0.50576072  0.83479749  0.16979133  1
  Te  Te124  1  0.49797960  0.83028611  0.50147838  1
  Te  Te125  1  0.50382865  0.83533459  0.83201988  1
  Te  Te126  1  0.83114753  0.16845701  0.16695102  1
  Te  Te127  1  0.83369179  0.16776454  0.49101116  1
  Te  Te128  1  0.82468026  0.16871186  0.83230914  1
  Te  Te129  1  0.83202861  0.49641610  0.16336335  1
  Te  Te130  1  0.83292076  0.50072163  0.50108669  1
  Te  Te131  1  0.83068630  0.50066570  0.83384083  1
  Te  Te132  1  0.83097268  0.83389867  0.16306302  1
  Te  Te133  1  0.83886128  0.83272972  0.50752073  1
  Te  Te134  1  0.82225630  0.83277190  0.83374280  1
  Te  Te135  1  0.16925533  -0.00424758  -0.00521067  1
  Te  Te136  1  0.16777864  0.00108785  0.33727770  1
  Te  Te137  1  0.16517567  -0.00554576  0.67109882  1
  Te  Te138  1  0.16165409  0.34106223  0.00029821  1
  Te  Te139  1  0.16640909  0.33250522  0.33428928  1
  Te  Te140  1  0.17168773  0.33936445  0.66726344  1
  Te  Te141  1  0.16674604  0.66740325  -0.00365870  1
  Te  Te142  1  0.17537309  0.66608202  0.33361623  1
  Te  Te143  1  0.16415537  0.66937945  0.67180584  1
  Te  Te144  1  0.49978527  -0.00468194  -0.00530179  1
  Te  Te145  1  0.50609490  -0.00613648  0.33603131  1
  Te  Te146  1  0.49915362  -0.00176799  0.66883270  1
  Te  Te147  1  0.50017107  0.33457987  -0.00068906  1
  Te  Te148  1  0.49960273  0.33183435  0.33070983  1
  Te  Te149  1  0.49468866  0.33186550  0.67015548  1
  Te  Te150  1  0.49323095  0.67477996  0.00080912  1
  Te  Te151  1  0.49533905  0.67175948  0.33601401  1
  Te  Te152  1  0.50360395  0.67275153  0.66369642  1
  Te  Te153  1  0.83395434  -0.00605568  -0.00133124  1
  Te  Te154  1  0.82955754  -0.00273157  0.33546933  1
  Te  Te155  1  0.82596836  -0.00272587  0.66611876  1
  Te  Te156  1  0.83421735  0.33721740  0.00425926  1
  Te  Te157  1  0.83356022  0.33273207  0.32572485  1
  Te  Te158  1  0.83454516  0.33857185  0.66562692  1
  Te  Te159  1  0.83720352  0.66726999  -0.00104587  1
  Te  Te160  1  0.83501033  0.67555463  0.33276763  1
  Te  Te161  1  0.83371754  0.66561649  0.66686303  1
  Te  Te162  1  0.00035503  0.16991851  0.00390082  1
  Te  Te163  1  -0.00401440  0.16578277  0.32641976  1
  Te  Te164  1  -0.00040520  0.16755401  0.66622772  1
  Te  Te165  1  -0.00187969  0.50316367  -0.00021825  1
  Te  Te166  1  0.00006777  0.50105333  0.34042854  1
  Te  Te167  1  -0.00141345  0.50342847  0.66689360  1
  Te  Te168  1  -0.00199146  0.83155151  -0.00280054  1
  Te  Te169  1  -0.00499554  0.83332123  0.33495658  1
  Te  Te170  1  -0.00199584  0.83186047  0.66970087  1
  Te  Te171  1  0.33300374  0.16641079  -0.00147293  1
  Te  Te172  1  0.33327153  0.16696105  0.33087391  1
  Te  Te173  1  0.33321395  0.16256921  0.66865572  1
  Te  Te174  1  0.33343572  0.49857408  -0.00086942  1
  Te  Te175  1  0.33362879  0.50525917  0.33154338  1
  Te  Te176  1  0.33107350  0.50331438  0.67099744  1
  Te  Te177  1  0.33641602  0.83375275  -0.00194351  1
  Te  Te178  1  0.33612272  0.82982021  0.32425771  1
  Te  Te179  1  0.33180837  0.83459906  0.67251261  1
  Te  Te180  1  0.66703107  0.16219161  -0.00038705  1
  Te  Te181  1  0.67055707  0.16073904  0.33149821  1
  Te  Te182  1  0.66525487  0.16649547  0.67093294  1
  Te  Te183  1  0.66892910  0.50304159  -0.00113359  1
  Te  Te184  1  0.66750908  0.50123618  0.32376147  1
  Te  Te185  1  0.66785949  0.50079247  0.67067740  1
  Te  Te186  1  0.66467645  0.83202956  -0.00165850  1
  Te  Te187  1  0.66753799  0.83524770  0.33693720  1
  Te  Te188  1  0.66812997  0.83263852  0.66654665  1
  Te  Te189  1  0.00103333  -0.00042111  0.16129878  1
  Te  Te190  1  0.00542091  -0.00383508  0.50025700  1
  Te  Te191  1  0.00012017  -0.00445271  0.84009934  1
  Te  Te192  1  -0.00104881  0.33294230  0.16167360  1
  Te  Te193  1  -0.00052121  0.33504235  0.50049021  1
  Te  Te194  1  -0.00259764  0.32870351  0.84050351  1
  Te  Te195  1  -0.00016362  0.67283845  0.16594985  1
  Te  Te196  1  0.00160583  0.66836444  0.50240422  1
  Te  Te197  1  0.00323401  0.67119143  0.83142494  1
  Te  Te198  1  0.33438329  0.00708608  0.16429975  1
  Te  Te199  1  0.32908413  -0.00793928  0.49949695  1
  Te  Te200  1  0.33675305  0.00066315  0.83377076  1
  Te  Te201  1  0.33803757  0.33269550  0.16711033  1
  Te  Te202  1  0.33388625  0.33472331  0.50559023  1
  Te  Te203  1  0.33775881  0.33899716  0.82973305  1
  Te  Te204  1  0.33404692  0.66300724  0.16254741  1
  Te  Te205  1  0.33647286  0.67220835  0.49924641  1
  Te  Te206  1  0.33113238  0.66211713  0.83828821  1
  Te  Te207  1  0.66491356  -0.00175556  0.16258335  1
  Te  Te208  1  0.66754464  0.00253499  0.49825568  1
  Te  Te209  1  0.66531007  -0.00240794  0.83452409  1
  Te  Te210  1  0.66494436  0.33274315  0.16611258  1
  Te  Te211  1  0.66635703  0.34231934  0.49858959  1
  Te  Te212  1  0.66140721  0.33831088  0.83457124  1
  Te  Te213  1  0.66580620  0.66479718  0.16648988  1
  Te  Te214  1  0.66311569  0.66231542  0.50378504  1
  Te  Te215  1  0.66384936  0.66447867  0.82816382  1
