# generated using pymatgen
data_AgSbTe2
_symmetry_space_group_name_H-M   'P 1'
_cell_length_a   18.31716712
_cell_length_b   18.31525730
_cell_length_c   18.30967562
_cell_angle_alpha   90.00267337
_cell_angle_beta   89.99968805
_cell_angle_gamma   89.99908785
_symmetry_Int_Tables_number   1
_chemical_formula_structural   AgSbTe2
_chemical_formula_sum   'Ag54 Sb54 Te108'
_cell_volume   6142.59641133
_cell_formula_units_Z   54
loop_
 _symmetry_equiv_pos_site_id
 _symmetry_equiv_pos_as_xyz
  1  'x, y, z'
loop_
 _atom_site_type_symbol
 _atom_site_label
 _atom_site_symmetry_multiplicity
 _atom_site_fract_x
 _atom_site_fract_y
 _atom_site_fract_z
 _atom_site_occupancy
  Ag  Ag0  1  0.33785746  0.16695335  0.16171791  1
  Ag  Ag1  1  0.66560850  0.49474874  0.84405838  1
  Ag  Ag2  1  0.67113765  0.65729571  0.00530087  1
  Ag  Ag3  1  0.00211596  0.16819115  0.83875032  1
  Ag  Ag4  1  0.67054671  0.65951976  0.32982039  1
  Ag  Ag5  1  0.00073709  0.16197777  0.50035394  1
  Ag  Ag6  1  0.33075488  0.17066946  0.84319194  1
  Ag  Ag7  1  -0.00382698  0.66353745  0.00505223  1
  Ag  Ag8  1  0.82785229  0.50672762  0.32839788  1
  Ag  Ag9  1  -0.00237277  -0.00002137  0.66199325  1
  Ag  Ag10  1  0.33272710  0.66583456  0.00449550  1
  Ag  Ag11  1  0.83109019  0.50150278  0.65920019  1
  Ag  Ag12  1  0.49886697  -0.00373244  0.49569583  1
  Ag  Ag13  1  0.16609349  0.67362622  0.49442020  1
  Ag  Ag14  1  0.16968230  0.83251807  0.65614419  1
  Ag  Ag15  1  0.66219372  0.17456860  0.16347687  1
  Ag  Ag16  1  0.16621554  0.16603386  0.32858914  1
  Ag  Ag17  1  0.49364031  0.83103617  0.66374071  1
  Ag  Ag18  1  0.50244746  0.00546820  0.17116764  1
  Ag  Ag19  1  -0.00852977  0.50105547  0.16639433  1
  Ag  Ag20  1  0.32926911  0.66448417  0.33262221  1
  Ag  Ag21  1  0.66597486  -0.00026457  0.33097999  1
  Ag  Ag22  1  0.50207518  0.33260825  0.16396842  1
  Ag  Ag23  1  0.00402873  0.83429306  0.49712186  1
  Ag  Ag24  1  0.83424179  0.17311318  0.00135507  1
  Ag  Ag25  1  0.16216551  0.82809858  0.33890742  1
  Ag  Ag26  1  0.16649212  0.50960162  0.33133872  1
  Ag  Ag27  1  0.83336982  0.66295297  0.49212321  1
  Ag  Ag28  1  0.66751489  0.00003872  0.66162423  1
  Ag  Ag29  1  0.50144741  0.33650522  0.84330739  1
  Ag  Ag30  1  0.50397756  0.33543490  0.49399197  1
  Ag  Ag31  1  0.49794838  0.66818611  0.49806100  1
  Ag  Ag32  1  0.50851430  0.50160969  0.33211924  1
  Ag  Ag33  1  0.33455197  0.32821992  0.00134515  1
  Ag  Ag34  1  0.82937372  0.34053134  0.49675035  1
  Ag  Ag35  1  0.33666195  0.50120455  0.16706646  1
  Ag  Ag36  1  -0.00047723  0.66522976  0.33228046  1
  Ag  Ag37  1  -0.00278653  0.33281427  0.00041507  1
  Ag  Ag38  1  0.66434963  0.34120387  0.32354100  1
  Ag  Ag39  1  0.33265495  0.82817048  0.16437037  1
  Ag  Ag40  1  0.83735680  0.82792171  0.00793154  1
  Ag  Ag41  1  0.66513588  0.17293762  0.84512809  1
  Ag  Ag42  1  0.33680013  0.66858404  0.66029660  1
  Ag  Ag43  1  0.49997083  0.66063040  0.83304773  1
  Ag  Ag44  1  0.33217742  0.01018038  0.00464867  1
  Ag  Ag45  1  0.82973438  0.50072030  0.00657168  1
  Ag  Ag46  1  0.66612478  0.33749928  0.00540038  1
  Ag  Ag47  1  0.17214831  0.33081086  0.83954549  1
  Ag  Ag48  1  0.66740422  0.49458195  0.16657364  1
  Ag  Ag49  1  0.16705023  0.83262607  0.00259527  1
  Ag  Ag50  1  0.82656041  0.00003765  0.16695334  1
  Ag  Ag51  1  0.17037729  0.16779094  0.00108204  1
  Ag  Ag52  1  0.16504837  -0.00773299  0.49836761  1
  Ag  Ag53  1  0.83688263  0.82338008  0.33001918  1
  Sb  Sb54  1  0.34005238  0.49747792  0.84365144  1
  Sb  Sb55  1  0.33354345  -0.00590858  0.66915071  1
  Sb  Sb56  1  0.16937007  0.66629574  0.17394692  1
  Sb  Sb57  1  -0.00398923  0.49581632  0.84159094  1
  Sb  Sb58  1  0.83193673  0.66680999  0.17162923  1
  Sb  Sb59  1  0.50106352  0.16205492  0.66702482  1
  Sb  Sb60  1  -0.00354513  0.33919513  0.32800378  1
  Sb  Sb61  1  0.33610315  -0.00428205  0.32735496  1
  Sb  Sb62  1  0.00239969  0.00143827  -0.00137949  1
  Sb  Sb63  1  0.33011607  0.16611929  0.49673463  1
  Sb  Sb64  1  0.17153458  0.66260073  0.83381209  1
  Sb  Sb65  1  0.49647676  0.17006036  0.00173114  1
  Sb  Sb66  1  0.66418495  0.83321265  0.16765911  1
  Sb  Sb67  1  0.83399313  -0.00172107  0.49495712  1
  Sb  Sb68  1  0.83530645  0.16782701  0.32885476  1
  Sb  Sb69  1  0.16635521  0.33271366  0.49922900  1
  Sb  Sb70  1  0.33572224  0.33825374  0.67318357  1
  Sb  Sb71  1  0.50717135  0.49926132  0.00790747  1
  Sb  Sb72  1  0.16313048  0.50578479  0.66164277  1
  Sb  Sb73  1  0.66899737  0.83319332  0.49741930  1
  Sb  Sb74  1  0.82820857  0.66385358  0.83489406  1
  Sb  Sb75  1  0.49973188  0.82786920  0.33583229  1
  Sb  Sb76  1  0.66488745  0.83235521  0.83560459  1
  Sb  Sb77  1  0.82511010  0.33377892  0.16709335  1
  Sb  Sb78  1  0.00280517  0.67004007  0.66217350  1
  Sb  Sb79  1  0.83246641  0.00183912  0.83853769  1
  Sb  Sb80  1  0.83470975  0.83038188  0.66344291  1
  Sb  Sb81  1  0.82924516  0.33386947  0.83643298  1
  Sb  Sb82  1  0.66801044  0.49977036  0.49402536  1
  Sb  Sb83  1  -0.00306348  0.50279086  0.49292065  1
  Sb  Sb84  1  -0.00119516  0.17155891  0.16421605  1
  Sb  Sb85  1  0.49825647  0.82976623  0.00009337  1
  Sb  Sb86  1  0.66424358  0.00399326  0.00431631  1
  Sb  Sb87  1  0.00177544  0.83550463  0.83203679  1
  Sb  Sb88  1  0.16378464  0.49980669  0.00651644  1
  Sb  Sb89  1  0.17361165  0.33313479  0.16219734  1
  Sb  Sb90  1  0.83278019  0.16914640  0.66974538  1
  Sb  Sb91  1  0.49831154  0.66303975  0.17004679  1
  Sb  Sb92  1  0.66990320  0.16723066  0.49569272  1
  Sb  Sb93  1  0.00228843  0.82842420  0.16985484  1
  Sb  Sb94  1  0.49991383  0.00205079  0.83500171  1
  Sb  Sb95  1  0.33473801  0.50337262  0.49342239  1
  Sb  Sb96  1  0.32830594  0.83056023  0.49425633  1
  Sb  Sb97  1  0.33353126  0.83386222  0.83969309  1
  Sb  Sb98  1  -0.00171440  -0.00514982  0.33664184  1
  Sb  Sb99  1  0.16723013  0.00447226  0.83179567  1
  Sb  Sb100  1  0.49814622  0.17007753  0.33013083  1
  Sb  Sb101  1  -0.00148899  0.33006654  0.67077154  1
  Sb  Sb102  1  0.16551341  0.16110517  0.66922254  1
  Sb  Sb103  1  0.50449927  0.50458095  0.66248241  1
  Sb  Sb104  1  0.66626335  0.33206027  0.66905188  1
  Sb  Sb105  1  0.66260232  0.66783809  0.66482666  1
  Sb  Sb106  1  0.16827511  -0.00038188  0.16998874  1
  Sb  Sb107  1  0.33860894  0.33900957  0.32559457  1
  Te  Te108  1  0.16967016  0.16681011  0.16451581  1
  Te  Te109  1  0.16217318  0.16459295  0.49839571  1
  Te  Te110  1  0.16670787  0.17036006  0.83629959  1
  Te  Te111  1  0.17170579  0.49851483  0.17360740  1
  Te  Te112  1  0.16596652  0.50431793  0.49341613  1
  Te  Te113  1  0.16669060  0.49245644  0.83126858  1
  Te  Te114  1  0.17066785  0.83512230  0.16170546  1
  Te  Te115  1  0.16547815  0.83331321  0.49844751  1
  Te  Te116  1  0.16670871  0.83239311  0.83930643  1
  Te  Te117  1  0.50069476  0.16640094  0.16755285  1
  Te  Te118  1  0.49969251  0.16561531  0.49851873  1
  Te  Te119  1  0.50244703  0.17070504  0.83276302  1
  Te  Te120  1  0.50027764  0.49747393  0.17317356  1
  Te  Te121  1  0.50036174  0.50062862  0.49460482  1
  Te  Te122  1  0.50543154  0.49919333  0.82973241  1
  Te  Te123  1  0.49328011  0.84041724  0.16784644  1
  Te  Te124  1  0.49952442  0.83343977  0.50341257  1
  Te  Te125  1  0.49958786  0.82919848  0.82649623  1
  Te  Te126  1  0.83043443  0.16302437  0.16182353  1
  Te  Te127  1  0.83928827  0.16939455  0.50034322  1
  Te  Te128  1  0.83332217  0.16772047  0.83896388  1
  Te  Te129  1  0.83104302  0.49931105  0.16738904  1
  Te  Te130  1  0.83352663  0.50117447  0.49570355  1
  Te  Te131  1  0.82798733  0.49929263  0.84062430  1
  Te  Te132  1  0.83403327  0.83819418  0.16773776  1
  Te  Te133  1  0.83884756  0.82959330  0.49568319  1
  Te  Te134  1  0.83375123  0.83281106  0.84048722  1
  Te  Te135  1  0.17003967  0.00029468  -0.00009835  1
  Te  Te136  1  0.16698619  -0.00266358  0.33817787  1
  Te  Te137  1  0.16506044  -0.00605103  0.66180217  1
  Te  Te138  1  0.16777498  0.33282184  -0.00257588  1
  Te  Te139  1  0.16646306  0.33084456  0.33491835  1
  Te  Te140  1  0.16722287  0.33537155  0.67202193  1
  Te  Te141  1  0.16704099  0.66808448  -0.00229636  1
  Te  Te142  1  0.16685595  0.66813923  0.33555458  1
  Te  Te143  1  0.17110214  0.67139875  0.66259626  1
  Te  Te144  1  0.49452677  -0.00270319  0.00456448  1
  Te  Te145  1  0.50346845  -0.00141792  0.33413700  1
  Te  Te146  1  0.50232737  -0.00552259  0.66394363  1
  Te  Te147  1  0.50151238  0.33502193  0.00090194  1
  Te  Te148  1  0.50356755  0.33635974  0.33306132  1
  Te  Te149  1  0.49996488  0.33436090  0.66035728  1
  Te  Te150  1  0.49942187  0.66592677  -0.00325219  1
  Te  Te151  1  0.50070358  0.66345008  0.33643073  1
  Te  Te152  1  0.49749681  0.67008242  0.66209908  1
  Te  Te153  1  0.83378536  -0.00202680  0.00490587  1
  Te  Te154  1  0.82885908  -0.00048626  0.32898816  1
  Te  Te155  1  0.83206998  -0.00110034  0.66564586  1
  Te  Te156  1  0.83178850  0.33330430  0.00053485  1
  Te  Te157  1  0.82931017  0.33569354  0.33698613  1
  Te  Te158  1  0.83320872  0.33913797  0.65882410  1
  Te  Te159  1  0.83284419  0.66570585  -0.00052715  1
  Te  Te160  1  0.83234856  0.66723426  0.33464496  1
  Te  Te161  1  0.83291358  0.66259952  0.66137906  1
  Te  Te162  1  0.00131751  0.16850793  -0.00174990  1
  Te  Te163  1  0.00513584  0.16804869  0.33404177  1
  Te  Te164  1  -0.00029420  0.16223391  0.66646271  1
  Te  Te165  1  -0.00348577  0.50084341  0.00493655  1
  Te  Te166  1  -0.00166793  0.50448001  0.32778706  1
  Te  Te167  1  -0.00706934  0.50001038  0.66860455  1
  Te  Te168  1  0.00056514  0.83095333  0.00036730  1
  Te  Te169  1  0.00036409  0.82808272  0.33552480  1
  Te  Te170  1  0.00346915  0.83797287  0.66349204  1
  Te  Te171  1  0.33187546  0.16895535  0.00084972  1
  Te  Te172  1  0.32629968  0.16711576  0.32847854  1
  Te  Te173  1  0.33259616  0.16765075  0.67204422  1
  Te  Te174  1  0.33187577  0.50242682  0.00677531  1
  Te  Te175  1  0.33075543  0.50394583  0.32811707  1
  Te  Te176  1  0.33236466  0.50868535  0.66850035  1
  Te  Te177  1  0.33158134  0.82705988  0.00424201  1
  Te  Te178  1  0.32943985  0.82802852  0.32673128  1
  Te  Te179  1  0.33157553  0.82921009  0.66884855  1
  Te  Te180  1  0.66917802  0.16784365  0.00261011  1
  Te  Te181  1  0.66693161  0.16447516  0.32760690  1
  Te  Te182  1  0.66760081  0.16047188  0.66964043  1
  Te  Te183  1  0.66811211  0.49905831  0.00304584  1
  Te  Te184  1  0.66776586  0.49987172  0.33077980  1
  Te  Te185  1  0.67248126  0.50028051  0.67343846  1
  Te  Te186  1  0.67170054  0.82847164  0.00033154  1
  Te  Te187  1  0.67116812  0.83332954  0.33238164  1
  Te  Te188  1  0.66542128  0.83935686  0.66746271  1
  Te  Te189  1  -0.00651770  0.00126421  0.16687016  1
  Te  Te190  1  0.00151451  -0.00021630  0.50167922  1
  Te  Te191  1  -0.00001750  0.00597372  0.82650010  1
  Te  Te192  1  0.00177229  0.33976667  0.15966737  1
  Te  Te193  1  -0.00274941  0.32999809  0.50070549  1
  Te  Te194  1  0.00039545  0.32874890  0.83858900  1
  Te  Te195  1  0.00087150  0.66150670  0.16497698  1
  Te  Te196  1  0.00073740  0.66917439  0.49771756  1
  Te  Te197  1  0.00127090  0.66598496  0.83842630  1
  Te  Te198  1  0.33492655  0.00471276  0.16334786  1
  Te  Te199  1  0.33707677  0.00096436  0.50018630  1
  Te  Te200  1  0.33417369  0.00712230  0.84032884  1
  Te  Te201  1  0.33976827  0.33222788  0.16140440  1
  Te  Te202  1  0.33944465  0.33260244  0.50084574  1
  Te  Te203  1  0.33800727  0.33105614  0.83856303  1
  Te  Te204  1  0.33537085  0.66577927  0.16691811  1
  Te  Te205  1  0.33535890  0.66739419  0.49712979  1
  Te  Te206  1  0.33905722  0.66548833  0.83863849  1
  Te  Te207  1  0.66417671  -0.00040468  0.16889979  1
  Te  Te208  1  0.66325672  0.00057840  0.49801158  1
  Te  Te209  1  0.66488175  0.00584555  0.83140208  1
  Te  Te210  1  0.66374397  0.33340895  0.16609824  1
  Te  Te211  1  0.66536226  0.33190926  0.49844726  1
  Te  Te212  1  0.66310581  0.33268520  0.83560945  1
  Te  Te213  1  0.66422169  0.66301046  0.16640899  1
  Te  Te214  1  0.66563725  0.66697068  0.49580989  1
  Te  Te215  1  0.66095282  0.66434825  0.83585152  1
