# generated using pymatgen
data_AgSbTe2
_symmetry_space_group_name_H-M   'P 1'
_cell_length_a   18.33122629
_cell_length_b   18.33136054
_cell_length_c   18.33401778
_cell_angle_alpha   89.99984250
_cell_angle_beta   90.00089193
_cell_angle_gamma   90.00162623
_symmetry_Int_Tables_number   1
_chemical_formula_structural   AgSbTe2
_chemical_formula_sum   'Ag54 Sb54 Te108'
_cell_volume   6160.89582937
_cell_formula_units_Z   54
loop_
 _symmetry_equiv_pos_site_id
 _symmetry_equiv_pos_as_xyz
  1  'x, y, z'
loop_
 _atom_site_type_symbol
 _atom_site_label
 _atom_site_symmetry_multiplicity
 _atom_site_fract_x
 _atom_site_fract_y
 _atom_site_fract_z
 _atom_site_occupancy
  Ag  Ag0  1  0.32948263  -0.00089821  0.33538863  1
  Ag  Ag1  1  0.66799239  0.50098544  0.82955302  1
  Ag  Ag2  1  0.16681844  -0.00448437  0.83404319  1
  Ag  Ag3  1  0.34221002  0.83938550  0.83205627  1
  Ag  Ag4  1  0.16223170  0.33925055  0.50223455  1
  Ag  Ag5  1  0.66586606  -0.00140523  -0.01243587  1
  Ag  Ag6  1  0.50371592  0.49539541  0.66640271  1
  Ag  Ag7  1  0.00063826  0.84469598  0.49967515  1
  Ag  Ag8  1  0.50483511  0.83949150  0.67016647  1
  Ag  Ag9  1  0.66592561  0.66388492  0.32613375  1
  Ag  Ag10  1  0.66782617  0.00229831  0.67194269  1
  Ag  Ag11  1  0.66123801  0.67013114  0.66927662  1
  Ag  Ag12  1  0.50628034  0.66867182  0.16676784  1
  Ag  Ag13  1  -0.00813280  0.32959717  0.66193060  1
  Ag  Ag14  1  0.83021371  0.32356939  0.50546902  1
  Ag  Ag15  1  0.00595776  0.49339012  0.50662198  1
  Ag  Ag16  1  0.50309484  0.16294543  0.66407674  1
  Ag  Ag17  1  0.16596446  0.50142975  -0.00235612  1
  Ag  Ag18  1  0.16512420  0.66068534  0.50301120  1
  Ag  Ag19  1  0.82396651  0.16532317  0.34055731  1
  Ag  Ag20  1  -0.00162931  0.49896387  0.82444034  1
  Ag  Ag21  1  0.50937305  0.32578296  0.50506450  1
  Ag  Ag22  1  0.16454935  0.83486267  0.33389147  1
  Ag  Ag23  1  0.50318846  0.83966211  -0.01085959  1
  Ag  Ag24  1  0.00308478  -0.00178337  0.34379247  1
  Ag  Ag25  1  0.82307718  0.66878868  0.16842848  1
  Ag  Ag26  1  0.82778558  0.32295692  0.82197968  1
  Ag  Ag27  1  0.34860769  0.33675660  0.66311771  1
  Ag  Ag28  1  0.50961197  0.00638507  0.50997063  1
  Ag  Ag29  1  -0.00315802  -0.00070039  -0.00976164  1
  Ag  Ag30  1  0.66413681  0.16643528  0.17490798  1
  Ag  Ag31  1  0.16800655  0.66972224  0.82711807  1
  Ag  Ag32  1  0.66183541  0.84273948  0.82833193  1
  Ag  Ag33  1  0.50535987  0.15777105  -0.01413549  1
  Ag  Ag34  1  0.66648884  0.32446814  0.66376080  1
  Ag  Ag35  1  0.66673354  0.32549522  0.34514017  1
  Ag  Ag36  1  -0.00947431  0.16364028  0.50256444  1
  Ag  Ag37  1  0.66763285  0.16805602  0.50266121  1
  Ag  Ag38  1  0.16347401  -0.00284195  0.16590216  1
  Ag  Ag39  1  0.82526767  0.83968628  0.66687509  1
  Ag  Ag40  1  -0.00989683  0.00242764  0.66372345  1
  Ag  Ag41  1  0.50820237  -0.00049717  0.82756712  1
  Ag  Ag42  1  0.34158631  0.66498088  0.66652528  1
  Ag  Ag43  1  0.66474201  0.67146491  -0.00343035  1
  Ag  Ag44  1  0.33202511  0.83517386  0.16485053  1
  Ag  Ag45  1  0.82003871  0.00347211  0.82264727  1
  Ag  Ag46  1  0.00457195  0.83752965  0.17288996  1
  Ag  Ag47  1  0.50656408  0.16414884  0.34399182  1
  Ag  Ag48  1  0.83224150  0.00508228  0.50453653  1
  Ag  Ag49  1  0.34767983  0.15482918  0.83044022  1
  Ag  Ag50  1  0.66472549  0.15453831  0.82464979  1
  Ag  Ag51  1  0.66550767  0.50888026  0.16492902  1
  Ag  Ag52  1  0.16574208  0.50553633  0.34190580  1
  Ag  Ag53  1  0.32757281  0.49751378  0.50230177  1
  Sb  Sb54  1  0.33002523  0.83162898  0.50321949  1
  Sb  Sb55  1  0.33950651  -0.00092370  0.66603001  1
  Sb  Sb56  1  0.16573802  0.33025823  0.17463961  1
  Sb  Sb57  1  0.83526907  0.66799219  0.49885438  1
  Sb  Sb58  1  0.82805314  0.83540903  -0.00432530  1
  Sb  Sb59  1  0.66676731  0.00260536  0.33662814  1
  Sb  Sb60  1  0.83059584  0.66968408  0.83356579  1
  Sb  Sb61  1  0.83613780  0.83823752  0.33762300  1
  Sb  Sb62  1  0.16334302  0.33459495  0.82484523  1
  Sb  Sb63  1  -0.00301560  0.50534451  0.16817585  1
  Sb  Sb64  1  0.00037395  0.32815054  -0.00937903  1
  Sb  Sb65  1  0.33552287  0.33280031  -0.01272665  1
  Sb  Sb66  1  0.82605345  0.16351737  0.00213793  1
  Sb  Sb67  1  -0.00113942  0.83525251  0.83042208  1
  Sb  Sb68  1  0.33732396  0.32885229  0.34286108  1
  Sb  Sb69  1  0.50293986  0.33507445  0.17279433  1
  Sb  Sb70  1  0.17166181  0.16628542  0.66614312  1
  Sb  Sb71  1  0.33399539  0.50236960  0.82498305  1
  Sb  Sb72  1  0.16970907  0.50019707  0.66296017  1
  Sb  Sb73  1  0.66665796  0.49423252  0.50301283  1
  Sb  Sb74  1  -0.00632952  0.15938746  0.17229345  1
  Sb  Sb75  1  -0.00607584  0.16471920  0.82446370  1
  Sb  Sb76  1  0.83416805  0.50087007  -0.00226023  1
  Sb  Sb77  1  0.16749486  0.83405119  0.66431564  1
  Sb  Sb78  1  0.16757238  0.16229798  0.33676291  1
  Sb  Sb79  1  0.16984295  0.83202304  0.00176831  1
  Sb  Sb80  1  0.50062456  0.50149674  -0.00673506  1
  Sb  Sb81  1  0.82825945  0.49898991  0.66713343  1
  Sb  Sb82  1  0.49938916  0.66732266  0.50222917  1
  Sb  Sb83  1  0.17033386  0.16607096  -0.00235698  1
  Sb  Sb84  1  0.33550988  0.67109210  0.33813015  1
  Sb  Sb85  1  0.33913835  0.16914839  0.50527465  1
  Sb  Sb86  1  0.49996127  0.49707143  0.34042885  1
  Sb  Sb87  1  0.83438241  0.49651454  0.33634474  1
  Sb  Sb88  1  0.66530603  0.33081028  -0.00588013  1
  Sb  Sb89  1  0.33734014  0.50639084  0.17219474  1
  Sb  Sb90  1  0.16291871  0.00022955  0.50184422  1
  Sb  Sb91  1  -0.00142560  0.66689072  0.66619948  1
  Sb  Sb92  1  -0.00186331  0.67111397  0.33508993  1
  Sb  Sb93  1  0.49917881  -0.00285051  0.16507516  1
  Sb  Sb94  1  0.50113861  0.67491929  0.83187227  1
  Sb  Sb95  1  0.33753600  0.66819922  -0.00534430  1
  Sb  Sb96  1  0.33690638  -0.00165920  -0.00190737  1
  Sb  Sb97  1  0.66973470  0.83868693  0.50745963  1
  Sb  Sb98  1  -0.00286625  0.67159589  -0.00139108  1
  Sb  Sb99  1  0.66495117  0.83229346  0.16216713  1
  Sb  Sb100  1  0.83570747  -0.00387209  0.16859968  1
  Sb  Sb101  1  -0.00467493  0.32765085  0.34379957  1
  Sb  Sb102  1  0.82896455  0.33484457  0.16970860  1
  Sb  Sb103  1  0.50856821  0.32292956  0.82314440  1
  Sb  Sb104  1  0.49771412  0.83836306  0.33658174  1
  Sb  Sb105  1  0.34140673  0.16094910  0.16420135  1
  Sb  Sb106  1  0.16822466  0.67183634  0.16815032  1
  Sb  Sb107  1  0.82400256  0.16109546  0.65956524  1
  Te  Te108  1  0.16804756  0.16044005  0.16672054  1
  Te  Te109  1  0.16379600  0.17273130  0.49983938  1
  Te  Te110  1  0.16678426  0.16410948  0.83447319  1
  Te  Te111  1  0.16712384  0.49999314  0.16897030  1
  Te  Te112  1  0.16572524  0.50077546  0.50078805  1
  Te  Te113  1  0.16537382  0.50128152  0.83470588  1
  Te  Te114  1  0.16762723  0.83662170  0.16869663  1
  Te  Te115  1  0.16288020  0.83039399  0.49663525  1
  Te  Te116  1  0.16681097  0.83199036  0.83456874  1
  Te  Te117  1  0.50527283  0.16700844  0.17091472  1
  Te  Te118  1  0.50060793  0.16634374  0.50317362  1
  Te  Te119  1  0.50413072  0.16260588  0.82957111  1
  Te  Te120  1  0.50514553  0.50472069  0.16615086  1
  Te  Te121  1  0.49682756  0.49811732  0.50558826  1
  Te  Te122  1  0.50251119  0.49909015  0.82839359  1
  Te  Te123  1  0.49652252  0.82983576  0.16865073  1
  Te  Te124  1  0.49863003  0.83926968  0.50505426  1
  Te  Te125  1  0.50119705  0.83593088  0.83192412  1
  Te  Te126  1  0.82609976  0.16646031  0.17432646  1
  Te  Te127  1  0.83165462  0.16600518  0.49890875  1
  Te  Te128  1  0.82768279  0.16462111  0.83594653  1
  Te  Te129  1  0.82731503  0.50543586  0.16725882  1
  Te  Te130  1  0.84188303  0.49803902  0.49993675  1
  Te  Te131  1  0.83478080  0.50047511  0.83403873  1
  Te  Te132  1  0.83728048  0.82965079  0.16715243  1
  Te  Te133  1  0.83995052  0.83625962  0.50453610  1
  Te  Te134  1  0.83055628  0.83845860  0.82861985  1
  Te  Te135  1  0.16442715  0.00005028  -0.00015420  1
  Te  Te136  1  0.16530505  -0.00291860  0.33368482  1
  Te  Te137  1  0.16227245  -0.00081762  0.67177987  1
  Te  Te138  1  0.16738375  0.33862389  0.00075099  1
  Te  Te139  1  0.16781010  0.33666256  0.33959347  1
  Te  Te140  1  0.15874120  0.33337624  0.66047847  1
  Te  Te141  1  0.16597108  0.66327171  -0.00249579  1
  Te  Te142  1  0.16744351  0.66891608  0.33604624  1
  Te  Te143  1  0.16735080  0.66727989  0.66666032  1
  Te  Te144  1  0.50282060  -0.00123102  -0.00136523  1
  Te  Te145  1  0.49758106  0.00345113  0.33389335  1
  Te  Te146  1  0.50041164  -0.00023858  0.66743830  1
  Te  Te147  1  0.49903307  0.32872688  0.00213421  1
  Te  Te148  1  0.50505841  0.32913108  0.34033343  1
  Te  Te149  1  0.50526706  0.33262893  0.66378200  1
  Te  Te150  1  0.50449805  0.66852839  0.00275468  1
  Te  Te151  1  0.50422620  0.66615686  0.33167450  1
  Te  Te152  1  0.50033970  0.66851194  0.66616356  1
  Te  Te153  1  0.83223758  -0.00027282  -0.00273451  1
  Te  Te154  1  0.83750032  0.00385606  0.33753519  1
  Te  Te155  1  0.83138058  0.00035658  0.66540452  1
  Te  Te156  1  0.83459764  0.33227462  -0.00549658  1
  Te  Te157  1  0.82778246  0.32841365  0.33741197  1
  Te  Te158  1  0.83147143  0.33532487  0.66542472  1
  Te  Te159  1  0.82690111  0.66789560  0.00472844  1
  Te  Te160  1  0.82742167  0.66655259  0.33033796  1
  Te  Te161  1  0.82669119  0.67440329  0.66688643  1
  Te  Te162  1  0.00036628  0.15969867  0.00156142  1
  Te  Te163  1  -0.00005117  0.16063339  0.33861545  1
  Te  Te164  1  0.00336767  0.16680408  0.66238852  1
  Te  Te165  1  0.00444751  0.49943730  -0.00074217  1
  Te  Te166  1  0.00523536  0.49928848  0.33443052  1
  Te  Te167  1  -0.00228368  0.50002521  0.66630967  1
  Te  Te168  1  0.00015275  0.83953552  0.00214935  1
  Te  Te169  1  0.00273399  0.83694378  0.33551234  1
  Te  Te170  1  -0.00169538  0.83529133  0.66273115  1
  Te  Te171  1  0.34172376  0.16684483  -0.00704842  1
  Te  Te172  1  0.33737545  0.16114533  0.33229383  1
  Te  Te173  1  0.33903632  0.16941906  0.67158099  1
  Te  Te174  1  0.32811260  0.49991718  0.00151322  1
  Te  Te175  1  0.32893626  0.49982431  0.33912572  1
  Te  Te176  1  0.33823811  0.50041774  0.66253359  1
  Te  Te177  1  0.33987630  0.83224778  -0.00217515  1
  Te  Te178  1  0.32961178  0.83736824  0.33170884  1
  Te  Te179  1  0.33659850  0.83019327  0.67079517  1
  Te  Te180  1  0.66302263  0.16461364  -0.00314131  1
  Te  Te181  1  0.66466189  0.16507975  0.33740798  1
  Te  Te182  1  0.66344734  0.16487814  0.66536478  1
  Te  Te183  1  0.66607556  0.50284450  0.00038691  1
  Te  Te184  1  0.66636102  0.50180438  0.33058146  1
  Te  Te185  1  0.66392512  0.50274688  0.66732330  1
  Te  Te186  1  0.66288015  0.83399139  -0.00431563  1
  Te  Te187  1  0.66688587  0.82741428  0.33431422  1
  Te  Te188  1  0.66557534  0.83693817  0.66814668  1
  Te  Te189  1  0.00214871  -0.00330748  0.16740439  1
  Te  Te190  1  0.00095259  0.00225795  0.50329424  1
  Te  Te191  1  0.00514752  -0.00011059  0.83052441  1
  Te  Te192  1  -0.00144338  0.33310090  0.16577090  1
  Te  Te193  1  -0.00276820  0.33265707  0.50180799  1
  Te  Te194  1  -0.00515681  0.33617637  0.82626584  1
  Te  Te195  1  -0.00204568  0.67439975  0.16613325  1
  Te  Te196  1  0.00350274  0.66131529  0.50023201  1
  Te  Te197  1  0.00372590  0.66113258  0.83401524  1
  Te  Te198  1  0.32913443  -0.00428111  0.16895948  1
  Te  Te199  1  0.33383700  0.00035055  0.49700030  1
  Te  Te200  1  0.32820683  -0.00128107  0.83221333  1
  Te  Te201  1  0.33283316  0.33388202  0.16650514  1
  Te  Te202  1  0.33161324  0.33561641  0.50503420  1
  Te  Te203  1  0.33216450  0.33230492  0.82254544  1
  Te  Te204  1  0.33722759  0.67322683  0.16720105  1
  Te  Te205  1  0.33027345  0.66346756  0.50475100  1
  Te  Te206  1  0.32931318  0.66993197  0.82799123  1
  Te  Te207  1  0.66792248  0.00358375  0.16513083  1
  Te  Te208  1  0.66819902  0.00448292  0.50195373  1
  Te  Te209  1  0.66494643  -0.00102469  0.83278582  1
  Te  Te210  1  0.66715329  0.33094799  0.16811905  1
  Te  Te211  1  0.66857192  0.33273624  0.50220328  1
  Te  Te212  1  0.67093429  0.34144374  0.82954659  1
  Te  Te213  1  0.66528411  0.66928119  0.16515363  1
  Te  Te214  1  0.66755811  0.66611211  0.50569070  1
  Te  Te215  1  0.66693943  0.66136320  0.83159697  1
