# generated using pymatgen
data_AgSbTe2
_symmetry_space_group_name_H-M   'P 1'
_cell_length_a   18.31911730
_cell_length_b   18.32791677
_cell_length_c   18.32362998
_cell_angle_alpha   90.00026004
_cell_angle_beta   89.99930546
_cell_angle_gamma   90.00090108
_symmetry_Int_Tables_number   1
_chemical_formula_structural   AgSbTe2
_chemical_formula_sum   'Ag54 Sb54 Te108'
_cell_volume   6152.18180056
_cell_formula_units_Z   54
loop_
 _symmetry_equiv_pos_site_id
 _symmetry_equiv_pos_as_xyz
  1  'x, y, z'
loop_
 _atom_site_type_symbol
 _atom_site_label
 _atom_site_symmetry_multiplicity
 _atom_site_fract_x
 _atom_site_fract_y
 _atom_site_fract_z
 _atom_site_occupancy
  Ag  Ag0  1  0.16546091  0.50953090  0.33385177  1
  Ag  Ag1  1  0.66608389  0.50531565  0.16850863  1
  Ag  Ag2  1  0.32706070  0.67792175  0.66697871  1
  Ag  Ag3  1  0.16388773  0.67428679  0.49753125  1
  Ag  Ag4  1  0.49930269  0.32830923  0.16363733  1
  Ag  Ag5  1  0.65798530  -0.00768065  0.33227467  1
  Ag  Ag6  1  0.82784407  0.33631109  0.83107794  1
  Ag  Ag7  1  0.17241632  -0.00295960  0.17324765  1
  Ag  Ag8  1  0.16812311  0.16207291  0.33341205  1
  Ag  Ag9  1  0.00534681  0.50693670  0.49369554  1
  Ag  Ag10  1  0.33241535  0.33048326  0.33675604  1
  Ag  Ag11  1  0.16566582  0.50594363  0.00269674  1
  Ag  Ag12  1  0.66153541  0.83203531  0.49648009  1
  Ag  Ag13  1  0.17354495  0.16806105  0.66161700  1
  Ag  Ag14  1  0.00257711  0.33000069  -0.00358082  1
  Ag  Ag15  1  0.32920605  0.16488180  0.17014385  1
  Ag  Ag16  1  0.00586125  0.49719418  0.17195273  1
  Ag  Ag17  1  0.82984981  0.65885263  0.83104550  1
  Ag  Ag18  1  0.50337133  0.33148741  0.83250540  1
  Ag  Ag19  1  0.17681035  0.82638025  0.65314700  1
  Ag  Ag20  1  0.01316505  0.82705764  0.50031876  1
  Ag  Ag21  1  0.33318818  0.82891834  0.82043022  1
  Ag  Ag22  1  0.16481651  0.66911653  0.17554810  1
  Ag  Ag23  1  0.17190236  0.82997400  0.00363218  1
  Ag  Ag24  1  0.49705236  0.49922587  0.33147620  1
  Ag  Ag25  1  0.33524949  0.50085705  0.82750217  1
  Ag  Ag26  1  0.33114731  0.00212809  0.33792311  1
  Ag  Ag27  1  0.49064825  0.16741801  0.67202971  1
  Ag  Ag28  1  0.83701507  0.49937714  0.33125230  1
  Ag  Ag29  1  0.84035267  0.17065462  0.33061333  1
  Ag  Ag30  1  0.49971246  0.16478465  -0.00260636  1
  Ag  Ag31  1  0.49458673  0.83792846  -0.00228395  1
  Ag  Ag32  1  0.49390750  0.00389251  0.17191026  1
  Ag  Ag33  1  0.16708158  0.50614871  0.66448634  1
  Ag  Ag34  1  0.66360117  0.49690899  0.83330040  1
  Ag  Ag35  1  0.66509543  0.66651915  0.00309849  1
  Ag  Ag36  1  -0.00137278  0.17202739  0.83692980  1
  Ag  Ag37  1  0.16791167  0.83187548  0.34103799  1
  Ag  Ag38  1  0.66056466  0.33883928  0.67282816  1
  Ag  Ag39  1  0.66527351  0.17640181  0.83095146  1
  Ag  Ag40  1  0.00942178  0.33808216  0.67070366  1
  Ag  Ag41  1  0.17183255  -0.01076080  0.49273279  1
  Ag  Ag42  1  0.48873615  0.83599229  0.66651192  1
  Ag  Ag43  1  0.01241710  0.66118810  0.65877976  1
  Ag  Ag44  1  0.00558159  0.00607220  0.00275978  1
  Ag  Ag45  1  0.32807513  0.83650780  0.50693603  1
  Ag  Ag46  1  0.66101335  0.82559709  0.17461129  1
  Ag  Ag47  1  0.67028735  0.66850400  0.33335945  1
  Ag  Ag48  1  0.33277193  -0.01078971  0.65851081  1
  Ag  Ag49  1  0.48998820  -0.00373543  0.49407196  1
  Ag  Ag50  1  0.66440288  0.66497212  0.66679661  1
  Ag  Ag51  1  0.00833417  0.17087454  0.16459188  1
  Ag  Ag52  1  0.00670681  0.66067075  0.33882080  1
  Ag  Ag53  1  0.33202793  0.33335036  0.66475983  1
  Sb  Sb54  1  0.49894663  0.00368885  0.83309594  1
  Sb  Sb55  1  0.66270366  0.16828978  0.16436135  1
  Sb  Sb56  1  0.00544874  0.33852272  0.33403919  1
  Sb  Sb57  1  0.00664156  0.83429219  0.82985688  1
  Sb  Sb58  1  0.66739409  0.33785359  -0.00543303  1
  Sb  Sb59  1  0.00072558  0.49573035  0.83299103  1
  Sb  Sb60  1  0.16439520  0.66616375  0.82808971  1
  Sb  Sb61  1  0.83067321  0.33459399  0.16436605  1
  Sb  Sb62  1  0.32886172  0.66793766  0.33790921  1
  Sb  Sb63  1  0.65572919  -0.00224167  0.66125716  1
  Sb  Sb64  1  0.66923974  0.50658713  0.49976393  1
  Sb  Sb65  1  0.33426087  0.66827053  -0.00527292  1
  Sb  Sb66  1  0.49660000  0.67251129  0.50079878  1
  Sb  Sb67  1  0.83414356  0.83102828  -0.00008480  1
  Sb  Sb68  1  0.66457945  0.16257364  0.50277408  1
  Sb  Sb69  1  0.83232721  0.16823020  0.00215536  1
  Sb  Sb70  1  0.00742193  -0.00168205  0.33120792  1
  Sb  Sb71  1  0.66194239  0.33624832  0.33592905  1
  Sb  Sb72  1  0.83402653  0.00312216  0.83324265  1
  Sb  Sb73  1  0.83489243  0.83033373  0.66662626  1
  Sb  Sb74  1  0.49767306  0.49973047  0.00209730  1
  Sb  Sb75  1  0.33186676  0.15857052  0.49928729  1
  Sb  Sb76  1  0.49497515  0.16645880  0.33185002  1
  Sb  Sb77  1  0.33395772  0.83758565  0.16995646  1
  Sb  Sb78  1  0.33093178  0.33362648  -0.00118957  1
  Sb  Sb79  1  0.16726731  0.16600125  0.00141147  1
  Sb  Sb80  1  0.83661050  0.49988213  0.00097636  1
  Sb  Sb81  1  0.83792439  0.50071973  0.66501140  1
  Sb  Sb82  1  0.01145997  0.00057484  0.66781092  1
  Sb  Sb83  1  0.00397210  0.16671244  0.49907404  1
  Sb  Sb84  1  0.16908480  -0.00122911  0.83231851  1
  Sb  Sb85  1  0.33345061  0.16775705  0.83135458  1
  Sb  Sb86  1  0.33075110  -0.00046780  0.00220800  1
  Sb  Sb87  1  0.83516077  0.83045917  0.33349668  1
  Sb  Sb88  1  0.50292104  0.66290020  0.83153076  1
  Sb  Sb89  1  0.32730393  0.50661932  0.50405392  1
  Sb  Sb90  1  0.65972524  0.82904913  0.83162516  1
  Sb  Sb91  1  0.00104005  0.66524540  -0.00009794  1
  Sb  Sb92  1  0.83509589  0.16991531  0.66520166  1
  Sb  Sb93  1  0.49778726  0.32802319  0.50229504  1
  Sb  Sb94  1  0.83406511  0.33532527  0.50300452  1
  Sb  Sb95  1  0.83451887  0.66490299  0.16609468  1
  Sb  Sb96  1  0.33123170  0.49641521  0.16725940  1
  Sb  Sb97  1  0.83599112  -0.00090702  0.49734041  1
  Sb  Sb98  1  0.00311863  0.83232394  0.16952451  1
  Sb  Sb99  1  0.16765970  0.33434202  0.83041491  1
  Sb  Sb100  1  0.16944813  0.33303372  0.16834930  1
  Sb  Sb101  1  0.16727115  0.33573342  0.50086742  1
  Sb  Sb102  1  0.84086640  0.66655493  0.50239131  1
  Sb  Sb103  1  0.83498934  0.00113005  0.16982054  1
  Sb  Sb104  1  0.49550819  0.49933708  0.66386303  1
  Sb  Sb105  1  0.49768793  0.83280241  0.33555148  1
  Sb  Sb106  1  0.49859600  0.66794048  0.16828681  1
  Sb  Sb107  1  0.66606480  -0.00399746  0.00478340  1
  Te  Te108  1  0.16781467  0.16566875  0.16686393  1
  Te  Te109  1  0.16558711  0.16170088  0.50071038  1
  Te  Te110  1  0.16148259  0.16674309  0.83040716  1
  Te  Te111  1  0.16600401  0.49972635  0.16952980  1
  Te  Te112  1  0.16314380  0.50232233  0.50102353  1
  Te  Te113  1  0.17039089  0.50084896  0.83061342  1
  Te  Te114  1  0.16647722  0.83432812  0.16437829  1
  Te  Te115  1  0.16818383  0.83308370  0.49817441  1
  Te  Te116  1  0.17267262  0.83210230  0.84177851  1
  Te  Te117  1  0.49819246  0.16604819  0.16545669  1
  Te  Te118  1  0.50053334  0.15845394  0.50921348  1
  Te  Te119  1  0.50052206  0.16991992  0.83279992  1
  Te  Te120  1  0.50073374  0.49770753  0.16886813  1
  Te  Te121  1  0.49991244  0.49934083  0.49175828  1
  Te  Te122  1  0.50127666  0.49443904  0.83355027  1
  Te  Te123  1  0.50185688  0.83595578  0.16496858  1
  Te  Te124  1  0.50131404  0.83708461  0.50244996  1
  Te  Te125  1  0.49418040  0.83346341  0.83261224  1
  Te  Te126  1  0.83868183  0.16804338  0.17134493  1
  Te  Te127  1  0.83411063  0.16719625  0.48976471  1
  Te  Te128  1  0.83394978  0.17130282  0.83368738  1
  Te  Te129  1  0.83180243  0.49995755  0.17067756  1
  Te  Te130  1  0.84113292  0.50011241  0.49213812  1
  Te  Te131  1  0.82853347  0.49780081  0.83346768  1
  Te  Te132  1  0.82169062  0.83333260  0.16571345  1
  Te  Te133  1  0.82332391  0.83345452  0.49934545  1
  Te  Te134  1  0.83338300  0.83044572  0.83415798  1
  Te  Te135  1  0.16462147  -0.00178582  0.00452580  1
  Te  Te136  1  0.16812852  -0.00045751  0.33292502  1
  Te  Te137  1  0.17261801  0.00024471  0.66582892  1
  Te  Te138  1  0.16225073  0.33753265  0.00030023  1
  Te  Te139  1  0.17267496  0.32702605  0.33446904  1
  Te  Te140  1  0.16744316  0.33133384  0.66602401  1
  Te  Te141  1  0.16667952  0.66614302  0.00245486  1
  Te  Te142  1  0.16658649  0.66837689  0.33436812  1
  Te  Te143  1  0.16802010  0.66688207  0.66669886  1
  Te  Te144  1  0.50014571  -0.00075217  0.00504112  1
  Te  Te145  1  0.49746811  -0.00027449  0.33320081  1
  Te  Te146  1  0.49399035  -0.00062072  0.66581336  1
  Te  Te147  1  0.49950562  0.33120799  -0.00006951  1
  Te  Te148  1  0.49465437  0.33469208  0.33205809  1
  Te  Te149  1  0.49984779  0.33243223  0.66847927  1
  Te  Te150  1  0.50456476  0.67125306  0.00043693  1
  Te  Te151  1  0.50459313  0.66172115  0.33344774  1
  Te  Te152  1  0.50121130  0.66962414  0.66599241  1
  Te  Te153  1  0.84240137  -0.00047886  0.00107457  1
  Te  Te154  1  0.82730275  0.00368908  0.33332256  1
  Te  Te155  1  0.83384948  0.00055462  0.66597557  1
  Te  Te156  1  0.84036591  0.33354437  -0.00695745  1
  Te  Te157  1  0.83269615  0.33476872  0.33348326  1
  Te  Te158  1  0.83042438  0.33414784  0.67137249  1
  Te  Te159  1  0.82709532  0.66607280  -0.00620867  1
  Te  Te160  1  0.83213984  0.66192713  0.33356840  1
  Te  Te161  1  0.82558883  0.66546515  0.67101039  1
  Te  Te162  1  0.00008337  0.16875741  0.00164464  1
  Te  Te163  1  0.00392234  0.16777433  0.33064709  1
  Te  Te164  1  0.00268824  0.16984372  0.66829457  1
  Te  Te165  1  0.00462163  0.49729689  0.00407223  1
  Te  Te166  1  0.00493970  0.49982059  0.33227027  1
  Te  Te167  1  0.00375106  0.50094098  0.66716319  1
  Te  Te168  1  0.00473878  0.83537158  -0.00039363  1
  Te  Te169  1  0.00264248  0.82846765  0.33683554  1
  Te  Te170  1  0.00397633  0.82948526  0.66313723  1
  Te  Te171  1  0.33868883  0.16658822  0.00386766  1
  Te  Te172  1  0.33025281  0.16608158  0.33148896  1
  Te  Te173  1  0.33275294  0.17429680  0.66747830  1
  Te  Te174  1  0.32757335  0.50097270  -0.00622127  1
  Te  Te175  1  0.33032500  0.49871185  0.33498947  1
  Te  Te176  1  0.33010200  0.49314814  0.66849165  1
  Te  Te177  1  0.33456222  0.83369213  0.00055845  1
  Te  Te178  1  0.32964809  0.83632520  0.33696841  1
  Te  Te179  1  0.33209664  0.83405824  0.66509924  1
  Te  Te180  1  0.66176895  0.16643211  -0.00488631  1
  Te  Te181  1  0.66717769  0.16701486  0.33328141  1
  Te  Te182  1  0.66641999  0.16700330  0.67109063  1
  Te  Te183  1  0.66613185  0.50475566  0.00102195  1
  Te  Te184  1  0.66603430  0.50124449  0.33207815  1
  Te  Te185  1  0.66660783  0.50100347  0.66769258  1
  Te  Te186  1  0.66284421  0.82867054  0.00015501  1
  Te  Te187  1  0.66698752  0.83164043  0.33276059  1
  Te  Te188  1  0.66599109  0.82980088  0.66413512  1
  Te  Te189  1  0.00383369  0.00155275  0.16400761  1
  Te  Te190  1  0.00485371  -0.00709710  0.49990819  1
  Te  Te191  1  -0.00019315  0.00572712  0.83840164  1
  Te  Te192  1  -0.00102054  0.33386278  0.16546730  1
  Te  Te193  1  -0.00030699  0.33740681  0.50866653  1
  Te  Te194  1  0.00004914  0.33182405  0.83094563  1
  Te  Te195  1  0.00312805  0.66348635  0.16864876  1
  Te  Te196  1  0.00265478  0.66724400  0.49994105  1
  Te  Te197  1  -0.00759637  0.66597733  0.82986122  1
  Te  Te198  1  0.33293820  0.00333307  0.16882821  1
  Te  Te199  1  0.33254107  -0.00262913  0.49825710  1
  Te  Te200  1  0.33404105  -0.00433942  0.82650286  1
  Te  Te201  1  0.33873976  0.32909835  0.16834836  1
  Te  Te202  1  0.33401052  0.33528346  0.49968507  1
  Te  Te203  1  0.33800303  0.33514112  0.83078071  1
  Te  Te204  1  0.32593577  0.66594000  0.16617929  1
  Te  Te205  1  0.32798988  0.67370887  0.50568891  1
  Te  Te206  1  0.33399910  0.66498036  0.82721928  1
  Te  Te207  1  0.66316992  0.00029360  0.17147255  1
  Te  Te208  1  0.66602463  -0.00470144  0.49377109  1
  Te  Te209  1  0.66820074  0.00532690  0.83399474  1
  Te  Te210  1  0.66114896  0.33839514  0.16635774  1
  Te  Te211  1  0.66608012  0.33391976  0.51049125  1
  Te  Te212  1  0.66564396  0.33572007  0.83314274  1
  Te  Te213  1  0.66627976  0.66482566  0.16958162  1
  Te  Te214  1  0.66681086  0.67016020  0.49942430  1
  Te  Te215  1  0.66818038  0.66443668  0.82981280  1
