# generated using pymatgen
data_AgSbTe2
_symmetry_space_group_name_H-M   'P 1'
_cell_length_a   18.32181450
_cell_length_b   18.32540811
_cell_length_c   18.32274866
_cell_angle_alpha   89.99763688
_cell_angle_beta   89.99926809
_cell_angle_gamma   90.00022787
_symmetry_Int_Tables_number   1
_chemical_formula_structural   AgSbTe2
_chemical_formula_sum   'Ag54 Sb54 Te108'
_cell_volume   6151.94948878
_cell_formula_units_Z   54
loop_
 _symmetry_equiv_pos_site_id
 _symmetry_equiv_pos_as_xyz
  1  'x, y, z'
loop_
 _atom_site_type_symbol
 _atom_site_label
 _atom_site_symmetry_multiplicity
 _atom_site_fract_x
 _atom_site_fract_y
 _atom_site_fract_z
 _atom_site_occupancy
  Ag  Ag0  1  0.50799519  0.33479037  0.83389522  1
  Ag  Ag1  1  0.49427224  0.50154557  0.33787188  1
  Ag  Ag2  1  0.82220709  0.00451104  0.16850586  1
  Ag  Ag3  1  0.66100446  0.49122831  0.83326107  1
  Ag  Ag4  1  0.66166999  0.16049801  0.15709475  1
  Ag  Ag5  1  0.33839197  0.67349536  0.00073631  1
  Ag  Ag6  1  0.16681657  0.33058855  0.82628052  1
  Ag  Ag7  1  0.33904966  0.83730886  0.17388791  1
  Ag  Ag8  1  0.66551246  0.83766061  0.49646180  1
  Ag  Ag9  1  0.17549412  0.49916997  0.34593984  1
  Ag  Ag10  1  0.33279436  0.83226534  0.49439227  1
  Ag  Ag11  1  0.17064741  0.83766096  -0.00115241  1
  Ag  Ag12  1  0.17389024  0.66843307  0.50173748  1
  Ag  Ag13  1  0.34330318  0.15456165  0.16606103  1
  Ag  Ag14  1  0.82183798  0.16380945  0.00176010  1
  Ag  Ag15  1  0.66480575  0.33014596  0.32812387  1
  Ag  Ag16  1  0.00457850  0.83819166  0.50139259  1
  Ag  Ag17  1  0.66703124  0.31949041  -0.00112935  1
  Ag  Ag18  1  0.33778873  0.50145778  0.83192580  1
  Ag  Ag19  1  0.50919521  0.16448577  0.00825947  1
  Ag  Ag20  1  0.00533902  0.33342161  0.66501458  1
  Ag  Ag21  1  0.16428456  0.34043229  0.50759911  1
  Ag  Ag22  1  0.65935357  0.84472014  0.16855657  1
  Ag  Ag23  1  0.66048327  0.66964976  -0.00711850  1
  Ag  Ag24  1  0.83495131  -0.00342803  0.49698005  1
  Ag  Ag25  1  0.16802794  0.16947540  0.66344871  1
  Ag  Ag26  1  0.66846520  0.15759040  0.49899385  1
  Ag  Ag27  1  0.00596334  0.49937399  0.50126769  1
  Ag  Ag28  1  0.66571520  0.00699132  0.00380790  1
  Ag  Ag29  1  0.00175806  -0.00102369  0.00175124  1
  Ag  Ag30  1  -0.00073968  0.15738105  0.50042425  1
  Ag  Ag31  1  0.33345319  -0.00702293  0.32973105  1
  Ag  Ag32  1  0.83046197  0.67573646  0.50383422  1
  Ag  Ag33  1  0.00546204  0.00015027  0.34360294  1
  Ag  Ag34  1  0.16855818  0.00246296  0.82690800  1
  Ag  Ag35  1  0.33733418  0.66769275  0.65956824  1
  Ag  Ag36  1  0.16317493  -0.00231007  0.50433933  1
  Ag  Ag37  1  0.82778664  0.32374940  0.15967248  1
  Ag  Ag38  1  0.50305941  0.00318494  0.16749418  1
  Ag  Ag39  1  0.17235821  0.49539454  0.66285599  1
  Ag  Ag40  1  0.49499997  0.50203190  0.66439901  1
  Ag  Ag41  1  0.66155446  0.66901460  0.66698282  1
  Ag  Ag42  1  0.33598823  0.67211276  0.34142547  1
  Ag  Ag43  1  0.66120569  0.00002087  0.66493937  1
  Ag  Ag44  1  0.33513499  0.50402730  0.16757718  1
  Ag  Ag45  1  0.49653305  0.83843387  0.33409784  1
  Ag  Ag46  1  0.33419154  -0.00442650  0.00758281  1
  Ag  Ag47  1  0.66684260  0.17098673  0.84498452  1
  Ag  Ag48  1  0.82794089  0.66271924  0.82926396  1
  Ag  Ag49  1  0.50157857  0.16319321  0.32833566  1
  Ag  Ag50  1  0.33367787  -0.00506270  0.66397734  1
  Ag  Ag51  1  0.82383082  0.33474777  0.83602608  1
  Ag  Ag52  1  0.49324577  0.66757758  0.49935462  1
  Ag  Ag53  1  0.00141088  0.83626169  0.82656937  1
  Sb  Sb54  1  0.50029201  -0.00465470  0.49572625  1
  Sb  Sb55  1  0.82696591  0.67067969  0.16607088  1
  Sb  Sb56  1  0.17255153  0.00021227  0.16738649  1
  Sb  Sb57  1  -0.00235204  0.16353956  0.82870256  1
  Sb  Sb58  1  0.66783911  0.50240796  0.50508875  1
  Sb  Sb59  1  0.00132713  0.83838056  0.17019966  1
  Sb  Sb60  1  0.32777992  0.33712906  0.66756169  1
  Sb  Sb61  1  0.16837681  0.83485442  0.66546242  1
  Sb  Sb62  1  0.66830457  0.33200372  0.67039292  1
  Sb  Sb63  1  0.00095368  0.50118966  0.82832865  1
  Sb  Sb64  1  0.83041872  0.49954525  0.33592453  1
  Sb  Sb65  1  0.17447129  0.83299331  0.33478688  1
  Sb  Sb66  1  0.83368839  0.16592602  0.66859457  1
  Sb  Sb67  1  0.17065613  0.50380350  -0.00438657  1
  Sb  Sb68  1  0.16878578  0.16024027  -0.00545869  1
  Sb  Sb69  1  0.83356346  0.84018106  0.00090964  1
  Sb  Sb70  1  0.17242597  0.66741425  0.17179860  1
  Sb  Sb71  1  0.33810260  0.33523296  0.33331056  1
  Sb  Sb72  1  0.50434287  0.32640128  0.16457425  1
  Sb  Sb73  1  0.33661625  0.16879465  0.83549353  1
  Sb  Sb74  1  0.66048115  0.49706546  0.16223671  1
  Sb  Sb75  1  0.83171816  0.50102370  0.66674434  1
  Sb  Sb76  1  0.82472644  0.16402326  0.33001239  1
  Sb  Sb77  1  0.50006705  0.49704486  -0.00020606  1
  Sb  Sb78  1  -0.00576132  0.32528772  -0.00680999  1
  Sb  Sb79  1  0.49755285  0.16880840  0.66526614  1
  Sb  Sb80  1  0.49759167  0.67074494  0.17100625  1
  Sb  Sb81  1  0.16695270  0.66771869  0.82726043  1
  Sb  Sb82  1  0.17257404  0.16825289  0.34023240  1
  Sb  Sb83  1  0.32695032  0.50825519  0.50083165  1
  Sb  Sb84  1  0.83223661  0.83370849  0.66462385  1
  Sb  Sb85  1  0.00169534  0.66347365  0.66302557  1
  Sb  Sb86  1  0.83498676  0.00087811  0.83290488  1
  Sb  Sb87  1  0.83614022  0.33021239  0.50285389  1
  Sb  Sb88  1  0.00312011  0.00344078  0.66393209  1
  Sb  Sb89  1  0.66137851  0.00433344  0.33129016  1
  Sb  Sb90  1  0.00744194  0.67235149  0.33963289  1
  Sb  Sb91  1  0.49646511  0.33715203  0.50251931  1
  Sb  Sb92  1  0.49716752  0.00488849  0.83794758  1
  Sb  Sb93  1  0.16517813  0.33262908  0.16657483  1
  Sb  Sb94  1  0.33019764  0.83124722  0.83372060  1
  Sb  Sb95  1  0.33762350  0.33034612  -0.00097518  1
  Sb  Sb96  1  0.00458731  0.49841471  0.17402954  1
  Sb  Sb97  1  0.67051994  0.83525169  0.83410352  1
  Sb  Sb98  1  0.83046478  0.49552428  -0.00091882  1
  Sb  Sb99  1  0.49743542  0.83843269  0.00634571  1
  Sb  Sb100  1  0.33358404  0.15737895  0.49642275  1
  Sb  Sb101  1  -0.00344429  0.32871861  0.33967374  1
  Sb  Sb102  1  0.00056644  0.67484911  -0.00333224  1
  Sb  Sb103  1  -0.00290260  0.16291048  0.17149078  1
  Sb  Sb104  1  0.50336665  0.66102851  0.82815934  1
  Sb  Sb105  1  0.82696730  0.83675151  0.33606780  1
  Sb  Sb106  1  0.50004563  0.82821147  0.65920673  1
  Sb  Sb107  1  0.65966075  0.66498280  0.33825174  1
  Te  Te108  1  0.17235764  0.16903968  0.16719137  1
  Te  Te109  1  0.16625272  0.16038553  0.50329514  1
  Te  Te110  1  0.16672179  0.16567786  0.82752191  1
  Te  Te111  1  0.17300638  0.49932377  0.16903972  1
  Te  Te112  1  0.16572897  0.50042675  0.50246470  1
  Te  Te113  1  0.16895537  0.49798848  0.82800492  1
  Te  Te114  1  0.17175492  0.83280054  0.16117396  1
  Te  Te115  1  0.16750413  0.83473022  0.49899593  1
  Te  Te116  1  0.16234680  0.83595887  0.83601407  1
  Te  Te117  1  0.50153532  0.16582715  0.16728740  1
  Te  Te118  1  0.50533567  0.16841257  0.49682412  1
  Te  Te119  1  0.50494734  0.17258147  0.83299718  1
  Te  Te120  1  0.49410150  0.49883156  0.17113475  1
  Te  Te121  1  0.50106971  0.50402488  0.50038859  1
  Te  Te122  1  0.49959533  0.49605279  0.83322193  1
  Te  Te123  1  0.49964395  0.83716404  0.17207778  1
  Te  Te124  1  0.50131775  0.82881678  0.49448831  1
  Te  Te125  1  0.50046737  0.83355272  0.83298299  1
  Te  Te126  1  0.83064013  0.16437001  0.16444415  1
  Te  Te127  1  0.83297939  0.16301994  0.49967257  1
  Te  Te128  1  0.82976520  0.16922829  0.83687342  1
  Te  Te129  1  0.83439247  0.49669435  0.16793331  1
  Te  Te130  1  0.84080490  0.50202635  0.49997979  1
  Te  Te131  1  0.83167466  0.49950266  0.83308580  1
  Te  Te132  1  0.82738509  0.83943927  0.16860363  1
  Te  Te133  1  0.83042178  0.83542756  0.49923662  1
  Te  Te134  1  0.83989716  0.82918995  0.83402620  1
  Te  Te135  1  0.16986385  -0.00200153  -0.00018517  1
  Te  Te136  1  0.16995419  0.00023943  0.33754693  1
  Te  Te137  1  0.16878845  0.00043839  0.66611979  1
  Te  Te138  1  0.16397251  0.33316034  -0.00556691  1
  Te  Te139  1  0.16499414  0.33870525  0.33559657  1
  Te  Te140  1  0.16714881  0.33328105  0.66581204  1
  Te  Te141  1  0.17027416  0.67256696  -0.00171800  1
  Te  Te142  1  0.17399884  0.66150145  0.33895572  1
  Te  Te143  1  0.17121705  0.66291914  0.66173487  1
  Te  Te144  1  0.49970440  0.00402846  0.00397631  1
  Te  Te145  1  0.49547622  0.00105327  0.32988368  1
  Te  Te146  1  0.50032633  -0.00012811  0.66747371  1
  Te  Te147  1  0.50517640  0.32852498  -0.00469716  1
  Te  Te148  1  0.50487597  0.33452511  0.33423905  1
  Te  Te149  1  0.49917741  0.33955618  0.67150128  1
  Te  Te150  1  0.49883922  0.66713518  -0.00052127  1
  Te  Te151  1  0.49536656  0.66305536  0.33712442  1
  Te  Te152  1  0.49961255  0.66281792  0.66235369  1
  Te  Te153  1  0.82864004  0.00371731  -0.00016334  1
  Te  Te154  1  0.83939861  0.00030047  0.33545040  1
  Te  Te155  1  0.82401941  0.00054669  0.66139601  1
  Te  Te156  1  0.82911944  0.32929274  -0.00249351  1
  Te  Te157  1  0.82761059  0.33262537  0.33137671  1
  Te  Te158  1  0.83993259  0.33379458  0.67249886  1
  Te  Te159  1  0.83148852  0.66731827  -0.00280374  1
  Te  Te160  1  0.83354718  0.66697739  0.33840452  1
  Te  Te161  1  0.82848583  0.66648639  0.66517672  1
  Te  Te162  1  -0.00038066  0.15833821  0.00055654  1
  Te  Te163  1  0.00189589  0.16093655  0.33980201  1
  Te  Te164  1  0.00394971  0.17002736  0.66114066  1
  Te  Te165  1  0.00108545  0.50038783  0.00302856  1
  Te  Te166  1  0.00389370  0.49961467  0.33963720  1
  Te  Te167  1  0.00469165  0.49642739  0.66219645  1
  Te  Te168  1  0.00462304  0.84007534  0.00198375  1
  Te  Te169  1  0.00190953  0.83979295  0.33896266  1
  Te  Te170  1  0.00083315  0.83284572  0.66429385  1
  Te  Te171  1  0.33647655  0.16218773  0.00393923  1
  Te  Te172  1  0.33954030  0.16518532  0.32793645  1
  Te  Te173  1  0.32990577  0.15929904  0.66664246  1
  Te  Te174  1  0.33344127  0.50275669  -0.00021441  1
  Te  Te175  1  0.33435343  0.50069571  0.33290395  1
  Te  Te176  1  0.33416167  0.50257984  0.66833482  1
  Te  Te177  1  0.33261465  0.83482358  0.00002910  1
  Te  Te178  1  0.33501586  0.83229555  0.33317747  1
  Te  Te179  1  0.33407746  0.83313436  0.66352815  1
  Te  Te180  1  0.66594124  0.16423501  0.00126562  1
  Te  Te181  1  0.66173722  0.16968406  0.33778430  1
  Te  Te182  1  0.66568319  0.16224479  0.65892570  1
  Te  Te183  1  0.66615661  0.50885273  -0.00610912  1
  Te  Te184  1  0.66192973  0.49464906  0.33245932  1
  Te  Te185  1  0.66296864  0.50306036  0.67266455  1
  Te  Te186  1  0.66529277  0.83150187  0.00281148  1
  Te  Te187  1  0.65972345  0.83164871  0.33371152  1
  Te  Te188  1  0.66551773  0.83411260  0.66217526  1
  Te  Te189  1  -0.00428171  -0.00038789  0.16270384  1
  Te  Te190  1  0.00046521  -0.00076148  0.50285853  1
  Te  Te191  1  0.00335202  -0.00360883  0.83381922  1
  Te  Te192  1  -0.00901033  0.33216282  0.16615977  1
  Te  Te193  1  0.00304682  0.33296315  0.50283696  1
  Te  Te194  1  0.00458176  0.33306019  0.82808084  1
  Te  Te195  1  -0.00205740  0.66762211  0.16796580  1
  Te  Te196  1  -0.00229216  0.67271148  0.49996587  1
  Te  Te197  1  -0.00631843  0.67172187  0.83165843  1
  Te  Te198  1  0.33416166  -0.00188408  0.16715647  1
  Te  Te199  1  0.33321875  -0.00669527  0.50111564  1
  Te  Te200  1  0.32874704  -0.00011310  0.83141163  1
  Te  Te201  1  0.33248009  0.33822311  0.16554280  1
  Te  Te202  1  0.32591780  0.32807161  0.49982008  1
  Te  Te203  1  0.32854038  0.33793303  0.83440420  1
  Te  Te204  1  0.33369986  0.66861045  0.16204260  1
  Te  Te205  1  0.33324890  0.66979188  0.50100162  1
  Te  Te206  1  0.33396950  0.66294792  0.83405627  1
  Te  Te207  1  0.66523051  0.00146193  0.16837037  1
  Te  Te208  1  0.66576992  -0.00253723  0.49757188  1
  Te  Te209  1  0.66659600  0.00371398  0.83374988  1
  Te  Te210  1  0.66971666  0.33246194  0.16292836  1
  Te  Te211  1  0.66690471  0.33262999  0.50038941  1
  Te  Te212  1  0.66756835  0.33255053  0.83307778  1
  Te  Te213  1  0.66569785  0.66800549  0.16195588  1
  Te  Te214  1  0.66962078  0.66755678  0.50369036  1
  Te  Te215  1  0.66865565  0.66928698  0.83051871  1
