# generated using pymatgen
data_AgSbTe2
_symmetry_space_group_name_H-M   'P 1'
_cell_length_a   18.32398435
_cell_length_b   18.32461940
_cell_length_c   18.32304310
_cell_angle_alpha   89.99953762
_cell_angle_beta   89.99829845
_cell_angle_gamma   90.00037129
_symmetry_Int_Tables_number   1
_chemical_formula_structural   AgSbTe2
_chemical_formula_sum   'Ag54 Sb54 Te108'
_cell_volume   6152.51212744
_cell_formula_units_Z   54
loop_
 _symmetry_equiv_pos_site_id
 _symmetry_equiv_pos_as_xyz
  1  'x, y, z'
loop_
 _atom_site_type_symbol
 _atom_site_label
 _atom_site_symmetry_multiplicity
 _atom_site_fract_x
 _atom_site_fract_y
 _atom_site_fract_z
 _atom_site_occupancy
  Ag  Ag0  1  -0.01294210  0.17020799  0.83684217  1
  Ag  Ag1  1  0.15656123  0.50130099  0.65735347  1
  Ag  Ag2  1  0.50299590  0.66770169  0.50667677  1
  Ag  Ag3  1  0.67129695  0.67038793  -0.00236230  1
  Ag  Ag4  1  0.67039547  0.83791336  0.83364690  1
  Ag  Ag5  1  0.83542405  0.66359125  0.50488213  1
  Ag  Ag6  1  0.33570683  0.17099781  0.16863477  1
  Ag  Ag7  1  0.66847081  0.16516071  0.49869629  1
  Ag  Ag8  1  0.67502586  0.49917844  0.50191140  1
  Ag  Ag9  1  0.51088036  0.00446093  0.17211489  1
  Ag  Ag10  1  0.16044225  0.34026754  0.49602555  1
  Ag  Ag11  1  0.34471136  0.66463795  0.66522313  1
  Ag  Ag12  1  0.50843523  0.66309845  0.82518094  1
  Ag  Ag13  1  0.15701581  0.82683135  0.33325240  1
  Ag  Ag14  1  0.33846927  0.16948598  0.83580914  1
  Ag  Ag15  1  0.82830929  0.16243603  0.32973195  1
  Ag  Ag16  1  0.83174218  0.84138296  0.00498481  1
  Ag  Ag17  1  0.32687425  0.33186899  0.00592559  1
  Ag  Ag18  1  0.00158350  0.33192486  -0.00317956  1
  Ag  Ag19  1  0.83188495  0.16319551  0.00063304  1
  Ag  Ag20  1  0.15574838  0.65676235  0.50223867  1
  Ag  Ag21  1  0.50142660  0.82535325  0.66444448  1
  Ag  Ag22  1  0.67219073  0.00016328  -0.00445764  1
  Ag  Ag23  1  0.16991666  0.33567810  0.17015040  1
  Ag  Ag24  1  0.83493954  0.50235303  0.66167047  1
  Ag  Ag25  1  0.82870373  0.00641224  0.83374201  1
  Ag  Ag26  1  0.34097797  0.16893234  0.49435664  1
  Ag  Ag27  1  0.50205672  0.50619770  0.66394382  1
  Ag  Ag28  1  0.66767299  0.49632857  0.16854230  1
  Ag  Ag29  1  -0.00812436  0.83716001  0.17260111  1
  Ag  Ag30  1  0.82799439  0.66863937  0.82983141  1
  Ag  Ag31  1  -0.00357503  0.50507851  0.50428848  1
  Ag  Ag32  1  0.67138307  0.16556424  0.16589477  1
  Ag  Ag33  1  -0.00449094  0.82487743  0.49860634  1
  Ag  Ag34  1  0.16772749  0.49918545  0.33945733  1
  Ag  Ag35  1  -0.01027067  -0.00075889  0.66566214  1
  Ag  Ag36  1  0.50506622  0.16664713  0.33341562  1
  Ag  Ag37  1  0.83826891  0.33714851  0.50616622  1
  Ag  Ag38  1  0.83631691  0.83770735  0.32951985  1
  Ag  Ag39  1  0.50503708  0.33275686  0.83224983  1
  Ag  Ag40  1  -0.00425794  0.66078123  0.66308220  1
  Ag  Ag41  1  0.83373199  0.32307886  0.82882993  1
  Ag  Ag42  1  0.33238679  0.49174610  0.16646039  1
  Ag  Ag43  1  0.33010117  0.33116574  0.32785758  1
  Ag  Ag44  1  -0.00324980  0.33696809  0.66604831  1
  Ag  Ag45  1  0.67107781  0.16218989  0.83588523  1
  Ag  Ag46  1  -0.01257806  0.16475935  0.16225257  1
  Ag  Ag47  1  0.33006793  0.83393462  0.16762364  1
  Ag  Ag48  1  0.83004636  0.00043226  0.16344010  1
  Ag  Ag49  1  0.82920364  0.00207204  0.50450627  1
  Ag  Ag50  1  0.51095529  0.00222456  0.50033605  1
  Ag  Ag51  1  0.83247988  0.67621033  0.16623151  1
  Ag  Ag52  1  0.67166976  0.00196889  0.66979516  1
  Ag  Ag53  1  0.16639370  0.49554762  0.00656533  1
  Sb  Sb54  1  0.33051275  0.83433293  0.49541997  1
  Sb  Sb55  1  0.49465383  0.32829818  0.16326696  1
  Sb  Sb56  1  0.32986841  0.49670638  0.49930323  1
  Sb  Sb57  1  0.67230214  0.83913502  0.16125189  1
  Sb  Sb58  1  0.49905883  0.49840669  -0.00234532  1
  Sb  Sb59  1  0.66928680  0.66538626  0.33221275  1
  Sb  Sb60  1  -0.00695341  0.16803987  0.49995598  1
  Sb  Sb61  1  0.33658889  -0.00275991  0.66579889  1
  Sb  Sb62  1  0.50271781  0.83831281  0.33693522  1
  Sb  Sb63  1  0.34188077  0.00681998  0.00275134  1
  Sb  Sb64  1  0.16287998  0.33369329  0.83367585  1
  Sb  Sb65  1  -0.00095573  0.49923554  0.17036978  1
  Sb  Sb66  1  0.83596724  0.49732327  -0.00297834  1
  Sb  Sb67  1  0.66759258  0.66907287  0.66998628  1
  Sb  Sb68  1  0.83320067  0.16712686  0.66849429  1
  Sb  Sb69  1  0.67008749  0.00201604  0.33353185  1
  Sb  Sb70  1  0.83695727  0.49867195  0.33899405  1
  Sb  Sb71  1  0.16672530  0.82583162  0.66017322  1
  Sb  Sb72  1  0.67302940  0.83506410  0.50497489  1
  Sb  Sb73  1  0.50504982  0.67000088  0.16770832  1
  Sb  Sb74  1  0.32973252  0.33784979  0.66678505  1
  Sb  Sb75  1  0.50938721  0.00189948  0.82960723  1
  Sb  Sb76  1  0.33753718  0.66354052  -0.00276106  1
  Sb  Sb77  1  0.15802357  0.00253474  0.83235075  1
  Sb  Sb78  1  0.00313378  0.33273614  0.33524161  1
  Sb  Sb79  1  -0.00258783  0.49417001  0.82481491  1
  Sb  Sb80  1  -0.00427870  -0.00076311  0.33685087  1
  Sb  Sb81  1  0.66798493  0.49989201  0.83030418  1
  Sb  Sb82  1  0.33469581  0.49559552  0.83482481  1
  Sb  Sb83  1  0.50724687  0.83416025  -0.00215307  1
  Sb  Sb84  1  0.15914327  0.82594266  0.00722287  1
  Sb  Sb85  1  0.33426121  0.00591333  0.33269834  1
  Sb  Sb86  1  0.83029319  0.83170813  0.66629008  1
  Sb  Sb87  1  0.16432958  0.17351106  0.66521789  1
  Sb  Sb88  1  0.16202209  0.17214868  0.00193103  1
  Sb  Sb89  1  0.50129060  0.33276811  0.50445896  1
  Sb  Sb90  1  -0.00931368  0.00607804  -0.00221715  1
  Sb  Sb91  1  0.34129048  0.83662904  0.83706696  1
  Sb  Sb92  1  0.16262510  0.00420866  0.16746133  1
  Sb  Sb93  1  -0.00969007  0.83725310  0.83156754  1
  Sb  Sb94  1  0.49623430  0.49471059  0.33799338  1
  Sb  Sb95  1  0.16546034  0.16947829  0.33305585  1
  Sb  Sb96  1  0.16180485  0.66142172  0.17274964  1
  Sb  Sb97  1  -0.00692434  0.66207605  -0.00514185  1
  Sb  Sb98  1  0.33244046  0.66270244  0.33721832  1
  Sb  Sb99  1  0.50126637  0.16769770  0.66405233  1
  Sb  Sb100  1  0.67014084  0.33202234  -0.00100372  1
  Sb  Sb101  1  0.16382695  0.66450323  0.82640462  1
  Sb  Sb102  1  -0.00115161  0.66854447  0.34088688  1
  Sb  Sb103  1  0.66503728  0.33032915  0.33411952  1
  Sb  Sb104  1  0.67303573  0.33048337  0.66665019  1
  Sb  Sb105  1  0.16269487  0.00125339  0.49983229  1
  Sb  Sb106  1  0.50605509  0.16724723  0.00314994  1
  Sb  Sb107  1  0.83753268  0.32940192  0.16687885  1
  Te  Te108  1  0.17274390  0.17181351  0.16694244  1
  Te  Te109  1  0.17017491  0.17012831  0.49842339  1
  Te  Te110  1  0.17277122  0.16603102  0.83389099  1
  Te  Te111  1  0.16752911  0.49700483  0.16863119  1
  Te  Te112  1  0.16845339  0.49927026  0.50006953  1
  Te  Te113  1  0.16655660  0.50055982  0.83161463  1
  Te  Te114  1  0.16466254  0.83166586  0.17161269  1
  Te  Te115  1  0.16180860  0.83312295  0.49361647  1
  Te  Te116  1  0.16777838  0.83345120  0.83615395  1
  Te  Te117  1  0.50026287  0.16389506  0.16955887  1
  Te  Te118  1  0.50316473  0.16553313  0.49759523  1
  Te  Te119  1  0.50118093  0.16935497  0.83402546  1
  Te  Te120  1  0.50130430  0.50160638  0.16830893  1
  Te  Te121  1  0.50268008  0.50153177  0.50334752  1
  Te  Te122  1  0.50114363  0.50074782  0.82883330  1
  Te  Te123  1  0.49668863  0.83956896  0.16778580  1
  Te  Te124  1  0.49959467  0.83532722  0.50240832  1
  Te  Te125  1  0.50573046  0.83065202  0.82969920  1
  Te  Te126  1  0.83153211  0.16802872  0.16735835  1
  Te  Te127  1  0.83028649  0.16353283  0.49808861  1
  Te  Te128  1  0.83123920  0.16649522  0.83248404  1
  Te  Te129  1  0.82901792  0.49983821  0.16907901  1
  Te  Te130  1  0.83379842  0.49990161  0.50010710  1
  Te  Te131  1  0.83234271  0.50365012  0.82854613  1
  Te  Te132  1  0.83338897  0.83456291  0.16638505  1
  Te  Te133  1  0.83595279  0.83454954  0.49913729  1
  Te  Te134  1  0.82940186  0.83137082  0.83568110  1
  Te  Te135  1  0.16716749  -0.00334369  -0.00013257  1
  Te  Te136  1  0.16656574  -0.01064592  0.33360621  1
  Te  Te137  1  0.16213581  -0.00191866  0.66649462  1
  Te  Te138  1  0.16578680  0.33665648  0.00054331  1
  Te  Te139  1  0.16944615  0.33508007  0.33410695  1
  Te  Te140  1  0.16184916  0.34079273  0.66283773  1
  Te  Te141  1  0.16724375  0.65773296  -0.00062936  1
  Te  Te142  1  0.16734057  0.66553443  0.34043699  1
  Te  Te143  1  0.16110528  0.66148604  0.66122558  1
  Te  Te144  1  0.50957346  -0.00038204  0.00604676  1
  Te  Te145  1  0.50019968  0.00571497  0.33500613  1
  Te  Te146  1  0.50247973  -0.00189788  0.66177406  1
  Te  Te147  1  0.49416468  0.33358408  -0.00855697  1
  Te  Te148  1  0.49199941  0.32690848  0.33473389  1
  Te  Te149  1  0.49874239  0.33905591  0.67240415  1
  Te  Te150  1  0.50658445  0.66698566  -0.00487149  1
  Te  Te151  1  0.50067875  0.66735906  0.34124340  1
  Te  Te152  1  0.50401636  0.66637045  0.66563905  1
  Te  Te153  1  0.83123332  0.00167609  0.00072877  1
  Te  Te154  1  0.83442490  0.00125541  0.33187850  1
  Te  Te155  1  0.83215998  -0.00209726  0.66630257  1
  Te  Te156  1  0.83751464  0.32941108  -0.00400335  1
  Te  Te157  1  0.83366508  0.32816072  0.33965919  1
  Te  Te158  1  0.83660727  0.33659314  0.66664598  1
  Te  Te159  1  0.83042511  0.66471587  -0.00111822  1
  Te  Te160  1  0.83312976  0.66975394  0.33155508  1
  Te  Te161  1  0.83401338  0.66597959  0.66533138  1
  Te  Te162  1  -0.00397334  0.17072017  0.00018412  1
  Te  Te163  1  -0.00362000  0.16575616  0.32585590  1
  Te  Te164  1  0.00118755  0.16845962  0.67049752  1
  Te  Te165  1  0.00493986  0.49400315  0.00104056  1
  Te  Te166  1  0.00684752  0.49960628  0.34072581  1
  Te  Te167  1  -0.00288946  0.49910842  0.66339706  1
  Te  Te168  1  -0.00727975  0.83152729  0.00380208  1
  Te  Te169  1  -0.00273266  0.83378644  0.33312952  1
  Te  Te170  1  0.00156941  0.83409562  0.66339863  1
  Te  Te171  1  0.33287743  0.17141980  0.00190845  1
  Te  Te172  1  0.33198002  0.17055622  0.33253485  1
  Te  Te173  1  0.33261402  0.16644793  0.66739395  1
  Te  Te174  1  0.32975903  0.49624305  0.00450890  1
  Te  Te175  1  0.32929889  0.49522105  0.32820397  1
  Te  Te176  1  0.33741950  0.50516887  0.66696106  1
  Te  Te177  1  0.33146266  0.83348779  0.00659059  1
  Te  Te178  1  0.33429402  0.83308130  0.32681322  1
  Te  Te179  1  0.33764384  0.82758105  0.66726902  1
  Te  Te180  1  0.67149985  0.16566375  0.00053583  1
  Te  Te181  1  0.66702653  0.16724662  0.33326301  1
  Te  Te182  1  0.66561326  0.16173393  0.66507436  1
  Te  Te183  1  0.66743434  0.50228738  0.00624313  1
  Te  Te184  1  0.66528799  0.49750836  0.33396822  1
  Te  Te185  1  0.66832291  0.49799474  0.66228781  1
  Te  Te186  1  0.67240302  0.83331028  -0.00464210  1
  Te  Te187  1  0.67372977  0.83298354  0.33277831  1
  Te  Te188  1  0.66202378  0.84096774  0.67130666  1
  Te  Te189  1  -0.00468597  0.00181749  0.16520062  1
  Te  Te190  1  -0.00491896  0.00017641  0.50614459  1
  Te  Te191  1  -0.00823174  0.00512821  0.82752283  1
  Te  Te192  1  0.00543980  0.33119052  0.16412574  1
  Te  Te193  1  -0.00106678  0.33288956  0.50219397  1
  Te  Te194  1  -0.00377085  0.32951104  0.83256506  1
  Te  Te195  1  -0.00618181  0.66899051  0.16393466  1
  Te  Te196  1  -0.00284889  0.66615366  0.50330401  1
  Te  Te197  1  -0.00531069  0.66800690  0.82627638  1
  Te  Te198  1  0.33281682  0.00339471  0.16598917  1
  Te  Te199  1  0.33532131  0.00624199  0.50064276  1
  Te  Te200  1  0.33448937  0.00634955  0.83423028  1
  Te  Te201  1  0.33323737  0.33332270  0.16556545  1
  Te  Te202  1  0.33163577  0.32901866  0.49946374  1
  Te  Te203  1  0.33334335  0.32941276  0.83513837  1
  Te  Te204  1  0.33418132  0.66669597  0.16548988  1
  Te  Te205  1  0.33834789  0.66776378  0.50454962  1
  Te  Te206  1  0.33700032  0.66829093  0.82830411  1
  Te  Te207  1  0.66922456  0.00428410  0.16439681  1
  Te  Te208  1  0.66850104  0.00115943  0.50221076  1
  Te  Te209  1  0.66932876  0.00176234  0.83432245  1
  Te  Te210  1  0.66513397  0.33178118  0.16632966  1
  Te  Te211  1  0.67136467  0.33186951  0.50040285  1
  Te  Te212  1  0.66935653  0.32889645  0.83352641  1
  Te  Te213  1  0.66992950  0.66461512  0.16203363  1
  Te  Te214  1  0.66944845  0.66469848  0.49975274  1
  Te  Te215  1  0.66742230  0.66523491  0.83596767  1
