# generated using pymatgen
data_AgSbTe2
_symmetry_space_group_name_H-M   'P 1'
_cell_length_a   18.32403781
_cell_length_b   18.32578423
_cell_length_c   18.32208013
_cell_angle_alpha   89.99719360
_cell_angle_beta   89.99966465
_cell_angle_gamma   89.99996167
_symmetry_Int_Tables_number   1
_chemical_formula_structural   AgSbTe2
_chemical_formula_sum   'Ag54 Sb54 Te108'
_cell_volume   6152.59779793
_cell_formula_units_Z   54
loop_
 _symmetry_equiv_pos_site_id
 _symmetry_equiv_pos_as_xyz
  1  'x, y, z'
loop_
 _atom_site_type_symbol
 _atom_site_label
 _atom_site_symmetry_multiplicity
 _atom_site_fract_x
 _atom_site_fract_y
 _atom_site_fract_z
 _atom_site_occupancy
  Ag  Ag0  1  0.82881423  0.50285974  -0.00020155  1
  Ag  Ag1  1  0.83693093  0.16315502  0.33241746  1
  Ag  Ag2  1  0.00385865  0.16575843  0.17283719  1
  Ag  Ag3  1  0.33190569  -0.00214976  0.33376330  1
  Ag  Ag4  1  0.67080803  0.33918751  0.33476693  1
  Ag  Ag5  1  0.16165796  0.15894171  0.33034578  1
  Ag  Ag6  1  0.33396946  0.17958473  0.84188577  1
  Ag  Ag7  1  0.83426148  0.50366342  0.66646355  1
  Ag  Ag8  1  0.66471530  0.34070988  0.66478416  1
  Ag  Ag9  1  -0.00207179  0.66323795  0.66458933  1
  Ag  Ag10  1  -0.00355330  0.50455238  0.82738238  1
  Ag  Ag11  1  0.66406374  -0.00989874  0.33319111  1
  Ag  Ag12  1  0.17126003  0.50008311  0.66367064  1
  Ag  Ag13  1  0.33105108  0.50432262  0.50476353  1
  Ag  Ag14  1  0.50775893  0.83703489  0.33571175  1
  Ag  Ag15  1  0.83293095  0.82946753  0.00257539  1
  Ag  Ag16  1  0.67277429  0.82263493  0.83856584  1
  Ag  Ag17  1  0.34516559  0.49689750  0.83426913  1
  Ag  Ag18  1  0.67048309  0.82447720  0.17205226  1
  Ag  Ag19  1  0.82970653  0.83451678  0.33518166  1
  Ag  Ag20  1  -0.00683729  0.82452184  0.82818564  1
  Ag  Ag21  1  0.16992242  0.00677465  0.17771116  1
  Ag  Ag22  1  0.32415036  0.17253373  0.16546529  1
  Ag  Ag23  1  0.33802278  0.49628654  0.15750944  1
  Ag  Ag24  1  0.49536445  0.66763816  0.50132495  1
  Ag  Ag25  1  0.82898774  0.66546319  0.16723416  1
  Ag  Ag26  1  0.83508307  0.33726178  0.49725236  1
  Ag  Ag27  1  0.49705544  0.49976548  0.67824882  1
  Ag  Ag28  1  -0.00252464  0.16220695  0.49281009  1
  Ag  Ag29  1  0.49700130  0.34605191  0.83299842  1
  Ag  Ag30  1  0.83499083  0.82452392  0.66141298  1
  Ag  Ag31  1  0.16922642  0.67052675  0.49843220  1
  Ag  Ag32  1  0.50139663  0.65798590  0.83125022  1
  Ag  Ag33  1  0.34196242  0.65549245  0.00142960  1
  Ag  Ag34  1  0.66693926  0.50605692  0.16189325  1
  Ag  Ag35  1  0.00018487  0.33366393  0.00054446  1
  Ag  Ag36  1  0.16930393  0.32816538  0.16737545  1
  Ag  Ag37  1  0.16903281  0.84199877  0.33786066  1
  Ag  Ag38  1  0.83887204  -0.00223480  0.49531022  1
  Ag  Ag39  1  0.66909624  0.66967218  0.32696756  1
  Ag  Ag40  1  -0.00168141  0.50340857  0.50773607  1
  Ag  Ag41  1  0.32702647  0.82721225  0.49645036  1
  Ag  Ag42  1  0.82983269  0.50105361  0.33474577  1
  Ag  Ag43  1  0.33144282  0.33887960  -0.00373541  1
  Ag  Ag44  1  0.83640032  0.17087568  0.00748519  1
  Ag  Ag45  1  0.49767635  -0.00843362  0.49107682  1
  Ag  Ag46  1  0.00042791  0.83275209  0.50030222  1
  Ag  Ag47  1  0.49684694  -0.00150443  0.17338230  1
  Ag  Ag48  1  0.33767414  0.34043102  0.67390401  1
  Ag  Ag49  1  0.66604457  0.66327125  0.00607939  1
  Ag  Ag50  1  0.50093752  0.50249374  -0.00857662  1
  Ag  Ag51  1  -0.00339771  0.00482679  0.00091243  1
  Ag  Ag52  1  0.65770154  0.50411125  0.83824216  1
  Ag  Ag53  1  0.16390532  -0.00861975  0.49356225  1
  Sb  Sb54  1  0.67081005  0.66108953  0.66704205  1
  Sb  Sb55  1  0.33707634  0.33143639  0.33220703  1
  Sb  Sb56  1  0.33399346  0.00332022  0.65857180  1
  Sb  Sb57  1  0.66398491  0.17245342  0.83564181  1
  Sb  Sb58  1  0.16176911  0.16787791  0.00893819  1
  Sb  Sb59  1  -0.00605561  0.66753007  0.33872400  1
  Sb  Sb60  1  0.50602745  0.50501185  0.33355332  1
  Sb  Sb61  1  0.16099754  0.83369321  0.00614836  1
  Sb  Sb62  1  -0.00072039  0.34226684  0.66917095  1
  Sb  Sb63  1  0.33869684  0.66956679  0.33287185  1
  Sb  Sb64  1  0.66918871  0.50115348  0.50044516  1
  Sb  Sb65  1  0.16611132  -0.00095397  0.83274663  1
  Sb  Sb66  1  0.50141985  0.15869990  0.33227742  1
  Sb  Sb67  1  0.50685823  0.66829602  0.16720486  1
  Sb  Sb68  1  0.16094667  0.82656298  0.65793505  1
  Sb  Sb69  1  0.82928087  0.33934259  0.83140527  1
  Sb  Sb70  1  0.50648990  0.82549296  0.66016758  1
  Sb  Sb71  1  -0.00200131  0.49582493  0.16558156  1
  Sb  Sb72  1  0.83413703  0.66634851  0.49610941  1
  Sb  Sb73  1  0.32815252  0.16690503  0.49486278  1
  Sb  Sb74  1  -0.00454123  0.33139283  0.33148975  1
  Sb  Sb75  1  0.83315067  -0.00452039  0.83198934  1
  Sb  Sb76  1  0.83533042  0.33688021  0.16994257  1
  Sb  Sb77  1  -0.00104945  -0.00640768  0.66514743  1
  Sb  Sb78  1  0.16474091  0.66644081  0.17242005  1
  Sb  Sb79  1  0.50267966  0.33786178  0.50322634  1
  Sb  Sb80  1  0.49991696  -0.00282843  0.83477456  1
  Sb  Sb81  1  0.16207190  0.33525115  0.49580225  1
  Sb  Sb82  1  0.67042587  0.83191764  0.49464712  1
  Sb  Sb83  1  0.49689831  0.33288940  0.16388001  1
  Sb  Sb84  1  0.82737690  0.66568428  0.83816548  1
  Sb  Sb85  1  0.33171275  0.65923207  0.66487415  1
  Sb  Sb86  1  0.50590517  0.82636695  0.00396215  1
  Sb  Sb87  1  0.50196022  0.17205153  0.00135449  1
  Sb  Sb88  1  0.00180095  0.00081130  0.33351139  1
  Sb  Sb89  1  0.67192965  -0.00805837  0.00726277  1
  Sb  Sb90  1  0.83449138  -0.00222456  0.17350611  1
  Sb  Sb91  1  0.17288776  0.33566612  0.83655038  1
  Sb  Sb92  1  0.33735738  0.83160865  0.17267740  1
  Sb  Sb93  1  0.33035034  0.00274971  0.00819669  1
  Sb  Sb94  1  0.66775735  -0.00079251  0.66035853  1
  Sb  Sb95  1  0.00357083  0.16969683  0.83613038  1
  Sb  Sb96  1  0.16877595  0.49973497  -0.00351341  1
  Sb  Sb97  1  0.49815174  0.17376422  0.66593500  1
  Sb  Sb98  1  0.66766756  0.34293838  0.00093538  1
  Sb  Sb99  1  0.83545571  0.16998809  0.66234290  1
  Sb  Sb100  1  0.16705633  0.17276119  0.66013678  1
  Sb  Sb101  1  0.66913238  0.16746536  0.16850362  1
  Sb  Sb102  1  -0.00544791  0.83856940  0.16978142  1
  Sb  Sb103  1  0.16938421  0.66355079  0.82841317  1
  Sb  Sb104  1  0.33442303  0.82615951  0.82857322  1
  Sb  Sb105  1  0.67239446  0.16666685  0.49654704  1
  Sb  Sb106  1  0.16374925  0.50051152  0.33754875  1
  Sb  Sb107  1  -0.00332567  0.66420481  -0.00465997  1
  Te  Te108  1  0.16519994  0.16596262  0.17015444  1
  Te  Te109  1  0.16017032  0.16541904  0.49283234  1
  Te  Te110  1  0.17397039  0.16563373  0.83162361  1
  Te  Te111  1  0.16931093  0.49830742  0.16822836  1
  Te  Te112  1  0.16604877  0.50170677  0.50230205  1
  Te  Te113  1  0.15830990  0.50031104  0.82667565  1
  Te  Te114  1  0.16576070  0.83620390  0.17470139  1
  Te  Te115  1  0.16507052  0.83206049  0.49761276  1
  Te  Te116  1  0.16074616  0.83247984  0.83184973  1
  Te  Te117  1  0.49592023  0.16091264  0.16547676  1
  Te  Te118  1  0.49889161  0.16088943  0.50003997  1
  Te  Te119  1  0.49385379  0.16656891  0.83402533  1
  Te  Te120  1  0.49936129  0.50067967  0.16519303  1
  Te  Te121  1  0.49550920  0.50299202  0.50054901  1
  Te  Te122  1  0.50126847  0.50160171  0.83499752  1
  Te  Te123  1  0.50509610  0.83731756  0.17131533  1
  Te  Te124  1  0.49966025  0.83236545  0.49725463  1
  Te  Te125  1  0.50435800  0.82872527  0.83181185  1
  Te  Te126  1  0.83700174  0.16683851  0.16754447  1
  Te  Te127  1  0.83830017  0.16549386  0.49689133  1
  Te  Te128  1  0.83376635  0.16633465  0.83747409  1
  Te  Te129  1  0.83214170  0.50207454  0.16729301  1
  Te  Te130  1  0.83507786  0.50049724  0.49861609  1
  Te  Te131  1  0.83700582  0.50102709  0.83341331  1
  Te  Te132  1  0.82998364  0.83143827  0.16846343  1
  Te  Te133  1  0.83642534  0.83256514  0.49838876  1
  Te  Te134  1  0.83372002  0.83211019  0.83392826  1
  Te  Te135  1  0.16059356  -0.00024154  0.00281115  1
  Te  Te136  1  0.16565007  -0.00073372  0.33459162  1
  Te  Te137  1  0.16717331  0.00105720  0.65846775  1
  Te  Te138  1  0.16737691  0.33336709  0.00557781  1
  Te  Te139  1  0.16757448  0.33059674  0.32758551  1
  Te  Te140  1  0.17209262  0.33998874  0.66553881  1
  Te  Te141  1  0.17186453  0.66843727  0.00236050  1
  Te  Te142  1  0.16661957  0.67005165  0.33915966  1
  Te  Te143  1  0.16166426  0.66042360  0.66000726  1
  Te  Te144  1  0.50100104  0.00010973  0.00504099  1
  Te  Te145  1  0.50132832  -0.00208230  0.33436936  1
  Te  Te146  1  0.50078977  -0.00062964  0.66029244  1
  Te  Te147  1  0.49669573  0.33875114  -0.00359784  1
  Te  Te148  1  0.50819982  0.33114688  0.33393238  1
  Te  Te149  1  0.50031739  0.33929060  0.66925409  1
  Te  Te150  1  0.50138622  0.66270322  -0.00015113  1
  Te  Te151  1  0.50556459  0.67279146  0.33665750  1
  Te  Te152  1  0.50045628  0.66003539  0.66606164  1
  Te  Te153  1  0.83691244  -0.00414685  -0.00013236  1
  Te  Te154  1  0.83163970  -0.00021713  0.33584033  1
  Te  Te155  1  0.83249871  -0.00210299  0.65887549  1
  Te  Te156  1  0.83493026  0.33572311  -0.00002912  1
  Te  Te157  1  0.83095470  0.33485800  0.33607979  1
  Te  Te158  1  0.83037619  0.33730563  0.66224814  1
  Te  Te159  1  0.83099148  0.66529720  0.00438974  1
  Te  Te160  1  0.82891427  0.66618711  0.32996351  1
  Te  Te161  1  0.83694174  0.66602808  0.66506323  1
  Te  Te162  1  -0.00414688  0.16870413  -0.00067249  1
  Te  Te163  1  -0.00195834  0.16739488  0.33322204  1
  Te  Te164  1  0.00101890  0.16734265  0.66224984  1
  Te  Te165  1  -0.00268593  0.49697826  -0.00258023  1
  Te  Te166  1  -0.00626958  0.49936403  0.33689180  1
  Te  Te167  1  -0.00530127  0.50127050  0.66620593  1
  Te  Te168  1  -0.00546555  0.83224880  -0.00197527  1
  Te  Te169  1  -0.00537585  0.83310107  0.33822705  1
  Te  Te170  1  -0.00478060  0.82881027  0.66579718  1
  Te  Te171  1  0.33376545  0.17040003  0.00316843  1
  Te  Te172  1  0.33050774  0.16335190  0.32782507  1
  Te  Te173  1  0.33256698  0.17422149  0.66923484  1
  Te  Te174  1  0.33115530  0.49873130  -0.00077361  1
  Te  Te175  1  0.33375290  0.50023553  0.33547762  1
  Te  Te176  1  0.33490596  0.49976929  0.66653262  1
  Te  Te177  1  0.33302547  0.83237817  -0.00254657  1
  Te  Te178  1  0.33268793  0.83601530  0.33712474  1
  Te  Te179  1  0.33412023  0.83352012  0.65889125  1
  Te  Te180  1  0.67494404  0.16526573  0.00035022  1
  Te  Te181  1  0.67386578  0.16961357  0.33220511  1
  Te  Te182  1  0.66676941  0.17500550  0.66832044  1
  Te  Te183  1  0.66817771  0.50224913  0.00045842  1
  Te  Te184  1  0.66997936  0.50128980  0.33224283  1
  Te  Te185  1  0.67066416  0.49855213  0.66816526  1
  Te  Te186  1  0.67182381  0.82733087  -0.00073193  1
  Te  Te187  1  0.66827735  0.83192469  0.33242356  1
  Te  Te188  1  0.67414373  0.83312505  0.67328491  1
  Te  Te189  1  0.00306356  0.00452621  0.16061871  1
  Te  Te190  1  -0.00056123  -0.00207585  0.50121395  1
  Te  Te191  1  0.00114486  -0.00186509  0.83855024  1
  Te  Te192  1  0.00419119  0.32826187  0.16194339  1
  Te  Te193  1  -0.00438913  0.33681405  0.50119610  1
  Te  Te194  1  0.00088070  0.33673333  0.83888790  1
  Te  Te195  1  -0.00542160  0.66622584  0.16511755  1
  Te  Te196  1  0.00053036  0.66601111  0.50277591  1
  Te  Te197  1  0.00212220  0.66680496  0.82927327  1
  Te  Te198  1  0.33149554  -0.00074349  0.17158077  1
  Te  Te199  1  0.33220844  0.00018216  0.49458032  1
  Te  Te200  1  0.33345004  0.00032407  0.83318174  1
  Te  Te201  1  0.33144662  0.33470327  0.16552862  1
  Te  Te202  1  0.33335677  0.33726435  0.50169797  1
  Te  Te203  1  0.33446059  0.33719743  0.83489581  1
  Te  Te204  1  0.33305096  0.66229971  0.16202106  1
  Te  Te205  1  0.33346988  0.66631675  0.49917182  1
  Te  Te206  1  0.33722231  0.66191118  0.83785323  1
  Te  Te207  1  0.66331908  -0.00029696  0.17297550  1
  Te  Te208  1  0.66574636  0.00008329  0.49421790  1
  Te  Te209  1  0.66456798  -0.00250101  0.83306215  1
  Te  Te210  1  0.66573968  0.33810308  0.17121186  1
  Te  Te211  1  0.67101868  0.33333537  0.49960274  1
  Te  Te212  1  0.66070500  0.33890322  0.83056576  1
  Te  Te213  1  0.66776546  0.66526523  0.16635693  1
  Te  Te214  1  0.65853305  0.66674135  0.49659650  1
  Te  Te215  1  0.66241259  0.66471422  0.83357066  1
