# generated using pymatgen
data_AgSbTe2
_symmetry_space_group_name_H-M   'P 1'
_cell_length_a   18.33876522
_cell_length_b   18.33443227
_cell_length_c   18.34190466
_cell_angle_alpha   89.99896701
_cell_angle_beta   89.99798104
_cell_angle_gamma   90.00290854
_symmetry_Int_Tables_number   1
_chemical_formula_structural   AgSbTe2
_chemical_formula_sum   'Ag54 Sb54 Te108'
_cell_volume   6167.11415960
_cell_formula_units_Z   54
loop_
 _symmetry_equiv_pos_site_id
 _symmetry_equiv_pos_as_xyz
  1  'x, y, z'
loop_
 _atom_site_type_symbol
 _atom_site_label
 _atom_site_symmetry_multiplicity
 _atom_site_fract_x
 _atom_site_fract_y
 _atom_site_fract_z
 _atom_site_occupancy
  Ag  Ag0  1  0.50879965  0.33821819  0.84516821  1
  Ag  Ag1  1  0.51166557  0.82152580  0.00060677  1
  Ag  Ag2  1  0.83246700  0.33234878  0.50628718  1
  Ag  Ag3  1  0.34198908  0.66520872  0.32366622  1
  Ag  Ag4  1  0.34522659  0.82433024  0.16486043  1
  Ag  Ag5  1  0.66314286  -0.00363275  0.33709097  1
  Ag  Ag6  1  0.67109086  0.16440666  0.83946622  1
  Ag  Ag7  1  0.17833940  0.33425758  0.16349859  1
  Ag  Ag8  1  0.16679687  0.00152174  0.50102574  1
  Ag  Ag9  1  0.50170056  0.16882957  0.33037749  1
  Ag  Ag10  1  0.67066792  0.83522203  0.83862173  1
  Ag  Ag11  1  0.34244848  0.16410288  0.49551052  1
  Ag  Ag12  1  0.66572067  0.16222674  0.49818151  1
  Ag  Ag13  1  -0.00852920  0.17140400  0.83741884  1
  Ag  Ag14  1  0.82864206  0.83105092  0.67520618  1
  Ag  Ag15  1  0.33966022  0.50087424  0.15446395  1
  Ag  Ag16  1  0.66763862  0.82508071  0.15648628  1
  Ag  Ag17  1  0.82688431  0.50063450  -0.00270664  1
  Ag  Ag18  1  0.82944834  0.33572625  0.83475322  1
  Ag  Ag19  1  -0.00621129  0.17186485  0.16580482  1
  Ag  Ag20  1  0.34564548  0.65258166  0.00587328  1
  Ag  Ag21  1  0.66175003  0.34397731  -0.00027418  1
  Ag  Ag22  1  0.67076291  -0.00682963  0.66511270  1
  Ag  Ag23  1  0.50414429  0.50255365  0.67940552  1
  Ag  Ag24  1  -0.00615955  -0.00210215  0.66697842  1
  Ag  Ag25  1  0.33505511  0.33354930  0.32385138  1
  Ag  Ag26  1  0.17105051  0.50041231  0.67640969  1
  Ag  Ag27  1  0.66138701  0.67353611  0.32251296  1
  Ag  Ag28  1  0.66343800  0.66098626  0.00142678  1
  Ag  Ag29  1  0.50461039  0.18213575  0.00350405  1
  Ag  Ag30  1  0.66290755  0.50630444  0.16058458  1
  Ag  Ag31  1  -0.00963567  0.83960115  0.50643824  1
  Ag  Ag32  1  0.18373138  0.49591047  -0.00408111  1
  Ag  Ag33  1  -0.00324176  0.16423075  0.50043340  1
  Ag  Ag34  1  0.35017858  0.34227939  0.00651411  1
  Ag  Ag35  1  0.00031082  0.33002906  0.32320235  1
  Ag  Ag36  1  -0.00342379  0.49686358  0.83609828  1
  Ag  Ag37  1  0.50319632  0.65746504  0.83957658  1
  Ag  Ag38  1  -0.01147762  0.83453824  0.83513459  1
  Ag  Ag39  1  -0.00691865  0.83685253  0.16249396  1
  Ag  Ag40  1  0.66561295  0.66956402  0.67242425  1
  Ag  Ag41  1  0.82601419  0.82638130  -0.00697240  1
  Ag  Ag42  1  0.66618025  0.16780469  0.16106251  1
  Ag  Ag43  1  -0.00376178  0.33636139  0.00082764  1
  Ag  Ag44  1  0.33479125  -0.00006975  0.66202118  1
  Ag  Ag45  1  0.34526739  0.49843940  0.84328875  1
  Ag  Ag46  1  0.82542770  0.66846372  0.16383869  1
  Ag  Ag47  1  0.83150852  -0.00788432  0.83079612  1
  Ag  Ag48  1  0.66996966  0.83633206  0.50451569  1
  Ag  Ag49  1  0.34091987  0.00646629  0.33671878  1
  Ag  Ag50  1  0.50509228  0.66600820  0.50252988  1
  Ag  Ag51  1  0.49866568  0.33257580  0.15723299  1
  Ag  Ag52  1  0.82811428  0.50431258  0.67789894  1
  Ag  Ag53  1  0.49925327  0.49721319  -0.00234302  1
  Sb  Sb54  1  0.82791279  0.17001621  -0.00263720  1
  Sb  Sb55  1  0.33712948  0.17165685  0.83206377  1
  Sb  Sb56  1  0.82754917  0.16801437  0.33378355  1
  Sb  Sb57  1  0.50259617  0.83248289  0.32689702  1
  Sb  Sb58  1  0.50002858  0.49883725  0.32680666  1
  Sb  Sb59  1  0.82868550  0.33683528  0.16044025  1
  Sb  Sb60  1  0.50284787  0.00490086  0.16752682  1
  Sb  Sb61  1  0.82892784  0.83338827  0.33206523  1
  Sb  Sb62  1  0.50504356  0.66077319  0.16075084  1
  Sb  Sb63  1  0.66507207  0.33163098  0.32707643  1
  Sb  Sb64  1  0.16878981  0.49738049  0.32934883  1
  Sb  Sb65  1  0.17180063  0.16762232  0.33410220  1
  Sb  Sb66  1  0.33466425  0.33236488  0.66836143  1
  Sb  Sb67  1  0.83092500  -0.00466410  0.16075154  1
  Sb  Sb68  1  0.66706805  -0.00223396  -0.00152227  1
  Sb  Sb69  1  0.33819376  0.83800804  0.49600124  1
  Sb  Sb70  1  -0.00819105  0.66975722  0.66872371  1
  Sb  Sb71  1  0.16851843  0.66194891  0.16486224  1
  Sb  Sb72  1  0.16836954  0.83386882  0.33198121  1
  Sb  Sb73  1  -0.00051272  0.49641535  0.15823765  1
  Sb  Sb74  1  0.33558898  0.00147034  0.00223793  1
  Sb  Sb75  1  0.16043319  0.83196962  0.66656974  1
  Sb  Sb76  1  0.33879017  0.82995113  0.83828977  1
  Sb  Sb77  1  0.33439515  0.49655487  0.50045990  1
  Sb  Sb78  1  0.50340194  0.16966208  0.66768888  1
  Sb  Sb79  1  0.50758246  0.00202466  0.83251416  1
  Sb  Sb80  1  0.83246735  0.16423110  0.66943734  1
  Sb  Sb81  1  0.82614952  0.66581714  0.49815395  1
  Sb  Sb82  1  0.16678990  0.00503320  0.17193421  1
  Sb  Sb83  1  0.83300998  0.00254374  0.50648105  1
  Sb  Sb84  1  0.66524415  0.50138815  0.84084332  1
  Sb  Sb85  1  0.16474257  0.82531858  0.00118372  1
  Sb  Sb86  1  -0.00432723  0.66337342  -0.00083124  1
  Sb  Sb87  1  0.66582499  0.49980874  0.49866935  1
  Sb  Sb88  1  0.33815311  0.17139795  0.17040697  1
  Sb  Sb89  1  -0.00191061  0.49765582  0.50732736  1
  Sb  Sb90  1  0.83169493  0.49803747  0.32939918  1
  Sb  Sb91  1  0.15985196  0.00069930  0.82736490  1
  Sb  Sb92  1  0.16430219  0.33656991  0.83920292  1
  Sb  Sb93  1  0.16834165  0.17573324  0.00220291  1
  Sb  Sb94  1  0.16361389  0.32951899  0.49592381  1
  Sb  Sb95  1  0.66813407  0.33567909  0.67482299  1
  Sb  Sb96  1  0.17159738  0.66270039  0.83362059  1
  Sb  Sb97  1  0.50361206  0.33510261  0.49974442  1
  Sb  Sb98  1  -0.00199485  0.00327119  -0.00516216  1
  Sb  Sb99  1  0.16506564  0.16896701  0.66590642  1
  Sb  Sb100  1  0.50996209  0.82906587  0.67136294  1
  Sb  Sb101  1  0.82466357  0.66559114  0.83852253  1
  Sb  Sb102  1  -0.00260308  0.33047326  0.67083879  1
  Sb  Sb103  1  0.17166128  0.67082704  0.50081853  1
  Sb  Sb104  1  -0.00187252  0.00455026  0.33767295  1
  Sb  Sb105  1  0.50164407  -0.00312601  0.49965458  1
  Sb  Sb106  1  0.34163914  0.66914881  0.66807540  1
  Sb  Sb107  1  -0.00201844  0.66461042  0.33128606  1
  Te  Te108  1  0.15707150  0.17275961  0.16728541  1
  Te  Te109  1  0.16049534  0.16254604  0.50061435  1
  Te  Te110  1  0.15751571  0.16775782  0.83375426  1
  Te  Te111  1  0.16927570  0.49456033  0.16156019  1
  Te  Te112  1  0.16577084  0.50037360  0.50548279  1
  Te  Te113  1  0.16138745  0.49947673  0.83505024  1
  Te  Te114  1  0.15916701  0.83512688  0.16564012  1
  Te  Te115  1  0.16332347  0.83897602  0.50032859  1
  Te  Te116  1  0.15867947  0.83270424  0.83339073  1
  Te  Te117  1  0.50302802  0.17052098  0.16612772  1
  Te  Te118  1  0.50195428  0.16762059  0.49792196  1
  Te  Te119  1  0.50432135  0.17133692  0.83642864  1
  Te  Te120  1  0.49927100  0.49401021  0.16332889  1
  Te  Te121  1  0.49954683  0.50432731  0.50338357  1
  Te  Te122  1  0.50210805  0.49868358  0.83535553  1
  Te  Te123  1  0.50293073  0.83599799  0.16137064  1
  Te  Te124  1  0.50605193  0.82711529  0.50065425  1
  Te  Te125  1  0.50380933  0.83316406  0.83936281  1
  Te  Te126  1  0.83313133  0.16573987  0.16523325  1
  Te  Te127  1  0.83297092  0.17081691  0.50134701  1
  Te  Te128  1  0.83226939  0.17161309  0.83369485  1
  Te  Te129  1  0.83000638  0.50434133  0.16217832  1
  Te  Te130  1  0.83368701  0.49420614  0.50182348  1
  Te  Te131  1  0.83289549  0.49978652  0.83522909  1
  Te  Te132  1  0.82950267  0.83043620  0.16549671  1
  Te  Te133  1  0.83152235  0.83281367  0.50226617  1
  Te  Te134  1  0.83140452  0.83007185  0.83279740  1
  Te  Te135  1  0.16747934  0.00027873  0.00063177  1
  Te  Te136  1  0.17213177  0.00053760  0.34031820  1
  Te  Te137  1  0.16679847  -0.00003734  0.66124883  1
  Te  Te138  1  0.15655882  0.33887316  0.00462649  1
  Te  Te139  1  0.16672380  0.33353084  0.32786875  1
  Te  Te140  1  0.16683568  0.34152333  0.66520540  1
  Te  Te141  1  0.17361646  0.65723135  -0.00044041  1
  Te  Te142  1  0.17568012  0.66551997  0.33382252  1
  Te  Te143  1  0.16743144  0.65949706  0.66568972  1
  Te  Te144  1  0.49835087  -0.00354533  -0.00059517  1
  Te  Te145  1  0.50065272  0.00506241  0.33372706  1
  Te  Te146  1  0.49966057  -0.00000733  0.66695591  1
  Te  Te147  1  0.50499515  0.33698504  0.00027987  1
  Te  Te148  1  0.49696765  0.33021010  0.33306457  1
  Te  Te149  1  0.49989691  0.34060716  0.66952413  1
  Te  Te150  1  0.50196288  0.66473130  0.00009071  1
  Te  Te151  1  0.50100704  0.66572668  0.33640952  1
  Te  Te152  1  0.50502065  0.66315231  0.66849960  1
  Te  Te153  1  0.83413084  -0.00897015  -0.00892592  1
  Te  Te154  1  0.82519868  0.00079780  0.33317000  1
  Te  Te155  1  0.83197388  -0.00348831  0.67155865  1
  Te  Te156  1  0.83448870  0.33526421  -0.00410881  1
  Te  Te157  1  0.83814930  0.33367272  0.33804529  1
  Te  Te158  1  0.83319464  0.33946967  0.66987231  1
  Te  Te159  1  0.82968679  0.66682283  0.00411474  1
  Te  Te160  1  0.82847132  0.66553471  0.32664970  1
  Te  Te161  1  0.82611925  0.66672178  0.66410739  1
  Te  Te162  1  -0.00023016  0.17003552  -0.00047732  1
  Te  Te163  1  -0.00069694  0.16935138  0.33429359  1
  Te  Te164  1  -0.00056286  0.16037285  0.66459890  1
  Te  Te165  1  -0.01160103  0.49819047  -0.00417905  1
  Te  Te166  1  0.00070648  0.49444842  0.33433340  1
  Te  Te167  1  -0.00671116  0.50166627  0.67302907  1
  Te  Te168  1  -0.00244630  0.83248666  -0.00004439  1
  Te  Te169  1  -0.00041174  0.83406245  0.33151480  1
  Te  Te170  1  -0.00484733  0.83638828  0.66684035  1
  Te  Te171  1  0.33875205  0.17169760  -0.00087277  1
  Te  Te172  1  0.33745376  0.16738134  0.33574970  1
  Te  Te173  1  0.33367686  0.16167360  0.66191175  1
  Te  Te174  1  0.33837936  0.49715875  -0.00077282  1
  Te  Te175  1  0.33318482  0.49820498  0.33137873  1
  Te  Te176  1  0.33478333  0.50086337  0.66934346  1
  Te  Te177  1  0.33285761  0.83270250  0.00514473  1
  Te  Te178  1  0.33568354  0.83041925  0.32757332  1
  Te  Te179  1  0.33194953  0.83846097  0.66710187  1
  Te  Te180  1  0.66414250  0.16409388  -0.00019455  1
  Te  Te181  1  0.66233719  0.16691816  0.33580057  1
  Te  Te182  1  0.66624937  0.16357536  0.66269664  1
  Te  Te183  1  0.66626979  0.50094599  0.00219704  1
  Te  Te184  1  0.66614623  0.50459225  0.32460110  1
  Te  Te185  1  0.66735590  0.50282014  0.66477969  1
  Te  Te186  1  0.66732425  0.83552753  -0.00014071  1
  Te  Te187  1  0.66463440  0.83340618  0.33525061  1
  Te  Te188  1  0.66882907  0.83344469  0.66550808  1
  Te  Te189  1  -0.00087875  -0.00005156  0.16793357  1
  Te  Te190  1  -0.00043683  0.00019639  0.50182239  1
  Te  Te191  1  -0.00494596  -0.00072145  0.82855877  1
  Te  Te192  1  -0.00572862  0.33270893  0.16567446  1
  Te  Te193  1  -0.00335436  0.32939229  0.50037565  1
  Te  Te194  1  -0.00203346  0.33304977  0.83559712  1
  Te  Te195  1  -0.00265689  0.67145544  0.16799849  1
  Te  Te196  1  0.00050354  0.67389241  0.49790784  1
  Te  Te197  1  0.00208892  0.66749030  0.83303924  1
  Te  Te198  1  0.33167955  -0.00265384  0.17251204  1
  Te  Te199  1  0.33338905  0.00230762  0.49783739  1
  Te  Te200  1  0.33083731  0.00068307  0.82816283  1
  Te  Te201  1  0.33519332  0.33207669  0.16568940  1
  Te  Te202  1  0.33303960  0.32641013  0.49692438  1
  Te  Te203  1  0.33473974  0.33731969  0.83632793  1
  Te  Te204  1  0.33234890  0.66526758  0.16592913  1
  Te  Te205  1  0.33918080  0.66818774  0.49694740  1
  Te  Te206  1  0.34051495  0.66276343  0.83666065  1
  Te  Te207  1  0.66793841  0.00635082  0.17332380  1
  Te  Te208  1  0.66716362  0.00024305  0.50091510  1
  Te  Te209  1  0.67044952  0.00101690  0.82899306  1
  Te  Te210  1  0.66380635  0.32872326  0.16272878  1
  Te  Te211  1  0.67059960  0.32943430  0.49852038  1
  Te  Te212  1  0.66789250  0.32810066  0.83684850  1
  Te  Te213  1  0.66549179  0.66719410  0.16379961  1
  Te  Te214  1  0.66462647  0.66745226  0.49975031  1
  Te  Te215  1  0.66205589  0.67156497  0.83466900  1
