# generated using pymatgen
data_AgSbTe2
_symmetry_space_group_name_H-M   'P 1'
_cell_length_a   18.32256193
_cell_length_b   18.32771958
_cell_length_c   18.31914037
_cell_angle_alpha   90.00377939
_cell_angle_beta   89.99825347
_cell_angle_gamma   89.99912952
_symmetry_Int_Tables_number   1
_chemical_formula_structural   AgSbTe2
_chemical_formula_sum   'Ag54 Sb54 Te108'
_cell_volume   6151.76474540
_cell_formula_units_Z   54
loop_
 _symmetry_equiv_pos_site_id
 _symmetry_equiv_pos_as_xyz
  1  'x, y, z'
loop_
 _atom_site_type_symbol
 _atom_site_label
 _atom_site_symmetry_multiplicity
 _atom_site_fract_x
 _atom_site_fract_y
 _atom_site_fract_z
 _atom_site_occupancy
  Ag  Ag0  1  0.83816135  0.84173872  0.33397601  1
  Ag  Ag1  1  0.32560510  0.00080370  0.33253593  1
  Ag  Ag2  1  0.15834953  0.32884558  0.16589415  1
  Ag  Ag3  1  0.16540772  0.83804355  -0.00304090  1
  Ag  Ag4  1  0.49789819  0.17507518  0.66220875  1
  Ag  Ag5  1  0.68106804  0.00265546  0.32816171  1
  Ag  Ag6  1  0.16268719  -0.00525381  0.83847824  1
  Ag  Ag7  1  0.66645248  0.67387373  -0.00963826  1
  Ag  Ag8  1  0.67900762  0.83595820  0.16576779  1
  Ag  Ag9  1  0.83490712  0.66755421  0.50147421  1
  Ag  Ag10  1  0.84178325  0.00010357  0.17389601  1
  Ag  Ag11  1  0.00324354  0.83476161  0.83074488  1
  Ag  Ag12  1  0.49843469  0.33004849  0.50490241  1
  Ag  Ag13  1  -0.00069261  0.83852582  0.49558295  1
  Ag  Ag14  1  -0.00074215  0.00234931  0.66629443  1
  Ag  Ag15  1  0.66875398  0.33828682  0.66738349  1
  Ag  Ag16  1  0.33230031  0.50537330  0.82583523  1
  Ag  Ag17  1  0.33731481  0.34088245  0.66842188  1
  Ag  Ag18  1  0.66643793  0.65736602  0.67097416  1
  Ag  Ag19  1  0.84182733  0.33018285  0.17071553  1
  Ag  Ag20  1  -0.00122304  0.50197608  0.83004696  1
  Ag  Ag21  1  -0.00185602  0.00560025  0.32709239  1
  Ag  Ag22  1  -0.00239263  0.32898395  0.66478105  1
  Ag  Ag23  1  0.67273212  0.16691181  0.49910217  1
  Ag  Ag24  1  0.33052754  0.33556360  -0.00717908  1
  Ag  Ag25  1  0.33503880  0.50229608  0.51073308  1
  Ag  Ag26  1  0.15752722  0.00330684  0.16524381  1
  Ag  Ag27  1  0.15518534  0.16404132  0.32957087  1
  Ag  Ag28  1  0.33547120  0.65948125  0.67062588  1
  Ag  Ag29  1  0.32347158  0.82800698  0.82744004  1
  Ag  Ag30  1  0.49821390  -0.00497281  0.83112004  1
  Ag  Ag31  1  -0.00187392  0.84162110  0.17736994  1
  Ag  Ag32  1  -0.00167449  0.67119910  0.33117356  1
  Ag  Ag33  1  0.84261255  0.15979673  0.33263609  1
  Ag  Ag34  1  0.00202631  0.49469081  0.17271555  1
  Ag  Ag35  1  0.16574529  0.16135937  0.00500925  1
  Ag  Ag36  1  -0.00251965  0.32128683  0.33017177  1
  Ag  Ag37  1  0.16228826  0.66762168  0.16276813  1
  Ag  Ag38  1  0.16945332  0.67237731  0.83464723  1
  Ag  Ag39  1  0.49917385  0.49461982  0.66802618  1
  Ag  Ag40  1  0.83893252  0.00037497  0.83450802  1
  Ag  Ag41  1  0.32701884  0.82917229  0.50763677  1
  Ag  Ag42  1  0.49456025  0.66709081  0.82884407  1
  Ag  Ag43  1  -0.00281782  0.16281191  0.49075700  1
  Ag  Ag44  1  0.83731359  0.49849112  0.33624021  1
  Ag  Ag45  1  0.66803522  -0.00287202  0.00248961  1
  Ag  Ag46  1  0.66878780  0.50412790  0.82740495  1
  Ag  Ag47  1  0.50087947  0.16478005  0.34088183  1
  Ag  Ag48  1  0.83052177  0.49988701  0.66762662  1
  Ag  Ag49  1  0.32267791  0.49871761  0.16787277  1
  Ag  Ag50  1  0.83697172  0.83042747  0.66405160  1
  Ag  Ag51  1  0.16355405  0.16717924  0.66673626  1
  Ag  Ag52  1  0.83723300  0.33422746  0.82850549  1
  Ag  Ag53  1  0.00234566  0.16362023  0.17629254  1
  Sb  Sb54  1  0.50051456  0.33527342  0.82491862  1
  Sb  Sb55  1  0.49553097  0.66552960  0.16128165  1
  Sb  Sb56  1  0.83521030  0.66628477  0.82817837  1
  Sb  Sb57  1  -0.00135564  0.66806565  0.00226089  1
  Sb  Sb58  1  0.49827037  0.49981751  -0.00941092  1
  Sb  Sb59  1  0.32440120  0.83010646  0.16551657  1
  Sb  Sb60  1  0.49901641  0.33209665  0.17248969  1
  Sb  Sb61  1  0.83441846  0.50000061  -0.00357078  1
  Sb  Sb62  1  0.16749995  0.33191004  0.49916986  1
  Sb  Sb63  1  0.32779067  0.33059319  0.33608366  1
  Sb  Sb64  1  0.67441531  0.67059508  0.33520466  1
  Sb  Sb65  1  0.32547299  0.66956578  0.33721685  1
  Sb  Sb66  1  0.33298426  0.66300158  -0.00829970  1
  Sb  Sb67  1  0.33150977  0.16725070  0.83107818  1
  Sb  Sb68  1  -0.00066684  -0.00068816  0.00207896  1
  Sb  Sb69  1  0.16647103  0.49603342  0.66875990  1
  Sb  Sb70  1  0.66669970  0.49543251  0.50724860  1
  Sb  Sb71  1  0.15960660  0.49515158  0.32966879  1
  Sb  Sb72  1  0.83889157  0.16451808  0.00520337  1
  Sb  Sb73  1  0.50116920  0.00133644  0.16620546  1
  Sb  Sb74  1  0.00436491  0.33269267  0.00379665  1
  Sb  Sb75  1  0.00123968  0.49935241  0.50016964  1
  Sb  Sb76  1  0.00003056  0.66731345  0.66537473  1
  Sb  Sb77  1  0.50197026  0.83249286  0.66859312  1
  Sb  Sb78  1  0.16269849  0.66836499  0.50253832  1
  Sb  Sb79  1  0.84096232  0.66899724  0.17192465  1
  Sb  Sb80  1  0.32321188  0.17075910  0.16887695  1
  Sb  Sb81  1  0.83740663  -0.00248585  0.49682919  1
  Sb  Sb82  1  0.83311266  0.33533913  0.50106036  1
  Sb  Sb83  1  0.83793399  0.83529295  0.00056577  1
  Sb  Sb84  1  0.16341492  0.00043196  0.49755416  1
  Sb  Sb85  1  0.32854233  0.00001062  0.66560175  1
  Sb  Sb86  1  0.33137804  0.00236353  0.00167142  1
  Sb  Sb87  1  0.83643470  0.16772415  0.66106049  1
  Sb  Sb88  1  0.15759124  0.83979902  0.32807421  1
  Sb  Sb89  1  0.16736355  0.50017815  0.00081388  1
  Sb  Sb90  1  0.16334237  0.33316464  0.83630598  1
  Sb  Sb91  1  0.67204920  0.83714661  0.49796059  1
  Sb  Sb92  1  0.67509326  0.16150945  0.17352357  1
  Sb  Sb93  1  0.16001764  0.83834058  0.67260348  1
  Sb  Sb94  1  0.50411433  0.83916445  0.33464277  1
  Sb  Sb95  1  0.50293059  0.66276547  0.50658351  1
  Sb  Sb96  1  0.33084339  0.16619431  0.49992059  1
  Sb  Sb97  1  0.67248443  0.00117749  0.66663256  1
  Sb  Sb98  1  0.67105645  0.83061311  0.83596515  1
  Sb  Sb99  1  0.49916921  0.00477758  0.50390097  1
  Sb  Sb100  1  0.50357467  0.49507871  0.33971577  1
  Sb  Sb101  1  0.00082644  0.16460583  0.83114061  1
  Sb  Sb102  1  0.66761189  0.16753018  0.82801239  1
  Sb  Sb103  1  0.67465666  0.32719074  0.33862716  1
  Sb  Sb104  1  0.49617663  0.16595533  -0.00262283  1
  Sb  Sb105  1  0.49736105  0.83412071  -0.00259331  1
  Sb  Sb106  1  0.66509356  0.33212440  -0.00585795  1
  Sb  Sb107  1  0.67294566  0.50418941  0.16249123  1
  Te  Te108  1  0.16334816  0.16512797  0.16865542  1
  Te  Te109  1  0.16100667  0.16655745  0.50115741  1
  Te  Te110  1  0.16621123  0.16205969  0.83165966  1
  Te  Te111  1  0.16311738  0.49958645  0.16588845  1
  Te  Te112  1  0.17535047  0.50100544  0.49794472  1
  Te  Te113  1  0.16530272  0.50363876  0.83466532  1
  Te  Te114  1  0.16171854  0.83429163  0.16190934  1
  Te  Te115  1  0.16594317  0.83283961  0.50045157  1
  Te  Te116  1  0.16447753  0.83380510  0.83320482  1
  Te  Te117  1  0.50027102  0.16726245  0.17112809  1
  Te  Te118  1  0.49760600  0.16917738  0.50226689  1
  Te  Te119  1  0.49971873  0.16240196  0.82822482  1
  Te  Te120  1  0.49894489  0.49909708  0.16813057  1
  Te  Te121  1  0.49593479  0.49553472  0.50619894  1
  Te  Te122  1  0.49856100  0.50220628  0.82683439  1
  Te  Te123  1  0.50286513  0.83276011  0.16608958  1
  Te  Te124  1  0.49468785  0.83226767  0.50064913  1
  Te  Te125  1  0.49684054  0.83273432  0.83273674  1
  Te  Te126  1  0.83957912  0.16599466  0.17154791  1
  Te  Te127  1  0.83514441  0.16841795  0.49393595  1
  Te  Te128  1  0.83313773  0.16611998  0.83491917  1
  Te  Te129  1  0.83782572  0.49790698  0.16837977  1
  Te  Te130  1  0.83400441  0.50383417  0.50228214  1
  Te  Te131  1  0.83657599  0.49865424  0.82992479  1
  Te  Te132  1  0.83746664  0.83594036  0.16742631  1
  Te  Te133  1  0.83619971  0.83066233  0.50023096  1
  Te  Te134  1  0.83866966  0.83667357  0.83206012  1
  Te  Te135  1  0.16795900  0.00041962  0.00047767  1
  Te  Te136  1  0.16311091  0.00385553  0.33018057  1
  Te  Te137  1  0.16160287  0.00515951  0.67109418  1
  Te  Te138  1  0.17110049  0.32925111  0.00473212  1
  Te  Te139  1  0.16063995  0.32751590  0.32823272  1
  Te  Te140  1  0.16213405  0.32829582  0.66767624  1
  Te  Te141  1  0.16632506  0.67080355  -0.00040532  1
  Te  Te142  1  0.16018515  0.66706822  0.32961170  1
  Te  Te143  1  0.17181352  0.66694430  0.67069146  1
  Te  Te144  1  0.50395407  0.00128931  -0.00705083  1
  Te  Te145  1  0.49813450  0.00489048  0.33461051  1
  Te  Te146  1  0.50103691  0.00319620  0.67189117  1
  Te  Te147  1  0.49220591  0.33164118  0.00141743  1
  Te  Te148  1  0.50124013  0.32769929  0.34082803  1
  Te  Te149  1  0.49874267  0.33411257  0.66555428  1
  Te  Te150  1  0.50682956  0.66709284  -0.00739549  1
  Te  Te151  1  0.50026967  0.66581636  0.33284234  1
  Te  Te152  1  0.50054919  0.66515994  0.67077773  1
  Te  Te153  1  0.82699950  0.00042925  -0.00279621  1
  Te  Te154  1  0.83704689  -0.00033778  0.33264946  1
  Te  Te155  1  0.83832631  -0.00121270  0.67076922  1
  Te  Te156  1  0.83141930  0.33205369  -0.00146701  1
  Te  Te157  1  0.83767610  0.33523440  0.33259261  1
  Te  Te158  1  0.83548238  0.33405505  0.66728379  1
  Te  Te159  1  0.82510200  0.66739665  0.00094321  1
  Te  Te160  1  0.83733180  0.66618250  0.33746770  1
  Te  Te161  1  0.83308792  0.66486579  0.66435611  1
  Te  Te162  1  0.00699333  0.16678139  0.00661113  1
  Te  Te163  1  -0.00052542  0.16570069  0.33409101  1
  Te  Te164  1  0.00136107  0.16718727  0.66588979  1
  Te  Te165  1  -0.00000572  0.50036622  -0.00493572  1
  Te  Te166  1  -0.00404366  0.50360727  0.33356756  1
  Te  Te167  1  -0.00220738  0.49674242  0.66771812  1
  Te  Te168  1  0.00509029  0.83269065  -0.00655991  1
  Te  Te169  1  -0.00228896  0.83401042  0.33505051  1
  Te  Te170  1  -0.00374660  0.83432940  0.66682805  1
  Te  Te171  1  0.32776018  0.17281256  0.00032150  1
  Te  Te172  1  0.33751592  0.16253575  0.33494202  1
  Te  Te173  1  0.33190623  0.16888334  0.66479012  1
  Te  Te174  1  0.33352446  0.49581936  0.00237899  1
  Te  Te175  1  0.33490272  0.49987614  0.32983878  1
  Te  Te176  1  0.33078477  0.49929432  0.66875346  1
  Te  Te177  1  0.32711521  0.83331952  -0.00419472  1
  Te  Te178  1  0.33439794  0.83774167  0.33515013  1
  Te  Te179  1  0.33432169  0.83254715  0.66770465  1
  Te  Te180  1  0.66479952  0.16155501  0.00121431  1
  Te  Te181  1  0.66412237  0.16265099  0.33785373  1
  Te  Te182  1  0.66521513  0.16976925  0.66082522  1
  Te  Te183  1  0.66605223  0.50187836  -0.00740367  1
  Te  Te184  1  0.67375911  0.50021513  0.33293938  1
  Te  Te185  1  0.66934790  0.49856333  0.66823423  1
  Te  Te186  1  0.66608821  0.83483141  0.00359241  1
  Te  Te187  1  0.67237241  0.83855314  0.33005337  1
  Te  Te188  1  0.67475484  0.83167000  0.66643399  1
  Te  Te189  1  -0.00002794  -0.00103871  0.16596354  1
  Te  Te190  1  0.00038639  -0.00090968  0.50448246  1
  Te  Te191  1  0.00023556  -0.00093226  0.83366802  1
  Te  Te192  1  -0.00106798  0.33659841  0.16618244  1
  Te  Te193  1  0.00041459  0.33104922  0.50146438  1
  Te  Te194  1  -0.00273832  0.33481737  0.83160575  1
  Te  Te195  1  0.00415774  0.66441468  0.16833447  1
  Te  Te196  1  -0.00301741  0.66937352  0.49606657  1
  Te  Te197  1  0.00379893  0.66653313  0.83384796  1
  Te  Te198  1  0.33253603  -0.00109104  0.17088338  1
  Te  Te199  1  0.33214603  -0.00692687  0.49602230  1
  Te  Te200  1  0.33082432  -0.00387251  0.83363566  1
  Te  Te201  1  0.33172871  0.33905641  0.16836078  1
  Te  Te202  1  0.33499227  0.33733967  0.50426847  1
  Te  Te203  1  0.33216024  0.33769998  0.82999325  1
  Te  Te204  1  0.32723797  0.66115041  0.16624625  1
  Te  Te205  1  0.33376037  0.66738125  0.50487359  1
  Te  Te206  1  0.33221618  0.66654215  0.83164130  1
  Te  Te207  1  0.66675501  -0.00351325  0.16778136  1
  Te  Te208  1  0.66688244  0.00555536  0.49461766  1
  Te  Te209  1  0.66937870  -0.00073957  0.83478679  1
  Te  Te210  1  0.67183845  0.33460941  0.16445969  1
  Te  Te211  1  0.66325017  0.32853094  0.50596623  1
  Te  Te212  1  0.67122899  0.33699454  0.82892933  1
  Te  Te213  1  0.66479060  0.67193889  0.16570046  1
  Te  Te214  1  0.67104789  0.66778987  0.50556319  1
  Te  Te215  1  0.66789986  0.66515044  0.83064638  1
