# generated using pymatgen
data_AgSbTe2
_symmetry_space_group_name_H-M   'P 1'
_cell_length_a   18.32597165
_cell_length_b   18.32321490
_cell_length_c   18.31165939
_cell_angle_alpha   89.99716395
_cell_angle_beta   89.99518508
_cell_angle_gamma   90.00159476
_symmetry_Int_Tables_number   1
_chemical_formula_structural   AgSbTe2
_chemical_formula_sum   'Ag54 Sb54 Te108'
_cell_volume   6148.88519856
_cell_formula_units_Z   54
loop_
 _symmetry_equiv_pos_site_id
 _symmetry_equiv_pos_as_xyz
  1  'x, y, z'
loop_
 _atom_site_type_symbol
 _atom_site_label
 _atom_site_symmetry_multiplicity
 _atom_site_fract_x
 _atom_site_fract_y
 _atom_site_fract_z
 _atom_site_occupancy
  Ag  Ag0  1  0.16110957  -0.00759875  0.82759649  1
  Ag  Ag1  1  -0.00175885  0.83508352  0.17408961  1
  Ag  Ag2  1  0.82731304  0.66430273  0.83157858  1
  Ag  Ag3  1  0.66944929  -0.00353338  0.00144708  1
  Ag  Ag4  1  0.83045204  0.34013006  0.83566610  1
  Ag  Ag5  1  0.32765941  0.83528294  0.49366711  1
  Ag  Ag6  1  0.33812589  0.83092310  0.83406531  1
  Ag  Ag7  1  0.16521151  0.83365087  0.33773180  1
  Ag  Ag8  1  0.83443340  0.50104457  0.67328077  1
  Ag  Ag9  1  0.50704488  0.33930801  0.83737225  1
  Ag  Ag10  1  0.50830332  0.83312483  0.00018440  1
  Ag  Ag11  1  -0.00370391  0.15921412  0.17045595  1
  Ag  Ag12  1  0.33389565  0.83231765  0.17489838  1
  Ag  Ag13  1  0.66752351  0.83246942  0.49855422  1
  Ag  Ag14  1  0.83517151  0.15761425  0.33197760  1
  Ag  Ag15  1  0.66744122  0.51032551  0.50495911  1
  Ag  Ag16  1  0.82730990  0.83938752  -0.00168070  1
  Ag  Ag17  1  0.16583725  0.16453055  0.66201439  1
  Ag  Ag18  1  0.67293197  0.50874597  0.83431230  1
  Ag  Ag19  1  -0.00631652  0.33597443  -0.00586627  1
  Ag  Ag20  1  0.33724921  -0.00386951  0.33570651  1
  Ag  Ag21  1  0.16549663  0.32289232  0.50028458  1
  Ag  Ag22  1  0.83101044  0.67114882  0.50445407  1
  Ag  Ag23  1  0.00591285  0.83381029  0.49429249  1
  Ag  Ag24  1  0.50826855  0.66720119  0.83375436  1
  Ag  Ag25  1  0.66748954  -0.00330012  0.33218342  1
  Ag  Ag26  1  0.16714438  0.67082728  0.82899578  1
  Ag  Ag27  1  0.50914362  0.16438389  -0.00359702  1
  Ag  Ag28  1  0.00196827  0.15968759  0.50051797  1
  Ag  Ag29  1  0.50324433  0.67154288  0.50544147  1
  Ag  Ag30  1  0.16479612  0.50073461  -0.00162713  1
  Ag  Ag31  1  0.83111296  -0.00193750  0.16280994  1
  Ag  Ag32  1  0.16441316  -0.00280596  0.50211967  1
  Ag  Ag33  1  -0.00096909  0.67394262  0.33685563  1
  Ag  Ag34  1  -0.00011235  0.32921778  0.66966655  1
  Ag  Ag35  1  0.33255276  0.66834158  0.66617368  1
  Ag  Ag36  1  0.16605568  0.67436001  0.50451542  1
  Ag  Ag37  1  0.83422569  -0.00404323  0.83966641  1
  Ag  Ag38  1  0.49645429  0.16797139  0.66697550  1
  Ag  Ag39  1  0.33363724  0.32637202  0.33638465  1
  Ag  Ag40  1  0.83590227  0.83813827  0.33221203  1
  Ag  Ag41  1  0.00087983  0.50096351  0.15865329  1
  Ag  Ag42  1  0.66774377  0.16140900  0.49915978  1
  Ag  Ag43  1  0.67061854  0.33172118  -0.00525373  1
  Ag  Ag44  1  0.00133064  0.00462652  0.66482695  1
  Ag  Ag45  1  0.50263919  0.50316990  -0.00243214  1
  Ag  Ag46  1  0.66665869  0.82777023  0.84314692  1
  Ag  Ag47  1  0.33063001  0.50764449  0.16556523  1
  Ag  Ag48  1  0.66628544  0.67586444  -0.00768065  1
  Ag  Ag49  1  0.49769155  0.83527770  0.33166426  1
  Ag  Ag50  1  0.50676798  -0.00314715  0.16565616  1
  Ag  Ag51  1  0.82807430  0.15943287  0.00113687  1
  Ag  Ag52  1  0.32804648  0.15795609  0.49929255  1
  Ag  Ag53  1  -0.00896599  0.50000571  0.83684581  1
  Sb  Sb54  1  0.50310080  0.15955444  0.33328613  1
  Sb  Sb55  1  0.32994954  0.33513430  0.66335470  1
  Sb  Sb56  1  0.16146116  0.49846395  0.66950234  1
  Sb  Sb57  1  0.83688479  -0.00497827  0.49971178  1
  Sb  Sb58  1  0.66871697  0.50029514  0.16041252  1
  Sb  Sb59  1  0.16338462  -0.00256945  0.16872629  1
  Sb  Sb60  1  0.16595716  0.33405727  0.17125883  1
  Sb  Sb61  1  0.83617675  0.32731801  0.15879414  1
  Sb  Sb62  1  0.67062020  0.67526913  0.33545944  1
  Sb  Sb63  1  0.33459990  0.50641178  0.83771668  1
  Sb  Sb64  1  -0.00264344  -0.00596553  0.33675307  1
  Sb  Sb65  1  0.32997776  0.16225073  0.17212532  1
  Sb  Sb66  1  0.83380488  0.82936588  0.66690673  1
  Sb  Sb67  1  0.16687823  0.50488746  0.33148016  1
  Sb  Sb68  1  0.49941046  0.32844811  0.16066444  1
  Sb  Sb69  1  0.16631171  0.83747417  0.66027631  1
  Sb  Sb70  1  0.83519374  0.16839848  0.66668854  1
  Sb  Sb71  1  0.49882071  0.67452675  0.16363308  1
  Sb  Sb72  1  0.32854804  -0.00349471  0.66214262  1
  Sb  Sb73  1  0.49938557  0.50718479  0.32891193  1
  Sb  Sb74  1  0.67177874  0.16205092  0.16600489  1
  Sb  Sb75  1  0.33797540  0.66780755  -0.00526053  1
  Sb  Sb76  1  0.33414659  0.33519586  0.00281846  1
  Sb  Sb77  1  0.83647861  0.33453267  0.50452891  1
  Sb  Sb78  1  0.00238671  0.66817287  0.66356928  1
  Sb  Sb79  1  0.66423793  0.66723586  0.66987935  1
  Sb  Sb80  1  0.83392641  0.50348398  0.33650823  1
  Sb  Sb81  1  0.33694166  0.50493836  0.49518737  1
  Sb  Sb82  1  0.50419594  0.49862261  0.67273988  1
  Sb  Sb83  1  0.16537515  0.66741445  0.16590894  1
  Sb  Sb84  1  -0.00194334  0.16974281  0.83080171  1
  Sb  Sb85  1  0.66734793  0.83591557  0.16455346  1
  Sb  Sb86  1  0.49782846  -0.00505362  0.49683558  1
  Sb  Sb87  1  0.49775879  0.33393108  0.50397295  1
  Sb  Sb88  1  0.16554338  0.83029706  0.00137689  1
  Sb  Sb89  1  0.50318697  -0.00504143  0.83792881  1
  Sb  Sb90  1  0.67077098  0.00040301  0.66697828  1
  Sb  Sb91  1  -0.00714509  0.00244285  -0.00277952  1
  Sb  Sb92  1  0.49820704  0.83530510  0.66768294  1
  Sb  Sb93  1  0.83502810  0.67399273  0.16397165  1
  Sb  Sb94  1  0.33534555  0.16021923  0.82818641  1
  Sb  Sb95  1  0.16400506  0.33491666  0.83011593  1
  Sb  Sb96  1  -0.00460398  0.66346670  0.00022566  1
  Sb  Sb97  1  0.16201635  0.16007062  0.34092990  1
  Sb  Sb98  1  0.33901058  -0.00255451  0.00354162  1
  Sb  Sb99  1  -0.00268629  0.83030750  0.83352617  1
  Sb  Sb100  1  0.32969978  0.67497465  0.33861675  1
  Sb  Sb101  1  0.16272806  0.16893720  -0.00475258  1
  Sb  Sb102  1  0.66721183  0.16543555  0.83354980  1
  Sb  Sb103  1  -0.00274040  0.50284773  0.50230074  1
  Sb  Sb104  1  0.00205124  0.33372754  0.33449948  1
  Sb  Sb105  1  0.67081576  0.33334773  0.67222292  1
  Sb  Sb106  1  0.66451696  0.32780435  0.33203921  1
  Sb  Sb107  1  0.83115435  0.49992988  -0.00516377  1
  Te  Te108  1  0.15769328  0.16556366  0.16557812  1
  Te  Te109  1  0.16528332  0.16353676  0.50085539  1
  Te  Te110  1  0.16818561  0.16225720  0.82668069  1
  Te  Te111  1  0.16508194  0.50089638  0.16203507  1
  Te  Te112  1  0.16695194  0.50633417  0.50048433  1
  Te  Te113  1  0.16682591  0.50333728  0.83734233  1
  Te  Te114  1  0.16641937  0.83316268  0.17087316  1
  Te  Te115  1  0.16664350  0.83437788  0.49831981  1
  Te  Te116  1  0.16559194  0.83205225  0.83461848  1
  Te  Te117  1  0.49776454  0.15970920  0.16201616  1
  Te  Te118  1  0.49993963  0.16707678  0.50071739  1
  Te  Te119  1  0.49997237  0.16744362  0.83582374  1
  Te  Te120  1  0.49869966  0.49997605  0.16007590  1
  Te  Te121  1  0.50605204  0.50468156  0.50035332  1
  Te  Te122  1  0.50161680  0.50296316  0.83733546  1
  Te  Te123  1  0.49710662  0.83706987  0.16561726  1
  Te  Te124  1  0.50003440  0.83087661  0.50113242  1
  Te  Te125  1  0.50174305  0.82945455  0.83432714  1
  Te  Te126  1  0.83723749  0.16115430  0.16571761  1
  Te  Te127  1  0.83535338  0.16662846  0.49852005  1
  Te  Te128  1  0.83282243  0.16464813  0.83737046  1
  Te  Te129  1  0.83918840  0.50054771  0.16740560  1
  Te  Te130  1  0.82850458  0.50378516  0.50329089  1
  Te  Te131  1  0.83201477  0.50120262  0.83422820  1
  Te  Te132  1  0.83569515  0.83748815  0.16887425  1
  Te  Te133  1  0.83141091  0.83067367  0.49941993  1
  Te  Te134  1  0.83216331  0.83163883  0.83472370  1
  Te  Te135  1  0.16669069  0.00095197  -0.00653887  1
  Te  Te136  1  0.17140002  -0.00591213  0.33633646  1
  Te  Te137  1  0.16365534  0.00401231  0.66579172  1
  Te  Te138  1  0.16288191  0.33770549  -0.00034961  1
  Te  Te139  1  0.17067136  0.33392690  0.34038017  1
  Te  Te140  1  0.16273308  0.32960099  0.66180452  1
  Te  Te141  1  0.16639137  0.66194827  -0.00610173  1
  Te  Te142  1  0.16241203  0.67203438  0.33747103  1
  Te  Te143  1  0.16920882  0.66535790  0.66735916  1
  Te  Te144  1  0.50532540  -0.00199561  0.00316456  1
  Te  Te145  1  0.50285983  -0.00479168  0.32983871  1
  Te  Te146  1  0.49965008  0.00852145  0.66875630  1
  Te  Te147  1  0.50075844  0.33215448  -0.00353503  1
  Te  Te148  1  0.49559144  0.33381743  0.33239704  1
  Te  Te149  1  0.49900875  0.32883551  0.67288099  1
  Te  Te150  1  0.50366361  0.66994144  -0.00307417  1
  Te  Te151  1  0.50133043  0.67458064  0.33723765  1
  Te  Te152  1  0.49446134  0.66568914  0.66752762  1
  Te  Te153  1  0.83112043  -0.00020900  -0.00006045  1
  Te  Te154  1  0.83094223  -0.00103438  0.33393872  1
  Te  Te155  1  0.83875784  0.00111754  0.67360466  1
  Te  Te156  1  0.83371043  0.33118956  -0.00502371  1
  Te  Te157  1  0.83195147  0.32846912  0.33249999  1
  Te  Te158  1  0.83881036  0.33610478  0.67305653  1
  Te  Te159  1  0.82845473  0.67268058  -0.00364747  1
  Te  Te160  1  0.83699778  0.67159745  0.33694631  1
  Te  Te161  1  0.83497182  0.66247368  0.66773547  1
  Te  Te162  1  -0.00270190  0.17244945  0.00242082  1
  Te  Te163  1  -0.00433601  0.16804957  0.33415687  1
  Te  Te164  1  0.00150075  0.16703535  0.66336011  1
  Te  Te165  1  -0.00116633  0.49845629  -0.00171708  1
  Te  Te166  1  -0.00011337  0.50366272  0.32887363  1
  Te  Te167  1  -0.00459563  0.49643231  0.67068130  1
  Te  Te168  1  -0.00323272  0.83260510  0.00571454  1
  Te  Te169  1  -0.00227517  0.83375103  0.33411605  1
  Te  Te170  1  -0.00061881  0.83953950  0.65886010  1
  Te  Te171  1  0.33665158  0.16682935  0.00151175  1
  Te  Te172  1  0.33311385  0.16308019  0.33822297  1
  Te  Te173  1  0.33235657  0.16690827  0.66015288  1
  Te  Te174  1  0.33464692  0.50064019  0.00573446  1
  Te  Te175  1  0.33451696  0.49738190  0.32589930  1
  Te  Te176  1  0.33338885  0.50520088  0.66564229  1
  Te  Te177  1  0.33466922  0.83300030  -0.00051231  1
  Te  Te178  1  0.33534147  0.83473389  0.33399876  1
  Te  Te179  1  0.33290386  0.82962098  0.66844709  1
  Te  Te180  1  0.66714339  0.16447871  -0.00019136  1
  Te  Te181  1  0.67083635  0.16205305  0.33779706  1
  Te  Te182  1  0.66284650  0.16706229  0.65941317  1
  Te  Te183  1  0.66415606  0.49645938  -0.00446967  1
  Te  Te184  1  0.66613010  0.49865431  0.33701534  1
  Te  Te185  1  0.67164531  0.49951493  0.66748127  1
  Te  Te186  1  0.66715934  0.83587937  0.00065351  1
  Te  Te187  1  0.66766917  0.83661420  0.33526686  1
  Te  Te188  1  0.66591106  0.83491709  0.65999845  1
  Te  Te189  1  -0.00373650  -0.00099773  0.16612140  1
  Te  Te190  1  0.00280962  -0.00003843  0.50195764  1
  Te  Te191  1  0.00002260  -0.00105374  0.82934438  1
  Te  Te192  1  0.00066137  0.33758265  0.16399257  1
  Te  Te193  1  0.00402186  0.33368846  0.50286690  1
  Te  Te194  1  -0.00045234  0.33740331  0.83325216  1
  Te  Te195  1  0.00050368  0.66855257  0.17134469  1
  Te  Te196  1  0.00026969  0.66868756  0.49884008  1
  Te  Te197  1  0.00053001  0.66268656  0.83170106  1
  Te  Te198  1  0.33279459  -0.00521867  0.17197660  1
  Te  Te199  1  0.33112685  -0.00260868  0.49722418  1
  Te  Te200  1  0.33044369  -0.00805655  0.83283307  1
  Te  Te201  1  0.33304567  0.33427543  0.17357834  1
  Te  Te202  1  0.32976007  0.33437677  0.49606872  1
  Te  Te203  1  0.33778645  0.33215669  0.83293328  1
  Te  Te204  1  0.33261815  0.66832348  0.16744576  1
  Te  Te205  1  0.33238843  0.67013003  0.50259927  1
  Te  Te206  1  0.33078400  0.67134500  0.82970532  1
  Te  Te207  1  0.66862875  0.00063271  0.16774481  1
  Te  Te208  1  0.66704453  -0.00147359  0.49851450  1
  Te  Te209  1  0.67124886  -0.00539451  0.83522347  1
  Te  Te210  1  0.66727902  0.33246209  0.15789690  1
  Te  Te211  1  0.66703161  0.33004911  0.49974280  1
  Te  Te212  1  0.66715684  0.33202841  0.83674049  1
  Te  Te213  1  0.66704921  0.66484278  0.15820627  1
  Te  Te214  1  0.66765990  0.66906711  0.50045425  1
  Te  Te215  1  0.66764681  0.66777353  0.83350687  1
