# generated using pymatgen
data_AgSbTe2
_symmetry_space_group_name_H-M   'P 1'
_cell_length_a   18.33838719
_cell_length_b   18.33375898
_cell_length_c   18.33755854
_cell_angle_alpha   90.00090437
_cell_angle_beta   89.99760315
_cell_angle_gamma   90.00079476
_symmetry_Int_Tables_number   1
_chemical_formula_structural   AgSbTe2
_chemical_formula_sum   'Ag54 Sb54 Te108'
_cell_volume   6165.29935648
_cell_formula_units_Z   54
loop_
 _symmetry_equiv_pos_site_id
 _symmetry_equiv_pos_as_xyz
  1  'x, y, z'
loop_
 _atom_site_type_symbol
 _atom_site_label
 _atom_site_symmetry_multiplicity
 _atom_site_fract_x
 _atom_site_fract_y
 _atom_site_fract_z
 _atom_site_occupancy
  Ag  Ag0  1  0.50328659  0.66679752  0.15800137  1
  Ag  Ag1  1  0.33705926  0.49589901  0.83449608  1
  Ag  Ag2  1  0.49890216  0.66385375  0.50092429  1
  Ag  Ag3  1  0.50372185  0.82020878  0.00001373  1
  Ag  Ag4  1  0.16784177  0.34284205  0.16379289  1
  Ag  Ag5  1  0.17695387  0.49911787  0.67261855  1
  Ag  Ag6  1  0.66158711  -0.01580284  0.00173154  1
  Ag  Ag7  1  0.16970099  0.82877049  0.32537405  1
  Ag  Ag8  1  0.66235777  -0.01062072  0.32909211  1
  Ag  Ag9  1  0.82338773  0.50563653  0.00131770  1
  Ag  Ag10  1  0.17274993  0.66727629  0.49237021  1
  Ag  Ag11  1  0.82457498  0.82094584  -0.00426058  1
  Ag  Ag12  1  0.34334659  0.32979533  0.66721300  1
  Ag  Ag13  1  0.00210727  0.82946559  0.50736746  1
  Ag  Ag14  1  0.82760262  0.66922946  0.84610905  1
  Ag  Ag15  1  0.49661147  0.49105015  0.67723393  1
  Ag  Ag16  1  0.00503900  0.16664221  0.83096345  1
  Ag  Ag17  1  0.33570350  0.33151892  0.33381153  1
  Ag  Ag18  1  0.50167772  0.66489621  0.84443973  1
  Ag  Ag19  1  0.50080447  0.33790996  0.51367013  1
  Ag  Ag20  1  0.17391851  -0.00204912  0.83249565  1
  Ag  Ag21  1  0.65859015  0.33815547  -0.00032822  1
  Ag  Ag22  1  0.49589048  -0.00007176  0.83387852  1
  Ag  Ag23  1  0.65699819  0.17423289  0.50089740  1
  Ag  Ag24  1  0.16800910  0.82257283  0.00353633  1
  Ag  Ag25  1  0.65536793  0.33438533  0.66910980  1
  Ag  Ag26  1  -0.00074506  0.83419912  0.83181784  1
  Ag  Ag27  1  0.00144516  0.50041986  0.16265694  1
  Ag  Ag28  1  0.33492251  0.00587122  0.67141944  1
  Ag  Ag29  1  0.33935853  0.17037516  0.83117892  1
  Ag  Ag30  1  0.49749861  0.33502596  0.82926933  1
  Ag  Ag31  1  0.66044002  0.67000999  0.32379829  1
  Ag  Ag32  1  0.00103807  0.33236056  0.67161428  1
  Ag  Ag33  1  0.50075775  0.17756308  -0.00981017  1
  Ag  Ag34  1  0.82920967  0.83183317  0.67543101  1
  Ag  Ag35  1  0.66089260  0.49881821  0.50185546  1
  Ag  Ag36  1  0.83134082  0.34290873  0.16089205  1
  Ag  Ag37  1  0.49682723  0.17921410  0.67201953  1
  Ag  Ag38  1  -0.00299908  0.33660633  0.00071899  1
  Ag  Ag39  1  0.49993036  0.82904276  0.32277380  1
  Ag  Ag40  1  0.16903980  0.50409153  0.00014247  1
  Ag  Ag41  1  0.16769607  0.66427604  0.16470822  1
  Ag  Ag42  1  0.50102175  0.50402274  -0.00498093  1
  Ag  Ag43  1  0.66076423  0.82706466  0.16270546  1
  Ag  Ag44  1  0.34247263  0.82862637  0.16397173  1
  Ag  Ag45  1  0.82185806  0.66321133  0.16101500  1
  Ag  Ag46  1  0.00534346  0.33899078  0.32346592  1
  Ag  Ag47  1  0.00078111  0.66577722  0.33090608  1
  Ag  Ag48  1  0.34629085  0.66731333  0.00121660  1
  Ag  Ag49  1  0.66041208  0.66680713  0.00439738  1
  Ag  Ag50  1  0.50160315  0.83104993  0.67358070  1
  Ag  Ag51  1  0.49965308  0.34142609  0.15724414  1
  Ag  Ag52  1  0.00579848  -0.00079385  0.67273533  1
  Ag  Ag53  1  0.33994409  0.17167160  0.51353689  1
  Sb  Sb54  1  0.82959285  0.50349043  0.67483419  1
  Sb  Sb55  1  0.66226349  0.66355964  0.66904654  1
  Sb  Sb56  1  0.17552548  0.17247503  0.66828633  1
  Sb  Sb57  1  0.16862018  0.66890657  0.83835149  1
  Sb  Sb58  1  0.17074515  0.33253633  0.83582339  1
  Sb  Sb59  1  0.00213819  0.16631711  0.50669379  1
  Sb  Sb60  1  0.00479621  0.50102276  0.83895206  1
  Sb  Sb61  1  0.65689380  0.49991226  0.83483093  1
  Sb  Sb62  1  0.66155944  0.00233794  0.66963185  1
  Sb  Sb63  1  0.50052232  0.00067281  0.50696469  1
  Sb  Sb64  1  0.83137110  -0.00557809  0.16348258  1
  Sb  Sb65  1  0.33170374  0.50348799  0.15992737  1
  Sb  Sb66  1  0.33905655  0.49728565  0.50641073  1
  Sb  Sb67  1  -0.00170037  -0.00561661  0.33850244  1
  Sb  Sb68  1  0.65997927  0.16840974  0.83233069  1
  Sb  Sb69  1  -0.00130068  0.82506703  0.16325595  1
  Sb  Sb70  1  0.82771761  0.16955207  -0.00251075  1
  Sb  Sb71  1  0.16779044  0.16560545  0.33301958  1
  Sb  Sb72  1  0.00057479  0.66710241  0.66401080  1
  Sb  Sb73  1  0.50048065  -0.00673928  0.15928866  1
  Sb  Sb74  1  0.66542158  0.83206258  0.84021436  1
  Sb  Sb75  1  0.82901771  0.16463219  0.66982015  1
  Sb  Sb76  1  0.16657592  -0.00738893  0.15942803  1
  Sb  Sb77  1  0.66266332  0.33747033  0.33151441  1
  Sb  Sb78  1  0.83121824  0.82964061  0.32943630  1
  Sb  Sb79  1  0.17240937  0.33957712  0.49832238  1
  Sb  Sb80  1  0.66413015  0.16512599  0.16753210  1
  Sb  Sb81  1  0.83003863  0.66720713  0.49807766  1
  Sb  Sb82  1  -0.00137395  0.50254390  0.49751681  1
  Sb  Sb83  1  0.17203744  0.16950581  -0.00336674  1
  Sb  Sb84  1  0.83201895  0.16901416  0.33259778  1
  Sb  Sb85  1  0.33727309  0.16759110  0.16125895  1
  Sb  Sb86  1  0.34015203  -0.00652609  -0.00654246  1
  Sb  Sb87  1  0.66765390  0.50567042  0.16534602  1
  Sb  Sb88  1  0.49956216  0.50443233  0.33151905  1
  Sb  Sb89  1  0.16675928  0.50495253  0.33005979  1
  Sb  Sb90  1  0.83110296  0.33941699  0.83855226  1
  Sb  Sb91  1  0.16863554  0.82937661  0.66965771  1
  Sb  Sb92  1  0.16792636  -0.00617043  0.50618404  1
  Sb  Sb93  1  0.50063468  0.16547928  0.33557703  1
  Sb  Sb94  1  0.66616580  0.83094603  0.49618636  1
  Sb  Sb95  1  -0.00319083  0.00117753  -0.00660108  1
  Sb  Sb96  1  -0.00355538  0.66163143  0.00572398  1
  Sb  Sb97  1  0.33467660  0.83331882  0.83806452  1
  Sb  Sb98  1  0.83226507  -0.00666646  0.83386873  1
  Sb  Sb99  1  0.33882941  0.00137249  0.33829933  1
  Sb  Sb100  1  0.83298905  0.50132868  0.32503904  1
  Sb  Sb101  1  0.33274562  0.83344249  0.49759625  1
  Sb  Sb102  1  0.33715206  0.66465789  0.67232268  1
  Sb  Sb103  1  0.33782132  0.33977547  -0.00302889  1
  Sb  Sb104  1  0.00057161  0.18011646  0.16002264  1
  Sb  Sb105  1  0.33513929  0.66390256  0.32766066  1
  Sb  Sb106  1  0.82806211  0.33542629  0.49844281  1
  Sb  Sb107  1  0.83143999  -0.00279872  0.50178171  1
  Te  Te108  1  0.16826261  0.17133304  0.16564532  1
  Te  Te109  1  0.17265550  0.16653552  0.49973139  1
  Te  Te110  1  0.16668572  0.16081103  0.83282811  1
  Te  Te111  1  0.16568364  0.50141199  0.16424295  1
  Te  Te112  1  0.16612561  0.50761247  0.50336393  1
  Te  Te113  1  0.17206575  0.50086536  0.83417094  1
  Te  Te114  1  0.16560323  0.82940890  0.16442569  1
  Te  Te115  1  0.16477568  0.82713441  0.49881127  1
  Te  Te116  1  0.16476858  0.83609470  0.83704523  1
  Te  Te117  1  0.49990575  0.17261554  0.16357266  1
  Te  Te118  1  0.49871759  0.16732881  0.50134061  1
  Te  Te119  1  0.49946951  0.16990088  0.83121796  1
  Te  Te120  1  0.49904583  0.50231063  0.16263615  1
  Te  Te121  1  0.50147373  0.49927705  0.49799589  1
  Te  Te122  1  0.49728261  0.50157639  0.83359932  1
  Te  Te123  1  0.50149665  0.83101282  0.16354643  1
  Te  Te124  1  0.50004080  0.83072841  0.50161333  1
  Te  Te125  1  0.49919452  0.82890101  0.83641240  1
  Te  Te126  1  0.83276845  0.17485340  0.16512389  1
  Te  Te127  1  0.82720216  0.16626041  0.50104875  1
  Te  Te128  1  0.84323036  0.16665391  0.83314835  1
  Te  Te129  1  0.83635268  0.50185161  0.16040407  1
  Te  Te130  1  0.82666550  0.50112832  0.50313660  1
  Te  Te131  1  0.83614460  0.50773613  0.84141253  1
  Te  Te132  1  0.83058874  0.82718582  0.16100924  1
  Te  Te133  1  0.83944655  0.83161664  0.50413477  1
  Te  Te134  1  0.83569855  0.82920989  0.83518498  1
  Te  Te135  1  0.16640473  -0.00091373  -0.00663179  1
  Te  Te136  1  0.16679348  -0.00836857  0.33290915  1
  Te  Te137  1  0.16770960  -0.00078830  0.67199603  1
  Te  Te138  1  0.16634478  0.33650503  0.00288261  1
  Te  Te139  1  0.16567456  0.33364887  0.33045796  1
  Te  Te140  1  0.16112561  0.33892924  0.66659492  1
  Te  Te141  1  0.16242276  0.66530758  0.00250160  1
  Te  Te142  1  0.16816928  0.66953225  0.33201294  1
  Te  Te143  1  0.16856759  0.66027593  0.66509903  1
  Te  Te144  1  0.50372068  0.00109944  -0.00448362  1
  Te  Te145  1  0.50331295  -0.00616532  0.33176878  1
  Te  Te146  1  0.49868392  -0.00707125  0.67262464  1
  Te  Te147  1  0.49786218  0.33725604  -0.00169629  1
  Te  Te148  1  0.49778245  0.33375548  0.32766616  1
  Te  Te149  1  0.49954431  0.33492572  0.66844256  1
  Te  Te150  1  0.50136803  0.66482458  0.00070269  1
  Te  Te151  1  0.50047086  0.66985836  0.33551356  1
  Te  Te152  1  0.50029071  0.67086642  0.66032691  1
  Te  Te153  1  0.82406074  -0.00169056  0.00024650  1
  Te  Te154  1  0.82568463  -0.00087902  0.33220047  1
  Te  Te155  1  0.83552972  -0.00695795  0.66814764  1
  Te  Te156  1  0.83420506  0.33529031  0.00232761  1
  Te  Te157  1  0.83786900  0.33441162  0.32695337  1
  Te  Te158  1  0.83846880  0.33391779  0.66780343  1
  Te  Te159  1  0.83564273  0.66527447  0.00271704  1
  Te  Te160  1  0.83575532  0.66691329  0.32728111  1
  Te  Te161  1  0.83216478  0.67232474  0.66901415  1
  Te  Te162  1  -0.00032796  0.17150170  -0.00694226  1
  Te  Te163  1  0.00018256  0.16952014  0.33591329  1
  Te  Te164  1  -0.00064522  0.16584113  0.66960833  1
  Te  Te165  1  0.00745290  0.49541981  0.00282182  1
  Te  Te166  1  -0.00010404  0.49948944  0.32937244  1
  Te  Te167  1  -0.00152538  0.49584842  0.66669490  1
  Te  Te168  1  0.00330061  0.83694109  -0.00326547  1
  Te  Te169  1  0.00247308  0.83154256  0.33492135  1
  Te  Te170  1  0.00306580  0.83412073  0.66820344  1
  Te  Te171  1  0.33979510  0.16413029  -0.00656575  1
  Te  Te172  1  0.33292717  0.17099887  0.33353321  1
  Te  Te173  1  0.33683666  0.16834625  0.67090105  1
  Te  Te174  1  0.33295231  0.50515980  -0.00373049  1
  Te  Te175  1  0.33217986  0.49086951  0.33452790  1
  Te  Te176  1  0.33631569  0.49764822  0.67146321  1
  Te  Te177  1  0.33140369  0.82891491  0.00344215  1
  Te  Te178  1  0.33482461  0.83398177  0.32957622  1
  Te  Te179  1  0.33750660  0.83673145  0.66642205  1
  Te  Te180  1  0.66066560  0.17710891  0.00015478  1
  Te  Te181  1  0.66673788  0.16415756  0.33880440  1
  Te  Te182  1  0.66193880  0.17033831  0.66244003  1
  Te  Te183  1  0.66494841  0.49912718  0.00064245  1
  Te  Te184  1  0.66698285  0.50628242  0.34002379  1
  Te  Te185  1  0.66219103  0.49489193  0.66286533  1
  Te  Te186  1  0.66551148  0.82822886  0.00196113  1
  Te  Te187  1  0.66447890  0.83010248  0.33003398  1
  Te  Te188  1  0.66640437  0.83433985  0.66485171  1
  Te  Te189  1  -0.00089640  0.00559144  0.16941377  1
  Te  Te190  1  0.00027907  -0.00508021  0.50739183  1
  Te  Te191  1  -0.00126108  -0.00244133  0.83026018  1
  Te  Te192  1  0.00211930  0.33864511  0.16497903  1
  Te  Te193  1  -0.00049038  0.33322217  0.50025812  1
  Te  Te194  1  0.00055789  0.33292730  0.83445218  1
  Te  Te195  1  0.00702155  0.66291418  0.17211735  1
  Te  Te196  1  0.00004121  0.66939873  0.49371515  1
  Te  Te197  1  -0.00073659  0.67236751  0.83189562  1
  Te  Te198  1  0.33210010  -0.00639276  0.16863319  1
  Te  Te199  1  0.33237672  0.00795962  0.50677428  1
  Te  Te200  1  0.33560551  0.00048391  0.82966551  1
  Te  Te201  1  0.33360353  0.33321383  0.16790765  1
  Te  Te202  1  0.33750511  0.33148192  0.50401710  1
  Te  Te203  1  0.33563407  0.33218029  0.83067173  1
  Te  Te204  1  0.33315400  0.66951188  0.16313782  1
  Te  Te205  1  0.33450404  0.66576584  0.49867034  1
  Te  Te206  1  0.33734841  0.66371424  0.83936267  1
  Te  Te207  1  0.66705735  -0.00471804  0.16575536  1
  Te  Te208  1  0.66640591  0.00301269  0.49662656  1
  Te  Te209  1  0.65973323  0.00142178  0.83886174  1
  Te  Te210  1  0.66504181  0.33368420  0.16491506  1
  Te  Te211  1  0.66263944  0.33413390  0.49904797  1
  Te  Te212  1  0.66342296  0.33347071  0.83256857  1
  Te  Te213  1  0.66424681  0.66706290  0.16588079  1
  Te  Te214  1  0.66280765  0.66407012  0.49846333  1
  Te  Te215  1  0.66503895  0.66588392  0.83833211  1
