# generated using pymatgen
data_AgSbTe2
_symmetry_space_group_name_H-M   'P 1'
_cell_length_a   18.32848684
_cell_length_b   18.32414014
_cell_length_c   18.32885648
_cell_angle_alpha   90.00218034
_cell_angle_beta   90.00338406
_cell_angle_gamma   90.00169284
_symmetry_Int_Tables_number   1
_chemical_formula_structural   AgSbTe2
_chemical_formula_sum   'Ag54 Sb54 Te108'
_cell_volume   6155.81537200
_cell_formula_units_Z   54
loop_
 _symmetry_equiv_pos_site_id
 _symmetry_equiv_pos_as_xyz
  1  'x, y, z'
loop_
 _atom_site_type_symbol
 _atom_site_label
 _atom_site_symmetry_multiplicity
 _atom_site_fract_x
 _atom_site_fract_y
 _atom_site_fract_z
 _atom_site_occupancy
  Ag  Ag0  1  0.83721660  0.15488770  0.66324181  1
  Ag  Ag1  1  0.66078061  0.67579596  0.33484575  1
  Ag  Ag2  1  0.67540572  -0.00421185  0.66039759  1
  Ag  Ag3  1  0.49753816  0.67071505  0.16760741  1
  Ag  Ag4  1  0.82966761  0.83601265  -0.00880717  1
  Ag  Ag5  1  0.00469652  0.83778357  0.16237652  1
  Ag  Ag6  1  0.17823283  0.48999991  -0.00094799  1
  Ag  Ag7  1  0.49939618  0.84016371  0.33504861  1
  Ag  Ag8  1  0.33826358  0.49935885  0.16207352  1
  Ag  Ag9  1  0.49319808  0.16360847  0.33750656  1
  Ag  Ag10  1  0.33606471  0.66782287  0.00245369  1
  Ag  Ag11  1  0.66708781  0.83626507  0.82634734  1
  Ag  Ag12  1  0.16769086  0.33237201  0.83607548  1
  Ag  Ag13  1  0.50074674  -0.00258816  0.49684635  1
  Ag  Ag14  1  0.33367447  -0.00077725  0.00256176  1
  Ag  Ag15  1  0.33498451  0.32684685  0.33437981  1
  Ag  Ag16  1  -0.00075305  0.32600450  0.66768928  1
  Ag  Ag17  1  0.49514932  0.32668563  0.50013170  1
  Ag  Ag18  1  0.33129765  0.16112294  0.49488912  1
  Ag  Ag19  1  0.16985504  0.16912170  0.00341836  1
  Ag  Ag20  1  0.83174225  0.84186202  0.66902040  1
  Ag  Ag21  1  0.49724978  -0.00725833  0.17336689  1
  Ag  Ag22  1  -0.00276435  0.00361436  0.34561490  1
  Ag  Ag23  1  0.33353699  0.16794738  0.17408413  1
  Ag  Ag24  1  0.65461337  0.50176149  0.16527240  1
  Ag  Ag25  1  0.83447970  0.68207033  0.50057528  1
  Ag  Ag26  1  0.50528325  -0.00372926  0.83150481  1
  Ag  Ag27  1  0.83028136  -0.00207463  0.82314346  1
  Ag  Ag28  1  0.83314198  0.00004610  0.51000294  1
  Ag  Ag29  1  0.32940133  0.33388958  0.00047881  1
  Ag  Ag30  1  0.49721981  0.83577192  0.00306956  1
  Ag  Ag31  1  0.49708281  0.33019927  0.83033426  1
  Ag  Ag32  1  0.65959283  0.83791511  0.50474608  1
  Ag  Ag33  1  0.33356629  0.67430211  0.66459935  1
  Ag  Ag34  1  0.00475802  -0.00107037  -0.00284166  1
  Ag  Ag35  1  -0.01029721  0.00200346  0.66302333  1
  Ag  Ag36  1  0.50059177  0.83816453  0.66197166  1
  Ag  Ag37  1  0.33878337  0.83625072  0.16725983  1
  Ag  Ag38  1  0.49545475  0.50312993  0.00737665  1
  Ag  Ag39  1  0.16818958  -0.00036552  0.50010996  1
  Ag  Ag40  1  0.66463396  0.50151697  0.83592179  1
  Ag  Ag41  1  0.00634971  0.32450234  0.33829525  1
  Ag  Ag42  1  0.50030912  0.50043564  0.32533739  1
  Ag  Ag43  1  0.33294215  0.33367607  0.66601957  1
  Ag  Ag44  1  -0.00777043  0.84081138  0.83412534  1
  Ag  Ag45  1  0.00440672  0.16418646  0.49872303  1
  Ag  Ag46  1  0.83591756  0.32720398  0.82624443  1
  Ag  Ag47  1  0.34102609  0.84026293  0.49968715  1
  Ag  Ag48  1  0.01077591  0.32656506  -0.00716951  1
  Ag  Ag49  1  0.17034920  0.67719104  0.50118118  1
  Ag  Ag50  1  0.83373504  0.32518113  0.50723264  1
  Ag  Ag51  1  0.16985038  0.83590967  0.66380552  1
  Ag  Ag52  1  0.17484677  0.16592093  0.33503982  1
  Ag  Ag53  1  0.65845111  -0.00446212  0.34180203  1
  Sb  Sb54  1  0.00633837  0.67090804  0.00091054  1
  Sb  Sb55  1  0.50002496  0.67033196  0.83709512  1
  Sb  Sb56  1  0.17375822  0.49302552  0.33021798  1
  Sb  Sb57  1  0.66519834  0.15773888  0.50003532  1
  Sb  Sb58  1  0.49508540  0.33663851  0.16825141  1
  Sb  Sb59  1  0.17235946  0.83991163  0.33954433  1
  Sb  Sb60  1  0.33710598  0.83534337  0.83155603  1
  Sb  Sb61  1  0.82762164  0.49887158  0.33457100  1
  Sb  Sb62  1  0.65510814  0.16794231  0.16961888  1
  Sb  Sb63  1  0.82643034  0.67147399  0.16970540  1
  Sb  Sb64  1  0.84337738  0.16110883  -0.00640630  1
  Sb  Sb65  1  0.65980667  0.66890992  0.00442625  1
  Sb  Sb66  1  0.33298213  0.16850377  0.83244191  1
  Sb  Sb67  1  0.49834747  0.67377183  0.49590634  1
  Sb  Sb68  1  0.49127602  0.16440844  0.00438707  1
  Sb  Sb69  1  0.83549738  0.33271572  0.16577171  1
  Sb  Sb70  1  0.16428693  0.16354813  0.66342603  1
  Sb  Sb71  1  -0.00347763  0.67269812  0.33607523  1
  Sb  Sb72  1  0.33967015  0.49623385  0.84171373  1
  Sb  Sb73  1  0.17319200  0.00015486  0.17077885  1
  Sb  Sb74  1  0.16907021  0.50058630  0.66941245  1
  Sb  Sb75  1  0.00075165  0.49162010  0.49891951  1
  Sb  Sb76  1  0.66180050  0.33561564  -0.00227327  1
  Sb  Sb77  1  0.49899348  0.50191307  0.66805629  1
  Sb  Sb78  1  0.83091110  -0.00234643  0.16620446  1
  Sb  Sb79  1  0.33420631  -0.00016228  0.66542567  1
  Sb  Sb80  1  0.16520285  0.00232895  0.83099319  1
  Sb  Sb81  1  0.33588661  0.49922006  0.49533105  1
  Sb  Sb82  1  0.00336518  0.67409129  0.66374173  1
  Sb  Sb83  1  0.66634928  0.16186877  0.83250014  1
  Sb  Sb84  1  0.16981735  0.33149096  0.15964229  1
  Sb  Sb85  1  -0.00368486  0.49698122  0.83458329  1
  Sb  Sb86  1  0.16932301  0.32833844  0.50378389  1
  Sb  Sb87  1  0.17158887  0.83616017  -0.00466724  1
  Sb  Sb88  1  0.83579732  0.16515756  0.34139051  1
  Sb  Sb89  1  0.66373403  0.50509735  0.49986560  1
  Sb  Sb90  1  0.82986886  0.50208358  -0.00201264  1
  Sb  Sb91  1  0.33846569  0.66543016  0.33293409  1
  Sb  Sb92  1  0.66686308  0.32819622  0.66663545  1
  Sb  Sb93  1  0.66159756  0.33160875  0.33613127  1
  Sb  Sb94  1  0.82814303  0.83665831  0.33803975  1
  Sb  Sb95  1  0.66166963  0.67632483  0.66258582  1
  Sb  Sb96  1  0.17499180  0.66924531  0.17008141  1
  Sb  Sb97  1  0.66336310  -0.00324850  -0.00112040  1
  Sb  Sb98  1  0.65923241  0.83204223  0.16913024  1
  Sb  Sb99  1  0.83154980  0.67460223  0.82778320  1
  Sb  Sb100  1  0.00408309  0.50196539  0.16540911  1
  Sb  Sb101  1  0.83245341  0.50033528  0.66708808  1
  Sb  Sb102  1  0.16862580  0.66445815  0.83103335  1
  Sb  Sb103  1  0.50119154  0.16117665  0.66117075  1
  Sb  Sb104  1  0.00021222  0.84403285  0.50180530  1
  Sb  Sb105  1  0.33802952  0.00592794  0.33200769  1
  Sb  Sb106  1  0.00025520  0.16378266  0.82686175  1
  Sb  Sb107  1  0.00550004  0.16047534  0.17157011  1
  Te  Te108  1  0.17338376  0.16562048  0.16919792  1
  Te  Te109  1  0.16850999  0.16308545  0.49726325  1
  Te  Te110  1  0.16652153  0.17172511  0.83871967  1
  Te  Te111  1  0.17316833  0.50212548  0.16083465  1
  Te  Te112  1  0.16758765  0.50848894  0.49969864  1
  Te  Te113  1  0.16433192  0.49517068  0.83849777  1
  Te  Te114  1  0.16985832  0.83336246  0.16771039  1
  Te  Te115  1  0.16730333  0.83694144  0.50334909  1
  Te  Te116  1  0.16309905  0.83328989  0.82604401  1
  Te  Te117  1  0.49197689  0.16033265  0.17199146  1
  Te  Te118  1  0.49757338  0.16651749  0.49790280  1
  Te  Te119  1  0.50068442  0.16779708  0.83256616  1
  Te  Te120  1  0.49769637  0.49803364  0.16573299  1
  Te  Te121  1  0.50077576  0.49252621  0.49731672  1
  Te  Te122  1  0.50540919  0.49752191  0.83536185  1
  Te  Te123  1  0.49913345  0.83325208  0.16495039  1
  Te  Te124  1  0.49967614  0.83488747  0.49944849  1
  Te  Te125  1  0.50283072  0.83556520  0.83527027  1
  Te  Te126  1  0.83066210  0.16652421  0.16706134  1
  Te  Te127  1  0.83408943  0.16530793  0.50357279  1
  Te  Te128  1  0.83317761  0.16547849  0.82695114  1
  Te  Te129  1  0.82887972  0.50231470  0.16583147  1
  Te  Te130  1  0.83219411  0.49338699  0.49937183  1
  Te  Te131  1  0.82700644  0.49585306  0.83459449  1
  Te  Te132  1  0.83617062  0.83315473  0.16057305  1
  Te  Te133  1  0.83339400  0.83861344  0.50228786  1
  Te  Te134  1  0.83182023  0.83582857  0.83145358  1
  Te  Te135  1  0.16777294  0.00318994  -0.00027812  1
  Te  Te136  1  0.15912302  0.00462905  0.33768997  1
  Te  Te137  1  0.16564803  -0.00336776  0.66301574  1
  Te  Te138  1  0.16762640  0.33202386  -0.00308182  1
  Te  Te139  1  0.16753285  0.32848731  0.33524581  1
  Te  Te140  1  0.16744632  0.33265805  0.67183538  1
  Te  Te141  1  0.17479865  0.66372967  0.00067901  1
  Te  Te142  1  0.16514699  0.66537888  0.34029605  1
  Te  Te143  1  0.17108843  0.67017457  0.66283346  1
  Te  Te144  1  0.49737849  -0.00094262  -0.00403682  1
  Te  Te145  1  0.49887811  -0.00075976  0.33590442  1
  Te  Te146  1  0.49951791  -0.00295927  0.66838646  1
  Te  Te147  1  0.49521744  0.33352181  -0.00356023  1
  Te  Te148  1  0.49732695  0.33097489  0.33531912  1
  Te  Te149  1  0.49863502  0.33284818  0.66666277  1
  Te  Te150  1  0.49489459  0.66730504  0.00315455  1
  Te  Te151  1  0.50210245  0.66480998  0.33024558  1
  Te  Te152  1  0.49335547  0.67163352  0.66613611  1
  Te  Te153  1  0.83613624  -0.00459827  -0.00257358  1
  Te  Te154  1  0.83634403  0.00073340  0.33498399  1
  Te  Te155  1  0.83390990  -0.00248978  0.66718448  1
  Te  Te156  1  0.83592581  0.33203840  -0.00522142  1
  Te  Te157  1  0.83583787  0.33224823  0.33723023  1
  Te  Te158  1  0.83403619  0.33421809  0.66679680  1
  Te  Te159  1  0.83599342  0.67390749  -0.00002283  1
  Te  Te160  1  0.82749013  0.66672876  0.33960634  1
  Te  Te161  1  0.83356127  0.66937146  0.66008116  1
  Te  Te162  1  0.00678751  0.16695394  0.00382163  1
  Te  Te163  1  0.00166057  0.16539164  0.33666420  1
  Te  Te164  1  -0.00172874  0.16591357  0.66139011  1
  Te  Te165  1  0.00230420  0.49670561  0.00190955  1
  Te  Te166  1  0.00125016  0.49331167  0.33031952  1
  Te  Te167  1  0.00093116  0.49129764  0.66761387  1
  Te  Te168  1  0.00404224  0.83546067  -0.00194986  1
  Te  Te169  1  0.00024105  0.83926041  0.32821721  1
  Te  Te170  1  -0.00211538  0.83624307  0.66817388  1
  Te  Te171  1  0.32889859  0.16792276  0.00003542  1
  Te  Te172  1  0.33328193  0.16814493  0.33464532  1
  Te  Te173  1  0.33271436  0.17312409  0.65895184  1
  Te  Te174  1  0.33583410  0.49720940  0.00235652  1
  Te  Te175  1  0.33877399  0.49357511  0.32698466  1
  Te  Te176  1  0.33316324  0.49479167  0.66645601  1
  Te  Te177  1  0.33620687  0.83486348  -0.00013312  1
  Te  Te178  1  0.33837850  0.83213432  0.33396581  1
  Te  Te179  1  0.33452265  0.83361847  0.66469299  1
  Te  Te180  1  0.66906570  0.16668897  0.00193046  1
  Te  Te181  1  0.65997241  0.16015809  0.33268368  1
  Te  Te182  1  0.67377355  0.15776454  0.66687847  1
  Te  Te183  1  0.66144432  0.50205380  0.00035373  1
  Te  Te184  1  0.66067790  0.50022813  0.33151694  1
  Te  Te185  1  0.66534178  0.50262276  0.67304860  1
  Te  Te186  1  0.66446675  0.83260066  -0.00302248  1
  Te  Te187  1  0.66243137  0.83534446  0.33504716  1
  Te  Te188  1  0.66395782  0.83603094  0.66581343  1
  Te  Te189  1  -0.00124813  -0.00387856  0.15889477  1
  Te  Te190  1  -0.00202531  0.00322126  0.50280250  1
  Te  Te191  1  -0.00064043  -0.00131189  0.83469031  1
  Te  Te192  1  -0.00015103  0.33253752  0.16860833  1
  Te  Te193  1  0.00052506  0.32732292  0.50146589  1
  Te  Te194  1  -0.00217209  0.33253321  0.83333349  1
  Te  Te195  1  -0.00007899  0.67426906  0.16816536  1
  Te  Te196  1  -0.00416333  0.66247173  0.49938242  1
  Te  Te197  1  -0.00010541  0.67208298  0.83281798  1
  Te  Te198  1  0.33704545  -0.00318710  0.16317236  1
  Te  Te199  1  0.33399765  -0.00033666  0.50029258  1
  Te  Te200  1  0.33694165  0.00161769  0.83948998  1
  Te  Te201  1  0.33323197  0.33079337  0.16609974  1
  Te  Te202  1  0.33497654  0.33268690  0.50008038  1
  Te  Te203  1  0.33558466  0.33320382  0.83213454  1
  Te  Te204  1  0.33800890  0.66976273  0.16459467  1
  Te  Te205  1  0.33131933  0.66955504  0.50214384  1
  Te  Te206  1  0.33266448  0.66501077  0.83116979  1
  Te  Te207  1  0.66002661  0.00037213  0.17113779  1
  Te  Te208  1  0.66435382  -0.00312381  0.50081526  1
  Te  Te209  1  0.66641111  -0.00408210  0.83282460  1
  Te  Te210  1  0.66680290  0.34063960  0.16664186  1
  Te  Te211  1  0.66868558  0.33579285  0.50085047  1
  Te  Te212  1  0.66517383  0.33460649  0.83259744  1
  Te  Te213  1  0.66041622  0.66246329  0.17275113  1
  Te  Te214  1  0.67003010  0.67214792  0.49595155  1
  Te  Te215  1  0.66734791  0.66759548  0.83349384  1
