# generated using pymatgen
data_AgSbTe2
_symmetry_space_group_name_H-M   'P 1'
_cell_length_a   18.36181635
_cell_length_b   18.36266049
_cell_length_c   18.33993010
_cell_angle_alpha   89.99817806
_cell_angle_beta   90.00689671
_cell_angle_gamma   89.99912897
_symmetry_Int_Tables_number   1
_chemical_formula_structural   AgSbTe2
_chemical_formula_sum   'Ag54 Sb54 Te108'
_cell_volume   6183.70718531
_cell_formula_units_Z   54
loop_
 _symmetry_equiv_pos_site_id
 _symmetry_equiv_pos_as_xyz
  1  'x, y, z'
loop_
 _atom_site_type_symbol
 _atom_site_label
 _atom_site_symmetry_multiplicity
 _atom_site_fract_x
 _atom_site_fract_y
 _atom_site_fract_z
 _atom_site_occupancy
  Ag  Ag0  1  0.65568742  0.00018860  0.00895730  1
  Ag  Ag1  1  0.49747287  0.16748859  0.00498730  1
  Ag  Ag2  1  0.65845039  0.83399324  0.17053865  1
  Ag  Ag3  1  0.50771736  0.16536211  0.65997819  1
  Ag  Ag4  1  0.49167117  0.49436234  0.01305682  1
  Ag  Ag5  1  0.33760444  0.66848104  0.66425436  1
  Ag  Ag6  1  0.83319803  0.67299705  0.18008572  1
  Ag  Ag7  1  0.49810768  0.34082257  0.17190145  1
  Ag  Ag8  1  0.00613850  0.33563236  0.00301343  1
  Ag  Ag9  1  0.82998060  0.15981081  0.66120747  1
  Ag  Ag10  1  0.16538546  -0.00204671  0.82598278  1
  Ag  Ag11  1  0.83227263  0.66152085  0.49236938  1
  Ag  Ag12  1  0.17335932  0.50842007  0.00477329  1
  Ag  Ag13  1  0.16810685  0.82973025  0.01469206  1
  Ag  Ag14  1  0.49532859  -0.00296550  0.17214769  1
  Ag  Ag15  1  0.33023247  0.66399931  0.01250434  1
  Ag  Ag16  1  0.15615984  -0.00320775  0.49988961  1
  Ag  Ag17  1  -0.00478388  0.32006283  0.65864397  1
  Ag  Ag18  1  -0.00907285  0.50060068  0.49832863  1
  Ag  Ag19  1  0.33808954  0.50027179  0.48845926  1
  Ag  Ag20  1  0.82748927  -0.00758155  0.16887095  1
  Ag  Ag21  1  0.50005253  0.00531789  0.49092027  1
  Ag  Ag22  1  0.16096964  0.83550914  0.65887745  1
  Ag  Ag23  1  0.83654756  0.82761196  0.33586790  1
  Ag  Ag24  1  0.50203786  0.50513710  0.33194271  1
  Ag  Ag25  1  0.82167178  0.51533820  0.33755814  1
  Ag  Ag26  1  0.67098444  0.17520702  0.50275917  1
  Ag  Ag27  1  0.17454954  0.66669684  0.16473574  1
  Ag  Ag28  1  0.00260257  -0.01017415  0.33877355  1
  Ag  Ag29  1  0.66304152  0.34399634  0.34300933  1
  Ag  Ag30  1  -0.00946064  0.67127765  0.33141175  1
  Ag  Ag31  1  0.33716394  0.16420141  0.16356777  1
  Ag  Ag32  1  0.33652140  -0.00387416  0.33036839  1
  Ag  Ag33  1  -0.00043770  0.84024827  0.49667450  1
  Ag  Ag34  1  0.50266794  0.83016728  0.32931739  1
  Ag  Ag35  1  0.16076877  0.83399994  0.33277427  1
  Ag  Ag36  1  -0.00572736  0.00329905  0.65664971  1
  Ag  Ag37  1  0.18227559  0.34077031  0.16373843  1
  Ag  Ag38  1  0.67270807  0.32101621  0.65578093  1
  Ag  Ag39  1  0.33674524  0.83162247  0.16878284  1
  Ag  Ag40  1  0.49292984  0.66729874  0.16997326  1
  Ag  Ag41  1  0.67314572  0.00106743  0.66248648  1
  Ag  Ag42  1  0.82240299  0.33830475  0.49874001  1
  Ag  Ag43  1  0.66668630  0.67050704  0.65642980  1
  Ag  Ag44  1  0.33683546  0.50360110  0.16767934  1
  Ag  Ag45  1  0.01170337  0.66318609  0.00960203  1
  Ag  Ag46  1  -0.00875871  0.15924650  0.50295780  1
  Ag  Ag47  1  0.00026937  0.16565624  0.82026534  1
  Ag  Ag48  1  0.66845313  0.48731229  0.49452816  1
  Ag  Ag49  1  0.32998532  0.34173769  0.00826107  1
  Ag  Ag50  1  0.51033193  0.33036937  0.49242282  1
  Ag  Ag51  1  0.67750801  0.66434438  0.33643264  1
  Ag  Ag52  1  0.83624845  0.83772673  0.65637311  1
  Ag  Ag53  1  0.33638466  0.00006965  0.01144119  1
  Sb  Sb54  1  0.49597943  0.00132929  0.83526599  1
  Sb  Sb55  1  0.83724439  0.00000537  0.83241465  1
  Sb  Sb56  1  -0.00390384  0.33515306  0.33569783  1
  Sb  Sb57  1  0.00047797  0.49585295  0.83099072  1
  Sb  Sb58  1  0.16646668  0.67275146  0.84002895  1
  Sb  Sb59  1  0.16460366  0.16154123  0.66598416  1
  Sb  Sb60  1  0.83533232  0.33186466  0.82245054  1
  Sb  Sb61  1  0.00240340  0.83097657  0.17490834  1
  Sb  Sb62  1  0.83338095  -0.00185779  0.49690430  1
  Sb  Sb63  1  0.17175046  -0.00488742  0.17070770  1
  Sb  Sb64  1  0.00232597  0.83742408  0.82793920  1
  Sb  Sb65  1  0.66525215  0.49999724  0.82496765  1
  Sb  Sb66  1  0.66923622  0.16488927  0.82571306  1
  Sb  Sb67  1  0.33206231  0.50095710  0.84130581  1
  Sb  Sb68  1  0.82838529  0.33462310  0.17384994  1
  Sb  Sb69  1  -0.00135453  0.67113568  0.65994435  1
  Sb  Sb70  1  0.66034786  0.16196470  0.17293783  1
  Sb  Sb71  1  0.65787357  0.50700305  0.17483701  1
  Sb  Sb72  1  0.83277579  0.49995624  0.65662143  1
  Sb  Sb73  1  0.83928661  0.83344717  0.00705705  1
  Sb  Sb74  1  0.83325792  0.50185306  0.01416341  1
  Sb  Sb75  1  0.67255061  0.83408481  0.49453015  1
  Sb  Sb76  1  0.66333294  0.67063805  0.00965914  1
  Sb  Sb77  1  0.49324597  0.83482336  0.00961148  1
  Sb  Sb78  1  0.83524361  0.66779116  0.82876302  1
  Sb  Sb79  1  0.32950963  0.83073442  0.49373164  1
  Sb  Sb80  1  0.66762180  0.83489861  0.83559808  1
  Sb  Sb81  1  0.33663041  0.16874918  0.49560676  1
  Sb  Sb82  1  0.49913638  0.66574466  0.83981154  1
  Sb  Sb83  1  0.33057735  0.16433552  0.83852805  1
  Sb  Sb84  1  0.50218179  0.83638028  0.65517845  1
  Sb  Sb85  1  0.16700996  0.50629208  0.66786730  1
  Sb  Sb86  1  0.33081489  0.83415495  0.84101282  1
  Sb  Sb87  1  0.16923053  0.50545178  0.32924177  1
  Sb  Sb88  1  0.50104455  0.16590724  0.33214507  1
  Sb  Sb89  1  0.49997322  0.33162510  0.83435510  1
  Sb  Sb90  1  0.50184376  0.49815825  0.65872111  1
  Sb  Sb91  1  0.00438360  -0.00088971  0.00275566  1
  Sb  Sb92  1  0.17124106  0.16382201  0.00285395  1
  Sb  Sb93  1  0.83044852  0.16583174  -0.00332381  1
  Sb  Sb94  1  0.16711665  0.15997630  0.33315166  1
  Sb  Sb95  1  0.16286125  0.67080799  0.49408298  1
  Sb  Sb96  1  0.33816484  0.33178482  0.32635642  1
  Sb  Sb97  1  0.00459014  0.16608512  0.17077450  1
  Sb  Sb98  1  0.16585900  0.33069409  0.49508136  1
  Sb  Sb99  1  0.83183774  0.16273825  0.33932086  1
  Sb  Sb100  1  0.33366365  0.67061188  0.33060393  1
  Sb  Sb101  1  0.33373370  0.33601727  0.66725583  1
  Sb  Sb102  1  0.33210046  -0.00301936  0.66216680  1
  Sb  Sb103  1  0.50449907  0.66546730  0.49246662  1
  Sb  Sb104  1  0.66303428  0.32990129  0.00316509  1
  Sb  Sb105  1  0.00541683  0.50327983  0.17171608  1
  Sb  Sb106  1  0.16462541  0.32774859  0.83927622  1
  Sb  Sb107  1  0.66595803  -0.00390405  0.33461052  1
  Te  Te108  1  0.17278604  0.17466911  0.16754135  1
  Te  Te109  1  0.16661003  0.16057903  0.50022001  1
  Te  Te110  1  0.16089873  0.15908450  0.83394558  1
  Te  Te111  1  0.17056386  0.50167354  0.16316226  1
  Te  Te112  1  0.17308628  0.50013050  0.49966852  1
  Te  Te113  1  0.16529577  0.49993144  0.84277990  1
  Te  Te114  1  0.16901785  0.83032404  0.17160415  1
  Te  Te115  1  0.16341053  0.83625200  0.49704066  1
  Te  Te116  1  0.16675343  0.83916637  0.82262464  1
  Te  Te117  1  0.49716082  0.16001297  0.16459758  1
  Te  Te118  1  0.50002175  0.16755491  0.50029282  1
  Te  Te119  1  0.50026545  0.16664604  0.83463614  1
  Te  Te120  1  0.49832315  0.50010464  0.17050155  1
  Te  Te121  1  0.50010721  0.49848891  0.49511081  1
  Te  Te122  1  0.50004891  0.49937630  0.84265111  1
  Te  Te123  1  0.49863987  0.83502999  0.16883650  1
  Te  Te124  1  0.49870306  0.83808425  0.49051945  1
  Te  Te125  1  0.49965991  0.83329606  0.83085745  1
  Te  Te126  1  0.83291788  0.16371863  0.16607108  1
  Te  Te127  1  0.83265188  0.16765189  0.50328436  1
  Te  Te128  1  0.83998570  0.16621287  0.82496097  1
  Te  Te129  1  0.83268665  0.50398093  0.17800920  1
  Te  Te130  1  0.83135644  0.49980644  0.49646419  1
  Te  Te131  1  0.83225880  0.49994080  0.83759105  1
  Te  Te132  1  0.83425382  0.83285734  0.16978430  1
  Te  Te133  1  0.83760302  0.83199525  0.49780043  1
  Te  Te134  1  0.83443667  0.83356806  0.82289947  1
  Te  Te135  1  0.17043204  -0.00614314  0.00278929  1
  Te  Te136  1  0.16354437  -0.00492671  0.33669548  1
  Te  Te137  1  0.16693273  -0.00397635  0.66215419  1
  Te  Te138  1  0.16698583  0.33131098  0.00390656  1
  Te  Te139  1  0.16612618  0.33313348  0.32568226  1
  Te  Te140  1  0.16333323  0.33540921  0.66803841  1
  Te  Te141  1  0.16955368  0.66863977  0.00260598  1
  Te  Te142  1  0.16427760  0.67200434  0.32758437  1
  Te  Te143  1  0.16715501  0.67296476  0.66782538  1
  Te  Te144  1  0.49687619  0.00001194  0.00140711  1
  Te  Te145  1  0.50106709  -0.00133275  0.33180363  1
  Te  Te146  1  0.50047907  0.00410090  0.66751487  1
  Te  Te147  1  0.49939875  0.33237442  0.00154915  1
  Te  Te148  1  0.50140944  0.33392652  0.33316469  1
  Te  Te149  1  0.50126012  0.33001454  0.66429926  1
  Te  Te150  1  0.49581408  0.66458465  0.00664316  1
  Te  Te151  1  0.49928753  0.66750659  0.32894649  1
  Te  Te152  1  0.50197214  0.66731535  0.66703297  1
  Te  Te153  1  0.83134051  0.00011785  0.00444378  1
  Te  Te154  1  0.83521850  -0.00427659  0.32890211  1
  Te  Te155  1  0.83457659  -0.00014502  0.66704147  1
  Te  Te156  1  0.83456841  0.33313978  -0.00021884  1
  Te  Te157  1  0.82840468  0.33277199  0.33888275  1
  Te  Te158  1  0.83531789  0.33344993  0.65882585  1
  Te  Te159  1  0.83344835  0.66726192  0.00106092  1
  Te  Te160  1  0.83442275  0.67010394  0.33615180  1
  Te  Te161  1  0.83079672  0.67035241  0.66208492  1
  Te  Te162  1  -0.00107616  0.16971340  0.00147714  1
  Te  Te163  1  -0.00024507  0.16456138  0.34023688  1
  Te  Te164  1  0.00240451  0.16381882  0.66220690  1
  Te  Te165  1  0.00020681  0.49895929  -0.00035331  1
  Te  Te166  1  0.00179076  0.50310293  0.33927824  1
  Te  Te167  1  0.00094265  0.49998708  0.66181596  1
  Te  Te168  1  0.00699029  0.82907519  -0.00343516  1
  Te  Te169  1  -0.00099376  0.83172577  0.33642209  1
  Te  Te170  1  -0.00046991  0.83576068  0.66134160  1
  Te  Te171  1  0.33746917  0.16224373  0.00345124  1
  Te  Te172  1  0.33344473  0.15896021  0.32704609  1
  Te  Te173  1  0.33954973  0.16791320  0.66828898  1
  Te  Te174  1  0.33301136  0.50193425  0.00413332  1
  Te  Te175  1  0.33628636  0.49897417  0.33029370  1
  Te  Te176  1  0.33347718  0.50530558  0.66903563  1
  Te  Te177  1  0.32888032  0.83014238  0.00582628  1
  Te  Te178  1  0.33534753  0.83650631  0.32959157  1
  Te  Te179  1  0.33338249  0.82981319  0.66601705  1
  Te  Te180  1  0.66189993  0.16159985  -0.00194562  1
  Te  Te181  1  0.66774373  0.17204552  0.34112961  1
  Te  Te182  1  0.66832750  0.16315250  0.66379587  1
  Te  Te183  1  0.66322382  0.50001180  -0.00268976  1
  Te  Te184  1  0.66311973  0.50319230  0.33534988  1
  Te  Te185  1  0.66666038  0.50638049  0.65785435  1
  Te  Te186  1  0.66892994  0.83951513  0.00416555  1
  Te  Te187  1  0.66654122  0.83040619  0.32958905  1
  Te  Te188  1  0.66859617  0.83601853  0.66737132  1
  Te  Te189  1  -0.00262492  0.00110306  0.17091161  1
  Te  Te190  1  -0.00228096  -0.00032146  0.49986997  1
  Te  Te191  1  0.00444392  0.00454320  0.83387651  1
  Te  Te192  1  -0.00342903  0.33388437  0.16379727  1
  Te  Te193  1  0.00265537  0.33542336  0.50053650  1
  Te  Te194  1  -0.00005681  0.32822644  0.83410271  1
  Te  Te195  1  -0.00338357  0.66579642  0.16777598  1
  Te  Te196  1  -0.00268752  0.66252828  0.49671967  1
  Te  Te197  1  -0.00008839  0.66456657  0.84183788  1
  Te  Te198  1  0.33240998  -0.00190678  0.16890047  1
  Te  Te199  1  0.33959755  0.00079939  0.49522871  1
  Te  Te200  1  0.32631336  -0.00016236  0.83803694  1
  Te  Te201  1  0.33912802  0.33442561  0.16519389  1
  Te  Te202  1  0.33467698  0.33836528  0.50062874  1
  Te  Te203  1  0.33221191  0.33256156  0.84371079  1
  Te  Te204  1  0.33375825  0.66657387  0.16827901  1
  Te  Te205  1  0.33338616  0.66212445  0.50264482  1
  Te  Te206  1  0.33365402  0.66744821  0.82579514  1
  Te  Te207  1  0.66539765  -0.00251382  0.16806067  1
  Te  Te208  1  0.66201848  0.00109221  0.50236399  1
  Te  Te209  1  0.66720424  -0.00047846  0.83137934  1
  Te  Te210  1  0.65961922  0.33183088  0.16933114  1
  Te  Te211  1  0.66556717  0.33149627  0.50072755  1
  Te  Te212  1  0.66780102  0.33341024  0.82222368  1
  Te  Te213  1  0.66920048  0.67237091  0.17119642  1
  Te  Te214  1  0.66861678  0.67031924  0.49707808  1
  Te  Te215  1  0.66687579  0.66739905  0.82511257  1
