# generated using pymatgen
data_AgSbTe2
_symmetry_space_group_name_H-M   'P 1'
_cell_length_a   18.32697320
_cell_length_b   18.32662330
_cell_length_c   18.31976766
_cell_angle_alpha   89.99867636
_cell_angle_beta   89.99663276
_cell_angle_gamma   89.99920960
_symmetry_Int_Tables_number   1
_chemical_formula_structural   AgSbTe2
_chemical_formula_sum   'Ag54 Sb54 Te108'
_cell_volume   6153.08845534
_cell_formula_units_Z   54
loop_
 _symmetry_equiv_pos_site_id
 _symmetry_equiv_pos_as_xyz
  1  'x, y, z'
loop_
 _atom_site_type_symbol
 _atom_site_label
 _atom_site_symmetry_multiplicity
 _atom_site_fract_x
 _atom_site_fract_y
 _atom_site_fract_z
 _atom_site_occupancy
  Ag  Ag0  1  0.16839544  0.01132726  0.17159606  1
  Ag  Ag1  1  0.66511061  -0.00073774  0.67323287  1
  Ag  Ag2  1  0.16497114  0.16779232  0.33311351  1
  Ag  Ag3  1  0.33234225  0.49481365  0.49627578  1
  Ag  Ag4  1  0.34406281  0.83093705  0.83296409  1
  Ag  Ag5  1  0.33428736  0.66388646  0.32489540  1
  Ag  Ag6  1  0.50330640  -0.00494052  0.83551016  1
  Ag  Ag7  1  0.83488114  0.33090109  0.50846896  1
  Ag  Ag8  1  0.33085657  0.32755638  0.67071770  1
  Ag  Ag9  1  0.84002509  0.17428666  0.33912299  1
  Ag  Ag10  1  0.66022939  0.66290701  -0.00739178  1
  Ag  Ag11  1  0.17210992  0.65822025  0.17059157  1
  Ag  Ag12  1  0.49460506  0.17839023  -0.00113804  1
  Ag  Ag13  1  0.83559185  0.50404087  0.33085099  1
  Ag  Ag14  1  0.33194867  0.33689164  -0.00290282  1
  Ag  Ag15  1  0.83809699  0.33436608  0.16488977  1
  Ag  Ag16  1  0.49820006  0.66546543  0.16360291  1
  Ag  Ag17  1  0.34182177  0.65782462  0.00597942  1
  Ag  Ag18  1  0.16697414  0.00689093  0.49446369  1
  Ag  Ag19  1  0.16536689  0.82239760  0.33224959  1
  Ag  Ag20  1  0.83706007  0.17783319  0.66168439  1
  Ag  Ag21  1  0.66935309  0.50607035  0.83501141  1
  Ag  Ag22  1  0.16493854  0.50558752  0.32662000  1
  Ag  Ag23  1  -0.00011286  0.83392466  0.49777532  1
  Ag  Ag24  1  0.00090280  0.66449814  0.33547983  1
  Ag  Ag25  1  0.16456313  0.33660257  0.16261796  1
  Ag  Ag26  1  0.16630819  0.16867372  0.65821721  1
  Ag  Ag27  1  0.83421143  0.82265439  0.33779294  1
  Ag  Ag28  1  -0.00634204  0.33512390  0.67114411  1
  Ag  Ag29  1  0.00355950  0.33706192  -0.00244510  1
  Ag  Ag30  1  0.67631720  0.33390255  0.67672856  1
  Ag  Ag31  1  0.66325918  0.82094279  0.83551376  1
  Ag  Ag32  1  0.49727341  0.50038799  0.00064686  1
  Ag  Ag33  1  0.66277440  -0.00377470  -0.00839355  1
  Ag  Ag34  1  -0.00512559  0.66081510  0.66419231  1
  Ag  Ag35  1  0.82164525  0.65938932  0.83009964  1
  Ag  Ag36  1  0.49825948  0.50583410  0.32520982  1
  Ag  Ag37  1  0.66664672  0.82857917  0.16167017  1
  Ag  Ag38  1  0.00373466  0.49794713  0.16524522  1
  Ag  Ag39  1  0.33476351  0.00832818  0.66783860  1
  Ag  Ag40  1  0.67454822  0.66744750  0.67968755  1
  Ag  Ag41  1  0.32697704  0.16786117  0.16681169  1
  Ag  Ag42  1  0.82482881  0.33943388  0.82978627  1
  Ag  Ag43  1  0.00626698  0.16658940  0.50060472  1
  Ag  Ag44  1  0.66415708  0.66716113  0.32936736  1
  Ag  Ag45  1  0.50683110  0.33724576  0.83772115  1
  Ag  Ag46  1  0.66134838  0.33765506  -0.00548475  1
  Ag  Ag47  1  0.17066361  0.49480602  0.00691219  1
  Ag  Ag48  1  0.83097239  0.83142512  0.66357166  1
  Ag  Ag49  1  0.50308598  0.82199830  0.33144523  1
  Ag  Ag50  1  0.32513570  0.17123528  0.49935114  1
  Ag  Ag51  1  -0.00660509  0.49780486  0.83803633  1
  Ag  Ag52  1  0.17327366  0.17672285  0.01220821  1
  Ag  Ag53  1  0.50998294  0.66415969  0.84229137  1
  Sb  Sb54  1  0.82429143  -0.00073495  0.83068300  1
  Sb  Sb55  1  0.83762518  0.00386353  0.50138031  1
  Sb  Sb56  1  0.83279513  0.17339041  -0.00120456  1
  Sb  Sb57  1  0.00341899  -0.00364657  0.33437978  1
  Sb  Sb58  1  0.66541583  0.49981605  0.50237341  1
  Sb  Sb59  1  0.67262208  0.83203624  0.50195320  1
  Sb  Sb60  1  0.33824050  0.00271908  -0.00424836  1
  Sb  Sb61  1  0.49533364  0.00060595  0.50468297  1
  Sb  Sb62  1  0.50123872  0.82625899  -0.00061726  1
  Sb  Sb63  1  0.50570197  0.83242894  0.66704558  1
  Sb  Sb64  1  0.33597039  0.83212003  0.16452450  1
  Sb  Sb65  1  0.16653300  0.33340715  0.83966930  1
  Sb  Sb66  1  0.49801165  0.33991165  0.15873433  1
  Sb  Sb67  1  0.32664964  0.49812806  0.16763513  1
  Sb  Sb68  1  0.32839692  0.83359157  0.50145778  1
  Sb  Sb69  1  0.33412415  0.16743205  0.83343374  1
  Sb  Sb70  1  0.33095909  0.33928753  0.33135053  1
  Sb  Sb71  1  0.16243740  0.83702938  0.66158500  1
  Sb  Sb72  1  0.82953759  0.83127540  -0.00084908  1
  Sb  Sb73  1  0.66872978  0.16803033  0.50200073  1
  Sb  Sb74  1  -0.00084624  0.33807028  0.33251838  1
  Sb  Sb75  1  0.66455840  0.16514479  0.16486656  1
  Sb  Sb76  1  0.16613598  0.49423529  0.66644742  1
  Sb  Sb77  1  0.16328511  0.32834543  0.49687289  1
  Sb  Sb78  1  0.33355519  0.66522422  0.66907364  1
  Sb  Sb79  1  -0.00046233  0.01072323  0.00010955  1
  Sb  Sb80  1  -0.00082845  0.17591332  0.82796955  1
  Sb  Sb81  1  0.66747665  -0.00719203  0.33364456  1
  Sb  Sb82  1  0.49556263  0.16955947  0.32722350  1
  Sb  Sb83  1  0.83376132  0.49885501  0.66633388  1
  Sb  Sb84  1  0.16844608  0.83110349  0.00672911  1
  Sb  Sb85  1  0.66979656  0.50459275  0.16103674  1
  Sb  Sb86  1  -0.00065450  0.65835027  0.00089436  1
  Sb  Sb87  1  0.00223692  0.49739439  0.49785131  1
  Sb  Sb88  1  0.50125371  0.33449453  0.50506108  1
  Sb  Sb89  1  0.83156114  0.49763688  0.00044833  1
  Sb  Sb90  1  -0.00084757  0.00360527  0.66630045  1
  Sb  Sb91  1  -0.00288794  0.82542232  0.17262636  1
  Sb  Sb92  1  0.50085990  0.49978443  0.67150823  1
  Sb  Sb93  1  0.83137065  0.66190077  0.16739497  1
  Sb  Sb94  1  0.49747766  -0.00480655  0.16086858  1
  Sb  Sb95  1  0.83445630  0.66227137  0.50122716  1
  Sb  Sb96  1  0.49915842  0.66595056  0.49578208  1
  Sb  Sb97  1  0.83630872  0.00340459  0.16814255  1
  Sb  Sb98  1  0.66593120  0.17166006  0.83401741  1
  Sb  Sb99  1  0.17318637  0.00046374  0.83277788  1
  Sb  Sb100  1  0.49922843  0.16784528  0.67259597  1
  Sb  Sb101  1  0.33016389  -0.00387483  0.33607774  1
  Sb  Sb102  1  -0.00585055  0.82435458  0.82759160  1
  Sb  Sb103  1  0.16769633  0.66522826  0.83888518  1
  Sb  Sb104  1  0.67118064  0.33949795  0.33007989  1
  Sb  Sb105  1  0.16543016  0.66750860  0.49211874  1
  Sb  Sb106  1  0.00645987  0.17446749  0.17286579  1
  Sb  Sb107  1  0.33573511  0.50187615  0.83501445  1
  Te  Te108  1  0.16719022  0.16970215  0.16914559  1
  Te  Te109  1  0.16710653  0.16737389  0.49885747  1
  Te  Te110  1  0.16610358  0.16491208  0.83020916  1
  Te  Te111  1  0.16571422  0.49857466  0.16671601  1
  Te  Te112  1  0.17088961  0.49801570  0.49488086  1
  Te  Te113  1  0.16187320  0.50099996  0.83785538  1
  Te  Te114  1  0.16623037  0.83003712  0.17321654  1
  Te  Te115  1  0.16162168  0.83957326  0.49415528  1
  Te  Te116  1  0.16768599  0.83337204  0.83313981  1
  Te  Te117  1  0.49433656  0.16578395  0.16087538  1
  Te  Te118  1  0.49078919  0.16696780  0.49725624  1
  Te  Te119  1  0.49927614  0.16931452  0.83983136  1
  Te  Te120  1  0.50232027  0.50592478  0.16520558  1
  Te  Te121  1  0.49395285  0.49869701  0.49313442  1
  Te  Te122  1  0.50190606  0.50098162  0.83757742  1
  Te  Te123  1  0.50375439  0.82871206  0.17180990  1
  Te  Te124  1  0.49823629  0.83488067  0.49170744  1
  Te  Te125  1  0.50323540  0.83145167  0.83242291  1
  Te  Te126  1  0.83409698  0.17149507  0.17162709  1
  Te  Te127  1  0.83495215  0.16977498  0.50033654  1
  Te  Te128  1  0.83459032  0.17136372  0.82621603  1
  Te  Te129  1  0.83747712  0.49530108  0.17188067  1
  Te  Te130  1  0.83385544  0.49173809  0.49026765  1
  Te  Te131  1  0.83243915  0.49937242  0.83375208  1
  Te  Te132  1  0.82889083  0.83458986  0.17280914  1
  Te  Te133  1  0.83914432  0.83446454  0.49873595  1
  Te  Te134  1  0.82723063  0.82897388  0.82943686  1
  Te  Te135  1  0.16735936  0.00384035  0.00394293  1
  Te  Te136  1  0.16732578  0.00710097  0.33269851  1
  Te  Te137  1  0.16906227  0.00494236  0.66500494  1
  Te  Te138  1  0.16921235  0.33428432  0.00116043  1
  Te  Te139  1  0.16607753  0.33120782  0.32720169  1
  Te  Te140  1  0.16973725  0.32868494  0.66707449  1
  Te  Te141  1  0.16794126  0.66266500  0.00717746  1
  Te  Te142  1  0.16582281  0.66531407  0.33111525  1
  Te  Te143  1  0.16222539  0.66651576  0.66620912  1
  Te  Te144  1  0.50439898  0.00233934  -0.00444219  1
  Te  Te145  1  0.49976586  -0.00257469  0.33218294  1
  Te  Te146  1  0.50087502  -0.00016085  0.67209141  1
  Te  Te147  1  0.49945251  0.33659062  -0.00151562  1
  Te  Te148  1  0.50178394  0.33985560  0.33261755  1
  Te  Te149  1  0.49746128  0.33342563  0.67275996  1
  Te  Te150  1  0.49985078  0.66477765  0.00168639  1
  Te  Te151  1  0.49909009  0.66535529  0.33334213  1
  Te  Te152  1  0.50358615  0.66664352  0.67117962  1
  Te  Te153  1  0.82525583  0.00277559  0.00011708  1
  Te  Te154  1  0.83349013  0.00282633  0.33332135  1
  Te  Te155  1  0.82940786  -0.00379830  0.66642759  1
  Te  Te156  1  0.83424583  0.33269320  -0.00031104  1
  Te  Te157  1  0.83346888  0.33255543  0.32937960  1
  Te  Te158  1  0.83414860  0.33490911  0.66813372  1
  Te  Te159  1  0.82860950  0.66607390  -0.00423139  1
  Te  Te160  1  0.83497648  0.66502630  0.33395476  1
  Te  Te161  1  0.83401560  0.66587875  0.66666226  1
  Te  Te162  1  0.00578354  0.17619950  -0.00005238  1
  Te  Te163  1  -0.00019960  0.16652964  0.33884469  1
  Te  Te164  1  -0.00021537  0.16993523  0.66242842  1
  Te  Te165  1  0.00180952  0.49570477  0.00079629  1
  Te  Te166  1  0.00239460  0.50379310  0.33257853  1
  Te  Te167  1  0.00142100  0.49948752  0.66814151  1
  Te  Te168  1  -0.00127415  0.83515162  -0.00083551  1
  Te  Te169  1  -0.00038603  0.82927277  0.33644195  1
  Te  Te170  1  -0.00514402  0.83069867  0.66183704  1
  Te  Te171  1  0.33232232  0.16854089  0.00011558  1
  Te  Te172  1  0.33098526  0.16636690  0.33332882  1
  Te  Te173  1  0.33293009  0.16742338  0.66615734  1
  Te  Te174  1  0.33358179  0.49899162  -0.00002522  1
  Te  Te175  1  0.33189075  0.50372517  0.33386949  1
  Te  Te176  1  0.33296031  0.49516727  0.66160495  1
  Te  Te177  1  0.33307711  0.82949716  -0.00578191  1
  Te  Te178  1  0.32965137  0.82786247  0.33345499  1
  Te  Te179  1  0.33213602  0.83493214  0.67001522  1
  Te  Te180  1  0.66407612  0.17069591  0.00157408  1
  Te  Te181  1  0.66903011  0.16640443  0.33326511  1
  Te  Te182  1  0.66954145  0.16781348  0.66576416  1
  Te  Te183  1  0.66439789  0.50009418  -0.00358564  1
  Te  Te184  1  0.66687500  0.50495463  0.33363521  1
  Te  Te185  1  0.66666127  0.50089530  0.67070171  1
  Te  Te186  1  0.66649806  0.83102767  -0.00023563  1
  Te  Te187  1  0.66921597  0.82965033  0.33486395  1
  Te  Te188  1  0.67057777  0.83010970  0.66854056  1
  Te  Te189  1  0.00751570  -0.00149693  0.16511211  1
  Te  Te190  1  0.00623030  0.00229642  0.50091396  1
  Te  Te191  1  -0.00178275  -0.00256160  0.83461301  1
  Te  Te192  1  -0.00011297  0.33761744  0.16538597  1
  Te  Te193  1  -0.00377873  0.33032515  0.50493491  1
  Te  Te194  1  -0.00090896  0.33869858  0.83238689  1
  Te  Te195  1  0.00156272  0.66003854  0.16958042  1
  Te  Te196  1  -0.00036306  0.66876097  0.50137676  1
  Te  Te197  1  -0.00200995  0.65959559  0.83089981  1
  Te  Te198  1  0.32877395  0.00361796  0.16527228  1
  Te  Te199  1  0.32819730  0.00306973  0.50604634  1
  Te  Te200  1  0.33957929  -0.00542403  0.82844080  1
  Te  Te201  1  0.33098878  0.32812091  0.16243233  1
  Te  Te202  1  0.33390202  0.33207871  0.50276281  1
  Te  Te203  1  0.33800389  0.33497479  0.83442661  1
  Te  Te204  1  0.33416043  0.66780975  0.16579828  1
  Te  Te205  1  0.33258656  0.66311117  0.49876889  1
  Te  Te206  1  0.33569073  0.66987108  0.83632288  1
  Te  Te207  1  0.66754113  -0.00641105  0.16349048  1
  Te  Te208  1  0.66484458  0.00021394  0.50892011  1
  Te  Te209  1  0.66197333  -0.00050536  0.83279734  1
  Te  Te210  1  0.67023339  0.33382358  0.16083396  1
  Te  Te211  1  0.67139165  0.33337457  0.50697031  1
  Te  Te212  1  0.66630527  0.33451946  0.83373764  1
  Te  Te213  1  0.66618895  0.66953453  0.16992299  1
  Te  Te214  1  0.66667487  0.66605609  0.49605524  1
  Te  Te215  1  0.66589735  0.66476047  0.83537556  1
