# generated using pymatgen
data_AgSbTe2
_symmetry_space_group_name_H-M   'P 1'
_cell_length_a   18.31932112
_cell_length_b   18.32308356
_cell_length_c   18.32616159
_cell_angle_alpha   89.99825471
_cell_angle_beta   89.99747195
_cell_angle_gamma   90.00134770
_symmetry_Int_Tables_number   1
_chemical_formula_structural   AgSbTe2
_chemical_formula_sum   'Ag54 Sb54 Te108'
_cell_volume   6151.47762534
_cell_formula_units_Z   54
loop_
 _symmetry_equiv_pos_site_id
 _symmetry_equiv_pos_as_xyz
  1  'x, y, z'
loop_
 _atom_site_type_symbol
 _atom_site_label
 _atom_site_symmetry_multiplicity
 _atom_site_fract_x
 _atom_site_fract_y
 _atom_site_fract_z
 _atom_site_occupancy
  Ag  Ag0  1  0.83349824  0.16745371  0.32945660  1
  Ag  Ag1  1  0.66754254  0.66720384  0.33117550  1
  Ag  Ag2  1  0.83169101  0.33549425  0.50390183  1
  Ag  Ag3  1  0.83126399  0.49599965  -0.00749946  1
  Ag  Ag4  1  0.66666341  0.66307720  0.66843326  1
  Ag  Ag5  1  0.82885442  0.33626464  0.83303260  1
  Ag  Ag6  1  0.16235792  0.83779815  0.00722688  1
  Ag  Ag7  1  0.50630019  0.16387534  0.33323422  1
  Ag  Ag8  1  0.16358936  -0.00251742  0.83725534  1
  Ag  Ag9  1  0.49891518  0.00456563  0.49621312  1
  Ag  Ag10  1  0.50609354  0.00619402  0.83737090  1
  Ag  Ag11  1  0.66896485  0.67476922  -0.00082932  1
  Ag  Ag12  1  0.16402591  0.32412273  0.16618253  1
  Ag  Ag13  1  0.82977859  0.83701957  0.00040930  1
  Ag  Ag14  1  0.83470039  0.49571241  0.33304276  1
  Ag  Ag15  1  0.67150642  0.50056337  0.50612445  1
  Ag  Ag16  1  0.34501418  0.33219316  0.66940466  1
  Ag  Ag17  1  0.16247829  -0.00477974  0.48975963  1
  Ag  Ag18  1  0.33796682  0.00432049  0.01012562  1
  Ag  Ag19  1  0.82874827  0.65561321  0.83515413  1
  Ag  Ag20  1  0.66913578  0.33249401  -0.00120607  1
  Ag  Ag21  1  -0.00724362  0.49764171  0.50164381  1
  Ag  Ag22  1  0.00064345  0.00708078  0.66197995  1
  Ag  Ag23  1  0.67090807  0.50374554  0.83100510  1
  Ag  Ag24  1  0.50693772  0.33360395  0.50816172  1
  Ag  Ag25  1  0.33876762  0.32607919  -0.00160357  1
  Ag  Ag26  1  -0.01134900  0.49595011  0.82915584  1
  Ag  Ag27  1  0.83004659  0.16729527  0.00073016  1
  Ag  Ag28  1  -0.00248500  0.49260549  0.17317961  1
  Ag  Ag29  1  0.82996908  0.16846389  0.67004407  1
  Ag  Ag30  1  0.49007172  0.00032460  0.16730212  1
  Ag  Ag31  1  0.66744980  0.15957523  0.16514802  1
  Ag  Ag32  1  -0.00361843  0.32957063  0.33495641  1
  Ag  Ag33  1  0.83593485  0.83601224  0.32966658  1
  Ag  Ag34  1  0.00005090  0.83476628  0.49733755  1
  Ag  Ag35  1  -0.00214619  0.16816171  0.16992631  1
  Ag  Ag36  1  0.17572811  0.00061509  0.16860794  1
  Ag  Ag37  1  0.33984265  0.84503917  0.16645000  1
  Ag  Ag38  1  0.15943863  0.83876229  0.33021631  1
  Ag  Ag39  1  0.67130289  0.83056507  0.84344917  1
  Ag  Ag40  1  0.50866599  0.32896124  0.82665279  1
  Ag  Ag41  1  0.33679961  0.15679564  0.16611929  1
  Ag  Ag42  1  0.32713219  0.00057654  0.32182208  1
  Ag  Ag43  1  0.50434390  0.66421765  0.49791611  1
  Ag  Ag44  1  0.16258613  0.49763200  0.66575104  1
  Ag  Ag45  1  0.50600234  0.67349349  0.17268884  1
  Ag  Ag46  1  0.66479105  0.83816810  0.16235354  1
  Ag  Ag47  1  0.83133921  0.00221739  0.83666242  1
  Ag  Ag48  1  0.50610414  0.17204232  0.66177850  1
  Ag  Ag49  1  0.16541648  0.67060618  0.50003765  1
  Ag  Ag50  1  -0.00327052  0.33303721  0.66190790  1
  Ag  Ag51  1  0.66677088  -0.00306651  0.00053533  1
  Ag  Ag52  1  0.50318296  0.49121169  0.66407689  1
  Ag  Ag53  1  0.00274980  0.00195888  0.33590283  1
  Sb  Sb54  1  0.51040790  0.66603357  0.83174605  1
  Sb  Sb55  1  0.32870170  0.83627857  0.49366267  1
  Sb  Sb56  1  -0.00531276  0.66224174  0.66434325  1
  Sb  Sb57  1  0.32950353  0.32530840  0.33201345  1
  Sb  Sb58  1  0.16452073  0.33071964  0.83498811  1
  Sb  Sb59  1  0.66844129  -0.00160402  0.67357902  1
  Sb  Sb60  1  0.50787442  0.49610267  0.33873230  1
  Sb  Sb61  1  0.66595474  0.17197335  0.49548649  1
  Sb  Sb62  1  0.50646325  0.16455996  0.00300870  1
  Sb  Sb63  1  0.83242693  0.00291634  0.16283613  1
  Sb  Sb64  1  0.15899747  0.67045394  0.82965126  1
  Sb  Sb65  1  0.16201049  0.15893134  0.32997289  1
  Sb  Sb66  1  0.83175962  0.49333509  0.66888806  1
  Sb  Sb67  1  0.67359723  0.33520420  0.32927645  1
  Sb  Sb68  1  -0.00799894  0.66657266  0.00007972  1
  Sb  Sb69  1  0.50882628  0.49667130  -0.00437346  1
  Sb  Sb70  1  0.16338294  0.33316895  0.49799187  1
  Sb  Sb71  1  -0.00237354  0.83707088  0.17138793  1
  Sb  Sb72  1  -0.00400664  0.33349332  0.00160313  1
  Sb  Sb73  1  0.33684012  0.16541257  0.49460096  1
  Sb  Sb74  1  0.83765061  0.33174202  0.16514690  1
  Sb  Sb75  1  0.83258953  0.83782148  0.66795183  1
  Sb  Sb76  1  0.49696486  0.32894016  0.16694080  1
  Sb  Sb77  1  0.50736916  0.83750120  0.00254062  1
  Sb  Sb78  1  0.66998478  0.82849381  0.49660803  1
  Sb  Sb79  1  0.16486169  0.16952676  0.66672073  1
  Sb  Sb80  1  0.34076464  0.67109641  0.00305956  1
  Sb  Sb81  1  0.33683898  0.16670411  0.83928247  1
  Sb  Sb82  1  0.67192227  0.50070836  0.16464848  1
  Sb  Sb83  1  0.33901660  0.83782330  0.84209098  1
  Sb  Sb84  1  0.33503449  0.49889531  0.50044855  1
  Sb  Sb85  1  0.82769957  0.66701050  0.16331564  1
  Sb  Sb86  1  0.66772886  0.16804335  0.83958882  1
  Sb  Sb87  1  0.15727170  0.50413062  0.33782138  1
  Sb  Sb88  1  0.83049950  0.66067190  0.50264228  1
  Sb  Sb89  1  0.83261748  0.00412513  0.50092553  1
  Sb  Sb90  1  -0.00654465  0.66798959  0.33504981  1
  Sb  Sb91  1  -0.00197685  0.16753278  0.49576869  1
  Sb  Sb92  1  0.66747470  0.33658289  0.67235021  1
  Sb  Sb93  1  0.16016297  0.50228147  -0.00334396  1
  Sb  Sb94  1  0.50251378  0.83973708  0.33097344  1
  Sb  Sb95  1  -0.00670883  0.83437063  0.83011577  1
  Sb  Sb96  1  -0.00184615  0.00055271  0.00270326  1
  Sb  Sb97  1  -0.00486394  0.16897472  0.83546866  1
  Sb  Sb98  1  0.33082012  0.00593097  0.66762643  1
  Sb  Sb99  1  0.32935757  0.49722898  0.16510927  1
  Sb  Sb100  1  0.16301081  0.16178894  0.00333686  1
  Sb  Sb101  1  0.33860859  0.66085183  0.66554010  1
  Sb  Sb102  1  0.33821161  0.67333296  0.33275029  1
  Sb  Sb103  1  0.16409755  0.83289640  0.66372589  1
  Sb  Sb104  1  0.33746932  0.49769192  0.83277918  1
  Sb  Sb105  1  0.50174879  0.83581690  0.66603933  1
  Sb  Sb106  1  0.66843451  -0.00203470  0.32720682  1
  Sb  Sb107  1  0.16930802  0.67191272  0.17086382  1
  Te  Te108  1  0.16516310  0.16490803  0.16641366  1
  Te  Te109  1  0.16837199  0.15759251  0.49987452  1
  Te  Te110  1  0.16610881  0.15798928  0.83521661  1
  Te  Te111  1  0.16025964  0.50165809  0.16623195  1
  Te  Te112  1  0.16433689  0.50198501  0.50406329  1
  Te  Te113  1  0.16432028  0.50142874  0.82796152  1
  Te  Te114  1  0.16454028  0.83545155  0.16802383  1
  Te  Te115  1  0.16264426  0.83500932  0.49726707  1
  Te  Te116  1  0.16556567  0.83695419  0.83644793  1
  Te  Te117  1  0.50134240  0.16372127  0.16961312  1
  Te  Te118  1  0.50117581  0.16677673  0.49989757  1
  Te  Te119  1  0.50101564  0.16724123  0.82874890  1
  Te  Te120  1  0.49949131  0.50307839  0.16809887  1
  Te  Te121  1  0.50212380  0.49898247  0.50290823  1
  Te  Te122  1  0.50511320  0.49644919  0.82774029  1
  Te  Te123  1  0.50261814  0.83569688  0.16750904  1
  Te  Te124  1  0.50008356  0.83158591  0.49840583  1
  Te  Te125  1  0.50802965  0.83854897  0.83339381  1
  Te  Te126  1  0.83237103  0.16683322  0.16808297  1
  Te  Te127  1  0.83191253  0.17305868  0.49804814  1
  Te  Te128  1  0.83304135  0.16722958  0.83365150  1
  Te  Te129  1  0.83841488  0.50030567  0.17035682  1
  Te  Te130  1  0.83258801  0.49666791  0.49879578  1
  Te  Te131  1  0.83121963  0.49658030  0.83263728  1
  Te  Te132  1  0.82982758  0.83331900  0.16700356  1
  Te  Te133  1  0.83836039  0.83278878  0.49548527  1
  Te  Te134  1  0.82979264  0.84032790  0.83503293  1
  Te  Te135  1  0.16521519  -0.00256410  0.00123739  1
  Te  Te136  1  0.16487701  -0.00155997  0.33209133  1
  Te  Te137  1  0.16243020  0.00118425  0.66926337  1
  Te  Te138  1  0.17040097  0.33450635  0.00422010  1
  Te  Te139  1  0.16072993  0.33484528  0.32906600  1
  Te  Te140  1  0.15977162  0.33665942  0.66677948  1
  Te  Te141  1  0.16896268  0.67366684  -0.00033575  1
  Te  Te142  1  0.16909916  0.67331464  0.33942354  1
  Te  Te143  1  0.16759828  0.66134395  0.66128331  1
  Te  Te144  1  0.50000927  0.00165325  -0.00066153  1
  Te  Te145  1  0.50201540  0.00390772  0.33259412  1
  Te  Te146  1  0.49912163  0.00459792  0.66662708  1
  Te  Te147  1  0.49908796  0.33121551  -0.00320767  1
  Te  Te148  1  0.49937576  0.32737403  0.33717103  1
  Te  Te149  1  0.50337268  0.33218858  0.66667940  1
  Te  Te150  1  0.50759808  0.66525374  0.00329039  1
  Te  Te151  1  0.50514282  0.66527029  0.33494091  1
  Te  Te152  1  0.50483380  0.66386424  0.66287563  1
  Te  Te153  1  0.83170835  -0.00031166  -0.00258932  1
  Te  Te154  1  0.83703046  0.00125557  0.33400983  1
  Te  Te155  1  0.83686254  0.00667871  0.66965842  1
  Te  Te156  1  0.83115326  0.33316528  -0.00243509  1
  Te  Te157  1  0.83736327  0.33225515  0.33414151  1
  Te  Te158  1  0.83466303  0.32823740  0.66630643  1
  Te  Te159  1  0.82794793  0.66828945  -0.00349963  1
  Te  Te160  1  0.82748155  0.66928817  0.33424382  1
  Te  Te161  1  0.82729882  0.66942282  0.67257092  1
  Te  Te162  1  -0.00905871  0.16757310  0.00804519  1
  Te  Te163  1  -0.00365581  0.16723733  0.33027591  1
  Te  Te164  1  -0.00308963  0.16813968  0.66697062  1
  Te  Te165  1  -0.00686514  0.50004077  -0.00439142  1
  Te  Te166  1  -0.00564003  0.49961481  0.33665390  1
  Te  Te167  1  -0.00031705  0.49760491  0.66463269  1
  Te  Te168  1  -0.00358635  0.83264105  -0.00036504  1
  Te  Te169  1  -0.00225420  0.83450413  0.33597785  1
  Te  Te170  1  -0.00009824  0.83865729  0.65968330  1
  Te  Te171  1  0.33208327  0.16563090  0.00544505  1
  Te  Te172  1  0.33831558  0.16082410  0.32728874  1
  Te  Te173  1  0.33626772  0.17375265  0.66721967  1
  Te  Te174  1  0.33279256  0.49561162  -0.00043941  1
  Te  Te175  1  0.33199366  0.49888349  0.33187266  1
  Te  Te176  1  0.33528838  0.49305881  0.66722732  1
  Te  Te177  1  0.32897422  0.83816861  0.00662679  1
  Te  Te178  1  0.33014308  0.84003110  0.32709846  1
  Te  Te179  1  0.33263251  0.83238334  0.66874732  1
  Te  Te180  1  0.67147330  0.16419699  0.00548717  1
  Te  Te181  1  0.66952026  0.16686581  0.32712455  1
  Te  Te182  1  0.66723484  0.16533660  0.66364434  1
  Te  Te183  1  0.67235376  0.49581576  -0.00255610  1
  Te  Te184  1  0.67367010  0.50332528  0.33505469  1
  Te  Te185  1  0.66477616  0.50210866  0.66621713  1
  Te  Te186  1  0.66937683  0.83535701  0.00153970  1
  Te  Te187  1  0.67170344  0.82933219  0.32929660  1
  Te  Te188  1  0.66677924  0.82590812  0.66877362  1
  Te  Te189  1  0.00394987  0.00274120  0.17200116  1
  Te  Te190  1  -0.00061963  0.00025763  0.49828690  1
  Te  Te191  1  -0.00204446  0.00034411  0.83024053  1
  Te  Te192  1  0.00337618  0.33274018  0.16803039  1
  Te  Te193  1  -0.00103511  0.33543821  0.49929050  1
  Te  Te194  1  -0.00301199  0.33608511  0.83016601  1
  Te  Te195  1  0.00119130  0.65774634  0.16759294  1
  Te  Te196  1  0.00287328  0.66445899  0.50087263  1
  Te  Te197  1  -0.00831533  0.66081490  0.83202609  1
  Te  Te198  1  0.33342263  0.00043517  0.16601903  1
  Te  Te199  1  0.33710779  -0.00090968  0.49928835  1
  Te  Te200  1  0.33463913  0.00022450  0.83622657  1
  Te  Te201  1  0.32822858  0.32958963  0.16327711  1
  Te  Te202  1  0.33534917  0.33244257  0.50436298  1
  Te  Te203  1  0.33400199  0.33271587  0.83439351  1
  Te  Te204  1  0.34218683  0.67019956  0.16699667  1
  Te  Te205  1  0.33540076  0.66787889  0.50005974  1
  Te  Te206  1  0.33261699  0.66788160  0.83443002  1
  Te  Te207  1  0.66577547  -0.00095050  0.16250514  1
  Te  Te208  1  0.65959095  -0.00177115  0.50119843  1
  Te  Te209  1  0.66722448  -0.00075265  0.83744177  1
  Te  Te210  1  0.66470468  0.33000347  0.15973330  1
  Te  Te211  1  0.66680051  0.33883113  0.49697060  1
  Te  Te212  1  0.66734896  0.33460465  0.83819498  1
  Te  Te213  1  0.66363469  0.66750854  0.16589244  1
  Te  Te214  1  0.66422039  0.66338055  0.49902650  1
  Te  Te215  1  0.66952136  0.66562026  0.83686684  1
