# generated using pymatgen
data_AgSbTe2
_symmetry_space_group_name_H-M   'P 1'
_cell_length_a   18.33205450
_cell_length_b   18.32621791
_cell_length_c   18.33620183
_cell_angle_alpha   90.00178404
_cell_angle_beta   89.99771746
_cell_angle_gamma   89.99827645
_symmetry_Int_Tables_number   1
_chemical_formula_structural   AgSbTe2
_chemical_formula_sum   'Ag54 Sb54 Te108'
_cell_volume   6160.17948225
_cell_formula_units_Z   54
loop_
 _symmetry_equiv_pos_site_id
 _symmetry_equiv_pos_as_xyz
  1  'x, y, z'
loop_
 _atom_site_type_symbol
 _atom_site_label
 _atom_site_symmetry_multiplicity
 _atom_site_fract_x
 _atom_site_fract_y
 _atom_site_fract_z
 _atom_site_occupancy
  Ag  Ag0  1  0.67210256  0.17217588  0.83722211  1
  Ag  Ag1  1  0.32455328  0.16509516  0.16648496  1
  Ag  Ag2  1  0.32643300  -0.00091558  -0.00093033  1
  Ag  Ag3  1  0.82700071  0.33473227  0.83298978  1
  Ag  Ag4  1  0.16860927  0.16068722  0.67035779  1
  Ag  Ag5  1  0.83578532  0.49097317  0.67005883  1
  Ag  Ag6  1  0.00262637  0.16151197  0.83103366  1
  Ag  Ag7  1  0.16858541  0.33723673  0.49864198  1
  Ag  Ag8  1  0.66942494  0.00088360  0.32727489  1
  Ag  Ag9  1  0.16362483  0.00380407  0.15765679  1
  Ag  Ag10  1  0.01649789  0.49662549  0.50261264  1
  Ag  Ag11  1  0.83372820  0.33449298  0.50879412  1
  Ag  Ag12  1  0.83219888  0.83574138  0.00311394  1
  Ag  Ag13  1  0.50511122  0.33682311  0.83010538  1
  Ag  Ag14  1  0.48839634  0.49270845  0.67136913  1
  Ag  Ag15  1  0.00727710  -0.00143413  0.32487047  1
  Ag  Ag16  1  0.32951317  -0.00238532  0.33325810  1
  Ag  Ag17  1  0.33118133  0.65808337  0.33862122  1
  Ag  Ag18  1  0.17406898  0.49386411  -0.00418501  1
  Ag  Ag19  1  0.00797416  0.84109811  0.83701123  1
  Ag  Ag20  1  0.17335794  0.49408502  0.33835347  1
  Ag  Ag21  1  0.16873113  0.16527938  0.32256408  1
  Ag  Ag22  1  -0.00359846  0.84105077  0.15691927  1
  Ag  Ag23  1  0.83475000  0.17013156  0.67334651  1
  Ag  Ag24  1  0.16821780  0.16361027  0.00381922  1
  Ag  Ag25  1  0.17189277  0.49769972  0.66750706  1
  Ag  Ag26  1  0.83501847  0.83703933  0.32213133  1
  Ag  Ag27  1  0.16706949  0.67522301  0.83150909  1
  Ag  Ag28  1  0.84286319  -0.00054632  0.16783072  1
  Ag  Ag29  1  0.50191103  0.83268038  -0.00090171  1
  Ag  Ag30  1  0.32873096  0.49619662  0.16954420  1
  Ag  Ag31  1  0.33194990  0.83458626  0.50806400  1
  Ag  Ag32  1  0.49271829  0.17240808  0.66785503  1
  Ag  Ag33  1  0.16493509  0.32335814  0.16909872  1
  Ag  Ag34  1  0.33268177  0.50181600  0.50293117  1
  Ag  Ag35  1  0.00766406  -0.00107447  -0.00011599  1
  Ag  Ag36  1  0.83708958  0.66145748  0.83367951  1
  Ag  Ag37  1  0.33443799  0.50362660  0.82643977  1
  Ag  Ag38  1  0.66625617  0.66249456  -0.00255619  1
  Ag  Ag39  1  0.32699519  -0.00413705  0.66853077  1
  Ag  Ag40  1  0.49424019  0.33455682  0.50779274  1
  Ag  Ag41  1  0.01076857  0.00200121  0.67584640  1
  Ag  Ag42  1  0.49239160  0.49948581  -0.00915315  1
  Ag  Ag43  1  0.49002901  0.49811934  0.33823527  1
  Ag  Ag44  1  0.66713533  0.33467085  -0.00307125  1
  Ag  Ag45  1  0.16573054  -0.00123317  0.83431098  1
  Ag  Ag46  1  0.32577739  0.83160099  0.82870293  1
  Ag  Ag47  1  0.49336302  0.00508484  0.50061787  1
  Ag  Ag48  1  0.66600281  0.16288757  0.16145725  1
  Ag  Ag49  1  0.17124720  0.84425353  0.67176543  1
  Ag  Ag50  1  0.65595048  0.49127462  0.83637219  1
  Ag  Ag51  1  0.67767051  0.84448038  0.16350586  1
  Ag  Ag52  1  0.33058305  0.66274362  0.66675470  1
  Ag  Ag53  1  0.83563377  0.32820100  0.16243474  1
  Sb  Sb54  1  0.83199729  0.00362182  0.49571646  1
  Sb  Sb55  1  0.83359206  0.66223251  0.50759201  1
  Sb  Sb56  1  0.66240061  0.49708466  0.15920104  1
  Sb  Sb57  1  0.65988658  0.49686168  0.50821084  1
  Sb  Sb58  1  0.33490793  0.66734657  -0.00353988  1
  Sb  Sb59  1  0.49495732  0.16916964  0.33686515  1
  Sb  Sb60  1  0.66124688  0.66319081  0.67577922  1
  Sb  Sb61  1  0.49143872  0.83386049  0.67085722  1
  Sb  Sb62  1  0.16602177  0.83646038  0.33624803  1
  Sb  Sb63  1  0.83803788  0.16249540  0.33311940  1
  Sb  Sb64  1  0.84091234  0.00147784  0.83855688  1
  Sb  Sb65  1  0.00809615  0.66863649  0.66979958  1
  Sb  Sb66  1  0.33321777  0.33442956  0.66675063  1
  Sb  Sb67  1  0.00225590  0.16009261  0.16203059  1
  Sb  Sb68  1  0.49307963  0.00366784  0.83018055  1
  Sb  Sb69  1  -0.00121053  0.32817449  -0.00120718  1
  Sb  Sb70  1  0.83435090  0.50133864  -0.00582796  1
  Sb  Sb71  1  0.00630787  0.50121623  0.16959092  1
  Sb  Sb72  1  0.66713400  0.32937874  0.32681625  1
  Sb  Sb73  1  0.16702510  0.33095985  0.83268153  1
  Sb  Sb74  1  0.66623705  0.33239917  0.67443445  1
  Sb  Sb75  1  0.16741935  0.83879709  -0.00545816  1
  Sb  Sb76  1  0.66321293  0.66933786  0.32496447  1
  Sb  Sb77  1  0.00608454  0.67036240  0.33341867  1
  Sb  Sb78  1  0.49573220  0.66358453  0.50077490  1
  Sb  Sb79  1  -0.00077034  0.32892722  0.66689407  1
  Sb  Sb80  1  0.66671734  0.00177443  0.00383662  1
  Sb  Sb81  1  0.49702575  0.00133406  0.16879171  1
  Sb  Sb82  1  0.49686963  0.33414559  0.16457738  1
  Sb  Sb83  1  0.49505767  0.66077099  0.83407697  1
  Sb  Sb84  1  0.16871545  0.66808537  0.16033451  1
  Sb  Sb85  1  0.33081439  0.83703942  0.16446820  1
  Sb  Sb86  1  0.33100085  0.16681128  0.83414904  1
  Sb  Sb87  1  0.49717080  0.66527995  0.16482964  1
  Sb  Sb88  1  0.66573043  0.16885010  0.50078584  1
  Sb  Sb89  1  0.66108246  0.83657464  0.49367208  1
  Sb  Sb90  1  0.66649112  0.83454822  0.83999377  1
  Sb  Sb91  1  0.33441246  0.33397557  -0.00026417  1
  Sb  Sb92  1  0.49704740  0.16806623  -0.00419500  1
  Sb  Sb93  1  0.33157078  0.33618402  0.33345552  1
  Sb  Sb94  1  0.84066774  0.83578394  0.67187533  1
  Sb  Sb95  1  0.83242066  0.66980998  0.16102755  1
  Sb  Sb96  1  0.00402175  0.49793136  0.82960517  1
  Sb  Sb97  1  0.00314427  0.32681246  0.33402531  1
  Sb  Sb98  1  -0.00051610  0.67251152  -0.00328679  1
  Sb  Sb99  1  0.33151864  0.16726623  0.49854052  1
  Sb  Sb100  1  0.83638886  0.16353291  -0.00250328  1
  Sb  Sb101  1  0.17129140  0.00617723  0.50250326  1
  Sb  Sb102  1  0.66533161  0.00184788  0.66509673  1
  Sb  Sb103  1  0.00667248  0.83330099  0.50330743  1
  Sb  Sb104  1  0.49942063  0.83300216  0.32961307  1
  Sb  Sb105  1  0.16997574  0.65957433  0.50652411  1
  Sb  Sb106  1  0.83455301  0.50266464  0.33806029  1
  Sb  Sb107  1  0.00250038  0.16869862  0.50558525  1
  Te  Te108  1  0.16585710  0.16433648  0.16511689  1
  Te  Te109  1  0.16657703  0.17662452  0.50661577  1
  Te  Te110  1  0.16582458  0.16585916  0.83125740  1
  Te  Te111  1  0.16899440  0.50136391  0.16603925  1
  Te  Te112  1  0.17199187  0.49740226  0.50050587  1
  Te  Te113  1  0.16833193  0.49579873  0.83175653  1
  Te  Te114  1  0.16228803  0.83945296  0.16745528  1
  Te  Te115  1  0.17251717  0.83086948  0.50638393  1
  Te  Te116  1  0.16821391  0.83586817  0.83284329  1
  Te  Te117  1  0.50174331  0.16911339  0.16742380  1
  Te  Te118  1  0.49923866  0.17098271  0.50529697  1
  Te  Te119  1  0.50041157  0.17150028  0.82841841  1
  Te  Te120  1  0.49393527  0.49827898  0.16573380  1
  Te  Te121  1  0.49536700  0.49658305  0.50354810  1
  Te  Te122  1  0.49855879  0.49923955  0.83263404  1
  Te  Te123  1  0.50154649  0.83312277  0.16050841  1
  Te  Te124  1  0.49324844  0.83763559  0.49945952  1
  Te  Te125  1  0.49740363  0.83436194  0.83838212  1
  Te  Te126  1  0.83201255  0.16600666  0.16613712  1
  Te  Te127  1  0.83368621  0.17311126  0.50398829  1
  Te  Te128  1  0.83188492  0.16782995  0.83288787  1
  Te  Te129  1  0.83565490  0.49628775  0.16746198  1
  Te  Te130  1  0.82776135  0.49469547  0.50536254  1
  Te  Te131  1  0.83742686  0.49836550  0.83058067  1
  Te  Te132  1  0.83486392  0.83328894  0.16441490  1
  Te  Te133  1  0.83287609  0.83282016  0.50017578  1
  Te  Te134  1  0.83434471  0.83163397  0.83756737  1
  Te  Te135  1  0.16771120  0.00026833  -0.00149572  1
  Te  Te136  1  0.16806156  0.00212926  0.33710632  1
  Te  Te137  1  0.16754057  0.00179963  0.66505935  1
  Te  Te138  1  0.16635015  0.33170113  0.00274818  1
  Te  Te139  1  0.16587261  0.33273824  0.33096349  1
  Te  Te140  1  0.16577998  0.33590994  0.66464956  1
  Te  Te141  1  0.16709383  0.65805895  -0.00720959  1
  Te  Te142  1  0.17168672  0.66424724  0.33124967  1
  Te  Te143  1  0.17227794  0.65966664  0.67255990  1
  Te  Te144  1  0.49374666  -0.00141354  -0.00044384  1
  Te  Te145  1  0.49362004  0.00117897  0.33804534  1
  Te  Te146  1  0.49786734  0.00205701  0.66175190  1
  Te  Te147  1  0.50408735  0.33638517  -0.00291132  1
  Te  Te148  1  0.50197780  0.33829189  0.33747755  1
  Te  Te149  1  0.50057599  0.33289789  0.66723416  1
  Te  Te150  1  0.50365656  0.66437501  -0.00098924  1
  Te  Te151  1  0.49496428  0.66027710  0.33314081  1
  Te  Te152  1  0.49278695  0.66100321  0.66700343  1
  Te  Te153  1  0.83574869  -0.00380373  0.00674512  1
  Te  Te154  1  0.83238510  -0.00239571  0.32977993  1
  Te  Te155  1  0.83413171  0.00537944  0.66524893  1
  Te  Te156  1  0.83095077  0.33318708  0.00037216  1
  Te  Te157  1  0.83478746  0.33297354  0.32903276  1
  Te  Te158  1  0.83338320  0.33129573  0.66820680  1
  Te  Te159  1  0.83089736  0.67037296  -0.00574701  1
  Te  Te160  1  0.83262676  0.67333096  0.33491509  1
  Te  Te161  1  0.83303404  0.66623155  0.67397065  1
  Te  Te162  1  0.00565179  0.16084524  -0.00622731  1
  Te  Te163  1  0.00670031  0.15876753  0.33495863  1
  Te  Te164  1  0.00174767  0.16185987  0.67011539  1
  Te  Te165  1  0.00758366  0.50058652  0.00023414  1
  Te  Te166  1  0.00427072  0.50165564  0.33824277  1
  Te  Te167  1  -0.00124936  0.50128688  0.66366851  1
  Te  Te168  1  -0.00032456  0.83774285  -0.00261813  1
  Te  Te169  1  -0.00266521  0.83759181  0.33595855  1
  Te  Te170  1  0.00742029  0.83890565  0.67103325  1
  Te  Te171  1  0.32949958  0.16326308  0.00338981  1
  Te  Te172  1  0.32916556  0.16167014  0.32954683  1
  Te  Te173  1  0.33224333  0.16098411  0.66645778  1
  Te  Te174  1  0.33377786  0.50104375  0.00124892  1
  Te  Te175  1  0.33180572  0.49888334  0.33282039  1
  Te  Te176  1  0.33207460  0.49872540  0.66641819  1
  Te  Te177  1  0.33625650  0.83509596  -0.00329898  1
  Te  Te178  1  0.33380638  0.83643643  0.33381582  1
  Te  Te179  1  0.33128867  0.83503561  0.66829433  1
  Te  Te180  1  0.66505000  0.16919763  -0.00047874  1
  Te  Te181  1  0.66629172  0.16161290  0.32801908  1
  Te  Te182  1  0.66890434  0.16511042  0.67059071  1
  Te  Te183  1  0.66672789  0.49949498  -0.00456341  1
  Te  Te184  1  0.66379367  0.50171594  0.33037097  1
  Te  Te185  1  0.67243871  0.50115819  0.67542557  1
  Te  Te186  1  0.66645335  0.83491755  0.00360303  1
  Te  Te187  1  0.66853424  0.83700745  0.32626119  1
  Te  Te188  1  0.66596734  0.83211826  0.66463390  1
  Te  Te189  1  0.00169504  -0.00128398  0.16581018  1
  Te  Te190  1  -0.00089158  -0.00090080  0.49854901  1
  Te  Te191  1  0.00243344  0.00094426  0.83425789  1
  Te  Te192  1  0.00010650  0.33342234  0.16651892  1
  Te  Te193  1  -0.00120060  0.33838596  0.49955102  1
  Te  Te194  1  -0.00761381  0.32667101  0.83410758  1
  Te  Te195  1  0.00003323  0.67766509  0.16701714  1
  Te  Te196  1  -0.00103401  0.65800357  0.50067985  1
  Te  Te197  1  0.00157771  0.67252666  0.83244673  1
  Te  Te198  1  0.32979953  0.00182476  0.16627899  1
  Te  Te199  1  0.33409371  0.00059992  0.50078736  1
  Te  Te200  1  0.32847606  -0.00042109  0.83289800  1
  Te  Te201  1  0.32796898  0.33137531  0.16621212  1
  Te  Te202  1  0.33383271  0.33821436  0.49970561  1
  Te  Te203  1  0.33911443  0.34039589  0.83411994  1
  Te  Te204  1  0.33195157  0.66265712  0.17268383  1
  Te  Te205  1  0.33333813  0.66717355  0.50016665  1
  Te  Te206  1  0.32922798  0.66604122  0.83091856  1
  Te  Te207  1  0.66487374  0.00245887  0.16866556  1
  Te  Te208  1  0.66025526  0.00116001  0.49174586  1
  Te  Te209  1  0.66613095  0.00597078  0.83421297  1
  Te  Te210  1  0.66971663  0.32942951  0.16016838  1
  Te  Te211  1  0.67037488  0.33324629  0.49469666  1
  Te  Te212  1  0.66688842  0.33279924  0.83692139  1
  Te  Te213  1  0.66646729  0.66977131  0.15836778  1
  Te  Te214  1  0.66604037  0.66705467  0.49779767  1
  Te  Te215  1  0.67140702  0.66715016  0.83895348  1
