# generated using pymatgen
data_AgSbTe2
_symmetry_space_group_name_H-M   'P 1'
_cell_length_a   18.35946171
_cell_length_b   18.36430163
_cell_length_c   18.34654876
_cell_angle_alpha   89.99340785
_cell_angle_beta   90.00250592
_cell_angle_gamma   90.00120315
_symmetry_Int_Tables_number   1
_chemical_formula_structural   AgSbTe2
_chemical_formula_sum   'Ag54 Sb54 Te108'
_cell_volume   6185.69834494
_cell_formula_units_Z   54
loop_
 _symmetry_equiv_pos_site_id
 _symmetry_equiv_pos_as_xyz
  1  'x, y, z'
loop_
 _atom_site_type_symbol
 _atom_site_label
 _atom_site_symmetry_multiplicity
 _atom_site_fract_x
 _atom_site_fract_y
 _atom_site_fract_z
 _atom_site_occupancy
  Ag  Ag0  1  0.17641969  0.33348711  0.18278193  1
  Ag  Ag1  1  0.66851535  0.17095459  0.82168518  1
  Ag  Ag2  1  0.83772240  0.17102994  0.65868020  1
  Ag  Ag3  1  -0.01231596  0.17112429  0.50322572  1
  Ag  Ag4  1  0.33522734  0.17427969  0.49835513  1
  Ag  Ag5  1  0.83884697  0.48966922  0.66659619  1
  Ag  Ag6  1  0.50024975  0.49216440  0.66108203  1
  Ag  Ag7  1  0.16849135  0.65546742  0.16718816  1
  Ag  Ag8  1  0.66166513  0.49268109  0.50253365  1
  Ag  Ag9  1  0.33317579  0.17590322  0.17767268  1
  Ag  Ag10  1  0.67458840  0.17365272  0.50148054  1
  Ag  Ag11  1  0.66592834  0.01289058  0.33888862  1
  Ag  Ag12  1  0.33882141  0.49243576  0.50054173  1
  Ag  Ag13  1  0.00170810  0.83039947  0.82801209  1
  Ag  Ag14  1  0.66603501  0.65892272  0.34193493  1
  Ag  Ag15  1  0.00606423  0.00648410  0.66669705  1
  Ag  Ag16  1  0.83536865  0.82684976  -0.00553563  1
  Ag  Ag17  1  -0.00390529  0.50192438  0.82818007  1
  Ag  Ag18  1  0.16790824  0.48484438  0.34366450  1
  Ag  Ag19  1  0.83223274  0.33549152  0.82044435  1
  Ag  Ag20  1  0.82355277  0.16918052  0.34575231  1
  Ag  Ag21  1  0.49171941  0.00881627  0.16835023  1
  Ag  Ag22  1  0.83512559  0.33096119  0.50294569  1
  Ag  Ag23  1  0.66586927  0.83075739  0.49984243  1
  Ag  Ag24  1  0.33075578  0.48630995  0.17773413  1
  Ag  Ag25  1  0.32838909  0.66325354  0.00136991  1
  Ag  Ag26  1  0.82558364  0.66228364  0.50153324  1
  Ag  Ag27  1  0.16566511  0.84825659  0.66759759  1
  Ag  Ag28  1  0.67822678  0.49244328  0.81975491  1
  Ag  Ag29  1  0.82935830  0.01676462  0.50630505  1
  Ag  Ag30  1  0.17164517  0.00674454  0.16780318  1
  Ag  Ag31  1  0.16654873  -0.00134005  0.82006935  1
  Ag  Ag32  1  0.32507717  0.83816824  0.82720559  1
  Ag  Ag33  1  0.66260310  0.33126062  0.33921106  1
  Ag  Ag34  1  0.01544436  0.33170980  0.34677831  1
  Ag  Ag35  1  0.50124883  0.00254663  0.82966785  1
  Ag  Ag36  1  0.83432067  0.50071474  -0.01484929  1
  Ag  Ag37  1  0.16160890  0.16730296  0.66158578  1
  Ag  Ag38  1  -0.00144850  0.33045051  0.66269246  1
  Ag  Ag39  1  0.49866981  0.17105615  0.34141612  1
  Ag  Ag40  1  0.32987742  0.33016997  0.33186062  1
  Ag  Ag41  1  0.50004773  0.33078488  0.49938822  1
  Ag  Ag42  1  0.17290665  0.17432061  0.34515599  1
  Ag  Ag43  1  0.00026002  0.65528340  0.66711685  1
  Ag  Ag44  1  0.48692789  0.32767037  0.18244485  1
  Ag  Ag45  1  0.50613738  0.65514012  0.50026227  1
  Ag  Ag46  1  0.16874666  0.33013445  0.49706469  1
  Ag  Ag47  1  0.00147269  0.66550757  -0.01097055  1
  Ag  Ag48  1  0.15942333  0.49462009  0.66202922  1
  Ag  Ag49  1  0.50086633  0.17089448  0.65843357  1
  Ag  Ag50  1  0.33300718  0.33921180  0.01595340  1
  Ag  Ag51  1  0.33615952  0.83485328  0.50545575  1
  Ag  Ag52  1  0.32737057  0.00273521  0.66575844  1
  Ag  Ag53  1  0.83398233  0.00657011  0.82315366  1
  Sb  Sb54  1  -0.00007963  -0.00405569  -0.01051013  1
  Sb  Sb55  1  0.66990921  0.83540760  0.82517387  1
  Sb  Sb56  1  0.66850038  -0.00027090  0.00161778  1
  Sb  Sb57  1  0.83305542  0.83759356  0.33623287  1
  Sb  Sb58  1  -0.00242100  0.00800232  0.34131455  1
  Sb  Sb59  1  -0.00172195  0.65746852  0.33993949  1
  Sb  Sb60  1  0.67458890  0.33230313  0.65795739  1
  Sb  Sb61  1  0.16537486  0.83209995  -0.00628468  1
  Sb  Sb62  1  0.33648431  0.00961045  0.33944957  1
  Sb  Sb63  1  0.49448012  0.48948449  0.34197287  1
  Sb  Sb64  1  0.16684269  0.65927060  0.49854577  1
  Sb  Sb65  1  0.32785705  0.32915940  0.65947322  1
  Sb  Sb66  1  0.50284981  0.00880140  0.50192925  1
  Sb  Sb67  1  0.16446882  0.67006429  0.83291155  1
  Sb  Sb68  1  0.50186457  0.83271305  -0.00226450  1
  Sb  Sb69  1  0.83557517  0.33329884  0.17274593  1
  Sb  Sb70  1  0.50410456  0.32977640  0.82601256  1
  Sb  Sb71  1  0.00254842  0.33762540  -0.00405263  1
  Sb  Sb72  1  0.83555865  0.00332460  0.16895279  1
  Sb  Sb73  1  0.33145426  0.83566767  0.16790107  1
  Sb  Sb74  1  0.49901434  0.66884559  0.82545177  1
  Sb  Sb75  1  0.66758405  0.00419908  0.66084985  1
  Sb  Sb76  1  0.66623032  0.83451632  0.17376537  1
  Sb  Sb77  1  0.00945502  0.16859413  0.17863328  1
  Sb  Sb78  1  0.66000437  0.49773421  0.17382120  1
  Sb  Sb79  1  -0.00374661  0.16617181  0.82337880  1
  Sb  Sb80  1  0.66341172  0.33379904  0.00265027  1
  Sb  Sb81  1  0.83627604  0.49206105  0.34244344  1
  Sb  Sb82  1  0.33101189  0.50041491  0.82775213  1
  Sb  Sb83  1  0.00737671  0.49885398  0.16234781  1
  Sb  Sb84  1  0.83834514  0.66401867  0.16970382  1
  Sb  Sb85  1  0.32812083  0.66867275  0.66676061  1
  Sb  Sb86  1  0.00293483  0.83393940  0.15879856  1
  Sb  Sb87  1  0.33636943  0.16358382  0.82769510  1
  Sb  Sb88  1  0.83374899  0.17050154  -0.00727361  1
  Sb  Sb89  1  0.67048800  0.66464834  0.00391808  1
  Sb  Sb90  1  0.16813882  0.16755945  -0.00081772  1
  Sb  Sb91  1  0.83493324  0.66230963  0.82739712  1
  Sb  Sb92  1  0.16406372  0.32912386  0.82764364  1
  Sb  Sb93  1  0.00071646  0.83771940  0.50735289  1
  Sb  Sb94  1  0.65919174  0.16778743  0.17561644  1
  Sb  Sb95  1  0.49338058  0.66241061  0.17447700  1
  Sb  Sb96  1  0.16797300  0.83785878  0.34106011  1
  Sb  Sb97  1  0.16669271  0.01064964  0.50180077  1
  Sb  Sb98  1  -0.00048906  0.49019127  0.50786091  1
  Sb  Sb99  1  0.50129412  0.49937094  -0.00658664  1
  Sb  Sb100  1  0.83940558  0.83655596  0.66729913  1
  Sb  Sb101  1  0.49373947  0.83751743  0.66324166  1
  Sb  Sb102  1  0.33258361  0.00046030  -0.00407448  1
  Sb  Sb103  1  0.49848795  0.16808232  -0.00013318  1
  Sb  Sb104  1  0.16585470  0.50094303  -0.00265563  1
  Sb  Sb105  1  0.33560250  0.65980576  0.33385436  1
  Sb  Sb106  1  0.50058614  0.84025167  0.33784017  1
  Sb  Sb107  1  0.67212307  0.66160381  0.65996139  1
  Te  Te108  1  0.17209277  0.16989431  0.16520041  1
  Te  Te109  1  0.17635137  0.16824264  0.50256098  1
  Te  Te110  1  0.16684365  0.16032159  0.82865457  1
  Te  Te111  1  0.17237389  0.49719961  0.16350107  1
  Te  Te112  1  0.16707088  0.49579077  0.50101121  1
  Te  Te113  1  0.16224515  0.49873983  0.82627310  1
  Te  Te114  1  0.16745804  0.83999559  0.16748003  1
  Te  Te115  1  0.16928046  0.83075584  0.50660508  1
  Te  Te116  1  0.16469385  0.83661276  0.82814730  1
  Te  Te117  1  0.49578191  0.16815981  0.16639749  1
  Te  Te118  1  0.49463626  0.16802415  0.50098725  1
  Te  Te119  1  0.50460411  0.16266945  0.82996858  1
  Te  Te120  1  0.49185610  0.49557884  0.16378330  1
  Te  Te121  1  0.49951781  0.49648463  0.50156430  1
  Te  Te122  1  0.50304288  0.49990563  0.82503318  1
  Te  Te123  1  0.49995926  0.84058935  0.16615055  1
  Te  Te124  1  0.50051117  0.83156770  0.50062003  1
  Te  Te125  1  0.50002335  0.83919693  0.83157018  1
  Te  Te126  1  0.83303745  0.16697766  0.16670999  1
  Te  Te127  1  0.83149369  0.17147294  0.50039486  1
  Te  Te128  1  0.82998215  0.16756554  0.82898901  1
  Te  Te129  1  0.83183585  0.49969395  0.16537716  1
  Te  Te130  1  0.83196991  0.49863893  0.50428092  1
  Te  Te131  1  0.83434863  0.50015933  0.82736672  1
  Te  Te132  1  0.83436517  0.83345287  0.15913580  1
  Te  Te133  1  0.83055261  0.82554618  0.50022485  1
  Te  Te134  1  0.83427021  0.83654768  0.83466436  1
  Te  Te135  1  0.16580591  -0.00023905  0.00525022  1
  Te  Te136  1  0.16609768  0.00539308  0.32986354  1
  Te  Te137  1  0.16677578  0.00497708  0.66353835  1
  Te  Te138  1  0.17178384  0.33430266  -0.00276236  1
  Te  Te139  1  0.16994038  0.32952486  0.33718487  1
  Te  Te140  1  0.16187466  0.33167288  0.66410200  1
  Te  Te141  1  0.16490366  0.66710227  0.00412118  1
  Te  Te142  1  0.16660291  0.66862379  0.32769603  1
  Te  Te143  1  0.16116018  0.65563689  0.66646856  1
  Te  Te144  1  0.50093064  -0.00062523  0.00005193  1
  Te  Te145  1  0.50309569  0.00690691  0.32985749  1
  Te  Te146  1  0.49730289  0.00444423  0.66951403  1
  Te  Te147  1  0.49459359  0.33503442  0.00119788  1
  Te  Te148  1  0.49959678  0.33085969  0.33822709  1
  Te  Te149  1  0.49636174  0.33200993  0.66236311  1
  Te  Te150  1  0.49641293  0.66678458  0.00147633  1
  Te  Te151  1  0.50379927  0.66835638  0.33874823  1
  Te  Te152  1  0.49913983  0.66468537  0.66070037  1
  Te  Te153  1  0.83402837  -0.00223237  -0.00271054  1
  Te  Te154  1  0.82978762  0.00577073  0.33769006  1
  Te  Te155  1  0.83290349  0.00146979  0.66585824  1
  Te  Te156  1  0.83310945  0.33874365  0.00116311  1
  Te  Te157  1  0.82693781  0.32883681  0.33686430  1
  Te  Te158  1  0.83616923  0.33133730  0.66433104  1
  Te  Te159  1  0.83736364  0.66392580  0.00204394  1
  Te  Te160  1  0.82968618  0.66539335  0.33794017  1
  Te  Te161  1  0.83891777  0.66791203  0.66187739  1
  Te  Te162  1  -0.00027191  0.16685434  0.00254068  1
  Te  Te163  1  0.00400859  0.17198445  0.34165309  1
  Te  Te164  1  -0.00109608  0.16732914  0.66391741  1
  Te  Te165  1  -0.00375203  0.50498636  -0.00572939  1
  Te  Te166  1  0.00645052  0.49273080  0.33032518  1
  Te  Te167  1  -0.00171680  0.49727913  0.66798004  1
  Te  Te168  1  -0.00316130  0.82781226  -0.00792706  1
  Te  Te169  1  -0.00027629  0.83286318  0.33174150  1
  Te  Te170  1  0.00533022  0.83928364  0.67033600  1
  Te  Te171  1  0.33326373  0.16937196  0.00378850  1
  Te  Te172  1  0.33480060  0.16861556  0.33576187  1
  Te  Te173  1  0.33471579  0.16353188  0.66420567  1
  Te  Te174  1  0.33380122  0.50197136  -0.00412665  1
  Te  Te175  1  0.32884159  0.49595754  0.33550626  1
  Te  Te176  1  0.33493519  0.50087449  0.66242886  1
  Te  Te177  1  0.33373993  0.82943686  -0.00437736  1
  Te  Te178  1  0.33353829  0.83297957  0.34128247  1
  Te  Te179  1  0.32843771  0.83511094  0.66748256  1
  Te  Te180  1  0.66722913  0.16617672  -0.00819802  1
  Te  Te181  1  0.66351642  0.17030823  0.33649948  1
  Te  Te182  1  0.66500158  0.16731205  0.66350997  1
  Te  Te183  1  0.67240500  0.50093478  -0.00001596  1
  Te  Te184  1  0.66775969  0.49803623  0.33872234  1
  Te  Te185  1  0.66613189  0.49929297  0.66356608  1
  Te  Te186  1  0.67289045  0.83113030  -0.00033981  1
  Te  Te187  1  0.66754258  0.83249856  0.34051932  1
  Te  Te188  1  0.66584232  0.83231065  0.65893872  1
  Te  Te189  1  0.00517664  0.00080845  0.16679435  1
  Te  Te190  1  -0.00623004  0.00506226  0.50535313  1
  Te  Te191  1  -0.00076364  -0.00095601  0.82750884  1
  Te  Te192  1  0.00488692  0.33332078  0.16612673  1
  Te  Te193  1  -0.00070836  0.33042669  0.50200411  1
  Te  Te194  1  -0.00474511  0.33648898  0.83014473  1
  Te  Te195  1  0.00696942  0.66679078  0.16703222  1
  Te  Te196  1  -0.00209374  0.66931907  0.50476883  1
  Te  Te197  1  -0.00033249  0.66721643  0.83006450  1
  Te  Te198  1  0.33339837  0.00098973  0.16607437  1
  Te  Te199  1  0.33469858  -0.00558855  0.50488675  1
  Te  Te200  1  0.33052373  -0.00256592  0.83037865  1
  Te  Te201  1  0.33220691  0.33142067  0.17025948  1
  Te  Te202  1  0.33219524  0.33439376  0.49980849  1
  Te  Te203  1  0.33437953  0.33270569  0.83883899  1
  Te  Te204  1  0.32930100  0.66804518  0.16353052  1
  Te  Te205  1  0.33526514  0.66622116  0.50014204  1
  Te  Te206  1  0.33301699  0.67158234  0.83845617  1
  Te  Te207  1  0.66468259  -0.00000658  0.17338693  1
  Te  Te208  1  0.66851231  0.00214690  0.49671230  1
  Te  Te209  1  0.66828542  0.00120010  0.83391505  1
  Te  Te210  1  0.66260881  0.33371903  0.17235382  1
  Te  Te211  1  0.66494464  0.33254106  0.49869090  1
  Te  Te212  1  0.67099224  0.33422437  0.83692565  1
  Te  Te213  1  0.66443253  0.66684549  0.17580490  1
  Te  Te214  1  0.66577371  0.66394571  0.49924061  1
  Te  Te215  1  0.66533881  0.66204126  0.83466131  1
