# generated using pymatgen
data_AgSbTe2
_symmetry_space_group_name_H-M   'P 1'
_cell_length_a   18.33409691
_cell_length_b   18.33030203
_cell_length_c   18.34012067
_cell_angle_alpha   89.99700647
_cell_angle_beta   90.00080524
_cell_angle_gamma   89.99880691
_symmetry_Int_Tables_number   1
_chemical_formula_structural   AgSbTe2
_chemical_formula_sum   'Ag54 Sb54 Te108'
_cell_volume   6163.55579050
_cell_formula_units_Z   54
loop_
 _symmetry_equiv_pos_site_id
 _symmetry_equiv_pos_as_xyz
  1  'x, y, z'
loop_
 _atom_site_type_symbol
 _atom_site_label
 _atom_site_symmetry_multiplicity
 _atom_site_fract_x
 _atom_site_fract_y
 _atom_site_fract_z
 _atom_site_occupancy
  Ag  Ag0  1  0.66778747  0.83036447  0.83721344  1
  Ag  Ag1  1  0.50087619  0.50008236  0.66360702  1
  Ag  Ag2  1  0.50095169  0.16734592  0.33200628  1
  Ag  Ag3  1  0.16779831  0.82623611  0.34157377  1
  Ag  Ag4  1  0.33585013  0.33756854  0.66186534  1
  Ag  Ag5  1  0.50660571  0.00389295  0.16075744  1
  Ag  Ag6  1  0.66738876  0.50487125  0.17438911  1
  Ag  Ag7  1  0.50656799  -0.00072010  0.84028092  1
  Ag  Ag8  1  0.82601718  0.00024278  0.83917019  1
  Ag  Ag9  1  0.33888934  0.33688217  0.34225533  1
  Ag  Ag10  1  0.50090948  0.16274096  0.00087677  1
  Ag  Ag11  1  0.33536927  0.33096660  -0.00742296  1
  Ag  Ag12  1  0.33732843  0.49780067  0.17977565  1
  Ag  Ag13  1  0.32752396  0.82970020  0.49867950  1
  Ag  Ag14  1  0.33404977  0.49327689  0.82121875  1
  Ag  Ag15  1  0.00390933  0.82452041  0.49865263  1
  Ag  Ag16  1  0.82435821  -0.00586987  0.15960941  1
  Ag  Ag17  1  -0.00907149  0.66375428  0.66375491  1
  Ag  Ag18  1  -0.01148438  0.50441164  0.49930813  1
  Ag  Ag19  1  0.82690796  0.50116292  0.65829131  1
  Ag  Ag20  1  -0.00736337  0.16548781  0.83327311  1
  Ag  Ag21  1  0.17547288  0.33422394  0.82297734  1
  Ag  Ag22  1  0.34851288  0.00775580  -0.00149678  1
  Ag  Ag23  1  0.33474632  0.17578740  0.83192480  1
  Ag  Ag24  1  0.50664406  0.66812347  0.82560017  1
  Ag  Ag25  1  0.17450149  0.50226174  0.34040466  1
  Ag  Ag26  1  0.17725612  0.34184827  0.50336498  1
  Ag  Ag27  1  0.17194146  0.50006661  0.65750934  1
  Ag  Ag28  1  0.83198677  0.34473470  0.50214597  1
  Ag  Ag29  1  0.50324066  0.66107570  0.50409068  1
  Ag  Ag30  1  0.82570683  0.66740386  0.82289832  1
  Ag  Ag31  1  0.82945679  0.66606636  0.16753007  1
  Ag  Ag32  1  0.67557770  0.49986534  0.50022676  1
  Ag  Ag33  1  -0.00980946  0.50538305  0.17538512  1
  Ag  Ag34  1  0.66463823  0.34404023  0.66011122  1
  Ag  Ag35  1  0.66775890  0.67184652  -0.00865132  1
  Ag  Ag36  1  0.66098854  0.33605978  0.33895467  1
  Ag  Ag37  1  0.83300515  0.49965083  0.34573869  1
  Ag  Ag38  1  0.82663440  -0.00035929  0.50052653  1
  Ag  Ag39  1  -0.01563016  0.00106506  -0.00020064  1
  Ag  Ag40  1  0.82628435  0.16144294  -0.00879154  1
  Ag  Ag41  1  0.67045050  0.66229923  0.66778752  1
  Ag  Ag42  1  0.16664548  0.82342319  0.65875301  1
  Ag  Ag43  1  0.50289455  -0.00210010  0.49888504  1
  Ag  Ag44  1  0.83251864  0.17072172  0.66750852  1
  Ag  Ag45  1  0.82834234  0.65620962  0.50507945  1
  Ag  Ag46  1  0.66657979  -0.00362908  0.00645872  1
  Ag  Ag47  1  0.33501557  0.65369759  0.33827609  1
  Ag  Ag48  1  0.67134187  0.83477919  0.16417521  1
  Ag  Ag49  1  0.49933223  0.33307225  0.16984703  1
  Ag  Ag50  1  -0.00830103  0.82871760  0.17228127  1
  Ag  Ag51  1  0.33258051  0.49710338  0.49866666  1
  Ag  Ag52  1  0.33712377  0.17952630  0.50422785  1
  Ag  Ag53  1  0.66550566  0.00262889  0.32606922  1
  Sb  Sb54  1  0.66225998  0.17110087  0.50105936  1
  Sb  Sb55  1  0.16936926  0.49855383  0.00026102  1
  Sb  Sb56  1  0.16726383  0.65954667  0.50022157  1
  Sb  Sb57  1  0.83472961  0.82721373  0.66445568  1
  Sb  Sb58  1  0.00330937  0.49737946  0.82860854  1
  Sb  Sb59  1  0.17400493  0.33773887  0.17079827  1
  Sb  Sb60  1  0.49737341  0.82754891  0.66481785  1
  Sb  Sb61  1  0.33701040  0.65763237  0.65925343  1
  Sb  Sb62  1  0.00093796  0.66421973  0.34075082  1
  Sb  Sb63  1  0.49920426  0.83773035  0.33508341  1
  Sb  Sb64  1  -0.00486204  0.16474422  0.16136047  1
  Sb  Sb65  1  0.00070231  0.34005609  0.66447540  1
  Sb  Sb66  1  0.16764650  -0.00226431  0.16762540  1
  Sb  Sb67  1  0.49591370  0.33271685  0.83516156  1
  Sb  Sb68  1  0.17562244  0.17136647  0.33769977  1
  Sb  Sb69  1  0.83058243  0.84003491  0.00183423  1
  Sb  Sb70  1  0.16555616  0.83467452  -0.00011427  1
  Sb  Sb71  1  0.66184493  0.50585344  0.82579803  1
  Sb  Sb72  1  0.17090750  0.16742808  -0.00196683  1
  Sb  Sb73  1  0.83111083  0.49644696  -0.00160968  1
  Sb  Sb74  1  -0.00041774  0.16847173  0.50481574  1
  Sb  Sb75  1  0.33574602  0.82998301  0.17225170  1
  Sb  Sb76  1  0.66526314  0.16211706  0.83278903  1
  Sb  Sb77  1  0.00093736  0.33749162  0.33418030  1
  Sb  Sb78  1  0.50019690  0.33675287  0.49703690  1
  Sb  Sb79  1  0.66406580  0.66327845  0.33614978  1
  Sb  Sb80  1  0.50004045  0.49568707  0.33866384  1
  Sb  Sb81  1  0.83460712  0.33290833  0.82614097  1
  Sb  Sb82  1  0.16822989  -0.00162925  0.49918485  1
  Sb  Sb83  1  0.15970496  0.66487944  0.16939563  1
  Sb  Sb84  1  0.00264662  0.33018374  -0.00096927  1
  Sb  Sb85  1  0.34300090  0.66396976  0.00181648  1
  Sb  Sb86  1  -0.01095974  0.67081849  -0.00202672  1
  Sb  Sb87  1  0.50229112  0.84024253  -0.00073681  1
  Sb  Sb88  1  0.16720227  0.00344425  0.83345278  1
  Sb  Sb89  1  0.16415554  0.17140426  0.66733905  1
  Sb  Sb90  1  0.33689179  0.83290039  0.82833172  1
  Sb  Sb91  1  0.66273766  0.33143550  0.00196263  1
  Sb  Sb92  1  0.66492844  0.16296081  0.16659010  1
  Sb  Sb93  1  0.82610452  0.33632041  0.17195677  1
  Sb  Sb94  1  0.82756053  0.16955502  0.33672464  1
  Sb  Sb95  1  0.33865254  0.17241148  0.16416756  1
  Sb  Sb96  1  0.16873948  0.66197375  0.82780040  1
  Sb  Sb97  1  0.83550214  0.82723809  0.33301043  1
  Sb  Sb98  1  -0.00887775  -0.00311805  0.32964123  1
  Sb  Sb99  1  0.50639625  0.66450448  0.16878343  1
  Sb  Sb100  1  -0.00372763  -0.00444806  0.66890007  1
  Sb  Sb101  1  0.34055725  0.00345266  0.33166669  1
  Sb  Sb102  1  -0.00557998  0.83667101  0.83145109  1
  Sb  Sb103  1  0.66847061  0.82962553  0.49882473  1
  Sb  Sb104  1  0.50065582  0.49565200  -0.00291379  1
  Sb  Sb105  1  0.66758649  -0.00284563  0.66660447  1
  Sb  Sb106  1  0.33542185  0.00479654  0.66792387  1
  Sb  Sb107  1  0.50311020  0.17160223  0.66656884  1
  Te  Te108  1  0.16537359  0.16780052  0.16807090  1
  Te  Te109  1  0.17239023  0.17211706  0.50136232  1
  Te  Te110  1  0.17424727  0.17115375  0.83216247  1
  Te  Te111  1  0.16957361  0.50062092  0.17256717  1
  Te  Te112  1  0.17297793  0.49857593  0.49811573  1
  Te  Te113  1  0.17125169  0.49473238  0.83065899  1
  Te  Te114  1  0.16315814  0.83219440  0.17167360  1
  Te  Te115  1  0.16408926  0.83410295  0.49975775  1
  Te  Te116  1  0.16584056  0.83245165  0.82679474  1
  Te  Te117  1  0.49935117  0.16491353  0.16676591  1
  Te  Te118  1  0.49651966  0.16085139  0.50000763  1
  Te  Te119  1  0.49617877  0.16163626  0.83448152  1
  Te  Te120  1  0.50057769  0.49849185  0.16532532  1
  Te  Te121  1  0.49480636  0.50271059  0.50391223  1
  Te  Te122  1  0.49532118  0.50317792  0.82930912  1
  Te  Te123  1  0.50496944  0.83738465  0.16726363  1
  Te  Te124  1  0.49770232  0.83534494  0.50029935  1
  Te  Te125  1  0.50452334  0.83432198  0.83170007  1
  Te  Te126  1  0.83334142  0.16207686  0.16602500  1
  Te  Te127  1  0.83350987  0.15968278  0.50353952  1
  Te  Te128  1  0.83255631  0.16578728  0.83140949  1
  Te  Te129  1  0.83133512  0.50109717  0.16440853  1
  Te  Te130  1  0.83254955  0.50103157  0.50189219  1
  Te  Te131  1  0.83468479  0.50334091  0.83019614  1
  Te  Te132  1  0.83235682  0.83355200  0.16811153  1
  Te  Te133  1  0.83777024  0.84022942  0.49849232  1
  Te  Te134  1  0.82904938  0.83303823  0.83222216  1
  Te  Te135  1  0.16718615  -0.00034293  -0.00003065  1
  Te  Te136  1  0.16540829  -0.00275411  0.33256699  1
  Te  Te137  1  0.16592242  -0.00464188  0.66712078  1
  Te  Te138  1  0.17432364  0.33331272  -0.00181587  1
  Te  Te139  1  0.17170157  0.33897212  0.33886069  1
  Te  Te140  1  0.16805332  0.33722644  0.66387164  1
  Te  Te141  1  0.16663489  0.66769791  -0.00201092  1
  Te  Te142  1  0.17312409  0.66531888  0.33334564  1
  Te  Te143  1  0.16355831  0.66315486  0.66684522  1
  Te  Te144  1  0.50526748  0.00294493  -0.00064112  1
  Te  Te145  1  0.50445692  0.00435381  0.33506493  1
  Te  Te146  1  0.50100612  0.00038119  0.66456162  1
  Te  Te147  1  0.49574030  0.32638132  0.00462792  1
  Te  Te148  1  0.50006864  0.32966619  0.33101990  1
  Te  Te149  1  0.50055332  0.33790109  0.66823536  1
  Te  Te150  1  0.50754072  0.66706218  -0.00332331  1
  Te  Te151  1  0.49485787  0.67014659  0.33777119  1
  Te  Te152  1  0.50252525  0.66176717  0.66536805  1
  Te  Te153  1  0.82781181  0.00365982  -0.00123605  1
  Te  Te154  1  0.82648359  0.00153075  0.33428993  1
  Te  Te155  1  0.83184153  0.00310661  0.66672424  1
  Te  Te156  1  0.83305362  0.32302264  -0.00013292  1
  Te  Te157  1  0.82842650  0.33720271  0.33858688  1
  Te  Te158  1  0.83325286  0.33597445  0.66272757  1
  Te  Te159  1  0.82629960  0.66482290  0.00292559  1
  Te  Te160  1  0.83224420  0.66038900  0.33272344  1
  Te  Te161  1  0.83166149  0.66556395  0.66492267  1
  Te  Te162  1  -0.00083048  0.16262439  -0.00553177  1
  Te  Te163  1  0.00243959  0.16695718  0.33350904  1
  Te  Te164  1  -0.00501593  0.16625977  0.67269449  1
  Te  Te165  1  0.00076607  0.50064527  0.00556114  1
  Te  Te166  1  -0.00262611  0.49989940  0.33502460  1
  Te  Te167  1  0.00117770  0.50388752  0.66405015  1
  Te  Te168  1  0.00087281  0.83913771  0.00430380  1
  Te  Te169  1  0.00481178  0.83137072  0.33390603  1
  Te  Te170  1  0.00400310  0.82816908  0.66341889  1
  Te  Te171  1  0.33680349  0.16722390  -0.00173055  1
  Te  Te172  1  0.33959835  0.17191259  0.33758796  1
  Te  Te173  1  0.33316212  0.17229806  0.66682892  1
  Te  Te174  1  0.33360330  0.49596150  0.00000238  1
  Te  Te175  1  0.33612777  0.49736928  0.33621046  1
  Te  Te176  1  0.33210442  0.49795826  0.66423964  1
  Te  Te177  1  0.33133327  0.83716661  0.00092311  1
  Te  Te178  1  0.32821923  0.83616011  0.33718005  1
  Te  Te179  1  0.32794495  0.83347737  0.66073170  1
  Te  Te180  1  0.66483066  0.16323206  -0.00128581  1
  Te  Te181  1  0.66126116  0.16890941  0.33462914  1
  Te  Te182  1  0.67210973  0.17462982  0.66660930  1
  Te  Te183  1  0.66639703  0.50056491  0.00813812  1
  Te  Te184  1  0.66717675  0.49855308  0.33563962  1
  Te  Te185  1  0.66679960  0.50160233  0.66492307  1
  Te  Te186  1  0.66667468  0.83268258  0.00043418  1
  Te  Te187  1  0.66784168  0.83969300  0.32958433  1
  Te  Te188  1  0.66605901  0.82548083  0.66987999  1
  Te  Te189  1  -0.00336715  -0.00376639  0.16171047  1
  Te  Te190  1  -0.00214005  -0.00127652  0.49895128  1
  Te  Te191  1  -0.00323820  0.00369767  0.83751868  1
  Te  Te192  1  -0.00020395  0.34040574  0.16583383  1
  Te  Te193  1  -0.00568239  0.33688859  0.49895663  1
  Te  Te194  1  0.00654238  0.32773989  0.83401341  1
  Te  Te195  1  -0.00708133  0.66671501  0.16540539  1
  Te  Te196  1  -0.00477028  0.66544052  0.50261868  1
  Te  Te197  1  -0.00547164  0.66709038  0.82974166  1
  Te  Te198  1  0.33734144  -0.00041310  0.16108823  1
  Te  Te199  1  0.33621916  -0.00496253  0.49992848  1
  Te  Te200  1  0.33593938  0.00000272  0.83685175  1
  Te  Te201  1  0.33770676  0.33769140  0.16854585  1
  Te  Te202  1  0.33645728  0.33543466  0.50212039  1
  Te  Te203  1  0.33438315  0.33404855  0.83218657  1
  Te  Te204  1  0.33445713  0.66102937  0.16984791  1
  Te  Te205  1  0.33589382  0.66879697  0.49808676  1
  Te  Te206  1  0.33953254  0.66358958  0.83509082  1
  Te  Te207  1  0.66650273  -0.00078376  0.16648416  1
  Te  Te208  1  0.66485153  -0.00184381  0.50034287  1
  Te  Te209  1  0.66674868  -0.00400268  0.83218192  1
  Te  Te210  1  0.66136043  0.33862620  0.17003222  1
  Te  Te211  1  0.66777774  0.33649251  0.50038221  1
  Te  Te212  1  0.66586246  0.33508128  0.83061245  1
  Te  Te213  1  0.66937739  0.66692881  0.16983777  1
  Te  Te214  1  0.66673008  0.66431190  0.50122936  1
  Te  Te215  1  0.66717264  0.66704550  0.83298963  1
