# generated using pymatgen
data_AgSbTe2
_symmetry_space_group_name_H-M   'P 1'
_cell_length_a   18.33780818
_cell_length_b   18.33133563
_cell_length_c   18.34034955
_cell_angle_alpha   90.00186327
_cell_angle_beta   89.99872245
_cell_angle_gamma   89.99936197
_symmetry_Int_Tables_number   1
_chemical_formula_structural   AgSbTe2
_chemical_formula_sum   'Ag54 Sb54 Te108'
_cell_volume   6165.22801023
_cell_formula_units_Z   54
loop_
 _symmetry_equiv_pos_site_id
 _symmetry_equiv_pos_as_xyz
  1  'x, y, z'
loop_
 _atom_site_type_symbol
 _atom_site_label
 _atom_site_symmetry_multiplicity
 _atom_site_fract_x
 _atom_site_fract_y
 _atom_site_fract_z
 _atom_site_occupancy
  Ag  Ag0  1  0.33046651  0.66701800  0.33361170  1
  Ag  Ag1  1  0.32756989  -0.00199800  0.32737550  1
  Ag  Ag2  1  0.84095785  -0.00415033  0.83539466  1
  Ag  Ag3  1  -0.00308007  0.83336971  0.83304153  1
  Ag  Ag4  1  0.84146122  0.66448770  0.50164491  1
  Ag  Ag5  1  0.00426803  -0.00446726  -0.00408581  1
  Ag  Ag6  1  0.49876809  0.50760722  0.00974496  1
  Ag  Ag7  1  0.17162522  0.32373714  0.49754790  1
  Ag  Ag8  1  0.83778302  0.83028859  0.67065259  1
  Ag  Ag9  1  0.17276059  0.00528650  0.16967234  1
  Ag  Ag10  1  0.16502829  0.66448203  0.17355111  1
  Ag  Ag11  1  0.49622749  0.50500357  0.32868001  1
  Ag  Ag12  1  0.49193175  0.50408324  0.65997043  1
  Ag  Ag13  1  0.01295933  0.16394088  0.49936836  1
  Ag  Ag14  1  0.16122252  0.00003814  0.83584613  1
  Ag  Ag15  1  0.00416754  0.15348329  0.83478854  1
  Ag  Ag16  1  0.00163084  0.51199148  0.83645406  1
  Ag  Ag17  1  0.83850323  0.33807386  0.16685016  1
  Ag  Ag18  1  0.16169570  0.83297569  0.66737817  1
  Ag  Ag19  1  0.16640244  0.16075561  0.65284813  1
  Ag  Ag20  1  0.33418285  0.49635816  0.49481401  1
  Ag  Ag21  1  0.33099738  -0.00004049  0.00803223  1
  Ag  Ag22  1  0.49107850  -0.00030642  0.16219524  1
  Ag  Ag23  1  -0.00071098  0.66646794  -0.00295892  1
  Ag  Ag24  1  0.66710434  0.83269659  0.83590746  1
  Ag  Ag25  1  0.32411622  0.17627198  0.49352660  1
  Ag  Ag26  1  0.32875348  0.16521703  0.17276781  1
  Ag  Ag27  1  0.33628895  0.49606734  0.17095220  1
  Ag  Ag28  1  0.16684089  0.50430927  0.00424257  1
  Ag  Ag29  1  0.17186022  0.50130826  0.66506666  1
  Ag  Ag30  1  0.16833119  0.16047497  0.33860969  1
  Ag  Ag31  1  0.48790694  0.34325978  0.49482276  1
  Ag  Ag32  1  0.32901437  0.33581389  0.65831586  1
  Ag  Ag33  1  0.65341304  0.50470892  0.16388872  1
  Ag  Ag34  1  0.50538573  0.83081629  0.00285691  1
  Ag  Ag35  1  0.50380177  0.67019883  0.83511114  1
  Ag  Ag36  1  0.49353123  0.34398453  0.16990422  1
  Ag  Ag37  1  0.66127401  0.67030681  -0.00101578  1
  Ag  Ag38  1  0.00920593  0.66934575  0.33642797  1
  Ag  Ag39  1  0.66445169  -0.01117976  0.67601955  1
  Ag  Ag40  1  0.16715616  0.01209645  0.49511895  1
  Ag  Ag41  1  0.49937595  0.82588674  0.32556858  1
  Ag  Ag42  1  0.65628389  -0.01096751  -0.00350484  1
  Ag  Ag43  1  0.66277607  0.82757662  0.15438880  1
  Ag  Ag44  1  0.17150626  0.32872933  0.17147773  1
  Ag  Ag45  1  0.83170056  0.50404689  0.32480873  1
  Ag  Ag46  1  0.66617469  0.67064858  0.67098760  1
  Ag  Ag47  1  0.49523102  0.66150852  0.50050661  1
  Ag  Ag48  1  0.50110396  -0.00818419  0.84418137  1
  Ag  Ag49  1  0.00889974  -0.00221841  0.32675628  1
  Ag  Ag50  1  0.01211477  0.16202087  0.16720949  1
  Ag  Ag51  1  0.16771858  0.66435819  0.49683258  1
  Ag  Ag52  1  0.83696345  0.50343906  0.00588869  1
  Ag  Ag53  1  0.00271636  0.66765157  0.66730525  1
  Sb  Sb54  1  0.00419173  0.33565858  0.33095980  1
  Sb  Sb55  1  0.49910777  0.16145426  0.00067486  1
  Sb  Sb56  1  0.33189821  0.33679969  0.33618168  1
  Sb  Sb57  1  0.66271156  0.16458043  0.50171468  1
  Sb  Sb58  1  0.84187509  -0.00461872  0.50503598  1
  Sb  Sb59  1  0.00901549  0.50205990  0.50200322  1
  Sb  Sb60  1  0.83045611  0.82820514  0.33702958  1
  Sb  Sb61  1  0.32999805  0.50099729  0.83401673  1
  Sb  Sb62  1  0.66562960  0.83055284  0.50437149  1
  Sb  Sb63  1  0.66255186  0.16715311  0.16557193  1
  Sb  Sb64  1  0.16570656  0.33100091  0.83268175  1
  Sb  Sb65  1  0.65719936  0.50359248  0.49604124  1
  Sb  Sb66  1  -0.00298964  0.83658702  0.16239032  1
  Sb  Sb67  1  0.48974704  0.16788378  0.33189136  1
  Sb  Sb68  1  0.32762319  0.16265130  0.83350659  1
  Sb  Sb69  1  0.66444317  0.33532945  0.33197993  1
  Sb  Sb70  1  0.83429939  0.50768209  0.66700652  1
  Sb  Sb71  1  0.83449780  0.00377539  0.16127274  1
  Sb  Sb72  1  0.49491382  0.66757933  0.16804214  1
  Sb  Sb73  1  0.00504395  0.49886270  0.16366361  1
  Sb  Sb74  1  0.65888607  0.34107055  0.66665661  1
  Sb  Sb75  1  0.66956297  0.50847255  0.83912900  1
  Sb  Sb76  1  0.49892851  0.33901878  0.83597246  1
  Sb  Sb77  1  0.00613358  0.33719848  0.66575465  1
  Sb  Sb78  1  0.33701342  0.83586217  0.16731879  1
  Sb  Sb79  1  0.33378865  0.66802131  0.00606865  1
  Sb  Sb80  1  0.66311448  -0.00361235  0.32926731  1
  Sb  Sb81  1  0.49289687  -0.00170318  0.49719959  1
  Sb  Sb82  1  0.16814855  0.83322050  -0.00250020  1
  Sb  Sb83  1  0.33447154  0.83405482  0.83393438  1
  Sb  Sb84  1  0.16663719  0.66962301  0.83161320  1
  Sb  Sb85  1  0.00264027  0.33610542  0.00244854  1
  Sb  Sb86  1  0.82873797  0.82971600  -0.00398755  1
  Sb  Sb87  1  0.67072905  0.15143147  0.83258298  1
  Sb  Sb88  1  0.33111676  0.66141284  0.65988185  1
  Sb  Sb89  1  0.83344975  0.67224327  0.83111216  1
  Sb  Sb90  1  0.66354970  0.66548398  0.33079794  1
  Sb  Sb91  1  0.00308234  -0.00618819  0.67173339  1
  Sb  Sb92  1  0.84590252  0.16901594  0.33218038  1
  Sb  Sb93  1  0.83829932  0.34092072  0.49467784  1
  Sb  Sb94  1  0.00341401  0.83357197  0.50418845  1
  Sb  Sb95  1  0.83665967  0.16787399  0.00067073  1
  Sb  Sb96  1  0.66524587  0.33964458  0.00290426  1
  Sb  Sb97  1  0.33244981  0.33139965  0.00293884  1
  Sb  Sb98  1  0.16967377  0.50194087  0.33320837  1
  Sb  Sb99  1  0.33196344  0.00322074  0.66511788  1
  Sb  Sb100  1  0.33179734  0.83063730  0.49878471  1
  Sb  Sb101  1  0.16548161  0.16560212  0.00496941  1
  Sb  Sb102  1  0.49904018  0.82827784  0.66873554  1
  Sb  Sb103  1  0.83549982  0.33177029  0.83752759  1
  Sb  Sb104  1  0.49326206  0.16924631  0.66616003  1
  Sb  Sb105  1  0.16966346  0.83656105  0.33572115  1
  Sb  Sb106  1  0.83700755  0.66205232  0.16783538  1
  Sb  Sb107  1  0.84297339  0.15918914  0.66707316  1
  Te  Te108  1  0.16876832  0.16501958  0.16561293  1
  Te  Te109  1  0.16829708  0.16801154  0.49811363  1
  Te  Te110  1  0.16246054  0.16271481  0.83536755  1
  Te  Te111  1  0.16917836  0.50165997  0.16718566  1
  Te  Te112  1  0.17211212  0.50489050  0.50014008  1
  Te  Te113  1  0.16290703  0.49936662  0.83247958  1
  Te  Te114  1  0.16504789  0.83243016  0.16620504  1
  Te  Te115  1  0.16672722  0.82389576  0.50577671  1
  Te  Te116  1  0.16381179  0.83814155  0.82966520  1
  Te  Te117  1  0.49457446  0.16411923  0.16698761  1
  Te  Te118  1  0.49375379  0.17095515  0.49985295  1
  Te  Te119  1  0.50027990  0.16232704  0.83247556  1
  Te  Te120  1  0.49738263  0.50274444  0.16799026  1
  Te  Te121  1  0.49667718  0.50085201  0.49976001  1
  Te  Te122  1  0.50069514  0.50390521  0.83357818  1
  Te  Te123  1  0.50276694  0.83418343  0.16486704  1
  Te  Te124  1  0.49919901  0.82841038  0.49642880  1
  Te  Te125  1  0.50125236  0.83264185  0.83429423  1
  Te  Te126  1  0.83323433  0.17633236  0.16783433  1
  Te  Te127  1  0.83729012  0.16980424  0.49964532  1
  Te  Te128  1  0.84218004  0.15987229  0.83286876  1
  Te  Te129  1  0.83870107  0.49742538  0.16571031  1
  Te  Te130  1  0.83241022  0.50443759  0.49769828  1
  Te  Te131  1  0.83950142  0.49867142  0.83778762  1
  Te  Te132  1  0.82390470  0.83413701  0.16853657  1
  Te  Te133  1  0.83358322  0.82640355  0.50709814  1
  Te  Te134  1  0.83328958  0.83712745  0.83012052  1
  Te  Te135  1  0.16527066  -0.00189344  0.00037694  1
  Te  Te136  1  0.16667358  -0.00257086  0.33229716  1
  Te  Te137  1  0.16722888  0.00017224  0.66661614  1
  Te  Te138  1  0.16802304  0.34307071  0.00431069  1
  Te  Te139  1  0.16631230  0.32872052  0.33271670  1
  Te  Te140  1  0.16912944  0.33958368  0.66533797  1
  Te  Te141  1  0.16524330  0.66542223  -0.00062807  1
  Te  Te142  1  0.16748095  0.66859547  0.33336467  1
  Te  Te143  1  0.16529050  0.66413770  0.66697803  1
  Te  Te144  1  0.49952590  -0.00054583  0.00166586  1
  Te  Te145  1  0.49571222  -0.00164450  0.32909030  1
  Te  Te146  1  0.50304477  -0.00009748  0.66652651  1
  Te  Te147  1  0.49948346  0.33984394  0.00502221  1
  Te  Te148  1  0.49934927  0.33752520  0.33232116  1
  Te  Te149  1  0.49449855  0.33868228  0.66423082  1
  Te  Te150  1  0.50019266  0.66783062  0.00004087  1
  Te  Te151  1  0.49874019  0.66576134  0.33540023  1
  Te  Te152  1  0.49901091  0.66485109  0.66492443  1
  Te  Te153  1  0.84157608  0.00006004  -0.00432999  1
  Te  Te154  1  0.83833764  -0.00112140  0.33476576  1
  Te  Te155  1  0.82839383  -0.00653093  0.67052522  1
  Te  Te156  1  0.83282727  0.34158455  0.00589578  1
  Te  Te157  1  0.83392889  0.34118117  0.32771354  1
  Te  Te158  1  0.82983988  0.33351063  0.66529391  1
  Te  Te159  1  0.83738547  0.66277234  0.00021891  1
  Te  Te160  1  0.83405547  0.66373781  0.33872402  1
  Te  Te161  1  0.83465172  0.66982945  0.66363480  1
  Te  Te162  1  -0.00058572  0.16257930  -0.00003810  1
  Te  Te163  1  0.00719707  0.16466626  0.33165798  1
  Te  Te164  1  0.00728992  0.16734793  0.66604440  1
  Te  Te165  1  0.00274044  0.50254672  -0.00237414  1
  Te  Te166  1  -0.00343279  0.50831251  0.33404033  1
  Te  Te167  1  0.00205283  0.50509846  0.67136158  1
  Te  Te168  1  -0.00062336  0.83127603  -0.00418426  1
  Te  Te169  1  -0.00187140  0.83094470  0.33223992  1
  Te  Te170  1  0.00000626  0.82861986  0.67020636  1
  Te  Te171  1  0.33341796  0.16108449  0.00564399  1
  Te  Te172  1  0.32873059  0.16127736  0.33289799  1
  Te  Te173  1  0.32611675  0.17125599  0.66319970  1
  Te  Te174  1  0.33302905  0.49953800  0.00351120  1
  Te  Te175  1  0.33483367  0.50427095  0.33290443  1
  Te  Te176  1  0.33283069  0.49687758  0.66757034  1
  Te  Te177  1  0.34131155  0.83934678  0.00012298  1
  Te  Te178  1  0.33929822  0.83210457  0.33331323  1
  Te  Te179  1  0.32433652  0.83381613  0.66654093  1
  Te  Te180  1  0.66809290  0.15916915  -0.00048351  1
  Te  Te181  1  0.66941570  0.16496703  0.33457976  1
  Te  Te182  1  0.66796093  0.16467125  0.66651522  1
  Te  Te183  1  0.66337999  0.50560232  0.00350962  1
  Te  Te184  1  0.66667404  0.50022939  0.32605604  1
  Te  Te185  1  0.66293007  0.50863696  0.66887353  1
  Te  Te186  1  0.66577316  0.83166792  -0.00262275  1
  Te  Te187  1  0.66028967  0.83358826  0.32987851  1
  Te  Te188  1  0.66508918  0.83003865  0.67018805  1
  Te  Te189  1  -0.00010697  0.00222436  0.16671310  1
  Te  Te190  1  0.00567600  0.00277900  0.49690359  1
  Te  Te191  1  0.00177771  -0.00438631  0.83268335  1
  Te  Te192  1  0.00435249  0.32580517  0.16701279  1
  Te  Te193  1  0.00636163  0.32862085  0.49867940  1
  Te  Te194  1  -0.00109693  0.33004628  0.83397001  1
  Te  Te195  1  0.00426810  0.66836684  0.16373297  1
  Te  Te196  1  0.00268065  0.66660540  0.50065704  1
  Te  Te197  1  0.00052701  0.67000131  0.83426170  1
  Te  Te198  1  0.33220785  -0.00061155  0.16763115  1
  Te  Te199  1  0.32776186  0.00166717  0.49665006  1
  Te  Te200  1  0.33555471  0.00073758  0.83680032  1
  Te  Te201  1  0.33237275  0.33415082  0.16622409  1
  Te  Te202  1  0.33146427  0.33572375  0.49867517  1
  Te  Te203  1  0.33424104  0.33104473  0.82571597  1
  Te  Te204  1  0.32583930  0.66212994  0.17109307  1
  Te  Te205  1  0.33370251  0.66361174  0.49562997  1
  Te  Te206  1  0.34214713  0.66679825  0.83429922  1
  Te  Te207  1  0.66532628  -0.00099415  0.16143845  1
  Te  Te208  1  0.66733425  -0.00048301  0.50397804  1
  Te  Te209  1  0.66319980  -0.00617486  0.83542514  1
  Te  Te210  1  0.66087340  0.33765816  0.16605461  1
  Te  Te211  1  0.66269088  0.33307072  0.50074059  1
  Te  Te212  1  0.66718708  0.32814195  0.83375675  1
  Te  Te213  1  0.66979117  0.66484122  0.16287427  1
  Te  Te214  1  0.66274657  0.66641664  0.50416664  1
  Te  Te215  1  0.66560199  0.67090181  0.83490214  1
