# generated using pymatgen
data_AgSbTe2
_symmetry_space_group_name_H-M   'P 1'
_cell_length_a   18.31973686
_cell_length_b   18.32194152
_cell_length_c   18.32215762
_cell_angle_alpha   89.99590161
_cell_angle_beta   89.99997209
_cell_angle_gamma   90.00187033
_symmetry_Int_Tables_number   1
_chemical_formula_structural   AgSbTe2
_chemical_formula_sum   'Ag54 Sb54 Te108'
_cell_volume   6149.88985606
_cell_formula_units_Z   54
loop_
 _symmetry_equiv_pos_site_id
 _symmetry_equiv_pos_as_xyz
  1  'x, y, z'
loop_
 _atom_site_type_symbol
 _atom_site_label
 _atom_site_symmetry_multiplicity
 _atom_site_fract_x
 _atom_site_fract_y
 _atom_site_fract_z
 _atom_site_occupancy
  Ag  Ag0  1  0.66991205  0.16157774  0.48936370  1
  Ag  Ag1  1  0.83222450  0.33260302  0.83132868  1
  Ag  Ag2  1  0.33676995  0.66391595  0.67463696  1
  Ag  Ag3  1  0.32880426  -0.00510600  0.00068124  1
  Ag  Ag4  1  -0.00570996  0.83736453  0.15734240  1
  Ag  Ag5  1  0.83200007  0.00232958  0.16751340  1
  Ag  Ag6  1  0.67312879  0.16515732  0.17588846  1
  Ag  Ag7  1  0.33349700  0.66653139  -0.00341877  1
  Ag  Ag8  1  0.82681203  0.00758655  0.49456504  1
  Ag  Ag9  1  0.66650566  0.51086368  0.16500418  1
  Ag  Ag10  1  0.00083907  -0.00872835  -0.00185408  1
  Ag  Ag11  1  0.16311573  0.33147192  0.16632533  1
  Ag  Ag12  1  0.49783164  0.50127557  0.67532260  1
  Ag  Ag13  1  0.50842284  -0.00020573  0.50619463  1
  Ag  Ag14  1  0.00014857  0.83082077  0.50013408  1
  Ag  Ag15  1  0.33937454  0.00137038  0.32835457  1
  Ag  Ag16  1  -0.01015717  0.16096987  0.16136355  1
  Ag  Ag17  1  0.16586198  -0.00107865  0.83714614  1
  Ag  Ag18  1  0.16086448  0.82925352  0.00183662  1
  Ag  Ag19  1  0.83280210  0.32466230  0.50545930  1
  Ag  Ag20  1  0.82447700  0.67186960  0.15889431  1
  Ag  Ag21  1  0.50103954  0.00270340  0.82908110  1
  Ag  Ag22  1  0.82626040  0.16591849  0.33030408  1
  Ag  Ag23  1  -0.00365512  0.83356718  0.83988665  1
  Ag  Ag24  1  0.66980881  0.83358110  0.83927182  1
  Ag  Ag25  1  0.50305492  0.83446268  0.66785510  1
  Ag  Ag26  1  0.00032317  0.50049808  0.83390708  1
  Ag  Ag27  1  0.50624971  0.33669763  0.16324343  1
  Ag  Ag28  1  0.83358989  0.50516301  -0.00180893  1
  Ag  Ag29  1  -0.00376551  0.33474069  0.66971365  1
  Ag  Ag30  1  0.51156522  0.66287833  0.16491063  1
  Ag  Ag31  1  0.67458599  0.66599253  0.00820769  1
  Ag  Ag32  1  0.16288957  0.50804139  -0.00560545  1
  Ag  Ag33  1  0.83459145  0.16922938  0.00330681  1
  Ag  Ag34  1  0.33135110  0.50152587  0.83487086  1
  Ag  Ag35  1  0.67252986  0.82377181  0.16370483  1
  Ag  Ag36  1  0.82803020  0.16688128  0.66539763  1
  Ag  Ag37  1  0.66580605  0.67028910  0.32078436  1
  Ag  Ag38  1  0.66685509  0.31879919  0.32948638  1
  Ag  Ag39  1  0.16510159  0.66743584  0.49959413  1
  Ag  Ag40  1  0.50253553  0.50426160  -0.00451772  1
  Ag  Ag41  1  -0.00627972  0.67112722  -0.00152525  1
  Ag  Ag42  1  0.83509053  0.66283209  0.84119282  1
  Ag  Ag43  1  0.51354860  0.16351562  0.33525114  1
  Ag  Ag44  1  0.50107274  0.67008612  0.50104009  1
  Ag  Ag45  1  -0.00470764  0.16597642  0.83873552  1
  Ag  Ag46  1  0.66508949  0.00536376  0.33551562  1
  Ag  Ag47  1  0.16568086  0.50203334  0.67603146  1
  Ag  Ag48  1  -0.00116709  0.50574508  0.50961386  1
  Ag  Ag49  1  0.66385261  0.00262574  0.66086197  1
  Ag  Ag50  1  0.50875232  0.16137051  0.66472757  1
  Ag  Ag51  1  0.16415609  0.15988691  0.33164908  1
  Ag  Ag52  1  0.16337394  0.83810061  0.32553996  1
  Ag  Ag53  1  0.50747858  0.33377107  0.83401067  1
  Sb  Sb54  1  0.34184176  -0.00497923  0.66904817  1
  Sb  Sb55  1  -0.00445461  0.50047339  0.15963436  1
  Sb  Sb56  1  0.50035363  0.83840828  0.33577213  1
  Sb  Sb57  1  0.00237533  0.66361659  0.67145812  1
  Sb  Sb58  1  0.33889570  0.50177707  0.15849498  1
  Sb  Sb59  1  0.33735201  0.67145430  0.33094295  1
  Sb  Sb60  1  -0.00234712  0.33435430  -0.00378650  1
  Sb  Sb61  1  -0.00363338  0.00002949  0.32885191  1
  Sb  Sb62  1  0.83215721  0.66743030  0.49918516  1
  Sb  Sb63  1  0.33011151  0.50318554  0.50760819  1
  Sb  Sb64  1  0.83430513  0.83887328  0.32991167  1
  Sb  Sb65  1  0.15944933  0.16518701  0.00328970  1
  Sb  Sb66  1  -0.00507293  0.00254028  0.67186543  1
  Sb  Sb67  1  0.83166175  0.49588357  0.32801309  1
  Sb  Sb68  1  0.16501592  0.50103902  0.33136707  1
  Sb  Sb69  1  -0.00857912  0.16400899  0.49915626  1
  Sb  Sb70  1  0.83322737  0.49505640  0.67241279  1
  Sb  Sb71  1  0.82936487  0.83889933  0.66764982  1
  Sb  Sb72  1  0.16188215  0.33415159  0.83701503  1
  Sb  Sb73  1  0.33217742  0.83328290  0.49988545  1
  Sb  Sb74  1  0.16489811  -0.00350999  0.50094720  1
  Sb  Sb75  1  0.50373080  0.66593068  0.83468535  1
  Sb  Sb76  1  0.33516924  0.16527520  0.16632957  1
  Sb  Sb77  1  0.34175911  0.16394171  0.49894459  1
  Sb  Sb78  1  0.16219684  0.66727918  0.83459973  1
  Sb  Sb79  1  0.83029719  0.32931977  0.16430409  1
  Sb  Sb80  1  0.66853038  0.50451869  0.83857848  1
  Sb  Sb81  1  0.50723096  0.33192603  0.50091586  1
  Sb  Sb82  1  0.50601323  0.16811974  0.00070104  1
  Sb  Sb83  1  0.33296039  0.82947373  0.83491238  1
  Sb  Sb84  1  0.49855241  0.82877069  -0.00246873  1
  Sb  Sb85  1  0.15718356  0.33749909  0.49622235  1
  Sb  Sb86  1  0.67073994  -0.00546538  0.00252495  1
  Sb  Sb87  1  -0.00433242  0.66886023  0.32857941  1
  Sb  Sb88  1  0.66954751  0.32798995  0.66486072  1
  Sb  Sb89  1  0.16314578  0.17055799  0.66403266  1
  Sb  Sb90  1  0.33383280  0.33496536  -0.00119838  1
  Sb  Sb91  1  0.16004139  0.00211365  0.16295271  1
  Sb  Sb92  1  0.83873442  0.83051522  0.00095614  1
  Sb  Sb93  1  -0.00570073  0.33019212  0.33519795  1
  Sb  Sb94  1  0.33182716  0.16806896  0.83364163  1
  Sb  Sb95  1  0.66193317  0.67159549  0.66788677  1
  Sb  Sb96  1  0.33847377  0.32645146  0.33144042  1
  Sb  Sb97  1  0.33312975  0.33852361  0.66937087  1
  Sb  Sb98  1  0.50800432  -0.00025000  0.16588974  1
  Sb  Sb99  1  0.67184722  0.16203797  0.83480066  1
  Sb  Sb100  1  0.50222338  0.49776842  0.33106387  1
  Sb  Sb101  1  0.33318952  0.83411501  0.16521909  1
  Sb  Sb102  1  0.66730272  0.33894584  0.00528535  1
  Sb  Sb103  1  0.66961180  0.49781897  0.49652520  1
  Sb  Sb104  1  0.66903205  0.83913353  0.49716977  1
  Sb  Sb105  1  0.16863492  0.82864765  0.66965882  1
  Sb  Sb106  1  0.16478542  0.66538220  0.16517701  1
  Sb  Sb107  1  0.83352068  0.00110317  0.83691224  1
  Te  Te108  1  0.16567518  0.16944783  0.17020578  1
  Te  Te109  1  0.16621676  0.16680043  0.49430108  1
  Te  Te110  1  0.16053044  0.16408642  0.83196082  1
  Te  Te111  1  0.16619753  0.49625188  0.16190428  1
  Te  Te112  1  0.16185833  0.50543520  0.50178143  1
  Te  Te113  1  0.16340566  0.49942186  0.83410651  1
  Te  Te114  1  0.16211267  0.83382590  0.16543972  1
  Te  Te115  1  0.16199750  0.82891578  0.50189268  1
  Te  Te116  1  0.16266606  0.83636921  0.83659213  1
  Te  Te117  1  0.50305503  0.16957478  0.16901333  1
  Te  Te118  1  0.50702570  0.16484767  0.50055245  1
  Te  Te119  1  0.50008559  0.16715585  0.83142636  1
  Te  Te120  1  0.50429343  0.49942099  0.16457131  1
  Te  Te121  1  0.49971913  0.50176388  0.50333880  1
  Te  Te122  1  0.50256075  0.49940362  0.83510189  1
  Te  Te123  1  0.50563612  0.82825297  0.16702778  1
  Te  Te124  1  0.50063010  0.83354852  0.50358788  1
  Te  Te125  1  0.50192707  0.83667381  0.83017605  1
  Te  Te126  1  0.83370693  0.16876232  0.16712816  1
  Te  Te127  1  0.83130818  0.16509465  0.50097535  1
  Te  Te128  1  0.83675583  0.16804440  0.83263145  1
  Te  Te129  1  0.82927511  0.50118078  0.16052977  1
  Te  Te130  1  0.83827494  0.49847039  0.50075439  1
  Te  Te131  1  0.83537333  0.49892061  0.83734799  1
  Te  Te132  1  0.83400953  0.83398816  0.16731455  1
  Te  Te133  1  0.83979959  0.83627501  0.49971003  1
  Te  Te134  1  0.83444713  0.83123654  0.83311565  1
  Te  Te135  1  0.16433518  -0.00081774  -0.00224806  1
  Te  Te136  1  0.16612517  -0.00203445  0.33433224  1
  Te  Te137  1  0.16951143  0.00005535  0.67186744  1
  Te  Te138  1  0.16742539  0.33661057  0.00543457  1
  Te  Te139  1  0.16823283  0.33133873  0.32796913  1
  Te  Te140  1  0.16176538  0.33977999  0.66616198  1
  Te  Te141  1  0.16906951  0.66682830  0.00107500  1
  Te  Te142  1  0.16764383  0.67115928  0.33735384  1
  Te  Te143  1  0.17091687  0.66215668  0.66270455  1
  Te  Te144  1  0.49734928  -0.00066102  -0.00389835  1
  Te  Te145  1  0.50174722  0.00356149  0.33288235  1
  Te  Te146  1  0.50199018  0.00129161  0.66681093  1
  Te  Te147  1  0.50056176  0.33681614  -0.00049250  1
  Te  Te148  1  0.50501982  0.32762267  0.33177134  1
  Te  Te149  1  0.50089947  0.33488326  0.66947374  1
  Te  Te150  1  0.49669687  0.66421926  0.00131462  1
  Te  Te151  1  0.50271448  0.66784269  0.33368999  1
  Te  Te152  1  0.49736334  0.66498805  0.66706510  1
  Te  Te153  1  0.83794076  0.00601841  0.00422105  1
  Te  Te154  1  0.83056542  0.00447475  0.33245356  1
  Te  Te155  1  0.82735098  0.00593658  0.66529129  1
  Te  Te156  1  0.83280482  0.33298163  -0.00660760  1
  Te  Te157  1  0.82796967  0.32867397  0.33607958  1
  Te  Te158  1  0.83505673  0.32922292  0.66939994  1
  Te  Te159  1  0.83392728  0.66630453  -0.00056397  1
  Te  Te160  1  0.82742663  0.66514442  0.33018084  1
  Te  Te161  1  0.83240649  0.66642785  0.67008146  1
  Te  Te162  1  -0.00428122  0.16715708  0.00047405  1
  Te  Te163  1  0.00264380  0.16611768  0.32919418  1
  Te  Te164  1  -0.00259257  0.17071215  0.66969311  1
  Te  Te165  1  -0.00038357  0.50248455  -0.00366781  1
  Te  Te166  1  -0.00034272  0.49980388  0.34067028  1
  Te  Te167  1  -0.00024104  0.49823294  0.67048548  1
  Te  Te168  1  0.00233997  0.83220903  -0.00117486  1
  Te  Te169  1  0.00379270  0.83331194  0.33401475  1
  Te  Te170  1  -0.00012907  0.83321631  0.67002491  1
  Te  Te171  1  0.33302253  0.15879273  -0.00127888  1
  Te  Te172  1  0.32672564  0.15956095  0.33313229  1
  Te  Te173  1  0.33819008  0.16687325  0.66646117  1
  Te  Te174  1  0.33354489  0.50184614  -0.00520496  1
  Te  Te175  1  0.33290637  0.49934911  0.33302095  1
  Te  Te176  1  0.33446699  0.50397791  0.67310943  1
  Te  Te177  1  0.32563815  0.83328155  -0.00016706  1
  Te  Te178  1  0.32580795  0.84028581  0.33225529  1
  Te  Te179  1  0.33977896  0.82532198  0.66719263  1
  Te  Te180  1  0.67332497  0.16584880  0.00336134  1
  Te  Te181  1  0.66960921  0.16259694  0.33428641  1
  Te  Te182  1  0.66692404  0.16307465  0.66867824  1
  Te  Te183  1  0.66555794  0.50472311  0.00384205  1
  Te  Te184  1  0.66622487  0.50778903  0.32813848  1
  Te  Te185  1  0.66007131  0.49956149  0.66533556  1
  Te  Te186  1  0.66555235  0.82802192  0.00054914  1
  Te  Te187  1  0.66722545  0.83147574  0.32821504  1
  Te  Te188  1  0.66215497  0.83924415  0.66905601  1
  Te  Te189  1  -0.00497620  -0.00030259  0.16258483  1
  Te  Te190  1  -0.00379566  -0.00521285  0.50219161  1
  Te  Te191  1  0.00062594  -0.00129985  0.83651615  1
  Te  Te192  1  0.00214810  0.33133082  0.16721806  1
  Te  Te193  1  -0.00697636  0.33540626  0.50458079  1
  Te  Te194  1  -0.00232615  0.33405384  0.83060798  1
  Te  Te195  1  -0.00343951  0.66974759  0.16099117  1
  Te  Te196  1  0.00016750  0.66759751  0.49917948  1
  Te  Te197  1  -0.00301090  0.66639926  0.83724964  1
  Te  Te198  1  0.33437942  -0.00099193  0.16507644  1
  Te  Te199  1  0.33835714  -0.00089473  0.49592583  1
  Te  Te200  1  0.33411305  -0.00016958  0.83649707  1
  Te  Te201  1  0.33902987  0.33365142  0.16630232  1
  Te  Te202  1  0.33105240  0.33377814  0.49991970  1
  Te  Te203  1  0.34026700  0.33922436  0.83372697  1
  Te  Te204  1  0.33761681  0.66746030  0.16062073  1
  Te  Te205  1  0.33791533  0.66676018  0.49945851  1
  Te  Te206  1  0.33198572  0.66268575  0.83535423  1
  Te  Te207  1  0.67150543  0.00445983  0.16921612  1
  Te  Te208  1  0.66628534  0.00020038  0.49887817  1
  Te  Te209  1  0.66309589  -0.00526264  0.83437370  1
  Te  Te210  1  0.66503191  0.32680596  0.16964166  1
  Te  Te211  1  0.67321666  0.33008393  0.49463131  1
  Te  Te212  1  0.66757641  0.33303578  0.83386571  1
  Te  Te213  1  0.66800234  0.66704234  0.16415038  1
  Te  Te214  1  0.66233141  0.66734719  0.49978033  1
  Te  Te215  1  0.67258303  0.67253083  0.83475590  1
