# generated using pymatgen
data_AgSbTe2
_symmetry_space_group_name_H-M   'P 1'
_cell_length_a   18.31425260
_cell_length_b   18.31146931
_cell_length_c   18.30678398
_cell_angle_alpha   90.00496414
_cell_angle_beta   90.00328282
_cell_angle_gamma   90.00035495
_symmetry_Int_Tables_number   1
_chemical_formula_structural   AgSbTe2
_chemical_formula_sum   'Ag54 Sb54 Te108'
_cell_volume   6139.37905035
_cell_formula_units_Z   54
loop_
 _symmetry_equiv_pos_site_id
 _symmetry_equiv_pos_as_xyz
  1  'x, y, z'
loop_
 _atom_site_type_symbol
 _atom_site_label
 _atom_site_symmetry_multiplicity
 _atom_site_fract_x
 _atom_site_fract_y
 _atom_site_fract_z
 _atom_site_occupancy
  Ag  Ag0  1  0.16644910  0.00745076  0.83701605  1
  Ag  Ag1  1  0.83353922  0.50047590  0.65732474  1
  Ag  Ag2  1  -0.00237283  0.16074203  0.16415289  1
  Ag  Ag3  1  0.50221899  0.66747519  0.16815753  1
  Ag  Ag4  1  0.34163573  0.82384043  0.50245324  1
  Ag  Ag5  1  0.51197918  0.16704590  0.33076985  1
  Ag  Ag6  1  0.16753742  0.66524883  0.16834764  1
  Ag  Ag7  1  0.50011938  0.00064238  0.84280611  1
  Ag  Ag8  1  0.67036494  0.16586145  0.84175165  1
  Ag  Ag9  1  0.66853341  0.32936407  0.33139136  1
  Ag  Ag10  1  0.16304304  0.33260493  0.83176048  1
  Ag  Ag11  1  0.16524133  0.34239744  0.50540299  1
  Ag  Ag12  1  0.32846908  0.49780085  0.83983595  1
  Ag  Ag13  1  0.83792117  0.33395639  0.82784743  1
  Ag  Ag14  1  -0.00413085  0.49906075  0.50471554  1
  Ag  Ag15  1  0.66568314  0.83624874  0.17124150  1
  Ag  Ag16  1  0.49932344  0.66316420  0.49618695  1
  Ag  Ag17  1  0.33536109  0.65998120  0.00468135  1
  Ag  Ag18  1  0.67022836  0.50144651  0.49548533  1
  Ag  Ag19  1  -0.00580259  0.83480423  0.16639872  1
  Ag  Ag20  1  0.16373320  0.16842844  -0.00071210  1
  Ag  Ag21  1  0.50362850  0.34291782  0.50013328  1
  Ag  Ag22  1  0.66308081  0.82620537  0.49755605  1
  Ag  Ag23  1  0.00331214  0.00324284  -0.00327973  1
  Ag  Ag24  1  0.33247717  0.33710532  0.66439282  1
  Ag  Ag25  1  0.82906773  0.66676946  0.17021055  1
  Ag  Ag26  1  0.33878803  0.16944692  0.16496692  1
  Ag  Ag27  1  0.49409104  0.50510866  0.00377913  1
  Ag  Ag28  1  0.50457832  -0.00368617  0.16064827  1
  Ag  Ag29  1  0.16877882  0.66072479  0.49877228  1
  Ag  Ag30  1  0.82960493  0.16937617  0.33245976  1
  Ag  Ag31  1  0.66243299  0.50291826  0.17025495  1
  Ag  Ag32  1  0.66755481  -0.00433024  0.66704742  1
  Ag  Ag33  1  0.34175734  -0.00233225  -0.00065090  1
  Ag  Ag34  1  0.66504948  0.16217150  0.16781088  1
  Ag  Ag35  1  0.16783741  0.83245300  0.66486386  1
  Ag  Ag36  1  0.34070324  0.50189611  0.16020229  1
  Ag  Ag37  1  -0.00269473  0.66665846  0.66053441  1
  Ag  Ag38  1  -0.00289982  -0.00337829  0.67229949  1
  Ag  Ag39  1  0.66887446  0.67017871  0.66135453  1
  Ag  Ag40  1  0.50136156  0.83328013  0.66373120  1
  Ag  Ag41  1  -0.00006958  0.17417225  0.50022453  1
  Ag  Ag42  1  0.49989975  0.83704610  0.00143578  1
  Ag  Ag43  1  -0.00325697  0.66532942  0.33606719  1
  Ag  Ag44  1  0.66568303  0.32624864  0.00636957  1
  Ag  Ag45  1  0.83121321  0.49889141  0.33836851  1
  Ag  Ag46  1  0.17329762  0.49726585  -0.00267068  1
  Ag  Ag47  1  0.00434576  0.49321598  0.82914279  1
  Ag  Ag48  1  0.82991280  0.82762642  0.33158643  1
  Ag  Ag49  1  -0.00081551  0.16880886  0.83516011  1
  Ag  Ag50  1  0.33414334  0.50261798  0.50015128  1
  Ag  Ag51  1  0.66674910  0.00519360  0.32517586  1
  Ag  Ag52  1  0.83182912  0.33840446  0.50084363  1
  Ag  Ag53  1  0.65857840  0.00421485  0.00397861  1
  Sb  Sb54  1  0.50783670  0.83508085  0.33267850  1
  Sb  Sb55  1  0.16232679  0.50078324  0.33438399  1
  Sb  Sb56  1  0.16695072  0.33653702  0.16505581  1
  Sb  Sb57  1  0.33080357  0.66535323  0.33154688  1
  Sb  Sb58  1  0.50281445  -0.00316344  0.49889132  1
  Sb  Sb59  1  0.66052761  0.66826754  0.00170421  1
  Sb  Sb60  1  0.82558376  -0.00332051  0.16773298  1
  Sb  Sb61  1  0.49941332  0.33014101  0.82975875  1
  Sb  Sb62  1  0.00512802  0.66933355  0.00218678  1
  Sb  Sb63  1  0.83339843  0.16712935  0.00474013  1
  Sb  Sb64  1  0.00281842  0.33614772  0.66661897  1
  Sb  Sb65  1  0.16181217  0.83141345  0.33618287  1
  Sb  Sb66  1  0.66473760  0.33340260  0.66332009  1
  Sb  Sb67  1  0.16661680  0.66309963  0.83209338  1
  Sb  Sb68  1  -0.00703920  0.33604746  0.33712283  1
  Sb  Sb69  1  0.17108966  0.83364062  -0.00282662  1
  Sb  Sb70  1  0.33416973  0.83037005  0.83161909  1
  Sb  Sb71  1  0.00122638  0.83665212  0.83575957  1
  Sb  Sb72  1  0.83492160  0.17185068  0.66366386  1
  Sb  Sb73  1  0.16311003  0.50310544  0.66775753  1
  Sb  Sb74  1  0.82757430  0.83396808  0.00703817  1
  Sb  Sb75  1  0.82969674  0.33602302  0.17003131  1
  Sb  Sb76  1  0.50266212  0.50522525  0.66505990  1
  Sb  Sb77  1  0.34137512  0.00076097  0.32735029  1
  Sb  Sb78  1  0.33680099  0.33604181  -0.00248492  1
  Sb  Sb79  1  0.83173413  0.00471215  0.49961184  1
  Sb  Sb80  1  0.33473070  0.00024826  0.67180066  1
  Sb  Sb81  1  0.83211763  0.49796432  0.00214208  1
  Sb  Sb82  1  0.16493739  -0.00201849  0.50675651  1
  Sb  Sb83  1  -0.00107523  0.50257209  0.16692495  1
  Sb  Sb84  1  0.83299045  0.00770020  0.83268900  1
  Sb  Sb85  1  0.50689203  0.49769093  0.33224136  1
  Sb  Sb86  1  0.50273476  0.16191410  0.66264670  1
  Sb  Sb87  1  0.49978971  0.66920978  0.83446554  1
  Sb  Sb88  1  0.66472053  0.84052628  0.83269593  1
  Sb  Sb89  1  0.67221498  0.66618928  0.33506384  1
  Sb  Sb90  1  0.16387368  0.16487027  0.67194709  1
  Sb  Sb91  1  -0.00263588  0.32951134  -0.00239565  1
  Sb  Sb92  1  0.83431884  0.65969809  0.83527998  1
  Sb  Sb93  1  0.83060430  0.82806733  0.66003139  1
  Sb  Sb94  1  0.33981690  0.33417110  0.33758512  1
  Sb  Sb95  1  0.33364998  0.66393923  0.66518770  1
  Sb  Sb96  1  0.33005676  0.17063916  0.49518987  1
  Sb  Sb97  1  0.33751253  0.83017110  0.16792573  1
  Sb  Sb98  1  0.66976330  0.16955279  0.49468728  1
  Sb  Sb99  1  0.33134042  0.16918486  0.83925744  1
  Sb  Sb100  1  -0.00655816  -0.00184062  0.33155945  1
  Sb  Sb101  1  0.66688534  0.49442645  0.83397470  1
  Sb  Sb102  1  0.16963455  -0.00233620  0.15986964  1
  Sb  Sb103  1  0.16201772  0.16812990  0.32835252  1
  Sb  Sb104  1  0.83291400  0.65911690  0.49429700  1
  Sb  Sb105  1  0.50313925  0.33432218  0.16948853  1
  Sb  Sb106  1  0.49988633  0.16478230  0.00523960  1
  Sb  Sb107  1  -0.00327494  0.82847953  0.49759168  1
  Te  Te108  1  0.16459445  0.16696728  0.16062753  1
  Te  Te109  1  0.16058328  0.16920061  0.49939200  1
  Te  Te110  1  0.16420472  0.16844149  0.83805666  1
  Te  Te111  1  0.16792977  0.50408916  0.16367390  1
  Te  Te112  1  0.16667349  0.50119598  0.50088639  1
  Te  Te113  1  0.16620079  0.49719893  0.83429074  1
  Te  Te114  1  0.16539537  0.82666573  0.16644872  1
  Te  Te115  1  0.16597060  0.82944853  0.50426523  1
  Te  Te116  1  0.16685716  0.83760908  0.82734183  1
  Te  Te117  1  0.50254519  0.16756181  0.16962871  1
  Te  Te118  1  0.49828359  0.16890335  0.49391976  1
  Te  Te119  1  0.50270240  0.16117798  0.83244414  1
  Te  Te120  1  0.50111376  0.50116333  0.16610322  1
  Te  Te121  1  0.50030117  0.50269783  0.49982600  1
  Te  Te122  1  0.49659689  0.49987652  0.83733887  1
  Te  Te123  1  0.50234821  0.83149502  0.16583616  1
  Te  Te124  1  0.50293863  0.83065912  0.50018772  1
  Te  Te125  1  0.49963103  0.83853187  0.83448407  1
  Te  Te126  1  0.83199314  0.16799554  0.17161447  1
  Te  Te127  1  0.83873071  0.17367142  0.49629805  1
  Te  Te128  1  0.83530636  0.17418092  0.83192946  1
  Te  Te129  1  0.83001912  0.50390115  0.17005900  1
  Te  Te130  1  0.83267588  0.49872759  0.49907063  1
  Te  Te131  1  0.83644480  0.49310543  0.83315473  1
  Te  Te132  1  0.83148423  0.82913458  0.17102379  1
  Te  Te133  1  0.82620794  0.83373940  0.49265138  1
  Te  Te134  1  0.83356967  0.83068650  0.83400077  1
  Te  Te135  1  0.16403024  0.00104581  -0.00388190  1
  Te  Te136  1  0.16760416  0.00022968  0.33390225  1
  Te  Te137  1  0.16484549  -0.00451414  0.67412447  1
  Te  Te138  1  0.16680929  0.33380271  -0.00316942  1
  Te  Te139  1  0.16632094  0.33316593  0.34083924  1
  Te  Te140  1  0.17037415  0.33270749  0.66635217  1
  Te  Te141  1  0.17293457  0.66456584  0.00208611  1
  Te  Te142  1  0.15922470  0.66695576  0.33431138  1
  Te  Te143  1  0.16412138  0.67189832  0.66364874  1
  Te  Te144  1  0.50045003  0.00110318  0.00063600  1
  Te  Te145  1  0.50642198  0.00490631  0.32800707  1
  Te  Te146  1  0.50302871  -0.00551724  0.66890252  1
  Te  Te147  1  0.50679630  0.33842415  -0.00206658  1
  Te  Te148  1  0.50674672  0.32917837  0.33969745  1
  Te  Te149  1  0.49548258  0.33272795  0.66030001  1
  Te  Te150  1  0.49589167  0.66613468  0.00154086  1
  Te  Te151  1  0.49911494  0.66668544  0.33372714  1
  Te  Te152  1  0.50292062  0.67256110  0.66334230  1
  Te  Te153  1  0.83628057  -0.00038277  -0.00037035  1
  Te  Te154  1  0.82650175  0.00434938  0.33400901  1
  Te  Te155  1  0.83293661  -0.00255363  0.66672089  1
  Te  Te156  1  0.82548435  0.33322830  -0.00700785  1
  Te  Te157  1  0.82828279  0.33488102  0.33702337  1
  Te  Te158  1  0.83333612  0.33908974  0.66474389  1
  Te  Te159  1  0.83380140  0.66653843  0.00895767  1
  Te  Te160  1  0.83734880  0.66519147  0.32886803  1
  Te  Te161  1  0.83445685  0.66139378  0.66770752  1
  Te  Te162  1  0.00054252  0.16431272  -0.00078604  1
  Te  Te163  1  -0.00563685  0.16634056  0.33279818  1
  Te  Te164  1  -0.00038091  0.15972299  0.66777327  1
  Te  Te165  1  0.00467857  0.49984245  -0.00374662  1
  Te  Te166  1  -0.00558184  0.50409556  0.33593380  1
  Te  Te167  1  -0.00276453  0.50227109  0.66624116  1
  Te  Te168  1  0.00027268  0.83825375  0.00569308  1
  Te  Te169  1  -0.00596186  0.83068548  0.32765338  1
  Te  Te170  1  -0.00057093  0.83338704  0.66640918  1
  Te  Te171  1  0.33046867  0.16570447  0.00533097  1
  Te  Te172  1  0.33392520  0.16675677  0.32435278  1
  Te  Te173  1  0.33365244  0.17155761  0.66587884  1
  Te  Te174  1  0.33309100  0.49823668  0.00125945  1
  Te  Te175  1  0.33180454  0.49937110  0.33600402  1
  Te  Te176  1  0.33448274  0.49794319  0.66199468  1
  Te  Te177  1  0.33905996  0.83550142  -0.00026480  1
  Te  Te178  1  0.33244939  0.83436270  0.34287211  1
  Te  Te179  1  0.33495870  0.83287767  0.66242793  1
  Te  Te180  1  0.66645233  0.16568502  0.00279374  1
  Te  Te181  1  0.66887853  0.16650442  0.33291224  1
  Te  Te182  1  0.66795871  0.15983412  0.66943471  1
  Te  Te183  1  0.66406964  0.49987388  0.00336615  1
  Te  Te184  1  0.67051518  0.49827206  0.33310459  1
  Te  Te185  1  0.67061460  0.50223906  0.66444075  1
  Te  Te186  1  0.66046865  0.83684110  0.00353747  1
  Te  Te187  1  0.67071237  0.83507848  0.33170588  1
  Te  Te188  1  0.66530136  0.83340455  0.66534849  1
  Te  Te189  1  0.00134511  0.00050388  0.16462546  1
  Te  Te190  1  -0.00016290  0.00271219  0.50307059  1
  Te  Te191  1  0.00007743  0.00331646  0.83331991  1
  Te  Te192  1  -0.00035657  0.32541853  0.16679889  1
  Te  Te193  1  0.00055641  0.33582195  0.50152794  1
  Te  Te194  1  0.00190065  0.33254518  0.83237536  1
  Te  Te195  1  0.00345169  0.66814161  0.16662816  1
  Te  Te196  1  0.00131194  0.66409212  0.50063108  1
  Te  Te197  1  0.00031126  0.66191541  0.82944125  1
  Te  Te198  1  0.33829951  0.00107126  0.16065771  1
  Te  Te199  1  0.33330130  -0.00204636  0.50030841  1
  Te  Te200  1  0.33345352  0.00053152  0.83898881  1
  Te  Te201  1  0.33341457  0.33544880  0.16807756  1
  Te  Te202  1  0.33223849  0.33559411  0.50271851  1
  Te  Te203  1  0.33049292  0.33704776  0.82927999  1
  Te  Te204  1  0.33500676  0.66356896  0.16575163  1
  Te  Te205  1  0.33315532  0.66490765  0.49920679  1
  Te  Te206  1  0.33284288  0.65874936  0.83948180  1
  Te  Te207  1  0.66483098  -0.00001725  0.16521948  1
  Te  Te208  1  0.66630490  -0.00199044  0.50490339  1
  Te  Te209  1  0.66639895  0.00545687  0.83549564  1
  Te  Te210  1  0.66683111  0.33448409  0.16690069  1
  Te  Te211  1  0.66629266  0.33632221  0.49836555  1
  Te  Te212  1  0.66770864  0.32683754  0.83298019  1
  Te  Te213  1  0.66275598  0.66478075  0.16644401  1
  Te  Te214  1  0.66549924  0.66476697  0.50053336  1
  Te  Te215  1  0.66736925  0.66595132  0.82526315  1
