# generated using pymatgen
data_AgSbTe2
_symmetry_space_group_name_H-M   'P 1'
_cell_length_a   18.34132091
_cell_length_b   18.33086567
_cell_length_c   18.33597672
_cell_angle_alpha   89.99738889
_cell_angle_beta   90.00099534
_cell_angle_gamma   89.99916682
_symmetry_Int_Tables_number   1
_chemical_formula_structural   AgSbTe2
_chemical_formula_sum   'Ag54 Sb54 Te108'
_cell_volume   6164.78071161
_cell_formula_units_Z   54
loop_
 _symmetry_equiv_pos_site_id
 _symmetry_equiv_pos_as_xyz
  1  'x, y, z'
loop_
 _atom_site_type_symbol
 _atom_site_label
 _atom_site_symmetry_multiplicity
 _atom_site_fract_x
 _atom_site_fract_y
 _atom_site_fract_z
 _atom_site_occupancy
  Ag  Ag0  1  0.33191756  0.33041708  0.33245944  1
  Ag  Ag1  1  0.00563369  0.16773982  0.17066360  1
  Ag  Ag2  1  0.16957526  0.16434748  0.01397546  1
  Ag  Ag3  1  0.00142374  0.49005641  0.17274226  1
  Ag  Ag4  1  0.16068414  0.01102928  0.16770636  1
  Ag  Ag5  1  0.50528216  0.01382194  0.83218121  1
  Ag  Ag6  1  0.66522653  0.00694980  0.32420948  1
  Ag  Ag7  1  0.83266872  0.49381751  0.00240419  1
  Ag  Ag8  1  0.66199939  0.85045111  0.16623255  1
  Ag  Ag9  1  0.33124227  0.84099661  0.16667649  1
  Ag  Ag10  1  0.32070110  0.16458442  0.17105599  1
  Ag  Ag11  1  0.16406782  0.17024448  0.32726047  1
  Ag  Ag12  1  0.49707381  0.65824439  0.83936481  1
  Ag  Ag13  1  0.83608821  0.32739621  0.16266873  1
  Ag  Ag14  1  0.00191774  0.00974360  0.32793686  1
  Ag  Ag15  1  0.49632008  0.16718534  0.32869890  1
  Ag  Ag16  1  0.66937143  0.32840373  0.00124689  1
  Ag  Ag17  1  0.32454702  0.49776836  0.49951842  1
  Ag  Ag18  1  0.67089261  0.00931164  0.66780128  1
  Ag  Ag19  1  0.50081281  0.00423162  0.49490540  1
  Ag  Ag20  1  0.32898858  0.33519341  0.66671008  1
  Ag  Ag21  1  0.50826982  0.16809222  0.67032877  1
  Ag  Ag22  1  0.16793604  0.49368060  0.33471768  1
  Ag  Ag23  1  0.33333704  0.49481821  0.82908970  1
  Ag  Ag24  1  0.84271933  0.16607369  0.32296040  1
  Ag  Ag25  1  0.16634827  0.83415613  0.67064623  1
  Ag  Ag26  1  0.00806932  0.49421612  0.49337732  1
  Ag  Ag27  1  0.66920036  0.16693490  0.16946470  1
  Ag  Ag28  1  0.17123014  0.33356294  0.83444205  1
  Ag  Ag29  1  0.49357413  0.66271909  0.16529732  1
  Ag  Ag30  1  0.49213666  0.49323527  0.33260958  1
  Ag  Ag31  1  0.16966099  0.66488433  0.16951286  1
  Ag  Ag32  1  0.67217147  0.49337642  0.16975141  1
  Ag  Ag33  1  -0.00441205  0.00416174  0.01086157  1
  Ag  Ag34  1  0.82818765  0.01068060  0.83950052  1
  Ag  Ag35  1  0.50001616  0.16697166  0.00754474  1
  Ag  Ag36  1  0.00036045  0.16945457  0.49013911  1
  Ag  Ag37  1  0.83090643  0.32876728  0.83033071  1
  Ag  Ag38  1  0.33347504  0.66521624  0.00472440  1
  Ag  Ag39  1  0.50014085  0.33100731  0.83067704  1
  Ag  Ag40  1  0.66637634  0.49745641  0.49485952  1
  Ag  Ag41  1  0.33398056  0.01131926  0.32863856  1
  Ag  Ag42  1  0.16653063  0.65978017  0.48911071  1
  Ag  Ag43  1  0.16368104  0.49607807  0.65605679  1
  Ag  Ag44  1  0.82918524  0.17028657  0.66461123  1
  Ag  Ag45  1  0.00477065  0.65819138  0.33128954  1
  Ag  Ag46  1  0.67084821  0.00836278  0.00959081  1
  Ag  Ag47  1  0.16870886  0.84255314  0.00526198  1
  Ag  Ag48  1  0.16240300  0.32330763  0.16595981  1
  Ag  Ag49  1  0.83595761  0.01006494  0.16375381  1
  Ag  Ag50  1  -0.00500415  0.32947180  0.66798210  1
  Ag  Ag51  1  0.67319106  0.32704684  0.67288426  1
  Ag  Ag52  1  -0.00391591  0.01196179  0.66531936  1
  Ag  Ag53  1  0.83764379  0.48750131  0.66930336  1
  Sb  Sb54  1  0.66478981  0.84058169  0.83961283  1
  Sb  Sb55  1  0.33280993  0.83031971  0.83912342  1
  Sb  Sb56  1  0.17081592  0.65991501  0.83715863  1
  Sb  Sb57  1  0.83519113  0.66319121  0.16683464  1
  Sb  Sb58  1  0.83670196  0.83621460  0.00274689  1
  Sb  Sb59  1  0.16670181  0.00596423  0.83781412  1
  Sb  Sb60  1  0.49485081  0.66374883  0.49710654  1
  Sb  Sb61  1  0.32906783  0.66209106  0.32749874  1
  Sb  Sb62  1  0.83413096  0.84375802  0.32901223  1
  Sb  Sb63  1  0.66299194  0.32845289  0.32986355  1
  Sb  Sb64  1  0.82734967  0.66026690  0.83390255  1
  Sb  Sb65  1  0.66141609  0.66514489  0.00349834  1
  Sb  Sb66  1  0.16379112  0.17309913  0.66412357  1
  Sb  Sb67  1  0.49561835  0.84306097  0.66957757  1
  Sb  Sb68  1  0.33272775  0.00790151  0.66249063  1
  Sb  Sb69  1  0.66506500  0.66151921  0.66614004  1
  Sb  Sb70  1  0.00374599  0.49653982  0.83293352  1
  Sb  Sb71  1  0.50074824  0.00415465  0.16670933  1
  Sb  Sb72  1  0.00313063  0.66094326  0.66108722  1
  Sb  Sb73  1  0.00285269  0.83562808  0.49918961  1
  Sb  Sb74  1  0.66648913  0.16753508  0.83903668  1
  Sb  Sb75  1  0.33530516  0.33506240  0.00115522  1
  Sb  Sb76  1  0.16809668  -0.00189896  0.49371970  1
  Sb  Sb77  1  0.16749686  0.83433095  0.32714144  1
  Sb  Sb78  1  0.33031481  0.83010684  0.49478079  1
  Sb  Sb79  1  0.50240379  0.49524517  0.00377215  1
  Sb  Sb80  1  0.66950297  0.66724039  0.33004938  1
  Sb  Sb81  1  0.00450982  0.84082344  0.16743925  1
  Sb  Sb82  1  0.83647661  0.49069638  0.33122353  1
  Sb  Sb83  1  0.32987078  0.17220161  0.49237704  1
  Sb  Sb84  1  0.16390282  0.49537540  0.00568826  1
  Sb  Sb85  1  0.00198389  0.83696187  0.83341778  1
  Sb  Sb86  1  0.16590142  0.33792165  0.49725706  1
  Sb  Sb87  1  0.49848138  0.83705774  0.32865759  1
  Sb  Sb88  1  -0.00351322  0.32811738  0.00103928  1
  Sb  Sb89  1  0.00502761  0.32994243  0.33290991  1
  Sb  Sb90  1  0.00641676  0.66929484  0.00833887  1
  Sb  Sb91  1  0.33417352  -0.00021636  0.00578165  1
  Sb  Sb92  1  0.66443710  0.83545151  0.49600736  1
  Sb  Sb93  1  0.33226242  0.65964774  0.67051709  1
  Sb  Sb94  1  0.33586646  0.17164763  0.83711070  1
  Sb  Sb95  1  0.83129668  0.00402224  0.49722385  1
  Sb  Sb96  1  0.33028786  0.49598255  0.16880901  1
  Sb  Sb97  1  0.50058930  0.33285194  0.16412409  1
  Sb  Sb98  1  0.83138057  0.16903315  0.00386341  1
  Sb  Sb99  1  0.83413748  0.33155376  0.50197159  1
  Sb  Sb100  1  0.49688374  0.83890876  0.00341625  1
  Sb  Sb101  1  0.66257822  0.49461767  0.83467383  1
  Sb  Sb102  1  0.84048942  0.65861029  0.49876265  1
  Sb  Sb103  1  0.49936649  0.49139051  0.66361552  1
  Sb  Sb104  1  0.66808830  0.16951338  0.49817912  1
  Sb  Sb105  1  -0.00191008  0.16757828  0.83616540  1
  Sb  Sb106  1  0.49987320  0.32854002  0.50342436  1
  Sb  Sb107  1  0.83720114  0.84325416  0.66796373  1
  Te  Te108  1  0.16494985  0.16627876  0.16956394  1
  Te  Te109  1  0.16064264  0.16494721  0.49305168  1
  Te  Te110  1  0.16858069  0.17407168  0.83553509  1
  Te  Te111  1  0.16344255  0.50295878  0.16965055  1
  Te  Te112  1  0.16496512  0.50092452  0.49757966  1
  Te  Te113  1  0.17125676  0.49353393  0.83422446  1
  Te  Te114  1  0.16978451  0.82757920  0.16321883  1
  Te  Te115  1  0.16744543  0.82622404  0.50773936  1
  Te  Te116  1  0.16856820  0.83242615  0.83308007  1
  Te  Te117  1  0.50795573  0.16837218  0.16743088  1
  Te  Te118  1  0.49887973  0.16296488  0.49446550  1
  Te  Te119  1  0.50018713  0.17053420  0.83161828  1
  Te  Te120  1  0.50021020  0.50033780  0.17028721  1
  Te  Te121  1  0.50270572  0.50076740  0.49418073  1
  Te  Te122  1  0.49583297  0.49689358  0.83258175  1
  Te  Te123  1  0.49875016  0.82488555  0.16585590  1
  Te  Te124  1  0.49875767  0.83918746  0.50069705  1
  Te  Te125  1  0.49904542  0.82868477  0.83491454  1
  Te  Te126  1  0.83073955  0.16672904  0.16460662  1
  Te  Te127  1  0.83999861  0.16634489  0.50269327  1
  Te  Te128  1  0.83305561  0.16793202  0.82745929  1
  Te  Te129  1  0.83511661  0.49784985  0.16584967  1
  Te  Te130  1  0.83198074  0.49790057  0.50425974  1
  Te  Te131  1  0.83284156  0.49508102  0.83158707  1
  Te  Te132  1  0.82592987  0.83577544  0.16540659  1
  Te  Te133  1  0.83232450  0.82959759  0.50025072  1
  Te  Te134  1  0.83285228  0.83753545  0.83436500  1
  Te  Te135  1  0.16688911  0.00238227  0.00243854  1
  Te  Te136  1  0.16521628  0.00078626  0.32940163  1
  Te  Te137  1  0.16366855  0.00003544  0.66734087  1
  Te  Te138  1  0.16548334  0.32914071  0.00128443  1
  Te  Te139  1  0.16962152  0.33382963  0.33000385  1
  Te  Te140  1  0.16895877  0.33626646  0.66869871  1
  Te  Te141  1  0.17097584  0.66697369  0.00442117  1
  Te  Te142  1  0.16484619  0.66759909  0.33105987  1
  Te  Te143  1  0.16654417  0.66090516  0.66882749  1
  Te  Te144  1  0.50413677  0.00513650  -0.00472916  1
  Te  Te145  1  0.50146638  0.00293262  0.33244878  1
  Te  Te146  1  0.50049144  0.00630853  0.67094568  1
  Te  Te147  1  0.50459984  0.32848922  -0.00485043  1
  Te  Te148  1  0.49516263  0.33363018  0.33405787  1
  Te  Te149  1  0.50085789  0.32846626  0.67022185  1
  Te  Te150  1  0.49596547  0.66545542  0.00132332  1
  Te  Te151  1  0.50058283  0.66238350  0.32941870  1
  Te  Te152  1  0.49973047  0.66948367  0.66971156  1
  Te  Te153  1  0.83301501  0.00043813  -0.00056820  1
  Te  Te154  1  0.83288938  0.00751898  0.32974161  1
  Te  Te155  1  0.83411899  0.00461199  0.66718666  1
  Te  Te156  1  0.83069547  0.33474274  0.00011672  1
  Te  Te157  1  0.83081539  0.32514551  0.32521620  1
  Te  Te158  1  0.83278936  0.33105400  0.66646327  1
  Te  Te159  1  0.83375052  0.66100665  -0.00193863  1
  Te  Te160  1  0.84174728  0.66786515  0.33304322  1
  Te  Te161  1  0.83399459  0.66484121  0.66788821  1
  Te  Te162  1  0.00500833  0.16278874  0.00541622  1
  Te  Te163  1  0.00111691  0.16766702  0.33144472  1
  Te  Te164  1  0.00001557  0.16900242  0.66899278  1
  Te  Te165  1  -0.00481532  0.50014569  0.00539151  1
  Te  Te166  1  0.00149063  0.49763600  0.33325145  1
  Te  Te167  1  0.00051306  0.49701816  0.66594832  1
  Te  Te168  1  0.00729263  0.84073502  0.00031912  1
  Te  Te169  1  -0.00024518  0.83705571  0.33439379  1
  Te  Te170  1  0.00561720  0.83513453  0.66589628  1
  Te  Te171  1  0.33502418  0.16661951  0.00665320  1
  Te  Te172  1  0.33412321  0.16872574  0.33155910  1
  Te  Te173  1  0.33618554  0.17404103  0.66468243  1
  Te  Te174  1  0.33313606  0.50319922  -0.00393483  1
  Te  Te175  1  0.33169296  0.49715501  0.33515335  1
  Te  Te176  1  0.33214734  0.49535728  0.66581340  1
  Te  Te177  1  0.32907225  0.82963769  0.00593960  1
  Te  Te178  1  0.33345330  0.83939616  0.32714445  1
  Te  Te179  1  0.32706821  0.83422119  0.66514323  1
  Te  Te180  1  0.66489164  0.16704122  0.00438313  1
  Te  Te181  1  0.66166848  0.16454689  0.33353198  1
  Te  Te182  1  0.66666722  0.16692503  0.66206411  1
  Te  Te183  1  0.67027222  0.49716586  0.00405381  1
  Te  Te184  1  0.66874375  0.49940173  0.33254270  1
  Te  Te185  1  0.66960439  0.49633488  0.66510535  1
  Te  Te186  1  0.66756870  0.83719860  0.00712155  1
  Te  Te187  1  0.66642208  0.83938102  0.32729504  1
  Te  Te188  1  0.66700725  0.83741875  0.66580789  1
  Te  Te189  1  -0.00020552  0.00175572  0.16811966  1
  Te  Te190  1  -0.00018368  0.00329361  0.50131783  1
  Te  Te191  1  -0.00299462  0.00103916  0.82705611  1
  Te  Te192  1  0.00017026  0.33110983  0.16581883  1
  Te  Te193  1  -0.00008496  0.33417866  0.50712172  1
  Te  Te194  1  -0.00400316  0.33391247  0.82953543  1
  Te  Te195  1  0.00297279  0.66710620  0.17157150  1
  Te  Te196  1  0.00654718  0.66177885  0.49394805  1
  Te  Te197  1  -0.00205327  0.66753005  0.83574814  1
  Te  Te198  1  0.33317422  0.00157817  0.16940659  1
  Te  Te199  1  0.33733113  -0.00062435  0.49326569  1
  Te  Te200  1  0.33964876  -0.00083460  0.83243344  1
  Te  Te201  1  0.32933607  0.32869723  0.16888531  1
  Te  Te202  1  0.33393758  0.33898203  0.50025545  1
  Te  Te203  1  0.33370795  0.33549163  0.83314926  1
  Te  Te204  1  0.33318511  0.66368502  0.16553194  1
  Te  Te205  1  0.32787414  0.66053770  0.49981326  1
  Te  Te206  1  0.33796857  0.66219644  0.83806022  1
  Te  Te207  1  0.66380273  0.00547965  0.16625585  1
  Te  Te208  1  0.66240003  -0.00033980  0.50421861  1
  Te  Te209  1  0.66702344  0.00097147  0.82848533  1
  Te  Te210  1  0.66719122  0.33320085  0.16448225  1
  Te  Te211  1  0.66610043  0.33832220  0.50588036  1
  Te  Te212  1  0.66867541  0.33329381  0.83379299  1
  Te  Te213  1  0.66433612  0.65569516  0.16688588  1
  Te  Te214  1  0.66533987  0.66088266  0.49885198  1
  Te  Te215  1  0.65795988  0.66815991  0.83461304  1
