# generated using pymatgen
data_AgSbTe2
_symmetry_space_group_name_H-M   'P 1'
_cell_length_a   18.35912979
_cell_length_b   18.35608198
_cell_length_c   18.36215527
_cell_angle_alpha   90.00120549
_cell_angle_beta   90.00331650
_cell_angle_gamma   89.99675181
_symmetry_Int_Tables_number   1
_chemical_formula_structural   AgSbTe2
_chemical_formula_sum   'Ag54 Sb54 Te108'
_cell_volume   6188.07736595
_cell_formula_units_Z   54
loop_
 _symmetry_equiv_pos_site_id
 _symmetry_equiv_pos_as_xyz
  1  'x, y, z'
loop_
 _atom_site_type_symbol
 _atom_site_label
 _atom_site_symmetry_multiplicity
 _atom_site_fract_x
 _atom_site_fract_y
 _atom_site_fract_z
 _atom_site_occupancy
  Ag  Ag0  1  0.83127452  0.66368968  0.82851574  1
  Ag  Ag1  1  0.33669995  0.00390208  0.33099717  1
  Ag  Ag2  1  0.66905854  0.66725565  -0.00064350  1
  Ag  Ag3  1  0.51551610  0.65423716  0.49911786  1
  Ag  Ag4  1  0.66255043  0.00736697  0.65688142  1
  Ag  Ag5  1  0.50983581  0.32607433  0.81866356  1
  Ag  Ag6  1  -0.01106037  0.50233271  0.49378577  1
  Ag  Ag7  1  0.83064520  0.66706199  0.49967040  1
  Ag  Ag8  1  0.33154775  0.00504040  0.00849013  1
  Ag  Ag9  1  0.66796051  0.83907887  0.82451955  1
  Ag  Ag10  1  0.66849543  0.33160990  0.34427133  1
  Ag  Ag11  1  0.51365763  0.33316919  0.50576022  1
  Ag  Ag12  1  0.50163844  0.00832586  0.82446207  1
  Ag  Ag13  1  0.32992609  0.84837123  0.17108863  1
  Ag  Ag14  1  0.66286160  0.00651595  -0.00184359  1
  Ag  Ag15  1  -0.01109186  0.82925430  0.49842226  1
  Ag  Ag16  1  0.66105937  0.32659626  0.65514219  1
  Ag  Ag17  1  0.50227706  0.48326266  0.65709138  1
  Ag  Ag18  1  -0.00974378  0.32830997  0.01037340  1
  Ag  Ag19  1  0.17029558  0.16891236  0.32667517  1
  Ag  Ag20  1  -0.00224333  0.00196695  0.66487734  1
  Ag  Ag21  1  0.16962441  0.00992898  0.16345578  1
  Ag  Ag22  1  0.17030757  0.16372496  0.66571330  1
  Ag  Ag23  1  0.00791374  0.00571551  -0.00256470  1
  Ag  Ag24  1  0.34804144  0.32203402  0.65775297  1
  Ag  Ag25  1  0.50859660  0.49590596  0.34002149  1
  Ag  Ag26  1  0.51263167  0.00608970  0.50507108  1
  Ag  Ag27  1  0.67076365  0.85176387  0.50082546  1
  Ag  Ag28  1  0.81931722  0.16766869  0.66295249  1
  Ag  Ag29  1  0.83838934  0.33638796  0.17918879  1
  Ag  Ag30  1  0.82487667  0.33757333  0.49686123  1
  Ag  Ag31  1  0.17064756  0.16312370  0.01026634  1
  Ag  Ag32  1  0.66639543  0.16704832  0.50124940  1
  Ag  Ag33  1  0.32951997  0.16544092  0.16997387  1
  Ag  Ag34  1  0.50047622  0.16513496  -0.00557941  1
  Ag  Ag35  1  -0.01338215  0.33962818  0.32928715  1
  Ag  Ag36  1  0.66506700  0.00461883  0.34615849  1
  Ag  Ag37  1  0.82459368  0.33565004  0.82846367  1
  Ag  Ag38  1  -0.00215537  0.49564226  0.17634308  1
  Ag  Ag39  1  0.32999219  0.66451974  0.33248844  1
  Ag  Ag40  1  0.82501893  -0.00044527  0.50033155  1
  Ag  Ag41  1  -0.00801259  0.65737999  0.33494213  1
  Ag  Ag42  1  0.17366198  0.00282792  0.83832831  1
  Ag  Ag43  1  0.83425162  0.50039101  0.33696059  1
  Ag  Ag44  1  0.50114819  0.16939642  0.66707744  1
  Ag  Ag45  1  0.83695172  0.65988951  0.18278721  1
  Ag  Ag46  1  0.66924953  0.48227859  0.49795146  1
  Ag  Ag47  1  0.33635299  0.33054288  0.33636930  1
  Ag  Ag48  1  0.16001868  0.66545164  0.16973636  1
  Ag  Ag49  1  0.67110942  0.32831566  -0.00165071  1
  Ag  Ag50  1  0.83363350  0.82167545  0.33826077  1
  Ag  Ag51  1  -0.00339819  0.66758129  0.65135443  1
  Ag  Ag52  1  0.16100980  0.32655752  0.17049138  1
  Ag  Ag53  1  0.34422315  0.00529646  0.66458903  1
  Sb  Sb54  1  0.15909608  0.66620463  0.49340837  1
  Sb  Sb55  1  0.33974245  0.83874520  0.83635070  1
  Sb  Sb56  1  0.16878747  0.49265970  0.66429660  1
  Sb  Sb57  1  0.50388816  0.49234753  0.00073673  1
  Sb  Sb58  1  0.83767480  0.00237889  0.17053009  1
  Sb  Sb59  1  -0.00915442  0.83630389  0.82824030  1
  Sb  Sb60  1  0.83109578  0.16887967  -0.00532356  1
  Sb  Sb61  1  0.33176767  0.66767725  0.65862369  1
  Sb  Sb62  1  0.33603387  0.16438509  0.83247954  1
  Sb  Sb63  1  0.83244672  0.49742743  0.00689352  1
  Sb  Sb64  1  0.16663820  0.84331718  0.00396424  1
  Sb  Sb65  1  0.33494307  0.32375734  0.00246828  1
  Sb  Sb66  1  -0.00601401  0.66546541  0.00610883  1
  Sb  Sb67  1  0.00248455  0.83012543  0.17177003  1
  Sb  Sb68  1  0.66280434  0.16745236  0.16956099  1
  Sb  Sb69  1  0.00025601  0.00235911  0.33499707  1
  Sb  Sb70  1  0.50397460  0.66432977  0.17375327  1
  Sb  Sb71  1  0.67200086  0.66644442  0.66328658  1
  Sb  Sb72  1  0.16442104  0.84157915  0.66712627  1
  Sb  Sb73  1  0.16625964  0.00223577  0.49992836  1
  Sb  Sb74  1  0.16421942  0.33072613  0.49258788  1
  Sb  Sb75  1  0.82755956  0.00169541  0.82702435  1
  Sb  Sb76  1  0.16734828  0.32351611  0.83763557  1
  Sb  Sb77  1  0.32780898  0.49485183  0.17022207  1
  Sb  Sb78  1  0.66833087  0.49692309  0.82670461  1
  Sb  Sb79  1  0.66500203  0.16461747  0.82608683  1
  Sb  Sb80  1  0.33787325  0.67528101  0.01022918  1
  Sb  Sb81  1  0.33632863  0.49808800  0.83128823  1
  Sb  Sb82  1  0.50353808  0.84322781  0.00039097  1
  Sb  Sb83  1  0.67281236  0.49791036  0.17399391  1
  Sb  Sb84  1  0.50277213  0.84026290  0.66411155  1
  Sb  Sb85  1  0.83196636  0.83840568  0.65715336  1
  Sb  Sb86  1  0.16434228  0.49154529  0.00349522  1
  Sb  Sb87  1  0.33753902  0.83655621  0.49488870  1
  Sb  Sb88  1  -0.00648845  0.16697439  0.50132357  1
  Sb  Sb89  1  0.83201452  0.83320414  0.00391298  1
  Sb  Sb90  1  0.49418417  0.00230673  0.16909767  1
  Sb  Sb91  1  0.49716106  0.16935123  0.33803342  1
  Sb  Sb92  1  0.33871838  0.16606438  0.49924510  1
  Sb  Sb93  1  0.82896208  0.49597634  0.65664525  1
  Sb  Sb94  1  -0.00029877  0.16557857  0.83309841  1
  Sb  Sb95  1  -0.00443626  0.33086615  0.66338244  1
  Sb  Sb96  1  0.83529094  0.17155503  0.33789604  1
  Sb  Sb97  1  0.50477562  0.83224393  0.33640062  1
  Sb  Sb98  1  0.50133587  0.33142029  0.17159061  1
  Sb  Sb99  1  0.00460339  0.17308001  0.16731309  1
  Sb  Sb100  1  0.66589524  0.83383304  0.17163866  1
  Sb  Sb101  1  0.34082461  0.49767617  0.49597327  1
  Sb  Sb102  1  0.50687473  0.66607188  0.82624732  1
  Sb  Sb103  1  -0.00330887  0.49913723  0.83058678  1
  Sb  Sb104  1  0.16044791  0.67466795  0.83793078  1
  Sb  Sb105  1  0.16433727  0.83691159  0.33269760  1
  Sb  Sb106  1  0.67051627  0.66385279  0.33643122  1
  Sb  Sb107  1  0.16120565  0.49528840  0.33271530  1
  Te  Te108  1  0.16755889  0.16662783  0.16700757  1
  Te  Te109  1  0.16501488  0.16631389  0.50449900  1
  Te  Te110  1  0.16685497  0.15985302  0.82895019  1
  Te  Te111  1  0.16021814  0.50372166  0.16632050  1
  Te  Te112  1  0.15689962  0.49878598  0.50079401  1
  Te  Te113  1  0.16662600  0.50260722  0.83431144  1
  Te  Te114  1  0.17065156  0.82614336  0.16793823  1
  Te  Te115  1  0.15945309  0.83387353  0.50036017  1
  Te  Te116  1  0.16621269  0.84249642  0.83523588  1
  Te  Te117  1  0.49279637  0.16740467  0.15894861  1
  Te  Te118  1  0.50354217  0.16784070  0.50269628  1
  Te  Te119  1  0.50044726  0.16670541  0.83369024  1
  Te  Te120  1  0.49969995  0.49948117  0.17464903  1
  Te  Te121  1  0.50222242  0.49728846  0.49806712  1
  Te  Te122  1  0.50056486  0.49509181  0.82874560  1
  Te  Te123  1  0.49151271  0.83100922  0.16806955  1
  Te  Te124  1  0.50569975  0.83732128  0.49959482  1
  Te  Te125  1  0.50812370  0.83586402  0.83297397  1
  Te  Te126  1  0.83213688  0.17329358  0.16564871  1
  Te  Te127  1  0.82980429  0.16505231  0.50305719  1
  Te  Te128  1  0.83371223  0.17299034  0.82472711  1
  Te  Te129  1  0.83764273  0.49879439  0.17268330  1
  Te  Te130  1  0.83045844  0.49816298  0.49718711  1
  Te  Te131  1  0.83304534  0.49936005  0.83318044  1
  Te  Te132  1  0.83413742  0.82993387  0.17478159  1
  Te  Te133  1  0.83060229  0.83385765  0.49756573  1
  Te  Te134  1  0.82591619  0.82969034  0.83533110  1
  Te  Te135  1  0.16813238  0.00440709  0.00084457  1
  Te  Te136  1  0.16942966  0.00424670  0.32928713  1
  Te  Te137  1  0.16182502  0.00341513  0.66722701  1
  Te  Te138  1  0.16618338  0.32498853  0.00488412  1
  Te  Te139  1  0.17648487  0.33005858  0.32911480  1
  Te  Te140  1  0.16637359  0.32785608  0.66892956  1
  Te  Te141  1  0.16715224  0.66668997  0.00460716  1
  Te  Te142  1  0.16806897  0.66709675  0.32885931  1
  Te  Te143  1  0.16217571  0.66633315  0.66984239  1
  Te  Te144  1  0.49893184  0.00556942  0.00105116  1
  Te  Te145  1  0.50187247  0.00095761  0.33649260  1
  Te  Te146  1  0.50260280  0.00241606  0.66589553  1
  Te  Te147  1  0.50289636  0.32872964  0.00149226  1
  Te  Te148  1  0.50181561  0.33452161  0.33564773  1
  Te  Te149  1  0.50258829  0.32828071  0.66422549  1
  Te  Te150  1  0.50513613  0.66478685  -0.00128722  1
  Te  Te151  1  0.49987987  0.66282407  0.33920505  1
  Te  Te152  1  0.49758257  0.66667754  0.65892012  1
  Te  Te153  1  0.83339169  0.00132898  -0.00018690  1
  Te  Te154  1  0.83042388  0.00408110  0.33594645  1
  Te  Te155  1  0.83396586  0.00453360  0.66399435  1
  Te  Te156  1  0.83292074  0.33305370  -0.00688453  1
  Te  Te157  1  0.82950904  0.33280047  0.33611641  1
  Te  Te158  1  0.83203214  0.33049085  0.66651292  1
  Te  Te159  1  0.82940332  0.66573142  -0.00692465  1
  Te  Te160  1  0.83261823  0.66317797  0.33904576  1
  Te  Te161  1  0.83691314  0.66461481  0.66446035  1
  Te  Te162  1  0.00133950  0.16595250  -0.00047784  1
  Te  Te163  1  0.00788171  0.17248162  0.33470568  1
  Te  Te164  1  0.00746423  0.16271561  0.66667961  1
  Te  Te165  1  -0.00005170  0.49355922  0.00313877  1
  Te  Te166  1  -0.00165415  0.49879611  0.33420841  1
  Te  Te167  1  0.00040088  0.50374772  0.66289876  1
  Te  Te168  1  -0.00073150  0.83982248  -0.00054353  1
  Te  Te169  1  -0.00486085  0.83334368  0.33776428  1
  Te  Te170  1  -0.00148175  0.83165795  0.66131426  1
  Te  Te171  1  0.33194385  0.16265484  0.00246301  1
  Te  Te172  1  0.33195038  0.16609918  0.33287134  1
  Te  Te173  1  0.33579356  0.16455295  0.66531485  1
  Te  Te174  1  0.33407487  0.50239167  0.00046697  1
  Te  Te175  1  0.33443063  0.49862621  0.33316180  1
  Te  Te176  1  0.33858654  0.49810968  0.66430837  1
  Te  Te177  1  0.33482041  0.84247985  0.00682857  1
  Te  Te178  1  0.33370592  0.83617076  0.33067720  1
  Te  Te179  1  0.33231709  0.83977438  0.66628521  1
  Te  Te180  1  0.66444034  0.16670249  0.00194199  1
  Te  Te181  1  0.66566355  0.16692278  0.33540080  1
  Te  Te182  1  0.66254677  0.16693180  0.66539290  1
  Te  Te183  1  0.66547453  0.50129199  0.00003324  1
  Te  Te184  1  0.66872069  0.49750041  0.33792568  1
  Te  Te185  1  0.66176806  0.49731432  0.65980654  1
  Te  Te186  1  0.66711341  0.83049151  0.00286452  1
  Te  Te187  1  0.67139205  0.83991919  0.33701839  1
  Te  Te188  1  0.66772675  0.83785089  0.66447675  1
  Te  Te189  1  0.00566598  -0.00182175  0.16364108  1
  Te  Te190  1  -0.00312398  -0.00239564  0.50200540  1
  Te  Te191  1  -0.00217994  -0.00139490  0.83253614  1
  Te  Te192  1  -0.00025864  0.33473169  0.16929654  1
  Te  Te193  1  -0.00319854  0.33660061  0.49545950  1
  Te  Te194  1  -0.00138904  0.33443677  0.83706529  1
  Te  Te195  1  -0.00371574  0.66387361  0.16991386  1
  Te  Te196  1  -0.00251340  0.66625206  0.49437860  1
  Te  Te197  1  -0.00655784  0.66773185  0.83518674  1
  Te  Te198  1  0.33106504  0.00469731  0.16970048  1
  Te  Te199  1  0.33455487  -0.00157486  0.49926722  1
  Te  Te200  1  0.33745193  -0.00204010  0.82857764  1
  Te  Te201  1  0.32960006  0.32864664  0.17053081  1
  Te  Te202  1  0.33150989  0.33348799  0.49959912  1
  Te  Te203  1  0.33662220  0.33467293  0.82995775  1
  Te  Te204  1  0.33315210  0.66350846  0.17264374  1
  Te  Te205  1  0.33082493  0.66833540  0.49317188  1
  Te  Te206  1  0.33138827  0.66988693  0.83398599  1
  Te  Te207  1  0.66737944  -0.00057382  0.15810459  1
  Te  Te208  1  0.66859890  0.00668046  0.50149910  1
  Te  Te209  1  0.66429530  -0.00210449  0.83981536  1
  Te  Te210  1  0.67168808  0.33398072  0.15942418  1
  Te  Te211  1  0.66868468  0.32736296  0.49966816  1
  Te  Te212  1  0.66675249  0.33402163  0.83907722  1
  Te  Te213  1  0.67304655  0.66652812  0.16247535  1
  Te  Te214  1  0.67059351  0.66918211  0.49996215  1
  Te  Te215  1  0.67022282  0.66937572  0.83284710  1
