# generated using pymatgen
data_AgSbTe2
_symmetry_space_group_name_H-M   'P 1'
_cell_length_a   18.34858186
_cell_length_b   18.35573554
_cell_length_c   18.33804616
_cell_angle_alpha   90.00105609
_cell_angle_beta   89.99505946
_cell_angle_gamma   90.00418655
_symmetry_Int_Tables_number   1
_chemical_formula_structural   AgSbTe2
_chemical_formula_sum   'Ag54 Sb54 Te108'
_cell_volume   6176.28537827
_cell_formula_units_Z   54
loop_
 _symmetry_equiv_pos_site_id
 _symmetry_equiv_pos_as_xyz
  1  'x, y, z'
loop_
 _atom_site_type_symbol
 _atom_site_label
 _atom_site_symmetry_multiplicity
 _atom_site_fract_x
 _atom_site_fract_y
 _atom_site_fract_z
 _atom_site_occupancy
  Ag  Ag0  1  0.16708084  0.67225069  0.84468712  1
  Ag  Ag1  1  0.67176450  0.16541487  0.51158669  1
  Ag  Ag2  1  0.82478123  0.16475815  0.66289155  1
  Ag  Ag3  1  -0.00201206  0.33074750  0.66708963  1
  Ag  Ag4  1  0.16408336  0.83185526  0.32714443  1
  Ag  Ag5  1  0.50252749  0.83059719  0.67483241  1
  Ag  Ag6  1  0.83403639  0.83085378  0.33461624  1
  Ag  Ag7  1  0.34222476  -0.01083479  0.67307390  1
  Ag  Ag8  1  0.00772057  0.33610409  -0.00607949  1
  Ag  Ag9  1  0.65800002  0.66787500  -0.00449215  1
  Ag  Ag10  1  0.00299900  -0.00788038  -0.00343450  1
  Ag  Ag11  1  0.83093546  -0.00528448  0.49929301  1
  Ag  Ag12  1  0.66342834  0.50855653  0.16451988  1
  Ag  Ag13  1  0.82163364  0.66737030  0.50089622  1
  Ag  Ag14  1  0.33365405  0.51022807  0.15584572  1
  Ag  Ag15  1  0.66188214  0.51368754  0.82422292  1
  Ag  Ag16  1  0.66683194  0.82542159  0.50872662  1
  Ag  Ag17  1  0.16474989  0.16768029  -0.00178382  1
  Ag  Ag18  1  0.17066369  -0.00897349  0.83611371  1
  Ag  Ag19  1  0.33571884  0.83391276  0.83641767  1
  Ag  Ag20  1  0.66678822  0.15996443  0.16717423  1
  Ag  Ag21  1  0.49465959  0.66709331  0.15373258  1
  Ag  Ag22  1  0.16896206  0.66356047  0.50025966  1
  Ag  Ag23  1  0.00233764  0.50176706  0.16023265  1
  Ag  Ag24  1  0.50581586  0.16037362  0.66803588  1
  Ag  Ag25  1  0.01232408  0.83735441  0.83684015  1
  Ag  Ag26  1  0.65731642  0.83015591  0.82754650  1
  Ag  Ag27  1  0.32583426  0.34885532  -0.00158085  1
  Ag  Ag28  1  0.01694668  0.66585618  -0.00071728  1
  Ag  Ag29  1  0.83113316  -0.00290834  0.17038838  1
  Ag  Ag30  1  0.33623660  0.82685787  0.15585963  1
  Ag  Ag31  1  0.49392898  0.51121300  -0.00379100  1
  Ag  Ag32  1  0.17401043  0.51073566  0.00164424  1
  Ag  Ag33  1  -0.00264904  0.17304640  0.50999912  1
  Ag  Ag34  1  0.49054428  -0.00466139  0.82919909  1
  Ag  Ag35  1  0.16560736  0.16202126  0.33209065  1
  Ag  Ag36  1  0.66517342  0.50896802  0.50694560  1
  Ag  Ag37  1  0.33219028  0.66708559  -0.00111584  1
  Ag  Ag38  1  0.17767824  0.66709741  0.15599550  1
  Ag  Ag39  1  0.66279274  0.82632378  0.16286079  1
  Ag  Ag40  1  0.17340542  0.82177006  -0.00263170  1
  Ag  Ag41  1  0.34090443  0.66939044  0.67104583  1
  Ag  Ag42  1  0.33094115  0.50556909  0.49960339  1
  Ag  Ag43  1  0.00129870  0.50026275  0.49985599  1
  Ag  Ag44  1  0.50459144  0.51272108  0.67200749  1
  Ag  Ag45  1  0.65865798  0.66745561  0.66772014  1
  Ag  Ag46  1  0.50489554  0.66489412  0.51295561  1
  Ag  Ag47  1  0.83330761  0.50756823  0.33675160  1
  Ag  Ag48  1  0.49269402  0.82753157  -0.00831017  1
  Ag  Ag49  1  0.00573471  0.16165699  0.83222001  1
  Ag  Ag50  1  0.66729136  0.33449725  0.66569503  1
  Ag  Ag51  1  0.32440583  0.15507638  0.83364865  1
  Ag  Ag52  1  0.16436462  0.34415429  0.50073880  1
  Ag  Ag53  1  0.66188214  -0.00287288  0.66713485  1
  Sb  Sb54  1  -0.00162903  0.00350393  0.67108946  1
  Sb  Sb55  1  0.16700037  0.33535487  0.83420557  1
  Sb  Sb56  1  0.83416940  0.33304017  0.83091124  1
  Sb  Sb57  1  0.16260818  -0.00195732  0.50632090  1
  Sb  Sb58  1  0.50404280  -0.00874994  0.15662935  1
  Sb  Sb59  1  -0.00346818  0.82988871  0.50537328  1
  Sb  Sb60  1  0.82597798  0.49896642  0.66076798  1
  Sb  Sb61  1  0.16564080  0.33950821  0.16493561  1
  Sb  Sb62  1  0.83701496  0.33632768  0.50266502  1
  Sb  Sb63  1  0.49833138  0.34158194  0.50471705  1
  Sb  Sb64  1  0.66812567  -0.00199526  0.33935896  1
  Sb  Sb65  1  0.16709042  0.16683219  0.67055956  1
  Sb  Sb66  1  0.00010680  0.66643853  0.32965648  1
  Sb  Sb67  1  0.50646301  -0.00705909  0.51028707  1
  Sb  Sb68  1  0.33709000  0.82526272  0.50272531  1
  Sb  Sb69  1  0.17131958  0.50138109  0.66830546  1
  Sb  Sb70  1  0.49416385  0.67473768  0.83430944  1
  Sb  Sb71  1  -0.00037021  -0.00067455  0.32971164  1
  Sb  Sb72  1  0.33812160  0.50662739  0.83514361  1
  Sb  Sb73  1  0.00240534  0.33456422  0.33650871  1
  Sb  Sb74  1  0.32982027  -0.00275257  0.34015522  1
  Sb  Sb75  1  0.49699888  0.16404958  -0.00552119  1
  Sb  Sb76  1  0.67072833  -0.00700867  -0.00411098  1
  Sb  Sb77  1  0.16337172  0.50485629  0.33167183  1
  Sb  Sb78  1  0.83240308  0.33234266  0.16592808  1
  Sb  Sb79  1  0.33123648  0.66671590  0.32930488  1
  Sb  Sb80  1  -0.00181485  0.17002094  0.16298604  1
  Sb  Sb81  1  0.49847745  0.16522974  0.33938274  1
  Sb  Sb82  1  0.83496210  -0.00163780  0.83037628  1
  Sb  Sb83  1  0.66660993  0.16260183  0.83028200  1
  Sb  Sb84  1  0.83405915  0.50285899  0.00487874  1
  Sb  Sb85  1  0.33519805  0.16494663  0.15827670  1
  Sb  Sb86  1  0.33451926  0.33686739  0.67174883  1
  Sb  Sb87  1  0.66769218  0.66766892  0.33563868  1
  Sb  Sb88  1  0.16351166  -0.00686251  0.15774232  1
  Sb  Sb89  1  0.32696871  -0.00842110  -0.00687451  1
  Sb  Sb90  1  0.00067004  0.82793540  0.16009511  1
  Sb  Sb91  1  0.00082122  0.66304928  0.66867946  1
  Sb  Sb92  1  0.32899304  0.33491502  0.32981700  1
  Sb  Sb93  1  0.17271264  0.83160686  0.67344091  1
  Sb  Sb94  1  0.83388674  0.83223560  0.00266182  1
  Sb  Sb95  1  0.82414867  0.83736583  0.66242594  1
  Sb  Sb96  1  0.50064515  0.83099333  0.33202871  1
  Sb  Sb97  1  0.83697859  0.16445751  -0.00423094  1
  Sb  Sb98  1  0.66790344  0.33497119  0.34013712  1
  Sb  Sb99  1  0.83634486  0.16533068  0.33897774  1
  Sb  Sb100  1  0.49893451  0.33035559  0.83156212  1
  Sb  Sb101  1  0.83015095  0.66914257  0.17007329  1
  Sb  Sb102  1  -0.00195690  0.50069849  0.83448159  1
  Sb  Sb103  1  0.66541904  0.34150546  -0.00467365  1
  Sb  Sb104  1  0.33152991  0.17004966  0.50817089  1
  Sb  Sb105  1  0.83276896  0.66854345  0.82989664  1
  Sb  Sb106  1  0.50374830  0.50382339  0.33305265  1
  Sb  Sb107  1  0.50054968  0.34195326  0.16254558  1
  Te  Te108  1  0.16709499  0.16560538  0.16578369  1
  Te  Te109  1  0.16349558  0.16262827  0.49864553  1
  Te  Te110  1  0.16529155  0.16946465  0.83606485  1
  Te  Te111  1  0.16747259  0.50491428  0.16543116  1
  Te  Te112  1  0.16560015  0.50158169  0.49917475  1
  Te  Te113  1  0.16675803  0.50609912  0.83916485  1
  Te  Te114  1  0.16677408  0.82847859  0.16328159  1
  Te  Te115  1  0.16582806  0.83114692  0.49775740  1
  Te  Te116  1  0.16990470  0.83210670  0.83600359  1
  Te  Te117  1  0.50439904  0.16512181  0.16755092  1
  Te  Te118  1  0.50240958  0.16572683  0.50471936  1
  Te  Te119  1  0.49885033  0.15950997  0.82947656  1
  Te  Te120  1  0.49883548  0.50565274  0.16503993  1
  Te  Te121  1  0.50370198  0.50476985  0.50085772  1
  Te  Te122  1  0.50413080  0.49648679  0.83365237  1
  Te  Te123  1  0.50048849  0.82806653  0.16557445  1
  Te  Te124  1  0.50549201  0.82696220  0.49946023  1
  Te  Te125  1  0.49972506  0.83594329  0.83414781  1
  Te  Te126  1  0.82929477  0.16286106  0.16916616  1
  Te  Te127  1  0.83404749  0.16714597  0.50107967  1
  Te  Te128  1  0.83988063  0.16555180  0.82748923  1
  Te  Te129  1  0.83364911  0.50020870  0.17249351  1
  Te  Te130  1  0.83192391  0.50299146  0.49778411  1
  Te  Te131  1  0.82338433  0.50043015  0.83296663  1
  Te  Te132  1  0.83219527  0.83618325  0.17228112  1
  Te  Te133  1  0.83052656  0.83297750  0.49657347  1
  Te  Te134  1  0.82956638  0.83440332  0.83319020  1
  Te  Te135  1  0.16198318  0.00706150  -0.00523313  1
  Te  Te136  1  0.16556208  -0.00252472  0.33330913  1
  Te  Te137  1  0.17068734  -0.00059651  0.67475202  1
  Te  Te138  1  0.16614609  0.32956792  0.00014171  1
  Te  Te139  1  0.16658765  0.32675171  0.33966119  1
  Te  Te140  1  0.16362635  0.33403958  0.66184687  1
  Te  Te141  1  0.17178610  0.66642867  0.00113172  1
  Te  Te142  1  0.16525020  0.67166442  0.34000150  1
  Te  Te143  1  0.16900992  0.66555135  0.66003442  1
  Te  Te144  1  0.50179428  -0.00469272  -0.00866017  1
  Te  Te145  1  0.49845734  -0.00033304  0.33229275  1
  Te  Te146  1  0.50158105  -0.00211532  0.66911690  1
  Te  Te147  1  0.49601760  0.33681857  -0.00110982  1
  Te  Te148  1  0.49822943  0.33224640  0.33335325  1
  Te  Te149  1  0.50363553  0.32877985  0.66660451  1
  Te  Te150  1  0.49999628  0.66807982  -0.00270669  1
  Te  Te151  1  0.49860094  0.66749278  0.33469156  1
  Te  Te152  1  0.50105910  0.66891522  0.67015143  1
  Te  Te153  1  0.84002132  -0.00000005  0.00532572  1
  Te  Te154  1  0.83361083  -0.00297813  0.33446190  1
  Te  Te155  1  0.82971455  0.00400941  0.66121653  1
  Te  Te156  1  0.84230037  0.33290476  -0.00110776  1
  Te  Te157  1  0.83472164  0.34016293  0.33285646  1
  Te  Te158  1  0.83337251  0.32671070  0.66614581  1
  Te  Te159  1  0.82545154  0.66709077  0.00026900  1
  Te  Te160  1  0.83463581  0.66886386  0.34008942  1
  Te  Te161  1  0.83262445  0.66707217  0.66026597  1
  Te  Te162  1  0.00204642  0.17177335  -0.00159748  1
  Te  Te163  1  0.00495219  0.16698062  0.33478890  1
  Te  Te164  1  0.00119844  0.16875584  0.66791809  1
  Te  Te165  1  0.00109599  0.50188566  -0.00044137  1
  Te  Te166  1  -0.00419207  0.49992107  0.33805379  1
  Te  Te167  1  -0.00127647  0.49424421  0.66426669  1
  Te  Te168  1  0.00197030  0.83019639  -0.00383904  1
  Te  Te169  1  0.00041600  0.83388509  0.33429777  1
  Te  Te170  1  -0.00026221  0.83360215  0.67493252  1
  Te  Te171  1  0.33054738  0.16468170  -0.00519105  1
  Te  Te172  1  0.32783121  0.16587039  0.33299466  1
  Te  Te173  1  0.33744940  0.16859550  0.67319588  1
  Te  Te174  1  0.33414753  0.50485500  -0.00184849  1
  Te  Te175  1  0.33232325  0.49879931  0.33831561  1
  Te  Te176  1  0.33955212  0.50310307  0.66406472  1
  Te  Te177  1  0.33260510  0.83129688  -0.00162288  1
  Te  Te178  1  0.32717426  0.83434185  0.32983909  1
  Te  Te179  1  0.33834693  0.83009290  0.66824197  1
  Te  Te180  1  0.66731783  0.16972187  0.00331127  1
  Te  Te181  1  0.66708115  0.16718107  0.32993498  1
  Te  Te182  1  0.66608729  0.16623502  0.66869729  1
  Te  Te183  1  0.66549771  0.50250668  0.00495905  1
  Te  Te184  1  0.67144427  0.49851303  0.33139535  1
  Te  Te185  1  0.66440784  0.50296928  0.66481372  1
  Te  Te186  1  0.66674255  0.83033834  0.00241215  1
  Te  Te187  1  0.66996449  0.83464829  0.32867744  1
  Te  Te188  1  0.66369374  0.83112172  0.66646413  1
  Te  Te189  1  -0.00457530  0.00083515  0.15991274  1
  Te  Te190  1  -0.00597510  0.00255257  0.50088223  1
  Te  Te191  1  0.00153177  -0.00004127  0.83655498  1
  Te  Te192  1  -0.00033973  0.34031865  0.16163651  1
  Te  Te193  1  0.00308513  0.33279428  0.50265069  1
  Te  Te194  1  0.00078155  0.33169087  0.83137879  1
  Te  Te195  1  -0.00087567  0.66111625  0.16105235  1
  Te  Te196  1  0.00443606  0.66273621  0.50085364  1
  Te  Te197  1  0.00329929  0.66882302  0.83677032  1
  Te  Te198  1  0.33447091  -0.00551979  0.16815304  1
  Te  Te199  1  0.33359604  -0.00041865  0.50987738  1
  Te  Te200  1  0.33080563  -0.00368234  0.83162565  1
  Te  Te201  1  0.33322407  0.33706193  0.15922582  1
  Te  Te202  1  0.32717384  0.33893991  0.50115016  1
  Te  Te203  1  0.33224165  0.32861362  0.83916221  1
  Te  Te204  1  0.33413391  0.66673166  0.16534897  1
  Te  Te205  1  0.33408895  0.66351688  0.50132905  1
  Te  Te206  1  0.32737260  0.66866101  0.83144677  1
  Te  Te207  1  0.66958738  -0.00070417  0.16551319  1
  Te  Te208  1  0.67055473  0.00433444  0.50500064  1
  Te  Te209  1  0.66749118  -0.00532643  0.82860003  1
  Te  Te210  1  0.66702461  0.33616271  0.16614969  1
  Te  Te211  1  0.66555026  0.32874848  0.50595662  1
  Te  Te212  1  0.66661928  0.33352428  0.82693098  1
  Te  Te213  1  0.66618907  0.66716626  0.16680754  1
  Te  Te214  1  0.66552765  0.66618432  0.50022615  1
  Te  Te215  1  0.66972688  0.67030933  0.83366367  1
