# generated using pymatgen
data_AgSbTe2
_symmetry_space_group_name_H-M   'P 1'
_cell_length_a   18.34958688
_cell_length_b   18.33590255
_cell_length_c   18.35171885
_cell_angle_alpha   90.00082215
_cell_angle_beta   89.99586099
_cell_angle_gamma   90.00297961
_symmetry_Int_Tables_number   1
_chemical_formula_structural   AgSbTe2
_chemical_formula_sum   'Ag54 Sb54 Te108'
_cell_volume   6174.55024029
_cell_formula_units_Z   54
loop_
 _symmetry_equiv_pos_site_id
 _symmetry_equiv_pos_as_xyz
  1  'x, y, z'
loop_
 _atom_site_type_symbol
 _atom_site_label
 _atom_site_symmetry_multiplicity
 _atom_site_fract_x
 _atom_site_fract_y
 _atom_site_fract_z
 _atom_site_occupancy
  Ag  Ag0  1  0.67739395  0.83369920  0.83273779  1
  Ag  Ag1  1  0.66826878  0.34031104  0.67462578  1
  Ag  Ag2  1  0.15811496  0.49628289  -0.00423838  1
  Ag  Ag3  1  0.66355072  0.49671972  0.50294491  1
  Ag  Ag4  1  0.84580981  -0.01874101  0.83515455  1
  Ag  Ag5  1  0.67645710  0.33695368  0.00174044  1
  Ag  Ag6  1  0.65901395  -0.00022414  0.33187812  1
  Ag  Ag7  1  0.67573365  0.49974570  0.82959362  1
  Ag  Ag8  1  0.51103576  0.50599251  0.66264001  1
  Ag  Ag9  1  0.50126181  0.83247621  0.67347893  1
  Ag  Ag10  1  0.33141926  0.83719748  0.16140341  1
  Ag  Ag11  1  -0.00172950  -0.00100416  -0.01165238  1
  Ag  Ag12  1  0.33922770  0.33579902  0.33085245  1
  Ag  Ag13  1  0.82798388  0.33640493  0.15357821  1
  Ag  Ag14  1  0.83278971  0.83273355  -0.01113073  1
  Ag  Ag15  1  0.83448416  0.17967647  -0.00458635  1
  Ag  Ag16  1  0.83403678  0.49014472  -0.01396677  1
  Ag  Ag17  1  0.50001588  -0.00992523  0.83299216  1
  Ag  Ag18  1  0.49370942  -0.00636407  0.49399811  1
  Ag  Ag19  1  0.49676895  0.83947235  0.33369885  1
  Ag  Ag20  1  0.16899116  -0.00404295  0.16580593  1
  Ag  Ag21  1  0.83937754  0.82924430  0.67611006  1
  Ag  Ag22  1  0.50019066  0.83585900  -0.01146806  1
  Ag  Ag23  1  0.33849952  -0.00632503  0.33225166  1
  Ag  Ag24  1  0.33329412  0.34069966  0.00025530  1
  Ag  Ag25  1  0.49863067  0.66484258  0.50127345  1
  Ag  Ag26  1  0.16724465  0.00136482  0.50760311  1
  Ag  Ag27  1  -0.01215720  0.33227201  -0.00333459  1
  Ag  Ag28  1  -0.01234170  0.84351393  0.83447818  1
  Ag  Ag29  1  0.82848006  0.50157106  0.67561226  1
  Ag  Ag30  1  0.66952143  0.49256120  0.17012677  1
  Ag  Ag31  1  0.16548063  0.33285174  0.50061003  1
  Ag  Ag32  1  0.33429065  0.83242049  0.83733674  1
  Ag  Ag33  1  0.17584921  0.83886734  0.33558878  1
  Ag  Ag34  1  0.00352521  -0.00515207  0.67587297  1
  Ag  Ag35  1  0.66488761  0.33971896  0.32939301  1
  Ag  Ag36  1  0.83609210  0.66654064  0.83229183  1
  Ag  Ag37  1  0.16110039  0.15708599  0.66522499  1
  Ag  Ag38  1  0.34245621  0.49822848  0.50328716  1
  Ag  Ag39  1  0.00452148  0.83668664  0.15326089  1
  Ag  Ag40  1  -0.00229653  0.49584361  0.51036644  1
  Ag  Ag41  1  0.33587440  0.50385160  0.83506687  1
  Ag  Ag42  1  -0.00328290  0.15386429  0.83111960  1
  Ag  Ag43  1  -0.01237435  0.50133253  0.82982431  1
  Ag  Ag44  1  0.15759175  0.83880510  0.67050519  1
  Ag  Ag45  1  0.66805948  0.17382359  0.16576042  1
  Ag  Ag46  1  0.82195169  0.49735962  0.33415923  1
  Ag  Ag47  1  -0.00260422  0.67328835  0.67135288  1
  Ag  Ag48  1  0.49809703  -0.00518125  0.17357132  1
  Ag  Ag49  1  0.00304053  0.16892432  0.50937423  1
  Ag  Ag50  1  0.50408377  0.50177544  0.34201134  1
  Ag  Ag51  1  0.83407291  0.35224053  0.84279851  1
  Ag  Ag52  1  0.33393594  0.66565360  -0.00356729  1
  Ag  Ag53  1  0.15600062  -0.00423633  0.82906006  1
  Sb  Sb54  1  0.50473268  0.16219865  -0.00047107  1
  Sb  Sb55  1  0.16672608  0.16013293  0.33847802  1
  Sb  Sb56  1  0.32724976  0.16433976  0.83496067  1
  Sb  Sb57  1  0.49780227  0.16360354  0.66725580  1
  Sb  Sb58  1  0.00174276  0.66731745  -0.00741682  1
  Sb  Sb59  1  0.66487411  0.66218269  0.33450622  1
  Sb  Sb60  1  0.83810092  0.16771718  0.67468236  1
  Sb  Sb61  1  0.82986499  0.83097401  0.33174347  1
  Sb  Sb62  1  0.83199908  0.17154015  0.32739943  1
  Sb  Sb63  1  0.16362249  0.67144200  0.83312212  1
  Sb  Sb64  1  0.33040658  -0.00178864  0.00197752  1
  Sb  Sb65  1  0.16286857  0.50152066  0.67127038  1
  Sb  Sb66  1  0.00258052  0.83409955  0.50882805  1
  Sb  Sb67  1  0.50595813  0.33404034  0.83461640  1
  Sb  Sb68  1  -0.00542991  0.50285387  0.16176985  1
  Sb  Sb69  1  0.66485713  0.83465107  0.16174416  1
  Sb  Sb70  1  0.32802566  -0.00316269  0.66466153  1
  Sb  Sb71  1  -0.00047261  0.66690676  0.34074289  1
  Sb  Sb72  1  0.67112125  0.17129305  0.49663295  1
  Sb  Sb73  1  0.32861827  0.16862318  0.49966393  1
  Sb  Sb74  1  0.33542910  0.33779785  0.66825987  1
  Sb  Sb75  1  0.15960570  0.16885306  -0.00507228  1
  Sb  Sb76  1  -0.00235627  0.33562337  0.33138943  1
  Sb  Sb77  1  0.33556989  0.83190269  0.50037760  1
  Sb  Sb78  1  0.66227731  0.82993798  0.50518561  1
  Sb  Sb79  1  0.67112047  0.00235778  0.00076135  1
  Sb  Sb80  1  0.33588666  0.66919731  0.33094692  1
  Sb  Sb81  1  0.33749502  0.16227080  0.16637976  1
  Sb  Sb82  1  0.83381282  0.66172167  0.15922081  1
  Sb  Sb83  1  0.82980727  0.66131530  0.50682591  1
  Sb  Sb84  1  0.17081635  0.50241665  0.33297709  1
  Sb  Sb85  1  0.66515245  0.66348036  -0.00267702  1
  Sb  Sb86  1  0.33793024  0.50282437  0.16500032  1
  Sb  Sb87  1  -0.00353443  0.16219055  0.16134623  1
  Sb  Sb88  1  -0.00415683  0.33324047  0.67323287  1
  Sb  Sb89  1  0.67516139  0.16675147  0.83698770  1
  Sb  Sb90  1  0.66991561  0.66145672  0.66836097  1
  Sb  Sb91  1  0.16977663  0.66673623  0.50238832  1
  Sb  Sb92  1  0.00094728  -0.00226875  0.33488737  1
  Sb  Sb93  1  0.83654052  0.33642470  0.50299701  1
  Sb  Sb94  1  0.33130165  0.66769121  0.67085866  1
  Sb  Sb95  1  0.50122302  0.16392243  0.33414866  1
  Sb  Sb96  1  0.50653902  0.33164478  0.16714614  1
  Sb  Sb97  1  0.16636262  0.67245928  0.16359544  1
  Sb  Sb98  1  0.16690558  0.83371812  -0.00383602  1
  Sb  Sb99  1  0.16132560  0.33210630  0.83080858  1
  Sb  Sb100  1  0.83284873  0.00206692  0.15980069  1
  Sb  Sb101  1  0.16395343  0.32823928  0.16831331  1
  Sb  Sb102  1  0.50016645  0.67141673  0.16869313  1
  Sb  Sb103  1  0.50499619  0.50402916  -0.00265860  1
  Sb  Sb104  1  0.50255516  0.67033553  0.82863224  1
  Sb  Sb105  1  0.83601103  -0.00030902  0.50581105  1
  Sb  Sb106  1  0.49772783  0.33528239  0.49875410  1
  Sb  Sb107  1  0.66887454  0.00149912  0.66647381  1
  Te  Te108  1  0.16573821  0.15846648  0.16655247  1
  Te  Te109  1  0.16276589  0.16420695  0.50382184  1
  Te  Te110  1  0.15979118  0.16246581  0.82818903  1
  Te  Te111  1  0.16658758  0.49884595  0.16231790  1
  Te  Te112  1  0.16324387  0.49900678  0.49944257  1
  Te  Te113  1  0.17742817  0.49953444  0.83622814  1
  Te  Te114  1  0.16751903  0.83713061  0.16426622  1
  Te  Te115  1  0.16814582  0.83671209  0.50138111  1
  Te  Te116  1  0.17359234  0.83603191  0.83106956  1
  Te  Te117  1  0.50605894  0.15699421  0.16595379  1
  Te  Te118  1  0.50065764  0.15536341  0.50215130  1
  Te  Te119  1  0.49940066  0.15924313  0.83261558  1
  Te  Te120  1  0.50633053  0.50078048  0.16991899  1
  Te  Te121  1  0.50133715  0.49707458  0.50165299  1
  Te  Te122  1  0.49512209  0.50058737  0.82919315  1
  Te  Te123  1  0.49924117  0.83624109  0.17295598  1
  Te  Te124  1  0.49993757  0.83412385  0.49756511  1
  Te  Te125  1  0.49325954  0.83117975  0.83254044  1
  Te  Te126  1  0.82948218  0.17100037  0.16044720  1
  Te  Te127  1  0.84087269  0.16687745  0.50113423  1
  Te  Te128  1  0.83821244  0.16452188  0.83792374  1
  Te  Te129  1  0.83060728  0.49662705  0.17067329  1
  Te  Te130  1  0.83421619  0.49999340  0.49814178  1
  Te  Te131  1  0.83090562  0.50642697  0.83164740  1
  Te  Te132  1  0.83587710  0.83213439  0.16560113  1
  Te  Te133  1  0.83192713  0.83088738  0.50379793  1
  Te  Te134  1  0.83333838  0.82694279  0.83141472  1
  Te  Te135  1  0.16260741  0.00163021  -0.00166902  1
  Te  Te136  1  0.16839632  -0.00346166  0.33110792  1
  Te  Te137  1  0.16613273  -0.00276978  0.66719629  1
  Te  Te138  1  0.17115694  0.33615158  0.00084539  1
  Te  Te139  1  0.16858045  0.33285981  0.33651242  1
  Te  Te140  1  0.16705669  0.33342607  0.66164058  1
  Te  Te141  1  0.17158687  0.65699213  -0.00072270  1
  Te  Te142  1  0.16737260  0.67768757  0.33318689  1
  Te  Te143  1  0.16076033  0.67525077  0.66644929  1
  Te  Te144  1  0.50011723  -0.00432621  -0.00210462  1
  Te  Te145  1  0.49849681  0.00046816  0.33424529  1
  Te  Te146  1  0.50012177  -0.00266714  0.66751660  1
  Te  Te147  1  0.49524587  0.33215039  0.00037026  1
  Te  Te148  1  0.50044807  0.33618575  0.33267182  1
  Te  Te149  1  0.50562158  0.33630947  0.66674693  1
  Te  Te150  1  0.49555080  0.67406648  0.00063011  1
  Te  Te151  1  0.49909803  0.66583356  0.33900257  1
  Te  Te152  1  0.49801597  0.66641193  0.66218148  1
  Te  Te153  1  0.83714075  -0.00924057  -0.00397866  1
  Te  Te154  1  0.82669417  0.00027154  0.33374101  1
  Te  Te155  1  0.83693912  -0.00254459  0.67282745  1
  Te  Te156  1  0.83187725  0.33572442  -0.00200305  1
  Te  Te157  1  0.83010580  0.33778340  0.33290561  1
  Te  Te158  1  0.82911810  0.33727552  0.66997674  1
  Te  Te159  1  0.83395222  0.67303494  -0.00496695  1
  Te  Te160  1  0.83300601  0.66013058  0.33268075  1
  Te  Te161  1  0.83674545  0.66605314  0.66975003  1
  Te  Te162  1  -0.00484833  0.16578099  -0.00358268  1
  Te  Te163  1  -0.00135522  0.16685046  0.33797445  1
  Te  Te164  1  0.00187156  0.16724093  0.66922091  1
  Te  Te165  1  -0.00334078  0.50032105  -0.00131183  1
  Te  Te166  1  0.00060512  0.50113080  0.33439185  1
  Te  Te167  1  -0.00125543  0.49813323  0.66811767  1
  Te  Te168  1  0.00129223  0.83377784  -0.00549147  1
  Te  Te169  1  -0.00068093  0.83266544  0.33390400  1
  Te  Te170  1  -0.00115146  0.83463537  0.67060921  1
  Te  Te171  1  0.33261843  0.17547438  0.00085081  1
  Te  Te172  1  0.33378599  0.17298132  0.33258497  1
  Te  Te173  1  0.32494829  0.16902115  0.66745146  1
  Te  Te174  1  0.33909305  0.50159050  0.00034486  1
  Te  Te175  1  0.33656293  0.49854637  0.33412929  1
  Te  Te176  1  0.33300005  0.50094486  0.66610442  1
  Te  Te177  1  0.33396760  0.83453404  0.00129884  1
  Te  Te178  1  0.33525592  0.83486838  0.33352411  1
  Te  Te179  1  0.34076952  0.83252350  0.66966209  1
  Te  Te180  1  0.67141919  0.17155257  0.00420020  1
  Te  Te181  1  0.66768383  0.16936317  0.32865474  1
  Te  Te182  1  0.66678761  0.17613769  0.66563225  1
  Te  Te183  1  0.66955580  0.49779796  -0.00597262  1
  Te  Te184  1  0.66371110  0.49958756  0.33571719  1
  Te  Te185  1  0.66786330  0.49882016  0.66817269  1
  Te  Te186  1  0.66416210  0.83361858  -0.00455966  1
  Te  Te187  1  0.66240303  0.83630689  0.33301026  1
  Te  Te188  1  0.66249685  0.83444845  0.67170478  1
  Te  Te189  1  0.00202532  -0.00397226  0.16695502  1
  Te  Te190  1  0.00427710  0.00230183  0.50313967  1
  Te  Te191  1  0.00084370  -0.00174779  0.83227130  1
  Te  Te192  1  -0.00458592  0.33236765  0.15987809  1
  Te  Te193  1  0.00342977  0.33422098  0.49942921  1
  Te  Te194  1  -0.00241788  0.34382054  0.83841852  1
  Te  Te195  1  0.00009040  0.67579810  0.16806736  1
  Te  Te196  1  0.00073670  0.66027027  0.50748876  1
  Te  Te197  1  -0.00099534  0.65912842  0.82927677  1
  Te  Te198  1  0.33388092  -0.00310775  0.16949415  1
  Te  Te199  1  0.33115798  0.00103513  0.49436788  1
  Te  Te200  1  0.33798138  -0.00225800  0.83379694  1
  Te  Te201  1  0.33311418  0.33318913  0.16887818  1
  Te  Te202  1  0.32969050  0.33659955  0.49769231  1
  Te  Te203  1  0.33347760  0.33353757  0.83624415  1
  Te  Te204  1  0.33344387  0.67443559  0.16017083  1
  Te  Te205  1  0.33767200  0.65872425  0.49993757  1
  Te  Te206  1  0.33287071  0.66693383  0.83690085  1
  Te  Te207  1  0.66438737  0.00022707  0.16958050  1
  Te  Te208  1  0.66601448  0.00157947  0.49557122  1
  Te  Te209  1  0.66214486  -0.00237049  0.83287878  1
  Te  Te210  1  0.66773245  0.33480210  0.16658453  1
  Te  Te211  1  0.66648361  0.33645431  0.49324455  1
  Te  Te212  1  0.67027721  0.33403141  0.83647664  1
  Te  Te213  1  0.66685846  0.65625344  0.16628102  1
  Te  Te214  1  0.65931164  0.65909497  0.50059737  1
  Te  Te215  1  0.67066587  0.66758601  0.83348577  1
