# generated using pymatgen
data_AgSbTe2
_symmetry_space_group_name_H-M   'P 1'
_cell_length_a   18.33579044
_cell_length_b   18.33032419
_cell_length_c   18.33770123
_cell_angle_alpha   90.00200446
_cell_angle_beta   90.00123368
_cell_angle_gamma   89.99670051
_symmetry_Int_Tables_number   1
_chemical_formula_structural   AgSbTe2
_chemical_formula_sum   'Ag54 Sb54 Te108'
_cell_volume   6163.31939488
_cell_formula_units_Z   54
loop_
 _symmetry_equiv_pos_site_id
 _symmetry_equiv_pos_as_xyz
  1  'x, y, z'
loop_
 _atom_site_type_symbol
 _atom_site_label
 _atom_site_symmetry_multiplicity
 _atom_site_fract_x
 _atom_site_fract_y
 _atom_site_fract_z
 _atom_site_occupancy
  Ag  Ag0  1  0.50549627  0.16834909  0.34171666  1
  Ag  Ag1  1  0.83761153  0.33533394  0.16994442  1
  Ag  Ag2  1  0.49832359  0.32976141  0.82273302  1
  Ag  Ag3  1  -0.00559006  0.17914458  0.16639703  1
  Ag  Ag4  1  0.15545321  0.33647728  0.16106737  1
  Ag  Ag5  1  0.83255585  0.65688604  0.50545662  1
  Ag  Ag6  1  -0.00694371  0.17539220  0.50442988  1
  Ag  Ag7  1  0.32925048  0.17205128  0.82990115  1
  Ag  Ag8  1  0.67525513  0.83741389  0.17937178  1
  Ag  Ag9  1  0.34274098  0.83213534  0.49874050  1
  Ag  Ag10  1  0.51132659  0.33126520  0.50471608  1
  Ag  Ag11  1  0.83343687  0.50031011  0.66013752  1
  Ag  Ag12  1  0.67157900  0.66671852  0.66515221  1
  Ag  Ag13  1  0.83777721  0.49887198  0.34156464  1
  Ag  Ag14  1  0.84032170  0.49452500  0.00222762  1
  Ag  Ag15  1  0.66540648  0.00218311  0.65914904  1
  Ag  Ag16  1  0.83535643  0.17767616  0.00140244  1
  Ag  Ag17  1  0.00154308  0.49540544  0.16953031  1
  Ag  Ag18  1  0.82986047  0.33698648  0.49769204  1
  Ag  Ag19  1  0.16654380  0.00011471  0.50085406  1
  Ag  Ag20  1  0.33285239  0.66503516  0.34229110  1
  Ag  Ag21  1  0.66495240  0.33012841  0.66255164  1
  Ag  Ag22  1  0.83628440  0.82989433  0.00674518  1
  Ag  Ag23  1  0.50866526  0.17484741  0.66231313  1
  Ag  Ag24  1  -0.00439573  0.49337309  0.49976868  1
  Ag  Ag25  1  0.16011417  0.49240962  0.00562385  1
  Ag  Ag26  1  0.50821948  0.83189960  0.66052127  1
  Ag  Ag27  1  0.32181198  0.33432703  0.00247134  1
  Ag  Ag28  1  0.82384322  0.82715379  0.33068100  1
  Ag  Ag29  1  0.66337040  0.00619590  0.33927771  1
  Ag  Ag30  1  0.50724340  0.83863837  0.34354393  1
  Ag  Ag31  1  0.32256864  0.49589436  0.17066048  1
  Ag  Ag32  1  -0.00381533  0.33478434  0.66670552  1
  Ag  Ag33  1  0.34033794  0.00076135  0.33672038  1
  Ag  Ag34  1  0.50846738  0.48933582  0.66515836  1
  Ag  Ag35  1  0.16729408  0.16749479  0.66716598  1
  Ag  Ag36  1  0.16219009  0.66309854  0.82914615  1
  Ag  Ag37  1  0.16669241  0.33397103  0.83608034  1
  Ag  Ag38  1  0.15945048  0.82818839  -0.00407245  1
  Ag  Ag39  1  0.16880986  0.83149694  0.66726141  1
  Ag  Ag40  1  0.66838632  0.17002959  0.50197710  1
  Ag  Ag41  1  -0.00568786  0.83061452  0.16446937  1
  Ag  Ag42  1  0.33784794  0.33510455  0.33199294  1
  Ag  Ag43  1  0.66474662  0.32548288  0.34441451  1
  Ag  Ag44  1  -0.00223812  0.17299165  0.82472023  1
  Ag  Ag45  1  0.16116431  0.49650204  0.32667810  1
  Ag  Ag46  1  0.66430670  0.83934037  0.50200673  1
  Ag  Ag47  1  -0.00737767  0.65762072  0.66732278  1
  Ag  Ag48  1  0.66775368  0.83613468  0.81951000  1
  Ag  Ag49  1  0.00203361  0.33372799  0.00371594  1
  Ag  Ag50  1  0.83669801  0.66610952  0.82592008  1
  Ag  Ag51  1  0.67166041  0.16694982  0.17706847  1
  Ag  Ag52  1  0.33324217  0.66892075  0.66385257  1
  Ag  Ag53  1  0.66751242  0.16709502  0.81867891  1
  Sb  Sb54  1  0.33276035  0.17496549  0.16551298  1
  Sb  Sb55  1  0.32883947  0.00564389  0.00523590  1
  Sb  Sb56  1  0.50151217  0.00704944  0.82765196  1
  Sb  Sb57  1  -0.00290247  0.33414474  0.33364529  1
  Sb  Sb58  1  0.83451564  0.66393304  0.16849041  1
  Sb  Sb59  1  0.67268951  0.66870730  -0.00753177  1
  Sb  Sb60  1  0.83553145  0.33574336  0.83223196  1
  Sb  Sb61  1  0.50044363  0.49663903  0.33968259  1
  Sb  Sb62  1  0.16367179  0.49867362  0.66761973  1
  Sb  Sb63  1  -0.00056227  0.49419499  0.83265094  1
  Sb  Sb64  1  -0.00339435  0.83481865  0.83519398  1
  Sb  Sb65  1  -0.00442214  0.83221652  0.49918044  1
  Sb  Sb66  1  0.66632977  0.66855356  0.34021749  1
  Sb  Sb67  1  0.50052163  0.00335662  0.49950810  1
  Sb  Sb68  1  0.83267264  0.00443105  0.16852619  1
  Sb  Sb69  1  0.67162387  0.33159509  -0.00234011  1
  Sb  Sb70  1  0.33456086  0.33480282  0.66472182  1
  Sb  Sb71  1  0.50092749  0.66280947  0.82646402  1
  Sb  Sb72  1  -0.00057015  0.65984073  -0.00588568  1
  Sb  Sb73  1  0.50070790  0.66626963  0.17204516  1
  Sb  Sb74  1  0.33579186  0.16489661  0.50256362  1
  Sb  Sb75  1  0.33191504  0.82757273  0.17404492  1
  Sb  Sb76  1  0.67364571  0.49573124  0.50144074  1
  Sb  Sb77  1  0.83053366  0.17449688  0.66855206  1
  Sb  Sb78  1  0.32840756  0.66162754  -0.00290360  1
  Sb  Sb79  1  0.16709130  0.00225328  0.82789581  1
  Sb  Sb80  1  0.16337637  0.33182099  0.50073753  1
  Sb  Sb81  1  0.50335780  0.83206243  -0.00179980  1
  Sb  Sb82  1  0.50574836  0.17082404  -0.00270541  1
  Sb  Sb83  1  0.50324863  0.33266493  0.17028573  1
  Sb  Sb84  1  0.17023798  0.17272862  0.33756306  1
  Sb  Sb85  1  0.33677739  -0.00220988  0.66013326  1
  Sb  Sb86  1  0.67273862  0.49718170  0.16927868  1
  Sb  Sb87  1  0.66791049  0.00183147  0.00078738  1
  Sb  Sb88  1  0.16466071  0.65919823  0.16428411  1
  Sb  Sb89  1  -0.00385013  0.00067384  0.33531313  1
  Sb  Sb90  1  -0.00073131  0.00551091  0.00048906  1
  Sb  Sb91  1  0.82896637  0.82423996  0.66454324  1
  Sb  Sb92  1  -0.00371587  0.00309375  0.66489523  1
  Sb  Sb93  1  0.16731576  0.82980802  0.33482282  1
  Sb  Sb94  1  0.82723368  0.17241498  0.33111297  1
  Sb  Sb95  1  0.66989152  0.49693822  0.82893304  1
  Sb  Sb96  1  0.32831930  0.50352189  0.49699322  1
  Sb  Sb97  1  0.15988048  0.17221945  -0.00584168  1
  Sb  Sb98  1  0.49843225  0.49498793  -0.00483139  1
  Sb  Sb99  1  0.50193319  0.00114693  0.17222629  1
  Sb  Sb100  1  0.16305082  0.66873655  0.50665166  1
  Sb  Sb101  1  0.33595816  0.83638543  0.82666044  1
  Sb  Sb102  1  0.50572481  0.66477141  0.50304845  1
  Sb  Sb103  1  0.33079479  0.49446930  0.83431950  1
  Sb  Sb104  1  0.83152375  -0.00210291  0.83193839  1
  Sb  Sb105  1  0.00214290  0.66337043  0.33859576  1
  Sb  Sb106  1  0.16530398  0.00431181  0.17213932  1
  Sb  Sb107  1  0.83225455  0.00333226  0.49850912  1
  Te  Te108  1  0.16282029  0.17240020  0.16612082  1
  Te  Te109  1  0.16635130  0.16393104  0.50487338  1
  Te  Te110  1  0.16451088  0.16905979  0.82929999  1
  Te  Te111  1  0.16289255  0.49671192  0.16607391  1
  Te  Te112  1  0.15818752  0.50030725  0.49485907  1
  Te  Te113  1  0.16604798  0.49906242  0.83820980  1
  Te  Te114  1  0.16430764  0.83334522  0.16420341  1
  Te  Te115  1  0.16411563  0.83664372  0.50343340  1
  Te  Te116  1  0.16708053  0.83380155  0.83072071  1
  Te  Te117  1  0.50583339  0.16720653  0.16950942  1
  Te  Te118  1  0.50193872  0.16992556  0.50140720  1
  Te  Te119  1  0.50735930  0.17136733  0.83021908  1
  Te  Te120  1  0.49925612  0.49974140  0.16559832  1
  Te  Te121  1  0.49749321  0.49393879  0.50601260  1
  Te  Te122  1  0.49983411  0.49287422  0.82637623  1
  Te  Te123  1  0.50301162  0.83323822  0.16848631  1
  Te  Te124  1  0.50042256  0.83034262  0.50047964  1
  Te  Te125  1  0.50578880  0.83310789  0.82984883  1
  Te  Te126  1  0.83367863  0.17024356  0.16498353  1
  Te  Te127  1  0.83344124  0.17150729  0.49869828  1
  Te  Te128  1  0.83219997  0.16649835  0.83829034  1
  Te  Te129  1  0.83702476  0.49759617  0.16345539  1
  Te  Te130  1  0.83615203  0.49782347  0.50051642  1
  Te  Te131  1  0.83363710  0.50577662  0.83715232  1
  Te  Te132  1  0.83300659  0.83037981  0.16803513  1
  Te  Te133  1  0.83033137  0.83439593  0.49525014  1
  Te  Te134  1  0.82952314  0.82991066  0.83539853  1
  Te  Te135  1  0.16641574  -0.01025266  0.00119341  1
  Te  Te136  1  0.16905154  -0.00036649  0.33859624  1
  Te  Te137  1  0.16692149  0.00157272  0.66279548  1
  Te  Te138  1  0.16348851  0.33315432  -0.00035206  1
  Te  Te139  1  0.17260866  0.33683164  0.33073583  1
  Te  Te140  1  0.16418288  0.33056829  0.66934442  1
  Te  Te141  1  0.16591072  0.66814536  -0.00715460  1
  Te  Te142  1  0.17257468  0.66079114  0.33423951  1
  Te  Te143  1  0.16783789  0.66670004  0.66944933  1
  Te  Te144  1  0.49720858  0.00064929  0.00015560  1
  Te  Te145  1  0.50143107  -0.00077914  0.33512327  1
  Te  Te146  1  0.50505621  -0.00449758  0.66548692  1
  Te  Te147  1  0.49515543  0.33347342  -0.00635745  1
  Te  Te148  1  0.50347423  0.33112597  0.33661810  1
  Te  Te149  1  0.49854269  0.33178085  0.66516891  1
  Te  Te150  1  0.49927616  0.66411492  -0.00136173  1
  Te  Te151  1  0.49314951  0.66911775  0.33601926  1
  Te  Te152  1  0.49857188  0.67243360  0.66668534  1
  Te  Te153  1  0.83355355  -0.01010176  0.00073323  1
  Te  Te154  1  0.82643914  -0.01037156  0.33364906  1
  Te  Te155  1  0.82514342  -0.00170883  0.66517055  1
  Te  Te156  1  0.83749229  0.33495776  -0.00100712  1
  Te  Te157  1  0.82959613  0.33638649  0.33351513  1
  Te  Te158  1  0.83538036  0.33928681  0.66610740  1
  Te  Te159  1  0.83474050  0.66910065  -0.00539783  1
  Te  Te160  1  0.83414737  0.66348755  0.33816743  1
  Te  Te161  1  0.83357535  0.66267531  0.66608117  1
  Te  Te162  1  -0.00428045  0.17120905  0.00656667  1
  Te  Te163  1  0.00008048  0.16499211  0.33214484  1
  Te  Te164  1  -0.00182788  0.16873195  0.66462280  1
  Te  Te165  1  0.00064348  0.49559953  0.00179440  1
  Te  Te166  1  -0.00134682  0.50080774  0.33198012  1
  Te  Te167  1  -0.00141689  0.49806268  0.66528073  1
  Te  Te168  1  -0.00073296  0.83354297  0.00065075  1
  Te  Te169  1  -0.00235661  0.83180964  0.32907642  1
  Te  Te170  1  0.00602574  0.83478255  0.66746692  1
  Te  Te171  1  0.33331325  0.17264089  -0.00456456  1
  Te  Te172  1  0.33899854  0.16788332  0.33302423  1
  Te  Te173  1  0.33306272  0.16579691  0.66982855  1
  Te  Te174  1  0.33025969  0.49434219  0.00475513  1
  Te  Te175  1  0.33554732  0.49860100  0.33162192  1
  Te  Te176  1  0.33340537  0.50656984  0.66552814  1
  Te  Te177  1  0.33175293  0.83421878  0.00101093  1
  Te  Te178  1  0.33429206  0.83215046  0.33706425  1
  Te  Te179  1  0.33049416  0.83217128  0.66293046  1
  Te  Te180  1  0.67412159  0.16556677  0.00447849  1
  Te  Te181  1  0.66582129  0.16628894  0.33589876  1
  Te  Te182  1  0.66780367  0.16977371  0.66236870  1
  Te  Te183  1  0.67325257  0.50063060  -0.00017396  1
  Te  Te184  1  0.67123337  0.49760278  0.33273817  1
  Te  Te185  1  0.66765501  0.49889026  0.66627923  1
  Te  Te186  1  0.67011258  0.83473197  0.00236566  1
  Te  Te187  1  0.66484532  0.82960930  0.33591477  1
  Te  Te188  1  0.66812025  0.83210800  0.66275497  1
  Te  Te189  1  0.00024124  -0.00646128  0.16797425  1
  Te  Te190  1  0.00420586  0.00684348  0.49965326  1
  Te  Te191  1  -0.00057933  0.01361103  0.83282369  1
  Te  Te192  1  -0.00149442  0.33581996  0.16916814  1
  Te  Te193  1  -0.00188913  0.33333937  0.50164778  1
  Te  Te194  1  0.00195531  0.32968793  0.83094751  1
  Te  Te195  1  0.00029959  0.66989310  0.16594354  1
  Te  Te196  1  -0.00585235  0.66457302  0.50662990  1
  Te  Te197  1  0.00111331  0.66909539  0.82678686  1
  Te  Te198  1  0.33234037  0.00127667  0.17552605  1
  Te  Te199  1  0.32908013  -0.00485431  0.49518960  1
  Te  Te200  1  0.33394509  0.00962011  0.83562552  1
  Te  Te201  1  0.33629814  0.33688181  0.16814831  1
  Te  Te202  1  0.33331897  0.33399829  0.49396729  1
  Te  Te203  1  0.32932052  0.33043945  0.83173688  1
  Te  Te204  1  0.33303573  0.65841951  0.16852707  1
  Te  Te205  1  0.33244890  0.67135778  0.50177428  1
  Te  Te206  1  0.32864229  0.66721482  0.82846750  1
  Te  Te207  1  0.66702985  -0.00007973  0.17236318  1
  Te  Te208  1  0.66691713  0.00122538  0.49908869  1
  Te  Te209  1  0.66611790  0.00125252  0.82987955  1
  Te  Te210  1  0.67225461  0.32985300  0.16569514  1
  Te  Te211  1  0.66891263  0.33265171  0.50185959  1
  Te  Te212  1  0.66553898  0.32915064  0.83018651  1
  Te  Te213  1  0.66657304  0.67319236  0.16601234  1
  Te  Te214  1  0.67186734  0.67175459  0.50561650  1
  Te  Te215  1  0.66866789  0.67026061  0.82581144  1
