# generated using pymatgen
data_AgSbTe2
_symmetry_space_group_name_H-M   'P 1'
_cell_length_a   18.32166776
_cell_length_b   18.32723630
_cell_length_c   18.32722025
_cell_angle_alpha   89.99861579
_cell_angle_beta   90.00269441
_cell_angle_gamma   90.00091263
_symmetry_Int_Tables_number   1
_chemical_formula_structural   AgSbTe2
_chemical_formula_sum   'Ag54 Sb54 Te108'
_cell_volume   6154.01543934
_cell_formula_units_Z   54
loop_
 _symmetry_equiv_pos_site_id
 _symmetry_equiv_pos_as_xyz
  1  'x, y, z'
loop_
 _atom_site_type_symbol
 _atom_site_label
 _atom_site_symmetry_multiplicity
 _atom_site_fract_x
 _atom_site_fract_y
 _atom_site_fract_z
 _atom_site_occupancy
  Ag  Ag0  1  0.66618627  0.17554828  0.49878640  1
  Ag  Ag1  1  0.67315645  0.65822742  0.67048775  1
  Ag  Ag2  1  0.82899730  0.65915805  0.82928395  1
  Ag  Ag3  1  0.66442996  0.16891282  0.16679595  1
  Ag  Ag4  1  0.16425315  0.33384271  0.49483950  1
  Ag  Ag5  1  0.16047654  0.49803017  0.66516345  1
  Ag  Ag6  1  0.66438842  -0.00626119  0.00425584  1
  Ag  Ag7  1  0.50758791  0.49531918  0.32718744  1
  Ag  Ag8  1  0.50454898  0.00982882  0.16397558  1
  Ag  Ag9  1  0.33053615  0.16595087  0.84464139  1
  Ag  Ag10  1  0.50593084  0.83310648  0.66895834  1
  Ag  Ag11  1  0.83138612  0.34329018  0.83040229  1
  Ag  Ag12  1  0.00252057  0.33762513  0.01037917  1
  Ag  Ag13  1  0.66730164  0.82410774  0.83586091  1
  Ag  Ag14  1  0.15964106  0.83529478  0.66701334  1
  Ag  Ag15  1  0.50901875  0.49990835  0.00666088  1
  Ag  Ag16  1  0.16099581  0.65770824  0.16507321  1
  Ag  Ag17  1  -0.00255506  0.48972467  0.16460411  1
  Ag  Ag18  1  -0.00934945  0.66711476  0.66839802  1
  Ag  Ag19  1  0.66684856  0.33811442  0.33698064  1
  Ag  Ag20  1  0.50989634  0.33389124  0.49758271  1
  Ag  Ag21  1  -0.00989799  0.66046670  0.00039469  1
  Ag  Ag22  1  0.32943543  0.32524655  0.00340133  1
  Ag  Ag23  1  0.82650110  0.50024954  -0.00460800  1
  Ag  Ag24  1  0.66770667  0.49795071  0.16116932  1
  Ag  Ag25  1  0.66953497  0.83226237  0.50395136  1
  Ag  Ag26  1  0.00162672  -0.00468660  0.66534639  1
  Ag  Ag27  1  0.16240699  0.00344944  0.83632486  1
  Ag  Ag28  1  0.83048118  0.65938682  0.51016852  1
  Ag  Ag29  1  0.67066015  0.50411976  0.83531096  1
  Ag  Ag30  1  0.15934721  0.32992795  0.16798743  1
  Ag  Ag31  1  0.66581292  0.34163794  0.66066813  1
  Ag  Ag32  1  -0.00595618  0.83407716  0.50495746  1
  Ag  Ag33  1  0.82567433  0.33798532  0.50454242  1
  Ag  Ag34  1  0.66703693  0.65847066  0.32940116  1
  Ag  Ag35  1  -0.00044090  0.33355702  0.32872359  1
  Ag  Ag36  1  0.16771337  0.16764027  0.67215460  1
  Ag  Ag37  1  0.67110434  0.66519801  -0.00263603  1
  Ag  Ag38  1  0.00220208  0.00560621  0.32736998  1
  Ag  Ag39  1  0.51242241  0.49693033  0.66680277  1
  Ag  Ag40  1  0.82931480  0.50158769  0.67319630  1
  Ag  Ag41  1  0.16697126  0.49583133  0.32766109  1
  Ag  Ag42  1  0.83405128  0.00015414  0.83748964  1
  Ag  Ag43  1  0.82763063  0.00236856  0.15964975  1
  Ag  Ag44  1  0.16759902  0.00857785  0.16290024  1
  Ag  Ag45  1  0.50124479  0.17144922  0.66562475  1
  Ag  Ag46  1  0.50826385  0.83332404  -0.00120266  1
  Ag  Ag47  1  0.17065077  0.16635711  0.00426359  1
  Ag  Ag48  1  0.33632724  0.00813799  0.00343959  1
  Ag  Ag49  1  0.00854547  0.17291014  0.16560006  1
  Ag  Ag50  1  0.32703295  0.00158954  0.32151147  1
  Ag  Ag51  1  0.32708839  0.16551943  0.16194776  1
  Ag  Ag52  1  0.50480920  0.33059146  0.16840732  1
  Ag  Ag53  1  0.66510647  0.83478157  0.15579269  1
  Sb  Sb54  1  0.15854231  0.66269318  0.49901197  1
  Sb  Sb55  1  0.33374868  0.32964416  0.32679825  1
  Sb  Sb56  1  -0.00255731  0.16596170  0.49684345  1
  Sb  Sb57  1  0.00368955  0.16599720  0.83758217  1
  Sb  Sb58  1  0.33858674  0.49425567  0.83494363  1
  Sb  Sb59  1  -0.00183687  0.50039060  0.49695804  1
  Sb  Sb60  1  0.33740692  0.33179038  0.67148969  1
  Sb  Sb61  1  0.82991880  0.49797180  0.33169020  1
  Sb  Sb62  1  0.83272074  0.16843608  0.33145895  1
  Sb  Sb63  1  0.50383858  0.00476588  0.49589199  1
  Sb  Sb64  1  0.50197563  0.66319172  0.16560546  1
  Sb  Sb65  1  0.83186294  0.66707545  0.16409844  1
  Sb  Sb66  1  0.33807790  0.83900639  0.83425801  1
  Sb  Sb67  1  0.50453377  0.83059764  0.33232612  1
  Sb  Sb68  1  0.83139073  0.83259670  0.33375321  1
  Sb  Sb69  1  0.16196686  0.32903206  0.83556756  1
  Sb  Sb70  1  0.51142557  0.66027864  0.50138467  1
  Sb  Sb71  1  0.66394186  0.16846336  0.83505993  1
  Sb  Sb72  1  0.33479705  0.66572635  0.66771756  1
  Sb  Sb73  1  0.16505071  0.00491519  0.49982573  1
  Sb  Sb74  1  0.33481230  0.49200633  0.16455766  1
  Sb  Sb75  1  0.33527366  0.83629851  0.50205442  1
  Sb  Sb76  1  0.66827250  0.49735399  0.50230568  1
  Sb  Sb77  1  -0.00276399  0.33539059  0.66505502  1
  Sb  Sb78  1  0.50561077  0.33377764  0.83468332  1
  Sb  Sb79  1  0.16415524  0.49549569  0.00138253  1
  Sb  Sb80  1  0.49608874  0.16813307  0.00098057  1
  Sb  Sb81  1  0.16997781  0.83823915  -0.00212704  1
  Sb  Sb82  1  0.82731538  0.82904836  -0.00157565  1
  Sb  Sb83  1  0.50109106  0.00077667  0.83889450  1
  Sb  Sb84  1  0.33582792  0.16903055  0.49832779  1
  Sb  Sb85  1  0.66888991  0.00127804  0.32506438  1
  Sb  Sb86  1  0.50898769  0.66590108  0.83307172  1
  Sb  Sb87  1  0.32983745  0.00240290  0.67079898  1
  Sb  Sb88  1  0.33383251  0.49792590  0.49997380  1
  Sb  Sb89  1  0.15733932  0.67016904  0.83564668  1
  Sb  Sb90  1  0.33599115  0.66597265  0.00218365  1
  Sb  Sb91  1  0.16494863  0.83131936  0.33552220  1
  Sb  Sb92  1  0.83078097  0.82599096  0.66696861  1
  Sb  Sb93  1  0.83313680  0.00075997  0.50104173  1
  Sb  Sb94  1  0.33658174  0.66735347  0.32954569  1
  Sb  Sb95  1  0.83294933  0.33153391  0.16668134  1
  Sb  Sb96  1  -0.00332746  0.83551145  0.16828771  1
  Sb  Sb97  1  -0.00146055  0.00067312  0.00271182  1
  Sb  Sb98  1  0.83596482  0.17139010  0.00149040  1
  Sb  Sb99  1  0.16659527  0.17130365  0.32899041  1
  Sb  Sb100  1  -0.00499525  0.66358980  0.33280872  1
  Sb  Sb101  1  0.67088363  -0.00194966  0.67211173  1
  Sb  Sb102  1  -0.00702947  0.49958859  0.83813464  1
  Sb  Sb103  1  -0.00704191  0.83437148  0.82920027  1
  Sb  Sb104  1  0.50165411  0.17198353  0.33190726  1
  Sb  Sb105  1  0.66803581  0.33678556  0.00216902  1
  Sb  Sb106  1  0.83279804  0.17123956  0.66814360  1
  Sb  Sb107  1  0.33919075  0.84370735  0.16488151  1
  Te  Te108  1  0.16635361  0.16842178  0.16616974  1
  Te  Te109  1  0.16644985  0.17256218  0.50546239  1
  Te  Te110  1  0.16955755  0.16333730  0.83282465  1
  Te  Te111  1  0.16606366  0.49495676  0.16562439  1
  Te  Te112  1  0.16584481  0.49518333  0.50165251  1
  Te  Te113  1  0.16816614  0.50095319  0.82801800  1
  Te  Te114  1  0.16642139  0.83834238  0.16688193  1
  Te  Te115  1  0.16529217  0.83218841  0.50644911  1
  Te  Te116  1  0.16789203  0.83897584  0.82817135  1
  Te  Te117  1  0.50402347  0.16906351  0.16616949  1
  Te  Te118  1  0.50369468  0.17211341  0.50487314  1
  Te  Te119  1  0.49501658  0.16663590  0.82546446  1
  Te  Te120  1  0.50142683  0.49726251  0.16687068  1
  Te  Te121  1  0.49922775  0.49305018  0.50382770  1
  Te  Te122  1  0.50624378  0.49954665  0.82833534  1
  Te  Te123  1  0.50587364  0.83305936  0.16425850  1
  Te  Te124  1  0.50442263  0.83299353  0.50392088  1
  Te  Te125  1  0.50579636  0.83441704  0.83236741  1
  Te  Te126  1  0.82822103  0.16185078  0.16579385  1
  Te  Te127  1  0.82700040  0.17309058  0.50077199  1
  Te  Te128  1  0.83313894  0.15982003  0.83388466  1
  Te  Te129  1  0.83316380  0.49983264  0.16234231  1
  Te  Te130  1  0.83518165  0.49853903  0.50457099  1
  Te  Te131  1  0.83066684  0.50053481  0.83435515  1
  Te  Te132  1  0.82633260  0.83974399  0.16636174  1
  Te  Te133  1  0.83183323  0.83304267  0.50035818  1
  Te  Te134  1  0.82633013  0.84065320  0.83269386  1
  Te  Te135  1  0.16646377  0.00229071  -0.00023150  1
  Te  Te136  1  0.16356685  -0.00078220  0.33099603  1
  Te  Te137  1  0.16458465  -0.00030846  0.66683670  1
  Te  Te138  1  0.16431862  0.32995703  0.00234244  1
  Te  Te139  1  0.16688330  0.33657147  0.33022732  1
  Te  Te140  1  0.16639541  0.33414838  0.66802073  1
  Te  Te141  1  0.16548250  0.66792092  0.00430805  1
  Te  Te142  1  0.16612144  0.66052778  0.32851141  1
  Te  Te143  1  0.16496317  0.66636355  0.66710437  1
  Te  Te144  1  0.50110779  0.00047628  0.00416403  1
  Te  Te145  1  0.49992513  -0.00041929  0.32610027  1
  Te  Te146  1  0.49916346  -0.00159372  0.66549908  1
  Te  Te147  1  0.49904480  0.33672676  0.00339341  1
  Te  Te148  1  0.50027623  0.33703949  0.33183589  1
  Te  Te149  1  0.50293820  0.33449684  0.66668782  1
  Te  Te150  1  0.50412658  0.66621451  -0.00027409  1
  Te  Te151  1  0.50486944  0.65813331  0.33403733  1
  Te  Te152  1  0.50273907  0.66528317  0.66635804  1
  Te  Te153  1  0.83100347  0.00060269  0.00017399  1
  Te  Te154  1  0.83981846  0.00036596  0.32988398  1
  Te  Te155  1  0.83962922  0.00243012  0.66947636  1
  Te  Te156  1  0.83763777  0.33803048  -0.00334533  1
  Te  Te157  1  0.83376845  0.33449396  0.33907706  1
  Te  Te158  1  0.83064154  0.33724994  0.66606385  1
  Te  Te159  1  0.83153576  0.66253061  -0.00181908  1
  Te  Te160  1  0.82618145  0.66543192  0.33827766  1
  Te  Te161  1  0.83317528  0.66350932  0.66834264  1
  Te  Te162  1  0.00519752  0.16917923  0.00561073  1
  Te  Te163  1  -0.00014855  0.16779098  0.32851905  1
  Te  Te164  1  0.00596988  0.16426308  0.66562743  1
  Te  Te165  1  0.00018528  0.50046600  0.00429010  1
  Te  Te166  1  0.00278181  0.49670538  0.32698966  1
  Te  Te167  1  0.00125045  0.50330031  0.66631856  1
  Te  Te168  1  0.00110664  0.82410918  -0.00075104  1
  Te  Te169  1  0.00002740  0.83498031  0.34010741  1
  Te  Te170  1  0.00090673  0.83231307  0.66506041  1
  Te  Te171  1  0.33295931  0.16639195  0.00196274  1
  Te  Te172  1  0.33428539  0.16054431  0.32751763  1
  Te  Te173  1  0.33183944  0.16633076  0.66649473  1
  Te  Te174  1  0.34265474  0.49709325  -0.00141252  1
  Te  Te175  1  0.33023473  0.50082109  0.33255356  1
  Te  Te176  1  0.33012936  0.50009585  0.66807833  1
  Te  Te177  1  0.34283169  0.83759680  -0.00125808  1
  Te  Te178  1  0.33439217  0.84046021  0.33419413  1
  Te  Te179  1  0.33796826  0.83377339  0.66699575  1
  Te  Te180  1  0.66624016  0.16382054  0.00413249  1
  Te  Te181  1  0.66601949  0.17202214  0.33285285  1
  Te  Te182  1  0.66370746  0.16667851  0.66545923  1
  Te  Te183  1  0.66645233  0.49878285  0.00067949  1
  Te  Te184  1  0.66612430  0.49829593  0.32887241  1
  Te  Te185  1  0.66914055  0.49993691  0.66649737  1
  Te  Te186  1  0.66495341  0.83212436  -0.00113362  1
  Te  Te187  1  0.66588198  0.82848425  0.33825423  1
  Te  Te188  1  0.66464155  0.83396910  0.66763240  1
  Te  Te189  1  0.00188371  0.00033889  0.16794659  1
  Te  Te190  1  -0.00108957  -0.00358852  0.50084852  1
  Te  Te191  1  0.00091699  -0.00030459  0.83064226  1
  Te  Te192  1  -0.00322412  0.33245226  0.16804256  1
  Te  Te193  1  0.00375943  0.33231067  0.49476585  1
  Te  Te194  1  -0.00769994  0.33237561  0.83664195  1
  Te  Te195  1  0.00091513  0.66753578  0.16496084  1
  Te  Te196  1  -0.00665666  0.67139657  0.50276808  1
  Te  Te197  1  -0.00836513  0.66715149  0.83251388  1
  Te  Te198  1  0.33091676  0.00376753  0.16358742  1
  Te  Te199  1  0.33423973  0.00159194  0.49167239  1
  Te  Te200  1  0.32871685  0.00528195  0.83836408  1
  Te  Te201  1  0.33558590  0.32734571  0.16265254  1
  Te  Te202  1  0.32798504  0.33281584  0.49958946  1
  Te  Te203  1  0.33271179  0.32699885  0.84098102  1
  Te  Te204  1  0.32314752  0.66912446  0.16661823  1
  Te  Te205  1  0.33344269  0.66823422  0.49806926  1
  Te  Te206  1  0.32896656  0.66694964  0.83497800  1
  Te  Te207  1  0.66583963  0.00064284  0.16544278  1
  Te  Te208  1  0.66805915  -0.00167480  0.49787130  1
  Te  Te209  1  0.66933813  0.00016478  0.83965532  1
  Te  Te210  1  0.66673380  0.33447263  0.16911161  1
  Te  Te211  1  0.66573294  0.33365240  0.50001378  1
  Te  Te212  1  0.67240356  0.33560072  0.82935269  1
  Te  Te213  1  0.66697442  0.66426559  0.16514136  1
  Te  Te214  1  0.67128491  0.66973312  0.50398196  1
  Te  Te215  1  0.67025988  0.66493035  0.83393483  1
