# generated using pymatgen
data_AgSbTe2
_symmetry_space_group_name_H-M   'P 1'
_cell_length_a   18.32573079
_cell_length_b   18.33930498
_cell_length_c   18.33002234
_cell_angle_alpha   90.00179602
_cell_angle_beta   90.00280425
_cell_angle_gamma   89.99862755
_symmetry_Int_Tables_number   1
_chemical_formula_structural   AgSbTe2
_chemical_formula_sum   'Ag54 Sb54 Te108'
_cell_volume   6160.37526801
_cell_formula_units_Z   54
loop_
 _symmetry_equiv_pos_site_id
 _symmetry_equiv_pos_as_xyz
  1  'x, y, z'
loop_
 _atom_site_type_symbol
 _atom_site_label
 _atom_site_symmetry_multiplicity
 _atom_site_fract_x
 _atom_site_fract_y
 _atom_site_fract_z
 _atom_site_occupancy
  Ag  Ag0  1  0.16367862  0.34114808  0.16916001  1
  Ag  Ag1  1  0.33070313  0.83328029  0.17075471  1
  Ag  Ag2  1  0.00635286  0.17090812  0.83388027  1
  Ag  Ag3  1  0.00239606  0.49831849  0.16899758  1
  Ag  Ag4  1  0.16454430  0.34306732  0.49782658  1
  Ag  Ag5  1  0.16679308  0.66047631  0.17519284  1
  Ag  Ag6  1  0.00156660  0.50142287  0.83170460  1
  Ag  Ag7  1  0.82484586  -0.00513200  0.82571656  1
  Ag  Ag8  1  0.16884420  -0.00127256  0.15895245  1
  Ag  Ag9  1  0.66851632  0.50010166  0.17387266  1
  Ag  Ag10  1  0.33768800  0.33923112  0.66569079  1
  Ag  Ag11  1  0.50260551  0.66617357  0.82362839  1
  Ag  Ag12  1  0.16943482  0.16403964  -0.00323676  1
  Ag  Ag13  1  0.16283859  0.66168571  0.50049616  1
  Ag  Ag14  1  0.33986049  -0.00668903  0.33789389  1
  Ag  Ag15  1  0.33545355  0.16327973  0.83085597  1
  Ag  Ag16  1  0.66695795  0.33070787  0.00198373  1
  Ag  Ag17  1  0.66435692  0.00290516  -0.00092207  1
  Ag  Ag18  1  0.65922926  -0.00453481  0.33593134  1
  Ag  Ag19  1  0.83403570  0.82331162  0.66601182  1
  Ag  Ag20  1  -0.00261137  0.82411952  0.50035854  1
  Ag  Ag21  1  0.50082426  0.50628113  0.34444577  1
  Ag  Ag22  1  0.16997683  -0.00029751  0.83679716  1
  Ag  Ag23  1  0.33020322  0.66472113  0.66233278  1
  Ag  Ag24  1  0.66352373  0.16902871  0.16719256  1
  Ag  Ag25  1  0.00003478  0.66431736  0.66207472  1
  Ag  Ag26  1  0.33596959  0.66913688  0.34204055  1
  Ag  Ag27  1  0.50092486  0.16616746  -0.00980410  1
  Ag  Ag28  1  0.83191611  0.67096397  0.82276058  1
  Ag  Ag29  1  0.82710889  0.34610286  0.50144449  1
  Ag  Ag30  1  0.16648486  0.83547203  -0.00045328  1
  Ag  Ag31  1  0.66517143  0.83167572  0.83573401  1
  Ag  Ag32  1  -0.00078256  0.33377805  -0.00053284  1
  Ag  Ag33  1  0.50240606  0.66007445  0.50066782  1
  Ag  Ag34  1  0.50446310  0.00035292  0.50265039  1
  Ag  Ag35  1  0.50339687  0.34297995  0.50523314  1
  Ag  Ag36  1  0.65997022  0.66580613  0.33454424  1
  Ag  Ag37  1  0.49966918  0.00410512  0.82554302  1
  Ag  Ag38  1  0.01043222  0.66189758  0.34488697  1
  Ag  Ag39  1  0.16592578  0.50390086  0.34129981  1
  Ag  Ag40  1  0.83797449  0.66512851  0.50420897  1
  Ag  Ag41  1  0.00462937  0.34381688  0.33384784  1
  Ag  Ag42  1  0.49893752  0.49926795  0.66355143  1
  Ag  Ag43  1  0.66343094  0.17248887  0.49574687  1
  Ag  Ag44  1  0.16739917  0.50421361  0.65947635  1
  Ag  Ag45  1  0.33555053  -0.00042110  0.66691657  1
  Ag  Ag46  1  0.83794327  0.50753440  0.66420783  1
  Ag  Ag47  1  0.49724535  0.17381088  0.67024929  1
  Ag  Ag48  1  0.50027518  0.32742740  0.82411502  1
  Ag  Ag49  1  0.82378773  -0.00456594  0.50737656  1
  Ag  Ag50  1  0.66256684  0.50071556  0.49692567  1
  Ag  Ag51  1  0.16521053  0.66695236  0.82816528  1
  Ag  Ag52  1  0.49948224  0.82414720  0.33596337  1
  Ag  Ag53  1  0.66548810  0.66603789  0.00018833  1
  Sb  Sb54  1  0.49792902  0.33419118  0.16812312  1
  Sb  Sb55  1  0.16463936  0.50006192  -0.00012676  1
  Sb  Sb56  1  0.00804893  0.82584486  0.17101395  1
  Sb  Sb57  1  0.83236916  0.50108843  -0.00706871  1
  Sb  Sb58  1  0.00370584  -0.00435783  0.66806929  1
  Sb  Sb59  1  0.83521944  0.50187895  0.34171852  1
  Sb  Sb60  1  0.16470118  0.82476840  0.66910466  1
  Sb  Sb61  1  0.33538518  0.16334260  0.16264938  1
  Sb  Sb62  1  -0.00119402  0.66198528  -0.00315952  1
  Sb  Sb63  1  0.65966677  0.33394124  0.66683571  1
  Sb  Sb64  1  -0.00071050  0.82929416  0.82975845  1
  Sb  Sb65  1  0.33191541  0.83042676  0.49807052  1
  Sb  Sb66  1  0.16752250  0.17097041  0.32884679  1
  Sb  Sb67  1  0.66820074  0.83017366  0.50343100  1
  Sb  Sb68  1  0.82993120  0.16689349  -0.00367603  1
  Sb  Sb69  1  0.82732439  0.16774551  0.66678987  1
  Sb  Sb70  1  0.66881754  0.33700295  0.33412449  1
  Sb  Sb71  1  0.50085637  0.16815359  0.33799019  1
  Sb  Sb72  1  0.66693404  0.66605683  0.66337057  1
  Sb  Sb73  1  0.49702388  0.00097906  0.16793564  1
  Sb  Sb74  1  0.50480517  0.49800460  -0.00455074  1
  Sb  Sb75  1  -0.00017794  0.00492534  -0.00273224  1
  Sb  Sb76  1  0.00214582  -0.00403353  0.33494173  1
  Sb  Sb77  1  0.33551728  0.83581867  0.83438523  1
  Sb  Sb78  1  0.16960878  0.33438712  0.83211013  1
  Sb  Sb79  1  0.83590544  0.66443496  0.17001846  1
  Sb  Sb80  1  -0.00101679  0.50428769  0.50073144  1
  Sb  Sb81  1  0.33537445  0.66836666  -0.00191024  1
  Sb  Sb82  1  -0.00025012  0.17324354  0.16181404  1
  Sb  Sb83  1  0.66263825  0.83154390  0.16463480  1
  Sb  Sb84  1  0.83551413  0.33595822  0.17112748  1
  Sb  Sb85  1  -0.00485577  0.16799680  0.50526098  1
  Sb  Sb86  1  0.33492417  -0.00006156  -0.00263680  1
  Sb  Sb87  1  0.33027694  0.33680575  0.34032948  1
  Sb  Sb88  1  0.66163293  0.00000416  0.66557212  1
  Sb  Sb89  1  0.49610420  0.66525990  0.17237300  1
  Sb  Sb90  1  0.50257161  0.82948482  0.66273024  1
  Sb  Sb91  1  0.17274210  0.82487112  0.33095334  1
  Sb  Sb92  1  0.00492352  0.34077158  0.66537532  1
  Sb  Sb93  1  0.33355200  0.33076765  -0.00492525  1
  Sb  Sb94  1  0.83014592  0.33432769  0.82836057  1
  Sb  Sb95  1  0.33073903  0.49944625  0.82921095  1
  Sb  Sb96  1  0.83179798  0.16684836  0.33615718  1
  Sb  Sb97  1  0.66816293  0.50490014  0.82873934  1
  Sb  Sb98  1  0.33986212  0.16578410  0.50611765  1
  Sb  Sb99  1  0.83559501  0.83260289  -0.00778586  1
  Sb  Sb100  1  0.82770169  0.83129923  0.34106906  1
  Sb  Sb101  1  0.33788409  0.50270130  0.50228293  1
  Sb  Sb102  1  0.83359581  0.00002532  0.16702602  1
  Sb  Sb103  1  0.49824906  0.83595975  0.00070326  1
  Sb  Sb104  1  0.33080108  0.50332279  0.17123137  1
  Sb  Sb105  1  0.17266809  0.17167491  0.67095263  1
  Sb  Sb106  1  0.66185015  0.16345634  0.83420500  1
  Sb  Sb107  1  0.16943582  -0.00150593  0.50177714  1
  Te  Te108  1  0.16707434  0.16458774  0.16079415  1
  Te  Te109  1  0.16565167  0.16965103  0.49939030  1
  Te  Te110  1  0.16795069  0.16690262  0.83569223  1
  Te  Te111  1  0.16465431  0.50101415  0.16676094  1
  Te  Te112  1  0.16559613  0.50080852  0.49981687  1
  Te  Te113  1  0.16350024  0.50306967  0.83143094  1
  Te  Te114  1  0.16957809  0.83448497  0.16470685  1
  Te  Te115  1  0.15969375  0.82985574  0.50020777  1
  Te  Te116  1  0.16756916  0.83427129  0.83608609  1
  Te  Te117  1  0.50394940  0.16830915  0.15953935  1
  Te  Te118  1  0.50401905  0.16107176  0.50378918  1
  Te  Te119  1  0.50064892  0.16546632  0.83053807  1
  Te  Te120  1  0.50508181  0.49904485  0.16892725  1
  Te  Te121  1  0.50191306  0.50117237  0.50120043  1
  Te  Te122  1  0.49946797  0.50371451  0.82761123  1
  Te  Te123  1  0.49416776  0.83321252  0.17198106  1
  Te  Te124  1  0.50102834  0.83681163  0.49590210  1
  Te  Te125  1  0.50278335  0.83228879  0.83427774  1
  Te  Te126  1  0.82452665  0.16748744  0.16617329  1
  Te  Te127  1  0.82686433  0.15963378  0.50133969  1
  Te  Te128  1  0.83827678  0.16253010  0.83169412  1
  Te  Te129  1  0.83073396  0.50006313  0.16568304  1
  Te  Te130  1  0.82860350  0.50313492  0.50555566  1
  Te  Te131  1  0.83684014  0.50296325  0.82544056  1
  Te  Te132  1  0.83602286  0.83337858  0.16535313  1
  Te  Te133  1  0.83472412  0.83195757  0.50528242  1
  Te  Te134  1  0.83239562  0.83355640  0.82849847  1
  Te  Te135  1  0.16706389  0.00235919  -0.00206132  1
  Te  Te136  1  0.17024260  -0.00015705  0.33382183  1
  Te  Te137  1  0.17255963  0.00090300  0.67067849  1
  Te  Te138  1  0.16549490  0.33043589  0.00145220  1
  Te  Te139  1  0.16556099  0.33786005  0.33473805  1
  Te  Te140  1  0.17270503  0.33944164  0.66291942  1
  Te  Te141  1  0.16732809  0.66857935  -0.00536634  1
  Te  Te142  1  0.16849018  0.66423975  0.33518723  1
  Te  Te143  1  0.16792589  0.66478623  0.66657095  1
  Te  Te144  1  0.50369585  0.00232791  -0.00236557  1
  Te  Te145  1  0.50008699  0.00332407  0.33462275  1
  Te  Te146  1  0.49598591  -0.00491125  0.66679067  1
  Te  Te147  1  0.50243345  0.32995800  -0.00026827  1
  Te  Te148  1  0.49928297  0.33918212  0.34011616  1
  Te  Te149  1  0.49790274  0.33558738  0.66549694  1
  Te  Te150  1  0.50420257  0.66689012  -0.00553458  1
  Te  Te151  1  0.49801200  0.66484178  0.33459265  1
  Te  Te152  1  0.49889519  0.66605673  0.66374428  1
  Te  Te153  1  0.82763844  -0.00072836  -0.00474948  1
  Te  Te154  1  0.82937769  -0.00098666  0.33687131  1
  Te  Te155  1  0.83545865  0.00107649  0.66728911  1
  Te  Te156  1  0.83277634  0.33332039  -0.00091877  1
  Te  Te157  1  0.84006931  0.33372229  0.34210812  1
  Te  Te158  1  0.83404014  0.33619967  0.66028521  1
  Te  Te159  1  0.82662815  0.66785714  -0.00450014  1
  Te  Te160  1  0.82963933  0.66741358  0.33851746  1
  Te  Te161  1  0.83159595  0.66402598  0.66542612  1
  Te  Te162  1  0.00310912  0.17238819  -0.00454515  1
  Te  Te163  1  0.00010859  0.17056513  0.33222065  1
  Te  Te164  1  0.00102403  0.16804333  0.67389809  1
  Te  Te165  1  -0.00141901  0.49391083  0.00076531  1
  Te  Te166  1  0.00120299  0.50224075  0.33133785  1
  Te  Te167  1  0.00255696  0.50421343  0.67044035  1
  Te  Te168  1  0.00691255  0.83331017  0.00201638  1
  Te  Te169  1  -0.00177189  0.82643213  0.33877737  1
  Te  Te170  1  -0.00452936  0.82706367  0.66255285  1
  Te  Te171  1  0.33517073  0.16632293  -0.00578315  1
  Te  Te172  1  0.33387161  0.15926549  0.33238929  1
  Te  Te173  1  0.33816698  0.16274075  0.67107426  1
  Te  Te174  1  0.33509637  0.49902541  0.00163498  1
  Te  Te175  1  0.33254845  0.50485575  0.33367152  1
  Te  Te176  1  0.33321874  0.50283811  0.66738857  1
  Te  Te177  1  0.32774734  0.83306002  0.00742955  1
  Te  Te178  1  0.33794760  0.83221027  0.33220035  1
  Te  Te179  1  0.33323727  0.83148452  0.66669858  1
  Te  Te180  1  0.66370412  0.16635724  0.00038126  1
  Te  Te181  1  0.66548802  0.16280772  0.33300215  1
  Te  Te182  1  0.65885515  0.16712126  0.65856146  1
  Te  Te183  1  0.66742566  0.49970738  0.00544148  1
  Te  Te184  1  0.66643293  0.50186220  0.33510605  1
  Te  Te185  1  0.66217642  0.49899172  0.66087097  1
  Te  Te186  1  0.66671702  0.83395588  -0.00267604  1
  Te  Te187  1  0.66111576  0.83274488  0.33147428  1
  Te  Te188  1  0.67326538  0.83396125  0.67603432  1
  Te  Te189  1  0.00575324  0.00105224  0.16756858  1
  Te  Te190  1  -0.00407987  -0.00132768  0.49978372  1
  Te  Te191  1  0.00495613  0.00140734  0.83366865  1
  Te  Te192  1  0.00229837  0.33722041  0.16724452  1
  Te  Te193  1  0.00245590  0.33113884  0.49767497  1
  Te  Te194  1  -0.00099998  0.33552516  0.83465542  1
  Te  Te195  1  0.00419392  0.65877289  0.16609707  1
  Te  Te196  1  -0.00059742  0.66600782  0.50156086  1
  Te  Te197  1  0.00058120  0.66372032  0.83171357  1
  Te  Te198  1  0.32935748  -0.00264394  0.17035516  1
  Te  Te199  1  0.33719925  -0.00105175  0.50074432  1
  Te  Te200  1  0.33463664  0.00132169  0.83111810  1
  Te  Te201  1  0.32517948  0.33211138  0.16886605  1
  Te  Te202  1  0.33453964  0.33122124  0.50568726  1
  Te  Te203  1  0.33874269  0.32947637  0.82770184  1
  Te  Te204  1  0.32728021  0.67001746  0.16757092  1
  Te  Te205  1  0.33443274  0.66795008  0.50097875  1
  Te  Te206  1  0.33330355  0.66769797  0.82996974  1
  Te  Te207  1  0.66767964  0.00052562  0.16642327  1
  Te  Te208  1  0.66571792  -0.00436505  0.49822644  1
  Te  Te209  1  0.66520103  -0.00057615  0.83402398  1
  Te  Te210  1  0.66656888  0.33431417  0.16524056  1
  Te  Te211  1  0.66573201  0.33353249  0.49930699  1
  Te  Te212  1  0.66193974  0.33441384  0.83995110  1
  Te  Te213  1  0.66707066  0.66389598  0.16772406  1
  Te  Te214  1  0.66250671  0.66627387  0.49534923  1
  Te  Te215  1  0.66621932  0.66714881  0.83529569  1
