# generated using pymatgen
data_AgSbTe2
_symmetry_space_group_name_H-M   'P 1'
_cell_length_a   18.31493390
_cell_length_b   18.31286005
_cell_length_c   18.31123322
_cell_angle_alpha   90.00211808
_cell_angle_beta   90.00278544
_cell_angle_gamma   90.00267897
_symmetry_Int_Tables_number   1
_chemical_formula_structural   AgSbTe2
_chemical_formula_sum   'Ag54 Sb54 Te108'
_cell_volume   6141.56601991
_cell_formula_units_Z   54
loop_
 _symmetry_equiv_pos_site_id
 _symmetry_equiv_pos_as_xyz
  1  'x, y, z'
loop_
 _atom_site_type_symbol
 _atom_site_label
 _atom_site_symmetry_multiplicity
 _atom_site_fract_x
 _atom_site_fract_y
 _atom_site_fract_z
 _atom_site_occupancy
  Ag  Ag0  1  0.00530301  0.17347824  0.83172406  1
  Ag  Ag1  1  0.33720293  0.83588675  0.51377259  1
  Ag  Ag2  1  0.82780171  0.33493798  0.16079635  1
  Ag  Ag3  1  0.66640227  0.49716878  0.50051282  1
  Ag  Ag4  1  0.83331410  0.33154262  0.83468655  1
  Ag  Ag5  1  0.66997024  0.67008185  -0.00128897  1
  Ag  Ag6  1  0.50196422  0.49112653  -0.00304649  1
  Ag  Ag7  1  0.82576496  0.83091545  -0.00545190  1
  Ag  Ag8  1  0.82950325  0.66460550  0.16545625  1
  Ag  Ag9  1  -0.00590319  0.00718459  0.33320571  1
  Ag  Ag10  1  0.66613959  0.33149846  0.67138509  1
  Ag  Ag11  1  -0.00053782  0.33448936  -0.00940840  1
  Ag  Ag12  1  0.34138833  0.32555731  -0.00875402  1
  Ag  Ag13  1  0.33547887  0.33015497  0.67455759  1
  Ag  Ag14  1  -0.00318848  0.49119312  0.83233392  1
  Ag  Ag15  1  0.33702997  0.00676866  0.33337030  1
  Ag  Ag16  1  0.16918934  0.49686049  0.33767229  1
  Ag  Ag17  1  0.34313334  0.83891859  0.83033338  1
  Ag  Ag18  1  0.66692559  0.17310396  0.16742816  1
  Ag  Ag19  1  -0.00199722  0.33073999  0.33123593  1
  Ag  Ag20  1  0.82961258  0.67212638  0.50111777  1
  Ag  Ag21  1  0.33104897  0.16627873  0.83359282  1
  Ag  Ag22  1  0.33158297  0.67476196  0.66918561  1
  Ag  Ag23  1  0.49763860  0.17142779  -0.00835674  1
  Ag  Ag24  1  -0.00804747  0.66255038  -0.00790135  1
  Ag  Ag25  1  0.66007439  0.82968066  0.83573500  1
  Ag  Ag26  1  0.33525018  0.32920785  0.33287710  1
  Ag  Ag27  1  0.50655131  0.33418814  0.15672049  1
  Ag  Ag28  1  0.66428861  0.49939389  0.83523630  1
  Ag  Ag29  1  0.16883112  0.00496306  0.83279867  1
  Ag  Ag30  1  0.00061660  0.66328624  0.67367978  1
  Ag  Ag31  1  0.50002630  0.16866130  0.67342013  1
  Ag  Ag32  1  -0.00170797  0.33277251  0.67605487  1
  Ag  Ag33  1  0.66035656  -0.00427538  0.00077672  1
  Ag  Ag34  1  0.83125269  0.83402492  0.67082229  1
  Ag  Ag35  1  0.50448901  -0.00000813  0.49902538  1
  Ag  Ag36  1  0.66797287  0.66430084  0.32924169  1
  Ag  Ag37  1  -0.00436225  0.83198887  0.16324331  1
  Ag  Ag38  1  0.66810937  0.16633637  0.49919329  1
  Ag  Ag39  1  0.66553827  0.49484394  0.16547582  1
  Ag  Ag40  1  0.82941284  0.16918917  0.66550991  1
  Ag  Ag41  1  0.50402160  0.49652543  0.32916102  1
  Ag  Ag42  1  0.50695309  0.83543984  -0.00753102  1
  Ag  Ag43  1  0.16907360  0.16904965  0.67378993  1
  Ag  Ag44  1  0.82585011  -0.00053402  0.49895564  1
  Ag  Ag45  1  0.17657034  0.83339835  0.66919469  1
  Ag  Ag46  1  0.66740030  0.00249956  0.33488590  1
  Ag  Ag47  1  0.49725598  0.83591927  0.67563791  1
  Ag  Ag48  1  0.34156642  0.00715251  -0.00492125  1
  Ag  Ag49  1  0.50308780  0.33402555  0.83728552  1
  Ag  Ag50  1  0.50286758  0.66986301  0.83389297  1
  Ag  Ag51  1  0.16493499  0.49568971  0.66680663  1
  Ag  Ag52  1  0.17477479  0.16737321  -0.00886277  1
  Ag  Ag53  1  0.82962650  0.16590941  0.33790319  1
  Sb  Sb54  1  0.50203419  0.83224181  0.33292075  1
  Sb  Sb55  1  -0.00152318  0.00163276  0.00170339  1
  Sb  Sb56  1  0.82542502  0.50274026  -0.00109192  1
  Sb  Sb57  1  -0.00776340  0.66411031  0.33320720  1
  Sb  Sb58  1  0.33847760  0.66712802  -0.00757497  1
  Sb  Sb59  1  -0.00636786  0.16759669  0.16335889  1
  Sb  Sb60  1  -0.00564773  0.49922484  0.50510724  1
  Sb  Sb61  1  0.16408459  0.17032599  0.33541164  1
  Sb  Sb62  1  -0.00629315  0.49972910  0.16151810  1
  Sb  Sb63  1  0.83498949  0.00391973  0.82994537  1
  Sb  Sb64  1  -0.00154221  0.83271186  0.83389067  1
  Sb  Sb65  1  0.50292276  0.00522041  0.16578924  1
  Sb  Sb66  1  0.83121119  0.00080032  0.16974077  1
  Sb  Sb67  1  0.67040867  0.83153851  0.15849709  1
  Sb  Sb68  1  0.34010094  0.66524375  0.33916777  1
  Sb  Sb69  1  0.83071062  0.33072945  0.50272020  1
  Sb  Sb70  1  0.83526625  0.49722395  0.66817831  1
  Sb  Sb71  1  0.16924434  0.00009404  0.50386337  1
  Sb  Sb72  1  0.16259100  0.66618910  0.50420656  1
  Sb  Sb73  1  -0.00683573  0.16710325  0.50630465  1
  Sb  Sb74  1  0.34062135  0.49729020  0.16774879  1
  Sb  Sb75  1  0.66792672  0.66366640  0.66999059  1
  Sb  Sb76  1  0.49886020  0.49730268  0.66974641  1
  Sb  Sb77  1  0.82935159  0.66402199  0.83388447  1
  Sb  Sb78  1  0.33488004  0.49373465  0.83123567  1
  Sb  Sb79  1  0.66452649  0.83587391  0.50627554  1
  Sb  Sb80  1  0.33951913  0.50146809  0.50248540  1
  Sb  Sb81  1  0.16994718  0.66968998  0.83074933  1
  Sb  Sb82  1  0.16424379  0.32678032  0.83178052  1
  Sb  Sb83  1  0.33244947  0.83480621  0.16116020  1
  Sb  Sb84  1  -0.00094312  0.00260866  0.66447303  1
  Sb  Sb85  1  0.50364040  0.16954212  0.33303979  1
  Sb  Sb86  1  0.16743695  0.83766557  -0.00721250  1
  Sb  Sb87  1  0.16713359  0.33348415  0.50429456  1
  Sb  Sb88  1  0.33984742  0.16937442  0.15862676  1
  Sb  Sb89  1  0.82973213  0.49445566  0.33362462  1
  Sb  Sb90  1  0.66621193  0.33277927  0.33173320  1
  Sb  Sb91  1  0.83175272  0.83801413  0.33342254  1
  Sb  Sb92  1  0.66398120  0.16906769  0.83330107  1
  Sb  Sb93  1  0.15884806  0.66570865  0.16593692  1
  Sb  Sb94  1  0.50878488  0.66071664  0.15846808  1
  Sb  Sb95  1  0.49751949  0.00054461  0.83324436  1
  Sb  Sb96  1  0.34030421  0.16301181  0.50685850  1
  Sb  Sb97  1  0.16618491  0.33340797  0.16581920  1
  Sb  Sb98  1  0.50265400  0.32950725  0.50361882  1
  Sb  Sb99  1  0.16723830  0.83139834  0.33889820  1
  Sb  Sb100  1  0.33484876  -0.00063363  0.67072999  1
  Sb  Sb101  1  0.16654880  0.00154582  0.16282298  1
  Sb  Sb102  1  0.82924503  0.16633926  -0.00257236  1
  Sb  Sb103  1  -0.00021060  0.83435301  0.50120027  1
  Sb  Sb104  1  0.66434107  0.33506766  -0.00335757  1
  Sb  Sb105  1  0.50559970  0.67001872  0.50574954  1
  Sb  Sb106  1  0.66504420  0.00476146  0.66703039  1
  Sb  Sb107  1  0.16888455  0.49470094  -0.00352440  1
  Te  Te108  1  0.16612173  0.16722731  0.16075389  1
  Te  Te109  1  0.16687469  0.16548053  0.50937807  1
  Te  Te110  1  0.16834489  0.16530971  0.83191903  1
  Te  Te111  1  0.16636488  0.50032142  0.17156524  1
  Te  Te112  1  0.16704589  0.50062417  0.50127499  1
  Te  Te113  1  0.16290818  0.50255657  0.82824022  1
  Te  Te114  1  0.15963232  0.83279765  0.16639914  1
  Te  Te115  1  0.17266154  0.83309598  0.50808110  1
  Te  Te116  1  0.16867821  0.83805990  0.82756414  1
  Te  Te117  1  0.50619898  0.17288856  0.16342083  1
  Te  Te118  1  0.50690478  0.16181289  0.50462953  1
  Te  Te119  1  0.49762611  0.16831064  0.83186274  1
  Te  Te120  1  0.50630286  0.49537223  0.16568507  1
  Te  Te121  1  0.50723957  0.50133235  0.49686549  1
  Te  Te122  1  0.50141915  0.49618374  0.83489102  1
  Te  Te123  1  0.49905984  0.83135495  0.15876690  1
  Te  Te124  1  0.49667781  0.83717043  0.50127555  1
  Te  Te125  1  0.50071796  0.83637466  0.83280613  1
  Te  Te126  1  0.82788616  0.17130665  0.16823773  1
  Te  Te127  1  0.82851510  0.16351880  0.50205074  1
  Te  Te128  1  0.83486417  0.17115521  0.82879206  1
  Te  Te129  1  0.82655866  0.49863175  0.16640099  1
  Te  Te130  1  0.82511039  0.50587299  0.50036479  1
  Te  Te131  1  0.83171377  0.49278970  0.83358971  1
  Te  Te132  1  0.83628446  0.83007689  0.16356370  1
  Te  Te133  1  0.83255029  0.83518575  0.50455174  1
  Te  Te134  1  0.83091841  0.83433477  0.83208869  1
  Te  Te135  1  0.16926829  0.00567553  -0.00422383  1
  Te  Te136  1  0.16784058  0.00026888  0.33380967  1
  Te  Te137  1  0.16574190  0.00080949  0.67032177  1
  Te  Te138  1  0.16593456  0.32892700  0.00125088  1
  Te  Te139  1  0.16798850  0.33656761  0.33311795  1
  Te  Te140  1  0.16677688  0.33267317  0.66658176  1
  Te  Te141  1  0.15998823  0.66551591  -0.00046607  1
  Te  Te142  1  0.16725345  0.65980451  0.33468478  1
  Te  Te143  1  0.16495299  0.66818955  0.66608402  1
  Te  Te144  1  0.50051401  0.00055623  0.00122284  1
  Te  Te145  1  0.50177574  -0.00003479  0.33602589  1
  Te  Te146  1  0.50091593  0.00130847  0.66023873  1
  Te  Te147  1  0.50094575  0.33188095  -0.00134732  1
  Te  Te148  1  0.49721178  0.33666352  0.33316208  1
  Te  Te149  1  0.49793833  0.33114158  0.66965415  1
  Te  Te150  1  0.50261659  0.66824454  -0.00619310  1
  Te  Te151  1  0.50692049  0.66209165  0.33253446  1
  Te  Te152  1  0.49757839  0.66850133  0.67252648  1
  Te  Te153  1  0.82915230  -0.00570464  0.00037224  1
  Te  Te154  1  0.83050691  0.00414876  0.33638776  1
  Te  Te155  1  0.83258896  0.00037816  0.66170443  1
  Te  Te156  1  0.83738878  0.33299808  -0.00067623  1
  Te  Te157  1  0.83518622  0.32728089  0.33257984  1
  Te  Te158  1  0.83601538  0.33046088  0.66881385  1
  Te  Te159  1  0.83263122  0.66915034  -0.00006677  1
  Te  Te160  1  0.82781514  0.66749180  0.33229473  1
  Te  Te161  1  0.83626263  0.66977618  0.66641188  1
  Te  Te162  1  -0.00099183  0.17011179  -0.00423612  1
  Te  Te163  1  -0.00202558  0.16754233  0.33280517  1
  Te  Te164  1  -0.00155916  0.16983938  0.67064407  1
  Te  Te165  1  0.00243674  0.49776596  -0.00549802  1
  Te  Te166  1  0.00288930  0.49535801  0.33358812  1
  Te  Te167  1  0.00286104  0.49813866  0.66974412  1
  Te  Te168  1  -0.00116768  0.83194568  0.00170858  1
  Te  Te169  1  0.00081252  0.83435250  0.32937662  1
  Te  Te170  1  -0.00495933  0.83091263  0.66686123  1
  Te  Te171  1  0.33556009  0.16702800  -0.00172296  1
  Te  Te172  1  0.33239553  0.16752159  0.33509717  1
  Te  Te173  1  0.33585101  0.16871122  0.67032412  1
  Te  Te174  1  0.33869515  0.49580162  -0.00003361  1
  Te  Te175  1  0.33522244  0.49706334  0.33507888  1
  Te  Te176  1  0.32754566  0.49561439  0.66509579  1
  Te  Te177  1  0.33596648  0.83615104  -0.00611615  1
  Te  Te178  1  0.33307456  0.83595496  0.33260179  1
  Te  Te179  1  0.33575831  0.83513922  0.67020450  1
  Te  Te180  1  0.66275081  0.16193261  0.00192391  1
  Te  Te181  1  0.66812781  0.16509521  0.33478468  1
  Te  Te182  1  0.66703762  0.17019684  0.66643964  1
  Te  Te183  1  0.66150449  0.50293194  -0.00292051  1
  Te  Te184  1  0.66478044  0.49996707  0.33274241  1
  Te  Te185  1  0.66662405  0.49531723  0.66973298  1
  Te  Te186  1  0.66694785  0.83225399  -0.00212252  1
  Te  Te187  1  0.66653320  0.83506298  0.33254092  1
  Te  Te188  1  0.66590814  0.83277313  0.67318465  1
  Te  Te189  1  -0.00064221  -0.00330921  0.17279797  1
  Te  Te190  1  -0.00390864  0.00017038  0.49212486  1
  Te  Te191  1  0.00498912  0.00576752  0.83383416  1
  Te  Te192  1  -0.00559313  0.33379047  0.16955375  1
  Te  Te193  1  -0.00106853  0.33377601  0.49446708  1
  Te  Te194  1  -0.00037439  0.33315847  0.83313364  1
  Te  Te195  1  -0.00821056  0.66781326  0.16389060  1
  Te  Te196  1  -0.00904464  0.66647109  0.50523219  1
  Te  Te197  1  -0.00067618  0.66482146  0.83319859  1
  Te  Te198  1  0.33388064  0.00044174  0.17098833  1
  Te  Te199  1  0.33599816  -0.00316214  0.49467626  1
  Te  Te200  1  0.33128899  0.00273892  0.83665784  1
  Te  Te201  1  0.33795189  0.33311012  0.16961304  1
  Te  Te202  1  0.33473775  0.33262223  0.49774906  1
  Te  Te203  1  0.33858757  0.33001486  0.83262960  1
  Te  Te204  1  0.33258790  0.66695607  0.16737518  1
  Te  Te205  1  0.33479697  0.67269045  0.50745987  1
  Te  Te206  1  0.33829328  0.66914048  0.82828630  1
  Te  Te207  1  0.66658588  0.00413522  0.16830225  1
  Te  Te208  1  0.66614518  0.00198999  0.49896392  1
  Te  Te209  1  0.66805518  -0.00531110  0.83901045  1
  Te  Te210  1  0.66714483  0.33400787  0.16499932  1
  Te  Te211  1  0.66696663  0.33276899  0.50710345  1
  Te  Te212  1  0.66623843  0.33497281  0.83143628  1
  Te  Te213  1  0.67105002  0.66437022  0.16549755  1
  Te  Te214  1  0.67076650  0.66578617  0.49809165  1
  Te  Te215  1  0.66413133  0.66406964  0.83695559  1
