# generated using pymatgen
data_AgSbTe2
_symmetry_space_group_name_H-M   'P 1'
_cell_length_a   18.32453671
_cell_length_b   18.32063466
_cell_length_c   18.31860822
_cell_angle_alpha   89.99955941
_cell_angle_beta   90.00230586
_cell_angle_gamma   90.00007267
_symmetry_Int_Tables_number   1
_chemical_formula_structural   AgSbTe2
_chemical_formula_sum   'Ag54 Sb54 Te108'
_cell_volume   6149.87080182
_cell_formula_units_Z   54
loop_
 _symmetry_equiv_pos_site_id
 _symmetry_equiv_pos_as_xyz
  1  'x, y, z'
loop_
 _atom_site_type_symbol
 _atom_site_label
 _atom_site_symmetry_multiplicity
 _atom_site_fract_x
 _atom_site_fract_y
 _atom_site_fract_z
 _atom_site_occupancy
  Ag  Ag0  1  0.16114793  0.00380066  0.50033975  1
  Ag  Ag1  1  0.49197249  0.17063613  0.33865494  1
  Ag  Ag2  1  0.67287641  0.66463073  0.67312527  1
  Ag  Ag3  1  0.50335521  0.66540367  0.16222505  1
  Ag  Ag4  1  0.33369692  0.65981165  -0.00232032  1
  Ag  Ag5  1  0.32943366  0.83855822  0.50268755  1
  Ag  Ag6  1  0.00401263  0.49607117  0.49945800  1
  Ag  Ag7  1  0.00433370  0.32999362  0.34103110  1
  Ag  Ag8  1  0.00262648  0.00891718  0.65929743  1
  Ag  Ag9  1  0.16254909  0.66813403  0.50941639  1
  Ag  Ag10  1  0.83104096  0.16388498  -0.00659487  1
  Ag  Ag11  1  0.66651411  0.00511406  0.33425827  1
  Ag  Ag12  1  0.49638202  0.17028214  0.66901192  1
  Ag  Ag13  1  0.66677205  0.83141301  0.16522342  1
  Ag  Ag14  1  0.00880611  0.49962200  0.17313228  1
  Ag  Ag15  1  0.66149171  0.67015955  -0.00342518  1
  Ag  Ag16  1  -0.00166517  0.00672039  -0.00109894  1
  Ag  Ag17  1  0.33102951  0.33914648  -0.00189350  1
  Ag  Ag18  1  0.49126097  0.49088059  0.33598416  1
  Ag  Ag19  1  0.16738223  0.82600347  0.66665826  1
  Ag  Ag20  1  0.00206350  0.00808790  0.34439855  1
  Ag  Ag21  1  0.32917947  0.50092002  0.16014001  1
  Ag  Ag22  1  0.49957315  0.16240343  -0.00823099  1
  Ag  Ag23  1  0.16639487  0.50536219  0.66497193  1
  Ag  Ag24  1  0.00334873  0.66416734  0.66380905  1
  Ag  Ag25  1  0.16855957  0.49418609  0.33782263  1
  Ag  Ag26  1  0.00264501  0.33046526  0.66007348  1
  Ag  Ag27  1  0.66548015  -0.00262484  0.00223728  1
  Ag  Ag28  1  0.66514332  0.16379105  0.49905666  1
  Ag  Ag29  1  0.32492496  0.16336745  0.49849491  1
  Ag  Ag30  1  0.00430771  0.16319005  0.50188562  1
  Ag  Ag31  1  0.17106283  0.50459681  -0.00376957  1
  Ag  Ag32  1  0.49604777  0.83324411  -0.00116242  1
  Ag  Ag33  1  0.49676032  0.33069855  0.83363178  1
  Ag  Ag34  1  0.84296911  -0.00021287  0.49777645  1
  Ag  Ag35  1  0.33170006  0.82976928  0.83519425  1
  Ag  Ag36  1  0.17381464  0.17016536  0.34163538  1
  Ag  Ag37  1  0.83463240  0.66589179  0.83082545  1
  Ag  Ag38  1  0.17462167  0.82630400  -0.00707454  1
  Ag  Ag39  1  0.83344755  0.83527032  0.33543775  1
  Ag  Ag40  1  0.65720367  0.32662515  0.33497604  1
  Ag  Ag41  1  0.16310636  0.16490971  0.66028203  1
  Ag  Ag42  1  0.65625455  0.50372255  0.83251867  1
  Ag  Ag43  1  0.33131428  0.01097755  0.33790882  1
  Ag  Ag44  1  0.16689452  0.66552444  0.82872411  1
  Ag  Ag45  1  0.82933182  0.66694430  0.16232376  1
  Ag  Ag46  1  0.49355281  0.49675825  0.66953890  1
  Ag  Ag47  1  0.49837474  0.00837939  0.83549766  1
  Ag  Ag48  1  0.33267578  0.33037418  0.33071086  1
  Ag  Ag49  1  0.84107843  0.67278659  0.50380375  1
  Ag  Ag50  1  0.84299442  0.16419796  0.66582311  1
  Ag  Ag51  1  0.00705171  0.33088317  -0.00167681  1
  Ag  Ag52  1  0.33429035  0.50011638  0.83769067  1
  Ag  Ag53  1  0.33765098  0.16736487  0.82873990  1
  Sb  Sb54  1  0.83158210  0.83568582  0.00227328  1
  Sb  Sb55  1  0.83961510  0.83315850  0.66218135  1
  Sb  Sb56  1  0.49785312  0.66549243  0.49877522  1
  Sb  Sb57  1  0.16584438  -0.00165633  0.17171510  1
  Sb  Sb58  1  0.66822514  0.33507686  0.66358061  1
  Sb  Sb59  1  0.83011137  0.33573815  0.83261527  1
  Sb  Sb60  1  0.83603442  0.50280324  0.33432552  1
  Sb  Sb61  1  0.32557821  0.49771426  0.50063325  1
  Sb  Sb62  1  0.16416114  0.83394636  0.33767621  1
  Sb  Sb63  1  0.83694788  0.32888313  0.50020026  1
  Sb  Sb64  1  0.16643765  0.33532006  0.16907089  1
  Sb  Sb65  1  0.33442639  0.17138888  0.16858932  1
  Sb  Sb66  1  0.66289012  0.33273835  0.00212131  1
  Sb  Sb67  1  0.16864302  0.16755774  -0.00328064  1
  Sb  Sb68  1  0.17092950  -0.00361189  0.82779376  1
  Sb  Sb69  1  0.83843470  0.50052269  0.66651517  1
  Sb  Sb70  1  0.49859660  0.33777751  0.16634220  1
  Sb  Sb71  1  0.50143364  0.83600556  0.32920438  1
  Sb  Sb72  1  0.32924234  0.66517428  0.67186197  1
  Sb  Sb73  1  0.00597191  0.16744998  0.82648839  1
  Sb  Sb74  1  -0.00112446  0.17103282  0.17118821  1
  Sb  Sb75  1  0.33638126  0.82803969  0.16380368  1
  Sb  Sb76  1  0.17271546  0.33784946  0.83267722  1
  Sb  Sb77  1  0.49741268  0.00426801  0.50190280  1
  Sb  Sb78  1  0.65953269  0.82870759  0.83836373  1
  Sb  Sb79  1  0.00614166  0.50017793  0.83025644  1
  Sb  Sb80  1  0.00619273  0.83268537  0.83300957  1
  Sb  Sb81  1  0.49388007  0.83358111  0.67255566  1
  Sb  Sb82  1  0.16542386  0.32911277  0.49945477  1
  Sb  Sb83  1  0.32917907  0.33059385  0.66782528  1
  Sb  Sb84  1  0.66957610  -0.00124987  0.66616239  1
  Sb  Sb85  1  0.67029097  0.49816243  0.50242232  1
  Sb  Sb86  1  0.00606324  0.83637053  0.50045159  1
  Sb  Sb87  1  0.83476992  0.33736274  0.16718378  1
  Sb  Sb88  1  0.33367689  0.00078495  0.00089469  1
  Sb  Sb89  1  0.83348923  -0.00358401  0.17169942  1
  Sb  Sb90  1  0.83038423  -0.00298100  0.83128461  1
  Sb  Sb91  1  0.49863857  0.33090815  0.50137149  1
  Sb  Sb92  1  0.83811588  0.49887659  -0.00150599  1
  Sb  Sb93  1  -0.00307746  0.82815437  0.16735480  1
  Sb  Sb94  1  0.49659501  0.66331555  0.83694557  1
  Sb  Sb95  1  0.66652386  0.16202271  0.17048374  1
  Sb  Sb96  1  0.66808775  0.66694503  0.33228337  1
  Sb  Sb97  1  0.00051355  0.66370574  0.33924166  1
  Sb  Sb98  1  0.50075622  -0.00262725  0.16377416  1
  Sb  Sb99  1  0.66365711  0.50589102  0.16416956  1
  Sb  Sb100  1  0.66014303  0.16927716  0.82977114  1
  Sb  Sb101  1  0.32776134  0.00295708  0.66241906  1
  Sb  Sb102  1  0.83390076  0.16217413  0.33831572  1
  Sb  Sb103  1  0.33238217  0.66272934  0.33069784  1
  Sb  Sb104  1  0.66418053  0.83686800  0.49735582  1
  Sb  Sb105  1  0.16647353  0.66287893  0.16430873  1
  Sb  Sb106  1  0.49281924  0.50094096  -0.00212530  1
  Sb  Sb107  1  0.00143682  0.66501858  -0.00340073  1
  Te  Te108  1  0.16621073  0.16554804  0.17784050  1
  Te  Te109  1  0.16569256  0.16511011  0.49995279  1
  Te  Te110  1  0.17559376  0.16646426  0.82738715  1
  Te  Te111  1  0.16785570  0.50120981  0.16790474  1
  Te  Te112  1  0.16386248  0.50416506  0.50192342  1
  Te  Te113  1  0.17155165  0.50357430  0.83236202  1
  Te  Te114  1  0.16652931  0.83064155  0.15851012  1
  Te  Te115  1  0.17159471  0.83213370  0.50191114  1
  Te  Te116  1  0.17182366  0.83034833  0.83278715  1
  Te  Te117  1  0.50071582  0.16647022  0.16865412  1
  Te  Te118  1  0.50161637  0.16678480  0.49849122  1
  Te  Te119  1  0.49876059  0.16849690  0.83224668  1
  Te  Te120  1  0.49650768  0.50453663  0.17196860  1
  Te  Te121  1  0.50034169  0.49949716  0.50045451  1
  Te  Te122  1  0.49587501  0.49766223  0.83164221  1
  Te  Te123  1  0.50367138  0.82766946  0.16129366  1
  Te  Te124  1  0.49090432  0.83408801  0.50053786  1
  Te  Te125  1  0.49273209  0.83697081  0.83863586  1
  Te  Te126  1  0.83312253  0.16684564  0.15482538  1
  Te  Te127  1  0.83713092  0.16274161  0.50358661  1
  Te  Te128  1  0.83161136  0.16625398  0.83120128  1
  Te  Te129  1  0.83574453  0.50724640  0.16628814  1
  Te  Te130  1  0.83966239  0.50798585  0.50058976  1
  Te  Te131  1  0.82797176  0.50534240  0.83248499  1
  Te  Te132  1  0.82969811  0.82716214  0.17003602  1
  Te  Te133  1  0.83099149  0.83440331  0.49663590  1
  Te  Te134  1  0.83254047  0.82658562  0.83204915  1
  Te  Te135  1  0.16417976  -0.00178747  -0.00013984  1
  Te  Te136  1  0.16476947  -0.00007851  0.33796824  1
  Te  Te137  1  0.16200002  0.00265784  0.66283554  1
  Te  Te138  1  0.16821049  0.33642358  -0.00108833  1
  Te  Te139  1  0.16476872  0.33449223  0.33429762  1
  Te  Te140  1  0.16190180  0.33400794  0.66786501  1
  Te  Te141  1  0.16799030  0.66559203  -0.00230482  1
  Te  Te142  1  0.16609879  0.66342512  0.33712717  1
  Te  Te143  1  0.16726565  0.66593593  0.66810207  1
  Te  Te144  1  0.50060937  0.00131190  -0.00136731  1
  Te  Te145  1  0.50342875  0.00436584  0.33315490  1
  Te  Te146  1  0.50074637  0.00309282  0.67238682  1
  Te  Te147  1  0.49687508  0.32913845  -0.00222099  1
  Te  Te148  1  0.49784964  0.33208212  0.33308235  1
  Te  Te149  1  0.50035981  0.33381275  0.67061696  1
  Te  Te150  1  0.50061408  0.66718381  0.00111184  1
  Te  Te151  1  0.50045639  0.66372348  0.32927282  1
  Te  Te152  1  0.50352263  0.66361598  0.66658128  1
  Te  Te153  1  0.83204615  0.00259752  -0.00082115  1
  Te  Te154  1  0.83282422  -0.00189557  0.33694986  1
  Te  Te155  1  0.83817878  0.00234919  0.66361724  1
  Te  Te156  1  0.83516480  0.32664653  -0.00082798  1
  Te  Te157  1  0.84112197  0.33352671  0.33283231  1
  Te  Te158  1  0.83913374  0.32671227  0.66762146  1
  Te  Te159  1  0.83209971  0.66735709  -0.00259321  1
  Te  Te160  1  0.83323410  0.67136734  0.33735453  1
  Te  Te161  1  0.83463259  0.66725394  0.66653276  1
  Te  Te162  1  0.00266512  0.16864919  -0.00009781  1
  Te  Te163  1  -0.00008983  0.16767803  0.33659672  1
  Te  Te164  1  0.00195819  0.16772207  0.66467858  1
  Te  Te165  1  0.00571774  0.49626875  -0.00050971  1
  Te  Te166  1  0.00340924  0.49692555  0.33572173  1
  Te  Te167  1  0.00439476  0.49923511  0.66419605  1
  Te  Te168  1  0.00346969  0.83732513  0.00076687  1
  Te  Te169  1  -0.00422374  0.84214279  0.33191478  1
  Te  Te170  1  0.00706500  0.83003636  0.66710995  1
  Te  Te171  1  0.33594828  0.17026452  -0.00021970  1
  Te  Te172  1  0.33317018  0.16929608  0.33233198  1
  Te  Te173  1  0.33633818  0.16792998  0.66547574  1
  Te  Te174  1  0.33189748  0.49961430  -0.00092601  1
  Te  Te175  1  0.33148853  0.49659091  0.33496714  1
  Te  Te176  1  0.33306085  0.49763658  0.66869954  1
  Te  Te177  1  0.33449244  0.83312977  -0.00168694  1
  Te  Te178  1  0.33333458  0.83563014  0.33490780  1
  Te  Te179  1  0.32761602  0.83448981  0.66844419  1
  Te  Te180  1  0.66336783  0.16509922  -0.00032341  1
  Te  Te181  1  0.66751413  0.16561842  0.33618349  1
  Te  Te182  1  0.66198882  0.16637571  0.66128812  1
  Te  Te183  1  0.66766461  0.50270009  -0.00413702  1
  Te  Te184  1  0.66309803  0.49549712  0.33344143  1
  Te  Te185  1  0.66441543  0.50258731  0.66878318  1
  Te  Te186  1  0.66451367  0.83303733  0.00270130  1
  Te  Te187  1  0.66870630  0.83771084  0.32981289  1
  Te  Te188  1  0.66509411  0.82695728  0.66646412  1
  Te  Te189  1  -0.00102736  -0.00017925  0.15953765  1
  Te  Te190  1  0.00043416  0.00040649  0.50157713  1
  Te  Te191  1  -0.00059411  0.00029790  0.83812495  1
  Te  Te192  1  -0.00076387  0.34035816  0.16331179  1
  Te  Te193  1  -0.00031774  0.33429767  0.50078900  1
  Te  Te194  1  -0.00138122  0.33326866  0.83784575  1
  Te  Te195  1  -0.00539802  0.66018104  0.16745495  1
  Te  Te196  1  0.00126200  0.66834325  0.50340382  1
  Te  Te197  1  0.00056461  0.66604929  0.82777176  1
  Te  Te198  1  0.33305128  -0.00139704  0.17727292  1
  Te  Te199  1  0.33153482  0.00279035  0.49685082  1
  Te  Te200  1  0.33769419  0.00305586  0.83402137  1
  Te  Te201  1  0.33349426  0.34065630  0.16525389  1
  Te  Te202  1  0.33300206  0.32605485  0.49246202  1
  Te  Te203  1  0.33679979  0.33265882  0.83417333  1
  Te  Te204  1  0.33608513  0.66154725  0.16061031  1
  Te  Te205  1  0.32893403  0.67011152  0.49964574  1
  Te  Te206  1  0.33029904  0.66663086  0.83746769  1
  Te  Te207  1  0.66730576  -0.00570311  0.16387168  1
  Te  Te208  1  0.66915992  0.00315253  0.49785323  1
  Te  Te209  1  0.66245450  -0.00078902  0.83833291  1
  Te  Te210  1  0.66718506  0.33463523  0.17549831  1
  Te  Te211  1  0.66960376  0.32777285  0.49408677  1
  Te  Te212  1  0.66077421  0.34079244  0.83295260  1
  Te  Te213  1  0.66785763  0.66984983  0.16471621  1
  Te  Te214  1  0.66925170  0.66773469  0.50316604  1
  Te  Te215  1  0.66494010  0.66451753  0.83474853  1
