# generated using pymatgen
data_AgSbTe2
_symmetry_space_group_name_H-M   'P 1'
_cell_length_a   18.32610808
_cell_length_b   18.32190660
_cell_length_c   18.32593358
_cell_angle_alpha   89.99981008
_cell_angle_beta   89.99902756
_cell_angle_gamma   90.00030728
_symmetry_Int_Tables_number   1
_chemical_formula_structural   AgSbTe2
_chemical_formula_sum   'Ag54 Sb54 Te108'
_cell_volume   6153.28480041
_cell_formula_units_Z   54
loop_
 _symmetry_equiv_pos_site_id
 _symmetry_equiv_pos_as_xyz
  1  'x, y, z'
loop_
 _atom_site_type_symbol
 _atom_site_label
 _atom_site_symmetry_multiplicity
 _atom_site_fract_x
 _atom_site_fract_y
 _atom_site_fract_z
 _atom_site_occupancy
  Ag  Ag0  1  0.82898345  0.49253021  0.67372934  1
  Ag  Ag1  1  0.50334902  0.00290856  0.84110518  1
  Ag  Ag2  1  0.83820610  0.84915716  -0.00219318  1
  Ag  Ag3  1  0.32569418  0.83435330  0.83648132  1
  Ag  Ag4  1  0.83320302  0.49247684  0.32811465  1
  Ag  Ag5  1  0.16443722  0.83363242  0.32589271  1
  Ag  Ag6  1  0.82950942  0.17007420  0.67048143  1
  Ag  Ag7  1  0.83022327  0.00676389  0.15636900  1
  Ag  Ag8  1  -0.00604137  0.16348124  0.83570726  1
  Ag  Ag9  1  0.83354878  0.16907846  0.33088625  1
  Ag  Ag10  1  -0.00988190  -0.00070273  0.00413088  1
  Ag  Ag11  1  0.50128465  0.84570813  0.00012591  1
  Ag  Ag12  1  0.33652395  0.00211100  0.66768372  1
  Ag  Ag13  1  0.50620855  0.16651013  0.66344020  1
  Ag  Ag14  1  0.66953433  0.48873774  0.49736543  1
  Ag  Ag15  1  0.33194555  0.33298038  0.32238661  1
  Ag  Ag16  1  0.50900815  0.49443938  0.66846129  1
  Ag  Ag17  1  -0.01075113  0.16003958  0.16308222  1
  Ag  Ag18  1  0.66719252  0.17001966  0.49602314  1
  Ag  Ag19  1  0.67181572  0.00433956  0.32307653  1
  Ag  Ag20  1  0.67181245  0.66046872  0.66684339  1
  Ag  Ag21  1  0.16639696  0.66213419  0.16670033  1
  Ag  Ag22  1  0.83449057  0.00797285  0.84278361  1
  Ag  Ag23  1  0.15769718  0.83601000  -0.00087086  1
  Ag  Ag24  1  0.83715553  0.33040279  0.83484779  1
  Ag  Ag25  1  0.33821814  0.33300570  0.00361649  1
  Ag  Ag26  1  0.82508140  0.32913133  0.50344458  1
  Ag  Ag27  1  -0.00539931  0.00327462  0.32390129  1
  Ag  Ag28  1  0.67062453  0.16525910  0.16372345  1
  Ag  Ag29  1  0.00304847  0.84194504  0.15657886  1
  Ag  Ag30  1  0.49961298  0.66012964  0.16333723  1
  Ag  Ag31  1  0.16806358  0.00229220  0.49947483  1
  Ag  Ag32  1  0.33929267  0.49299282  0.16286928  1
  Ag  Ag33  1  0.00166212  0.83939473  0.83859757  1
  Ag  Ag34  1  0.49857951  0.33137995  0.16526247  1
  Ag  Ag35  1  0.49895959  0.00971938  0.50231307  1
  Ag  Ag36  1  0.66471321  0.49264576  0.16843709  1
  Ag  Ag37  1  0.17385951  0.33624965  0.16262355  1
  Ag  Ag38  1  0.34866456  0.16636793  0.50053794  1
  Ag  Ag39  1  0.67599498  0.00550587  0.00456000  1
  Ag  Ag40  1  0.50664602  0.32586639  0.49719835  1
  Ag  Ag41  1  0.16249667  0.49939286  0.32847986  1
  Ag  Ag42  1  -0.00977810  0.16520795  0.50030038  1
  Ag  Ag43  1  -0.00765627  0.49810334  0.83346789  1
  Ag  Ag44  1  0.51027239  0.16308284  -0.00010042  1
  Ag  Ag45  1  -0.00617892  0.66735516  0.67157093  1
  Ag  Ag46  1  0.33021108  0.49709690  0.83768268  1
  Ag  Ag47  1  0.66627863  0.32392417  0.00544628  1
  Ag  Ag48  1  0.83225223  0.49415537  -0.00639098  1
  Ag  Ag49  1  0.16516645  0.83478394  0.67568370  1
  Ag  Ag50  1  0.83665849  0.65806074  0.83335898  1
  Ag  Ag51  1  0.82906834  0.16289880  0.00040168  1
  Ag  Ag52  1  0.16125565  0.33542957  0.83932995  1
  Ag  Ag53  1  0.50800020  0.00976292  0.15654915  1
  Sb  Sb54  1  0.00028249  0.32793446  0.33098950  1
  Sb  Sb55  1  -0.00394520  0.32652567  -0.00117610  1
  Sb  Sb56  1  0.16460708  0.50389468  0.66608667  1
  Sb  Sb57  1  0.50260624  0.66381825  0.49852022  1
  Sb  Sb58  1  0.50278950  0.32845160  0.83588483  1
  Sb  Sb59  1  0.83748207  0.83454325  0.67518793  1
  Sb  Sb60  1  0.66819074  0.33423589  0.66719609  1
  Sb  Sb61  1  0.50369033  0.66891480  0.83674974  1
  Sb  Sb62  1  0.33350296  0.66305428  0.00031318  1
  Sb  Sb63  1  -0.00194809  0.49789919  0.16227481  1
  Sb  Sb64  1  0.16514111  0.67181228  0.49643361  1
  Sb  Sb65  1  0.33635297  0.00371500  -0.00304913  1
  Sb  Sb66  1  0.66659531  0.84046614  0.50064683  1
  Sb  Sb67  1  0.50741004  0.16675709  0.33353049  1
  Sb  Sb68  1  0.83384809  0.66786841  0.16116953  1
  Sb  Sb69  1  0.33249459  0.00663751  0.33580594  1
  Sb  Sb70  1  0.66793336  0.66700458  -0.00100834  1
  Sb  Sb71  1  0.33224293  0.66074672  0.32978688  1
  Sb  Sb72  1  0.67396677  0.16680832  0.83798844  1
  Sb  Sb73  1  0.16739939  0.32805382  0.49855636  1
  Sb  Sb74  1  0.33592229  0.32887868  0.67013034  1
  Sb  Sb75  1  0.83886145  0.84093450  0.32546589  1
  Sb  Sb76  1  -0.00364146  0.33371696  0.67044426  1
  Sb  Sb77  1  0.16067697  0.66572570  0.83773044  1
  Sb  Sb78  1  0.32871666  0.83144955  0.16053722  1
  Sb  Sb79  1  -0.00116567  0.67063472  0.33533619  1
  Sb  Sb80  1  0.16433848  0.00016575  0.83088011  1
  Sb  Sb81  1  -0.00613423  0.49352407  0.50314656  1
  Sb  Sb82  1  0.83168674  0.01001955  0.49991240  1
  Sb  Sb83  1  0.16370275  0.16469026  0.00072494  1
  Sb  Sb84  1  0.66819293  0.83922487  0.16424169  1
  Sb  Sb85  1  0.00011630  0.84113926  0.50177043  1
  Sb  Sb86  1  0.50288412  0.49642624  0.33195560  1
  Sb  Sb87  1  0.33187435  0.16696540  0.83161882  1
  Sb  Sb88  1  0.15991655  0.16648907  0.33246696  1
  Sb  Sb89  1  0.49702824  0.83809981  0.67366220  1
  Sb  Sb90  1  0.67103070  0.83536460  0.83596574  1
  Sb  Sb91  1  0.50338005  0.49497451  -0.00133023  1
  Sb  Sb92  1  0.66876727  0.66741790  0.33418707  1
  Sb  Sb93  1  0.49375281  0.83788932  0.32562973  1
  Sb  Sb94  1  0.83250853  0.65713189  0.50765741  1
  Sb  Sb95  1  0.16222040  0.00047043  0.16955383  1
  Sb  Sb96  1  -0.00145792  0.67432645  -0.00387542  1
  Sb  Sb97  1  0.16273742  0.50031446  0.00309508  1
  Sb  Sb98  1  0.00109056  -0.00124040  0.66934067  1
  Sb  Sb99  1  0.83013025  0.32691299  0.16387081  1
  Sb  Sb100  1  0.33798675  0.17150994  0.16922242  1
  Sb  Sb101  1  0.33403251  0.66988133  0.66923493  1
  Sb  Sb102  1  0.66596885  0.32770757  0.33024498  1
  Sb  Sb103  1  0.16465689  0.16314756  0.66633325  1
  Sb  Sb104  1  0.66350178  0.00209463  0.66951712  1
  Sb  Sb105  1  0.33893131  0.49035714  0.49859916  1
  Sb  Sb106  1  0.67117393  0.49900826  0.83333889  1
  Sb  Sb107  1  0.33175793  0.84283175  0.50444015  1
  Te  Te108  1  0.16421681  0.17195720  0.16686050  1
  Te  Te109  1  0.15956220  0.16242190  0.50068736  1
  Te  Te110  1  0.16003371  0.17272667  0.83276130  1
  Te  Te111  1  0.16517650  0.49899785  0.16793761  1
  Te  Te112  1  0.16618276  0.49988171  0.49375645  1
  Te  Te113  1  0.16808978  0.49792707  0.83315250  1
  Te  Te114  1  0.16424652  0.83393288  0.16472674  1
  Te  Te115  1  0.16656866  0.83928769  0.49910059  1
  Te  Te116  1  0.16502730  0.83274449  0.83588503  1
  Te  Te117  1  0.50409315  0.16835716  0.16629786  1
  Te  Te118  1  0.50461666  0.16745308  0.49826431  1
  Te  Te119  1  0.49834893  0.16285619  0.83104658  1
  Te  Te120  1  0.50057563  0.49644748  0.16540248  1
  Te  Te121  1  0.50570933  0.49688276  0.50409328  1
  Te  Te122  1  0.49629286  0.49967019  0.82929752  1
  Te  Te123  1  0.49779271  0.83386808  0.16090237  1
  Te  Te124  1  0.49910222  0.83666770  0.49954171  1
  Te  Te125  1  0.49743359  0.83698539  0.83856868  1
  Te  Te126  1  0.83171236  0.16644714  0.16424937  1
  Te  Te127  1  0.83132500  0.16949748  0.50242110  1
  Te  Te128  1  0.83458463  0.16767886  0.83317244  1
  Te  Te129  1  0.83026564  0.49971755  0.16777293  1
  Te  Te130  1  0.82977031  0.49208170  0.50341351  1
  Te  Te131  1  0.83310755  0.49711239  0.83204718  1
  Te  Te132  1  0.83863216  0.83617176  0.16018605  1
  Te  Te133  1  0.83306857  0.83159899  0.49803896  1
  Te  Te134  1  0.83801162  0.83817882  0.83844660  1
  Te  Te135  1  0.16682666  -0.00428906  0.00018437  1
  Te  Te136  1  0.16482800  -0.00254667  0.33718529  1
  Te  Te137  1  0.17084168  -0.00408688  0.66316223  1
  Te  Te138  1  0.16895822  0.33319772  -0.00023812  1
  Te  Te139  1  0.16976975  0.33780767  0.33110427  1
  Te  Te140  1  0.16706698  0.33482035  0.67336548  1
  Te  Te141  1  0.16657485  0.67291313  0.00719548  1
  Te  Te142  1  0.16566012  0.66612536  0.32850658  1
  Te  Te143  1  0.16481478  0.67321124  0.66581244  1
  Te  Te144  1  0.49786289  0.00345201  -0.00065984  1
  Te  Te145  1  0.50226882  -0.00060585  0.33565208  1
  Te  Te146  1  0.49822001  0.00312168  0.66518805  1
  Te  Te147  1  0.50205564  0.32965289  0.00211908  1
  Te  Te148  1  0.49427268  0.33385654  0.33256748  1
  Te  Te149  1  0.50166617  0.33184635  0.66455803  1
  Te  Te150  1  0.50097317  0.67081659  0.00500688  1
  Te  Te151  1  0.50040375  0.66811493  0.32416550  1
  Te  Te152  1  0.50350767  0.66379835  0.66726281  1
  Te  Te153  1  0.83429482  0.00427635  -0.00004690  1
  Te  Te154  1  0.83405086  0.00450176  0.33292488  1
  Te  Te155  1  0.83201440  0.00424438  0.67168073  1
  Te  Te156  1  0.83157109  0.33331955  -0.00194737  1
  Te  Te157  1  0.83331057  0.33295027  0.33567309  1
  Te  Te158  1  0.83276749  0.33170758  0.66872528  1
  Te  Te159  1  0.83270755  0.65696406  -0.00590218  1
  Te  Te160  1  0.83321008  0.66001059  0.33424540  1
  Te  Te161  1  0.83344995  0.66740823  0.67263019  1
  Te  Te162  1  -0.00301192  0.16097071  -0.00060572  1
  Te  Te163  1  -0.00626299  0.16258350  0.33096797  1
  Te  Te164  1  -0.00458835  0.16672422  0.66963982  1
  Te  Te165  1  -0.00548056  0.50047307  -0.00562820  1
  Te  Te166  1  -0.00186315  0.50114535  0.33376019  1
  Te  Te167  1  -0.00386800  0.50424774  0.67089940  1
  Te  Te168  1  -0.00209636  0.83568082  -0.00123258  1
  Te  Te169  1  0.00479760  0.83834078  0.33223993  1
  Te  Te170  1  0.00418788  0.83071131  0.67000807  1
  Te  Te171  1  0.33584786  0.17288443  0.00032183  1
  Te  Te172  1  0.32963130  0.17252717  0.33878966  1
  Te  Te173  1  0.33502167  0.16204781  0.66339722  1
  Te  Te174  1  0.33309657  0.49506318  0.00049671  1
  Te  Te175  1  0.33110226  0.49421623  0.32946189  1
  Te  Te176  1  0.33470848  0.50068743  0.66892445  1
  Te  Te177  1  0.33589886  0.83261672  -0.00523803  1
  Te  Te178  1  0.32454969  0.83359120  0.33355329  1
  Te  Te179  1  0.32886030  0.83742800  0.67246266  1
  Te  Te180  1  0.66738344  0.16497983  0.00124958  1
  Te  Te181  1  0.67340071  0.16304016  0.33122175  1
  Te  Te182  1  0.66645498  0.16713577  0.66136899  1
  Te  Te183  1  0.66991379  0.50002180  0.00493596  1
  Te  Te184  1  0.67085750  0.50077148  0.33308116  1
  Te  Te185  1  0.66807639  0.49939553  0.66567830  1
  Te  Te186  1  0.66634975  0.83812121  0.00066704  1
  Te  Te187  1  0.66768069  0.84154406  0.33313220  1
  Te  Te188  1  0.66647213  0.82569805  0.66590443  1
  Te  Te189  1  0.00066450  0.00087135  0.16577870  1
  Te  Te190  1  0.00228437  0.00556122  0.49958507  1
  Te  Te191  1  -0.00133833  0.00030164  0.83554522  1
  Te  Te192  1  0.00790018  0.32919384  0.16544841  1
  Te  Te193  1  -0.00236921  0.32505635  0.49986133  1
  Te  Te194  1  -0.00111109  0.33418605  0.83468358  1
  Te  Te195  1  0.00361128  0.66997084  0.16801263  1
  Te  Te196  1  0.00002350  0.66679297  0.50885685  1
  Te  Te197  1  -0.00325377  0.66545080  0.83082316  1
  Te  Te198  1  0.34168818  0.00036388  0.16865033  1
  Te  Te199  1  0.33532374  0.00648744  0.50247476  1
  Te  Te200  1  0.33462651  -0.00156132  0.82955456  1
  Te  Te201  1  0.33425747  0.33420057  0.16462168  1
  Te  Te202  1  0.33575547  0.32648062  0.50004559  1
  Te  Te203  1  0.33277779  0.33585589  0.83733628  1
  Te  Te204  1  0.33340935  0.65946372  0.16645155  1
  Te  Te205  1  0.33447819  0.66621876  0.49942560  1
  Te  Te206  1  0.33360178  0.66456843  0.83329819  1
  Te  Te207  1  0.66745373  0.00100162  0.16468304  1
  Te  Te208  1  0.66236691  0.00599894  0.50013820  1
  Te  Te209  1  0.66569762  -0.00025024  0.83770447  1
  Te  Te210  1  0.66445302  0.33256025  0.16517070  1
  Te  Te211  1  0.66595123  0.33212127  0.49782606  1
  Te  Te212  1  0.67173301  0.33392505  0.84406225  1
  Te  Te213  1  0.66378655  0.66131743  0.16759104  1
  Te  Te214  1  0.66617631  0.66242928  0.50460922  1
  Te  Te215  1  0.67243129  0.66727755  0.82830387  1
