# generated using pymatgen
data_AgSbTe2
_symmetry_space_group_name_H-M   'P 1'
_cell_length_a   18.32190966
_cell_length_b   18.32407322
_cell_length_c   18.32568802
_cell_angle_alpha   89.99832656
_cell_angle_beta   90.00178861
_cell_angle_gamma   89.99679263
_symmetry_Int_Tables_number   1
_chemical_formula_structural   AgSbTe2
_chemical_formula_sum   'Ag54 Sb54 Te108'
_cell_volume   6152.52013469
_cell_formula_units_Z   54
loop_
 _symmetry_equiv_pos_site_id
 _symmetry_equiv_pos_as_xyz
  1  'x, y, z'
loop_
 _atom_site_type_symbol
 _atom_site_label
 _atom_site_symmetry_multiplicity
 _atom_site_fract_x
 _atom_site_fract_y
 _atom_site_fract_z
 _atom_site_occupancy
  Ag  Ag0  1  -0.00132043  0.16398629  0.16942035  1
  Ag  Ag1  1  0.49331910  0.33091426  0.50698543  1
  Ag  Ag2  1  0.34086955  0.32920306  0.66680008  1
  Ag  Ag3  1  0.00278473  0.67521645  0.67169688  1
  Ag  Ag4  1  0.16581408  0.00171177  0.17695788  1
  Ag  Ag5  1  0.84093718  0.84422716  0.66645329  1
  Ag  Ag6  1  0.50233194  0.84326537  0.66509327  1
  Ag  Ag7  1  0.34096517  0.17243321  0.82808332  1
  Ag  Ag8  1  0.17368558  0.33198078  0.49765032  1
  Ag  Ag9  1  0.83511247  0.32566068  0.16892074  1
  Ag  Ag10  1  0.65900804  0.16903849  0.51202184  1
  Ag  Ag11  1  0.49552745  -0.00114867  0.16633721  1
  Ag  Ag12  1  0.66110795  0.83872971  0.16824850  1
  Ag  Ag13  1  0.49779458  0.00933736  0.82998906  1
  Ag  Ag14  1  0.16195527  0.66207520  0.82609919  1
  Ag  Ag15  1  0.49551343  0.65397768  0.83104736  1
  Ag  Ag16  1  0.65897012  0.32304798  0.67328988  1
  Ag  Ag17  1  0.66811133  0.01120263  0.66806831  1
  Ag  Ag18  1  0.65473234  0.48915633  0.83494620  1
  Ag  Ag19  1  0.83528388  0.16774018  0.33412250  1
  Ag  Ag20  1  0.49352377  0.49348111  0.32921932  1
  Ag  Ag21  1  0.32999870  0.00682099  0.33106776  1
  Ag  Ag22  1  0.65950625  0.33168199  0.33469060  1
  Ag  Ag23  1  0.16555076  0.66591430  0.50340088  1
  Ag  Ag24  1  -0.00054141  -0.00003054  0.00079235  1
  Ag  Ag25  1  0.00773138  0.83657941  0.50458620  1
  Ag  Ag26  1  0.16708208  0.00045159  0.49651341  1
  Ag  Ag27  1  0.33891626  0.84669093  0.17710957  1
  Ag  Ag28  1  -0.00273032  -0.00361640  0.66831097  1
  Ag  Ag29  1  0.84376529  0.00624880  0.16852902  1
  Ag  Ag30  1  0.00271072  0.66865457  0.33480141  1
  Ag  Ag31  1  0.00193003  0.33063617  0.33147822  1
  Ag  Ag32  1  0.00018720  0.49356143  0.16504408  1
  Ag  Ag33  1  0.32963566  0.84147565  0.49692094  1
  Ag  Ag34  1  0.49916392  0.33138936  0.82721301  1
  Ag  Ag35  1  0.00837949  0.00256239  0.33066691  1
  Ag  Ag36  1  0.82173308  0.16371879  0.66504590  1
  Ag  Ag37  1  0.49661223  0.83368355  0.33623491  1
  Ag  Ag38  1  0.00060510  0.83259271  0.82343644  1
  Ag  Ag39  1  0.16491626  0.50017649  0.66512166  1
  Ag  Ag40  1  0.00109819  0.66607135  -0.00909760  1
  Ag  Ag41  1  0.65991103  0.33518032  -0.00915115  1
  Ag  Ag42  1  0.16737782  0.49683838  0.33813571  1
  Ag  Ag43  1  0.33812715  0.49059439  0.83388427  1
  Ag  Ag44  1  0.00378157  0.50235558  0.83745322  1
  Ag  Ag45  1  0.34019478  0.33274238  -0.01187431  1
  Ag  Ag46  1  0.33657426  0.16940688  0.49926534  1
  Ag  Ag47  1  0.50779165  0.16656957  0.66913832  1
  Ag  Ag48  1  0.33194286  0.16450754  0.17606120  1
  Ag  Ag49  1  0.33582611  0.32685999  0.33733925  1
  Ag  Ag50  1  0.50274007  0.49647771  -0.00703219  1
  Ag  Ag51  1  0.65708663  0.17168516  0.82392252  1
  Ag  Ag52  1  0.00008920  0.16611107  0.83128461  1
  Ag  Ag53  1  0.83462089  0.49700987  -0.00119191  1
  Sb  Sb54  1  0.66965988  0.66222549  0.33375166  1
  Sb  Sb55  1  0.33087994  0.00646677  0.00618614  1
  Sb  Sb56  1  0.84291827  0.66915224  0.50170993  1
  Sb  Sb57  1  0.49876319  0.66994520  0.16461720  1
  Sb  Sb58  1  0.66914164  0.66049720  -0.00254522  1
  Sb  Sb59  1  0.33005770  0.66197322  -0.00254358  1
  Sb  Sb60  1  0.83296243  0.83983512  0.33565159  1
  Sb  Sb61  1  -0.00015178  0.33288298  0.00283171  1
  Sb  Sb62  1  0.33203734  0.83500195  0.82983119  1
  Sb  Sb63  1  0.66803392  0.83581343  0.83384076  1
  Sb  Sb64  1  0.49547389  0.49407597  0.67079310  1
  Sb  Sb65  1  0.16477898  0.16939119  0.33424196  1
  Sb  Sb66  1  0.16499465  0.82962760  0.66368678  1
  Sb  Sb67  1  0.82751248  0.33204317  0.83714238  1
  Sb  Sb68  1  0.83266739  0.33007426  0.49622263  1
  Sb  Sb69  1  0.49998774  0.83020404  -0.00149397  1
  Sb  Sb70  1  0.66888038  0.66571623  0.66867181  1
  Sb  Sb71  1  0.16369862  0.32851345  0.17332260  1
  Sb  Sb72  1  0.50074428  0.32841636  0.16651822  1
  Sb  Sb73  1  0.17024605  0.83361800  0.33609976  1
  Sb  Sb74  1  0.66946083  0.49813753  0.16292209  1
  Sb  Sb75  1  0.83880107  0.66554304  0.83281358  1
  Sb  Sb76  1  0.32829801  0.66252269  0.66702094  1
  Sb  Sb77  1  0.16456722  0.49957702  -0.00214826  1
  Sb  Sb78  1  0.33290537  0.00517169  0.66192460  1
  Sb  Sb79  1  0.32952337  0.49417980  0.16480850  1
  Sb  Sb80  1  0.49408801  0.00532021  0.50113021  1
  Sb  Sb81  1  0.66921146  0.00611375  -0.00242340  1
  Sb  Sb82  1  0.32830769  0.66647891  0.33544093  1
  Sb  Sb83  1  0.66399203  0.84124937  0.49948464  1
  Sb  Sb84  1  0.66167579  0.48932214  0.50597236  1
  Sb  Sb85  1  0.83956038  0.00265459  0.50019655  1
  Sb  Sb86  1  0.16554993  0.83397970  0.00035972  1
  Sb  Sb87  1  0.83711142  0.66771993  0.16617657  1
  Sb  Sb88  1  0.00302801  0.16275130  0.49867086  1
  Sb  Sb89  1  0.00390020  0.50176759  0.49802495  1
  Sb  Sb90  1  0.83604820  0.83157033  -0.00213368  1
  Sb  Sb91  1  0.66675117  0.16562606  0.16623185  1
  Sb  Sb92  1  0.17269593  0.33810532  0.82707853  1
  Sb  Sb93  1  0.16821856  0.17067609  0.66518144  1
  Sb  Sb94  1  0.33063978  0.49236231  0.50379858  1
  Sb  Sb95  1  0.66433910  0.00566427  0.33574989  1
  Sb  Sb96  1  0.83803783  0.49158239  0.32699310  1
  Sb  Sb97  1  0.16656439  0.16757711  0.00029497  1
  Sb  Sb98  1  0.83758345  0.49615603  0.67271227  1
  Sb  Sb99  1  0.83439837  0.00298117  0.83285254  1
  Sb  Sb100  1  0.16371010  0.66942475  0.16906059  1
  Sb  Sb101  1  0.50036358  0.16767883  0.33759317  1
  Sb  Sb102  1  0.00128500  0.84053018  0.16926268  1
  Sb  Sb103  1  0.83456818  0.17087772  0.00099394  1
  Sb  Sb104  1  0.49962712  0.17198232  -0.00687969  1
  Sb  Sb105  1  0.16671201  -0.00158573  0.83071693  1
  Sb  Sb106  1  0.49310197  0.66351264  0.50414903  1
  Sb  Sb107  1  0.00003333  0.33095065  0.66398057  1
  Te  Te108  1  0.16586971  0.16055220  0.16683804  1
  Te  Te109  1  0.17366018  0.16680955  0.50054265  1
  Te  Te110  1  0.16162205  0.16716771  0.83260834  1
  Te  Te111  1  0.16082557  0.50026995  0.17159601  1
  Te  Te112  1  0.16738442  0.50016426  0.49957654  1
  Te  Te113  1  0.16397602  0.50305379  0.83208006  1
  Te  Te114  1  0.17182600  0.83991217  0.16771699  1
  Te  Te115  1  0.16730635  0.83474347  0.49966015  1
  Te  Te116  1  0.16209540  0.82709863  0.83254866  1
  Te  Te117  1  0.49692666  0.16005348  0.16630292  1
  Te  Te118  1  0.49783373  0.17062797  0.50373669  1
  Te  Te119  1  0.49868290  0.16904862  0.83065477  1
  Te  Te120  1  0.49955628  0.50125852  0.16941976  1
  Te  Te121  1  0.49761092  0.49510132  0.49224969  1
  Te  Te122  1  0.49749770  0.49572374  0.83236850  1
  Te  Te123  1  0.49811997  0.83570676  0.16678510  1
  Te  Te124  1  0.49660041  0.83202203  0.50063909  1
  Te  Te125  1  0.50008899  0.83831363  0.82923305  1
  Te  Te126  1  0.83345084  0.16583984  0.16756940  1
  Te  Te127  1  0.82998711  0.16651619  0.50058380  1
  Te  Te128  1  0.84065044  0.16667204  0.82992006  1
  Te  Te129  1  0.83799180  0.49846605  0.16091717  1
  Te  Te130  1  0.83074536  0.50034457  0.50140738  1
  Te  Te131  1  0.84039831  0.49869564  0.83808202  1
  Te  Te132  1  0.83047071  0.83956364  0.16682977  1
  Te  Te133  1  0.83539023  0.83519849  0.50654550  1
  Te  Te134  1  0.83851642  0.83402505  0.82711506  1
  Te  Te135  1  0.15901935  0.00011349  0.00142469  1
  Te  Te136  1  0.16828383  -0.00062478  0.33504808  1
  Te  Te137  1  0.16097225  -0.00018711  0.66259751  1
  Te  Te138  1  0.17642768  0.33456812  0.00155638  1
  Te  Te139  1  0.16646721  0.33647622  0.33688431  1
  Te  Te140  1  0.16817120  0.33890757  0.65972897  1
  Te  Te141  1  0.16017448  0.66680449  -0.00318506  1
  Te  Te142  1  0.16140969  0.66072242  0.33641815  1
  Te  Te143  1  0.16271122  0.66247129  0.66596247  1
  Te  Te144  1  0.50020561  -0.00125814  -0.00072255  1
  Te  Te145  1  0.49695051  -0.00348448  0.33150173  1
  Te  Te146  1  0.49910333  0.00253605  0.66755610  1
  Te  Te147  1  0.49996871  0.33689164  0.00006321  1
  Te  Te148  1  0.49855455  0.33348379  0.33233364  1
  Te  Te149  1  0.50032282  0.33347281  0.66626095  1
  Te  Te150  1  0.49998133  0.65965672  -0.00638580  1
  Te  Te151  1  0.50134677  0.66777204  0.33427023  1
  Te  Te152  1  0.49995092  0.66798514  0.67150477  1
  Te  Te153  1  0.83745182  -0.00006642  0.00605356  1
  Te  Te154  1  0.83307539  0.00549128  0.32961402  1
  Te  Te155  1  0.83480417  0.00228138  0.66670944  1
  Te  Te156  1  0.83189712  0.33765377  0.00603658  1
  Te  Te157  1  0.83820372  0.32862389  0.32965998  1
  Te  Te158  1  0.82991687  0.32730682  0.66516310  1
  Te  Te159  1  0.84009226  0.66006650  0.00001670  1
  Te  Te160  1  0.84150810  0.66628690  0.33369113  1
  Te  Te161  1  0.84036994  0.66917359  0.66646221  1
  Te  Te162  1  -0.00008451  0.16348303  0.00156646  1
  Te  Te163  1  -0.00257513  0.16494106  0.33250472  1
  Te  Te164  1  0.00001627  0.16256442  0.66711935  1
  Te  Te165  1  -0.00055014  0.49986074  0.00065955  1
  Te  Te166  1  0.00135511  0.49602449  0.33115197  1
  Te  Te167  1  0.00290139  0.49966890  0.67010225  1
  Te  Te168  1  -0.00144117  0.83339407  -0.00231053  1
  Te  Te169  1  -0.00183623  0.83570446  0.33767411  1
  Te  Te170  1  0.00124155  0.83473363  0.66527528  1
  Te  Te171  1  0.33330912  0.17338920  -0.00365715  1
  Te  Te172  1  0.33467980  0.16583796  0.33479999  1
  Te  Te173  1  0.33463637  0.16981865  0.66706301  1
  Te  Te174  1  0.33741471  0.49534140  -0.00249054  1
  Te  Te175  1  0.33253787  0.49809927  0.33238378  1
  Te  Te176  1  0.32845581  0.49506551  0.67226180  1
  Te  Te177  1  0.33362918  0.83312991  0.00381027  1
  Te  Te178  1  0.33648347  0.83226474  0.33458238  1
  Te  Te179  1  0.33977970  0.83462719  0.66259814  1
  Te  Te180  1  0.66722587  0.17455342  -0.00723143  1
  Te  Te181  1  0.67005710  0.17189419  0.33328336  1
  Te  Te182  1  0.66544825  0.16729540  0.66795295  1
  Te  Te183  1  0.66526051  0.49562109  -0.00384750  1
  Te  Te184  1  0.66557709  0.49402902  0.33359478  1
  Te  Te185  1  0.66822209  0.49702324  0.67398676  1
  Te  Te186  1  0.66850298  0.83359546  0.00562997  1
  Te  Te187  1  0.66239120  0.83241459  0.33161837  1
  Te  Te188  1  0.66370451  0.83430700  0.66656801  1
  Te  Te189  1  0.00176712  0.00138141  0.16927166  1
  Te  Te190  1  0.00491832  -0.00221890  0.49788035  1
  Te  Te191  1  0.00126707  0.00113492  0.83272768  1
  Te  Te192  1  -0.00191869  0.32967658  0.16895872  1
  Te  Te193  1  0.00515242  0.33246429  0.49449661  1
  Te  Te194  1  0.00107662  0.33086783  0.83382839  1
  Te  Te195  1  0.00088756  0.66546920  0.17000558  1
  Te  Te196  1  0.00609951  0.66920640  0.49951083  1
  Te  Te197  1  0.00087613  0.66549349  0.83196202  1
  Te  Te198  1  0.33316463  0.00358070  0.16784807  1
  Te  Te199  1  0.32932989  0.00171990  0.49552101  1
  Te  Te200  1  0.33551496  0.00444155  0.83547685  1
  Te  Te201  1  0.33217281  0.32735173  0.17615469  1
  Te  Te202  1  0.33352304  0.33192402  0.49833458  1
  Te  Te203  1  0.33454660  0.33234048  0.83023977  1
  Te  Te204  1  0.33167822  0.67187623  0.16585650  1
  Te  Te205  1  0.32605344  0.67508589  0.50134891  1
  Te  Te206  1  0.33341032  0.66558855  0.83371305  1
  Te  Te207  1  0.66149334  -0.00154425  0.16606163  1
  Te  Te208  1  0.66581407  0.00700449  0.50583491  1
  Te  Te209  1  0.66264260  0.00362745  0.82988118  1
  Te  Te210  1  0.67123825  0.33357378  0.17189995  1
  Te  Te211  1  0.66485419  0.32785999  0.49664627  1
  Te  Te212  1  0.66563961  0.33230219  0.83260769  1
  Te  Te213  1  0.66804920  0.67420495  0.16611934  1
  Te  Te214  1  0.66560750  0.66622803  0.50036279  1
  Te  Te215  1  0.66008487  0.66412771  0.83394851  1
