# generated using pymatgen
data_AgSbTe2
_symmetry_space_group_name_H-M   'P 1'
_cell_length_a   18.36764869
_cell_length_b   18.36444309
_cell_length_c   18.35612335
_cell_angle_alpha   90.00248708
_cell_angle_beta   90.00337434
_cell_angle_gamma   89.99859435
_symmetry_Int_Tables_number   1
_chemical_formula_structural   AgSbTe2
_chemical_formula_sum   'Ag54 Sb54 Te108'
_cell_volume   6191.73403545
_cell_formula_units_Z   54
loop_
 _symmetry_equiv_pos_site_id
 _symmetry_equiv_pos_as_xyz
  1  'x, y, z'
loop_
 _atom_site_type_symbol
 _atom_site_label
 _atom_site_symmetry_multiplicity
 _atom_site_fract_x
 _atom_site_fract_y
 _atom_site_fract_z
 _atom_site_occupancy
  Ag  Ag0  1  0.00626622  0.34368376  0.33492833  1
  Ag  Ag1  1  -0.00456577  0.81906551  0.49515995  1
  Ag  Ag2  1  0.49313378  0.81661219  0.33440304  1
  Ag  Ag3  1  0.49900519  0.17131077  0.32885705  1
  Ag  Ag4  1  0.66060090  0.17419858  0.17288872  1
  Ag  Ag5  1  0.50033255  0.00090026  0.83235403  1
  Ag  Ag6  1  0.00115186  0.50391473  0.49383327  1
  Ag  Ag7  1  0.83925347  0.66310845  0.82553469  1
  Ag  Ag8  1  0.67567041  0.82018019  0.49723651  1
  Ag  Ag9  1  0.33600567  0.49866724  0.17119084  1
  Ag  Ag10  1  0.33562741  -0.00699042  0.66848109  1
  Ag  Ag11  1  0.16307726  0.34461026  0.49100935  1
  Ag  Ag12  1  0.31810820  0.50249225  0.48562135  1
  Ag  Ag13  1  0.84370923  0.66115009  0.50276331  1
  Ag  Ag14  1  0.32741041  0.34334428  0.32827347  1
  Ag  Ag15  1  0.15801837  0.66280568  0.49415206  1
  Ag  Ag16  1  0.83417619  0.16542483  0.66386517  1
  Ag  Ag17  1  0.83716929  0.50758170  0.66888712  1
  Ag  Ag18  1  0.83583969  0.81837541  -0.00996683  1
  Ag  Ag19  1  0.32643864  0.66448283  0.66331828  1
  Ag  Ag20  1  0.17027787  0.49949892  0.33720086  1
  Ag  Ag21  1  0.49425456  0.49792320  0.00839357  1
  Ag  Ag22  1  0.49812578  0.66150764  0.17193024  1
  Ag  Ag23  1  0.32381777  0.65944816  0.01009189  1
  Ag  Ag24  1  0.00043707  0.66413520  0.65793961  1
  Ag  Ag25  1  0.16638953  0.18246486  0.33530752  1
  Ag  Ag26  1  0.32860027  0.65734188  0.33413642  1
  Ag  Ag27  1  0.67104372  0.00064417  0.66504824  1
  Ag  Ag28  1  0.66632998  0.65696004  0.33543343  1
  Ag  Ag29  1  0.00186086  0.34177881  0.00311797  1
  Ag  Ag30  1  0.16387504  0.50031146  0.00805583  1
  Ag  Ag31  1  0.00160803  0.65602375  -0.00036182  1
  Ag  Ag32  1  0.83076367  0.16865310  0.34315566  1
  Ag  Ag33  1  0.48525520  0.50094598  0.32891714  1
  Ag  Ag34  1  0.84034939  0.34533256  0.83533279  1
  Ag  Ag35  1  0.67516918  0.17081648  0.49440130  1
  Ag  Ag36  1  0.16464038  0.81678485  0.33528362  1
  Ag  Ag37  1  -0.00183027  0.50216986  0.84761675  1
  Ag  Ag38  1  0.34369798  0.17771188  0.17099736  1
  Ag  Ag39  1  0.50004315  0.17933058  0.00993051  1
  Ag  Ag40  1  0.00648471  0.65992724  0.34363847  1
  Ag  Ag41  1  0.83597937  -0.00124832  0.82980065  1
  Ag  Ag42  1  0.16187144  0.34356489  0.83522311  1
  Ag  Ag43  1  0.83433382  0.82622861  0.66846222  1
  Ag  Ag44  1  0.66915263  0.33786766  0.00152400  1
  Ag  Ag45  1  0.00306724  0.50211354  0.16388967  1
  Ag  Ag46  1  0.66024792  0.49797789  0.16860011  1
  Ag  Ag47  1  0.84879448  0.50234508  -0.00533089  1
  Ag  Ag48  1  -0.00448158  0.17172130  0.49613369  1
  Ag  Ag49  1  0.32966456  0.34245619  0.00779911  1
  Ag  Ag50  1  -0.00081279  0.81991106  0.17636638  1
  Ag  Ag51  1  0.67188516  0.50341304  0.49052371  1
  Ag  Ag52  1  0.16198606  -0.00115788  0.83255813  1
  Ag  Ag53  1  0.15805903  0.66222860  0.83063126  1
  Sb  Sb54  1  0.83316800  0.33731558  0.16345539  1
  Sb  Sb55  1  0.49655174  0.33499762  0.49579591  1
  Sb  Sb56  1  0.16270396  0.16545618  0.66291135  1
  Sb  Sb57  1  0.50180332  0.00011400  0.50185424  1
  Sb  Sb58  1  -0.00093459  0.17332357  0.17295878  1
  Sb  Sb59  1  0.32981409  0.33934525  0.66517883  1
  Sb  Sb60  1  -0.00052645  -0.00227021  -0.00432704  1
  Sb  Sb61  1  0.83020506  0.17381218  -0.00215792  1
  Sb  Sb62  1  0.67149549  0.33223662  0.66956351  1
  Sb  Sb63  1  0.49815256  0.66695997  0.84041913  1
  Sb  Sb64  1  0.16590527  -0.00260676  0.50113722  1
  Sb  Sb65  1  0.66654150  0.00117089  0.33807750  1
  Sb  Sb66  1  0.49923545  0.66510307  0.49172958  1
  Sb  Sb67  1  0.67236765  0.66920397  0.65935418  1
  Sb  Sb68  1  0.00062136  -0.00200078  0.33456623  1
  Sb  Sb69  1  0.50438395  0.82867119  0.00500713  1
  Sb  Sb70  1  0.50542680  0.50366981  0.66241262  1
  Sb  Sb71  1  0.83619363  0.83199160  0.33695409  1
  Sb  Sb72  1  -0.00331979  -0.00536164  0.66675586  1
  Sb  Sb73  1  0.33124002  0.82649783  0.49888932  1
  Sb  Sb74  1  0.66693214  0.00451322  -0.00517244  1
  Sb  Sb75  1  0.32522064  0.50140064  0.83875834  1
  Sb  Sb76  1  0.67413071  0.49999570  0.83812248  1
  Sb  Sb77  1  0.49783043  0.34172128  0.16801311  1
  Sb  Sb78  1  0.83264675  -0.00126431  0.50472416  1
  Sb  Sb79  1  -0.00141639  0.17437895  0.83011410  1
  Sb  Sb80  1  0.33315688  0.00051014  0.33673489  1
  Sb  Sb81  1  0.83927616  0.49817374  0.33378493  1
  Sb  Sb82  1  0.67010383  0.82894741  0.17234698  1
  Sb  Sb83  1  0.33226681  0.16689407  0.83620455  1
  Sb  Sb84  1  0.83851614  0.33774912  0.50161868  1
  Sb  Sb85  1  0.50046869  0.00042227  0.16456885  1
  Sb  Sb86  1  0.50330022  0.16346203  0.66516194  1
  Sb  Sb87  1  0.16062352  0.82341067  0.00366665  1
  Sb  Sb88  1  0.16112304  0.50321982  0.66368410  1
  Sb  Sb89  1  0.66787863  0.16609959  0.83295957  1
  Sb  Sb90  1  0.66826438  0.33621097  0.33025751  1
  Sb  Sb91  1  -0.00176260  0.82190928  0.83131386  1
  Sb  Sb92  1  0.17082093  0.17607728  0.00369455  1
  Sb  Sb93  1  0.67062238  0.65864762  0.00632390  1
  Sb  Sb94  1  0.49923108  0.33142797  0.83998959  1
  Sb  Sb95  1  0.66986277  0.83361939  0.82913106  1
  Sb  Sb96  1  0.33198529  0.83274200  0.83312783  1
  Sb  Sb97  1  0.16886627  0.33704954  0.17043221  1
  Sb  Sb98  1  0.16710623  0.00054798  0.16431423  1
  Sb  Sb99  1  0.33398125  0.00163262  -0.00419233  1
  Sb  Sb100  1  0.50452617  0.83270443  0.66079198  1
  Sb  Sb101  1  0.83612347  0.66386333  0.16965706  1
  Sb  Sb102  1  0.16245787  0.83002749  0.66351031  1
  Sb  Sb103  1  0.33202081  0.17224330  0.49398728  1
  Sb  Sb104  1  0.16532517  0.66138127  0.17175109  1
  Sb  Sb105  1  0.32927819  0.82643972  0.16922125  1
  Sb  Sb106  1  0.83300730  0.00041929  0.16323238  1
  Sb  Sb107  1  -0.00117994  0.34233777  0.66424346  1
  Te  Te108  1  0.16832647  0.16554183  0.17241322  1
  Te  Te109  1  0.16548156  0.16617983  0.49516915  1
  Te  Te110  1  0.16603618  0.16244232  0.83489469  1
  Te  Te111  1  0.16624220  0.49995999  0.16609422  1
  Te  Te112  1  0.16345766  0.50155077  0.50137728  1
  Te  Te113  1  0.16018877  0.50267515  0.82908735  1
  Te  Te114  1  0.16034562  0.83427067  0.17210562  1
  Te  Te115  1  0.16195336  0.82896887  0.49614000  1
  Te  Te116  1  0.16476771  0.83475011  0.83534524  1
  Te  Te117  1  0.50065306  0.16364808  0.16635302  1
  Te  Te118  1  0.50129903  0.16782062  0.49540972  1
  Te  Te119  1  0.49968736  0.16187812  0.83345396  1
  Te  Te120  1  0.49928949  0.50183394  0.16955668  1
  Te  Te121  1  0.51223463  0.49891429  0.49590296  1
  Te  Te122  1  0.50160036  0.49997925  0.83360965  1
  Te  Te123  1  0.50067759  0.82860590  0.17327848  1
  Te  Te124  1  0.50412915  0.83504988  0.49253328  1
  Te  Te125  1  0.50094264  0.83828454  0.83378394  1
  Te  Te126  1  0.82956123  0.16725877  0.16720333  1
  Te  Te127  1  0.83357453  0.16783686  0.50138381  1
  Te  Te128  1  0.83367302  0.16074921  0.82992296  1
  Te  Te129  1  0.83229892  0.50048282  0.15696445  1
  Te  Te130  1  0.83387760  0.50115603  0.50013031  1
  Te  Te131  1  0.83514325  0.50242077  0.83236329  1
  Te  Te132  1  0.83863933  0.83414708  0.16472756  1
  Te  Te133  1  0.83427923  0.83276269  0.50151827  1
  Te  Te134  1  0.83389418  0.83269721  0.83126346  1
  Te  Te135  1  0.16784686  -0.00112612  -0.00587310  1
  Te  Te136  1  0.16857740  -0.00051436  0.33231796  1
  Te  Te137  1  0.17125084  -0.00164490  0.67018732  1
  Te  Te138  1  0.16678618  0.33753482  -0.00442299  1
  Te  Te139  1  0.16587345  0.33818115  0.33426391  1
  Te  Te140  1  0.16651405  0.32963078  0.67469989  1
  Te  Te141  1  0.16579914  0.66288792  -0.00443560  1
  Te  Te142  1  0.16572915  0.66082273  0.33455758  1
  Te  Te143  1  0.16515981  0.66841400  0.66979877  1
  Te  Te144  1  0.50035723  -0.00300463  -0.00723933  1
  Te  Te145  1  0.49971439  0.00883634  0.33300074  1
  Te  Te146  1  0.49977002  -0.00075368  0.67145620  1
  Te  Te147  1  0.49588273  0.33525101  0.00004103  1
  Te  Te148  1  0.49525527  0.33400825  0.33394539  1
  Te  Te149  1  0.50052353  0.33279701  0.66971761  1
  Te  Te150  1  0.50040705  0.66373974  0.00676124  1
  Te  Te151  1  0.50041814  0.66112239  0.33169073  1
  Te  Te152  1  0.49334140  0.66818291  0.67091886  1
  Te  Te153  1  0.83304743  0.00205977  -0.00670938  1
  Te  Te154  1  0.83312681  0.00987520  0.33112837  1
  Te  Te155  1  0.83183213  0.00235550  0.66949702  1
  Te  Te156  1  0.83637834  0.33745497  -0.00408044  1
  Te  Te157  1  0.83836181  0.32643438  0.33423877  1
  Te  Te158  1  0.83355877  0.32715587  0.67425830  1
  Te  Te159  1  0.83482093  0.66196953  0.00337352  1
  Te  Te160  1  0.83390927  0.66819675  0.33993488  1
  Te  Te161  1  0.83364000  0.66716068  0.66410488  1
  Te  Te162  1  0.00146590  0.17179372  0.00180535  1
  Te  Te163  1  0.00349883  0.16504138  0.33518601  1
  Te  Te164  1  -0.00462700  0.16443372  0.66210981  1
  Te  Te165  1  0.00339965  0.49678666  0.00148687  1
  Te  Te166  1  -0.00244416  0.50194388  0.33200869  1
  Te  Te167  1  -0.00436476  0.50497845  0.65669990  1
  Te  Te168  1  -0.00586065  0.83207002  0.00122395  1
  Te  Te169  1  0.00254549  0.83163571  0.33447460  1
  Te  Te170  1  -0.00428630  0.82775806  0.66200996  1
  Te  Te171  1  0.33860645  0.16831067  0.00553683  1
  Te  Te172  1  0.33390299  0.16647115  0.33036408  1
  Te  Te173  1  0.33364469  0.16658835  0.66558359  1
  Te  Te174  1  0.33376522  0.50194795  0.00024852  1
  Te  Te175  1  0.33127191  0.50006946  0.33222614  1
  Te  Te176  1  0.33786092  0.50559104  0.66646450  1
  Te  Te177  1  0.33376896  0.82691264  0.00202802  1
  Te  Te178  1  0.33253024  0.83182822  0.33376400  1
  Te  Te179  1  0.33511252  0.83190332  0.66590409  1
  Te  Te180  1  0.66194642  0.17197537  0.00155454  1
  Te  Te181  1  0.66626248  0.16831454  0.33243673  1
  Te  Te182  1  0.67015292  0.16411967  0.66367681  1
  Te  Te183  1  0.65582532  0.49621335  0.00379059  1
  Te  Te184  1  0.67394484  0.49878759  0.32971474  1
  Te  Te185  1  0.67333584  0.50043943  0.66176623  1
  Te  Te186  1  0.67411589  0.83302654  0.00193779  1
  Te  Te187  1  0.66597330  0.83469375  0.33762301  1
  Te  Te188  1  0.67063495  0.83726071  0.65966989  1
  Te  Te189  1  0.00002566  -0.00245037  0.16418754  1
  Te  Te190  1  0.00040782  0.00991908  0.50087642  1
  Te  Te191  1  -0.00047554  0.00202763  0.83216642  1
  Te  Te192  1  -0.00070622  0.33849111  0.16859192  1
  Te  Te193  1  0.00385432  0.33219620  0.49771605  1
  Te  Te194  1  -0.00006963  0.33825419  0.83229020  1
  Te  Te195  1  -0.00089730  0.66351731  0.16088329  1
  Te  Te196  1  -0.00002646  0.66479218  0.49901980  1
  Te  Te197  1  -0.00216539  0.66291408  0.84037366  1
  Te  Te198  1  0.33412800  0.00230372  0.16557317  1
  Te  Te199  1  0.33382737  -0.00120998  0.50852062  1
  Te  Te200  1  0.33311773  -0.00030652  0.82849213  1
  Te  Te201  1  0.33323310  0.33451137  0.16668355  1
  Te  Te202  1  0.32699497  0.34015473  0.49755933  1
  Te  Te203  1  0.32924285  0.33345240  0.83635535  1
  Te  Te204  1  0.33592337  0.66317516  0.16877273  1
  Te  Te205  1  0.33272313  0.66288434  0.49780501  1
  Te  Te206  1  0.33141783  0.66760459  0.83019491  1
  Te  Te207  1  0.66654027  0.00486899  0.16452203  1
  Te  Te208  1  0.66641413  0.01017909  0.50482486  1
  Te  Te209  1  0.66898028  -0.00005719  0.82763741  1
  Te  Te210  1  0.66749557  0.33353482  0.16290319  1
  Te  Te211  1  0.66689386  0.33137187  0.50039375  1
  Te  Te212  1  0.66997217  0.33298240  0.84023226  1
  Te  Te213  1  0.66335325  0.66380732  0.17380684  1
  Te  Te214  1  0.66583504  0.66509843  0.49540067  1
  Te  Te215  1  0.67084623  0.66759772  0.83265025  1
