# generated using pymatgen
data_AgSbTe2
_symmetry_space_group_name_H-M   'P 1'
_cell_length_a   18.33338226
_cell_length_b   18.33675650
_cell_length_c   18.33138897
_cell_angle_alpha   89.99591945
_cell_angle_beta   90.00144192
_cell_angle_gamma   89.99881208
_symmetry_Int_Tables_number   1
_chemical_formula_structural   AgSbTe2
_chemical_formula_sum   'Ag54 Sb54 Te108'
_cell_volume   6162.55038375
_cell_formula_units_Z   54
loop_
 _symmetry_equiv_pos_site_id
 _symmetry_equiv_pos_as_xyz
  1  'x, y, z'
loop_
 _atom_site_type_symbol
 _atom_site_label
 _atom_site_symmetry_multiplicity
 _atom_site_fract_x
 _atom_site_fract_y
 _atom_site_fract_z
 _atom_site_occupancy
  Ag  Ag0  1  0.66820540  0.66947840  0.00425747  1
  Ag  Ag1  1  0.33896118  0.66182333  0.33001223  1
  Ag  Ag2  1  0.66973904  -0.01291207  0.00429652  1
  Ag  Ag3  1  0.33311348  0.49945295  0.81859880  1
  Ag  Ag4  1  0.49551594  0.33668412  0.50031576  1
  Ag  Ag5  1  0.33266769  0.34409537  0.65955771  1
  Ag  Ag6  1  0.83029556  -0.00519883  0.50713629  1
  Ag  Ag7  1  -0.00684889  0.33547153  0.66625857  1
  Ag  Ag8  1  0.82788491  0.82610937  0.33106799  1
  Ag  Ag9  1  0.83467994  0.00072522  0.82802229  1
  Ag  Ag10  1  0.50835943  0.82858338  0.66768893  1
  Ag  Ag11  1  0.34166758  -0.00417559  0.33205491  1
  Ag  Ag12  1  -0.00622717  0.00677918  0.67069270  1
  Ag  Ag13  1  0.82802465  0.83201625  0.66705997  1
  Ag  Ag14  1  0.66416945  0.50633584  0.49649499  1
  Ag  Ag15  1  0.17958782  0.66393353  0.16918966  1
  Ag  Ag16  1  0.66680450  0.50508242  0.17616467  1
  Ag  Ag17  1  0.33442900  0.82174618  0.17534850  1
  Ag  Ag18  1  -0.01265357  0.49731582  0.82751038  1
  Ag  Ag19  1  0.00302382  0.33913070  0.33984769  1
  Ag  Ag20  1  0.67080327  0.16611640  0.83190420  1
  Ag  Ag21  1  0.15981361  0.00251725  0.83419400  1
  Ag  Ag22  1  0.17561784  0.49841985  0.66731959  1
  Ag  Ag23  1  0.67465629  0.34387751  0.66602805  1
  Ag  Ag24  1  0.34181678  0.66090390  0.66330427  1
  Ag  Ag25  1  0.16890590  0.34471159  0.17452318  1
  Ag  Ag26  1  0.50485010  0.66540221  0.16649886  1
  Ag  Ag27  1  0.50239607  0.16215649  0.00019357  1
  Ag  Ag28  1  0.66809328  -0.00870407  0.32972896  1
  Ag  Ag29  1  0.82650343  0.66222895  0.83530798  1
  Ag  Ag30  1  0.66434892  0.82682086  0.50046975  1
  Ag  Ag31  1  0.82562071  0.66853959  0.17045072  1
  Ag  Ag32  1  0.83142881  0.49901114  0.66837700  1
  Ag  Ag33  1  0.33915213  0.49919345  0.49928038  1
  Ag  Ag34  1  0.50892878  0.66571940  0.83312567  1
  Ag  Ag35  1  0.66645822  0.66351120  0.32889491  1
  Ag  Ag36  1  0.17478744  0.33703856  0.49869011  1
  Ag  Ag37  1  -0.01288486  0.17025792  0.82884598  1
  Ag  Ag38  1  0.83494638  0.33798188  0.82717915  1
  Ag  Ag39  1  0.82923687  -0.00929647  0.16658913  1
  Ag  Ag40  1  0.49990133  0.17216749  0.33008960  1
  Ag  Ag41  1  0.66603406  0.66430202  0.66616502  1
  Ag  Ag42  1  0.16725596  -0.00287462  0.16578219  1
  Ag  Ag43  1  0.83022418  0.50898363  -0.00932140  1
  Ag  Ag44  1  0.82568237  0.82813136  0.00063082  1
  Ag  Ag45  1  0.33725234  0.17185648  0.83109475  1
  Ag  Ag46  1  0.34106932  0.82429299  0.49575773  1
  Ag  Ag47  1  0.33582991  0.50526719  0.17756380  1
  Ag  Ag48  1  0.82578742  0.50834038  0.33414185  1
  Ag  Ag49  1  0.83279091  0.16671281  0.67170299  1
  Ag  Ag50  1  0.50696367  0.83044098  -0.00138515  1
  Ag  Ag51  1  0.49955055  0.50110694  0.33384969  1
  Ag  Ag52  1  -0.01766510  0.65859661  0.33063385  1
  Ag  Ag53  1  0.33290639  0.34484453  0.33999114  1
  Sb  Sb54  1  0.82927205  0.66942120  0.49855815  1
  Sb  Sb55  1  0.82680721  0.16326369  -0.00849761  1
  Sb  Sb56  1  -0.00111619  0.33464844  -0.00478738  1
  Sb  Sb57  1  0.66740317  0.50115016  0.82909805  1
  Sb  Sb58  1  -0.00062485  0.16728208  0.16287732  1
  Sb  Sb59  1  0.32893428  -0.00196732  0.66363244  1
  Sb  Sb60  1  0.34224295  0.66657284  0.00302810  1
  Sb  Sb61  1  0.16872661  0.83135302  0.33290918  1
  Sb  Sb62  1  0.66775720  0.33758269  -0.00564934  1
  Sb  Sb63  1  0.33499308  0.33514528  -0.00063062  1
  Sb  Sb64  1  0.16420002  0.33151973  0.83077990  1
  Sb  Sb65  1  -0.00263630  0.49943796  0.50236283  1
  Sb  Sb66  1  0.17311550  0.66024529  0.49574697  1
  Sb  Sb67  1  0.16501982  0.00253263  0.49975070  1
  Sb  Sb68  1  0.33532894  0.17223562  0.50234909  1
  Sb  Sb69  1  -0.00591154  0.83167611  0.83176348  1
  Sb  Sb70  1  0.17174291  0.16581397  -0.00300454  1
  Sb  Sb71  1  0.50199989  0.33787071  0.82756030  1
  Sb  Sb72  1  -0.00274713  0.16924081  0.50604035  1
  Sb  Sb73  1  0.50482738  0.00127854  0.49805016  1
  Sb  Sb74  1  -0.00591997  0.83286395  0.49953601  1
  Sb  Sb75  1  0.50149000  0.50581743  0.66133797  1
  Sb  Sb76  1  0.83134455  0.33399377  0.50625490  1
  Sb  Sb77  1  0.33588111  0.83157080  0.83160320  1
  Sb  Sb78  1  -0.00604869  0.66257943  0.66380628  1
  Sb  Sb79  1  -0.00181646  0.83210495  0.16825762  1
  Sb  Sb80  1  0.17229368  0.16975030  0.33196332  1
  Sb  Sb81  1  0.66546616  0.82524580  0.16973682  1
  Sb  Sb82  1  -0.00479484  0.00077954  0.33574318  1
  Sb  Sb83  1  0.16268619  0.17316166  0.66903814  1
  Sb  Sb84  1  0.50118177  0.66194624  0.49881726  1
  Sb  Sb85  1  0.67381842  -0.00385136  0.66649816  1
  Sb  Sb86  1  0.50299828  -0.00727522  0.16818273  1
  Sb  Sb87  1  0.66878053  0.83279199  0.83063994  1
  Sb  Sb88  1  0.00003589  0.50131025  0.16753189  1
  Sb  Sb89  1  0.33508532  0.16845314  0.16616548  1
  Sb  Sb90  1  0.16651135  0.66749143  0.83664440  1
  Sb  Sb91  1  0.50564461  0.50359044  0.00388742  1
  Sb  Sb92  1  0.50469580  -0.00216451  0.83402792  1
  Sb  Sb93  1  0.82854718  0.16605269  0.33721809  1
  Sb  Sb94  1  -0.01147046  0.66512110  0.00422285  1
  Sb  Sb95  1  0.66619660  0.16954800  0.16364655  1
  Sb  Sb96  1  0.33901726  -0.00064859  0.00345199  1
  Sb  Sb97  1  0.83634081  0.33937587  0.16529610  1
  Sb  Sb98  1  0.16832760  0.83334405  0.00245250  1
  Sb  Sb99  1  0.50399152  0.16476747  0.66720321  1
  Sb  Sb100  1  -0.00815164  -0.00008204  -0.00547476  1
  Sb  Sb101  1  0.16606024  0.82795320  0.66613665  1
  Sb  Sb102  1  0.16391608  0.50173722  -0.00285548  1
  Sb  Sb103  1  0.50264154  0.82658425  0.33410139  1
  Sb  Sb104  1  0.66688678  0.16744319  0.50320670  1
  Sb  Sb105  1  0.16972621  0.49968826  0.33798715  1
  Sb  Sb106  1  0.49645788  0.33996901  0.17332137  1
  Sb  Sb107  1  0.66505728  0.33982715  0.34022907  1
  Te  Te108  1  0.16677674  0.15799597  0.16410482  1
  Te  Te109  1  0.16608811  0.17514943  0.50036737  1
  Te  Te110  1  0.17337595  0.16234922  0.83387825  1
  Te  Te111  1  0.16894276  0.50294202  0.16450667  1
  Te  Te112  1  0.17064420  0.49472785  0.50693724  1
  Te  Te113  1  0.17294147  0.49963884  0.83000725  1
  Te  Te114  1  0.17255099  0.83441425  0.16609021  1
  Te  Te115  1  0.17517813  0.83492194  0.50087627  1
  Te  Te116  1  0.16566193  0.84098504  0.83451545  1
  Te  Te117  1  0.50054572  0.16828737  0.16693857  1
  Te  Te118  1  0.50094448  0.17280115  0.49498922  1
  Te  Te119  1  0.49962619  0.16655493  0.83503809  1
  Te  Te120  1  0.49818560  0.50436236  0.17025860  1
  Te  Te121  1  0.50086554  0.49674682  0.49532362  1
  Te  Te122  1  0.49463786  0.50537996  0.83652484  1
  Te  Te123  1  0.49447374  0.82716812  0.16448918  1
  Te  Te124  1  0.50091684  0.83493207  0.50294707  1
  Te  Te125  1  0.49970390  0.82797166  0.83374068  1
  Te  Te126  1  0.83329362  0.16344602  0.16478366  1
  Te  Te127  1  0.83220622  0.15806533  0.50764252  1
  Te  Te128  1  0.83136865  0.16652527  0.83128398  1
  Te  Te129  1  0.83322167  0.50290724  0.17250659  1
  Te  Te130  1  0.82938668  0.49981220  0.49999335  1
  Te  Te131  1  0.82841896  0.50068036  0.83070157  1
  Te  Te132  1  0.83244175  0.83139928  0.16844493  1
  Te  Te133  1  0.82929776  0.83616857  0.50031173  1
  Te  Te134  1  0.83322431  0.83249627  0.83199100  1
  Te  Te135  1  0.16700425  -0.00128495  0.00088143  1
  Te  Te136  1  0.16578472  0.00051207  0.33015009  1
  Te  Te137  1  0.16002990  -0.00031338  0.66939525  1
  Te  Te138  1  0.16682444  0.33351869  0.01141392  1
  Te  Te139  1  0.16834196  0.33366141  0.33391619  1
  Te  Te140  1  0.17064292  0.33855320  0.66673382  1
  Te  Te141  1  0.16365544  0.66775795  0.00863072  1
  Te  Te142  1  0.17681490  0.66646584  0.32796988  1
  Te  Te143  1  0.16803376  0.65992840  0.66798768  1
  Te  Te144  1  0.50749665  -0.00289323  0.00083530  1
  Te  Te145  1  0.50209790  0.00178722  0.33269081  1
  Te  Te146  1  0.49941610  -0.00843671  0.66626612  1
  Te  Te147  1  0.50128751  0.32746192  -0.00007620  1
  Te  Te148  1  0.49763312  0.33637680  0.33704998  1
  Te  Te149  1  0.49553815  0.33027178  0.66261538  1
  Te  Te150  1  0.50736669  0.66899817  -0.00064019  1
  Te  Te151  1  0.50095347  0.66305266  0.32996101  1
  Te  Te152  1  0.50031749  0.66989843  0.66964150  1
  Te  Te153  1  0.82781355  -0.00274489  0.00186442  1
  Te  Te154  1  0.83060161  0.00080839  0.32891416  1
  Te  Te155  1  0.83396635  -0.00272588  0.66884055  1
  Te  Te156  1  0.83372695  0.33795254  -0.00488412  1
  Te  Te157  1  0.83657322  0.33458816  0.33448861  1
  Te  Te158  1  0.83350850  0.33513118  0.66742913  1
  Te  Te159  1  0.82827082  0.66727084  -0.00171319  1
  Te  Te160  1  0.82766259  0.66616972  0.33427678  1
  Te  Te161  1  0.83122469  0.66721180  0.66752040  1
  Te  Te162  1  0.00067050  0.16739275  -0.01075873  1
  Te  Te163  1  -0.00082792  0.17319053  0.33242716  1
  Te  Te164  1  -0.00347363  0.16987775  0.67158015  1
  Te  Te165  1  -0.00656610  0.49962493  -0.00939350  1
  Te  Te166  1  -0.00227076  0.49919138  0.33498418  1
  Te  Te167  1  -0.00635630  0.49798387  0.66803049  1
  Te  Te168  1  -0.00933964  0.83278942  0.00008214  1
  Te  Te169  1  -0.00839462  0.83099735  0.33424359  1
  Te  Te170  1  -0.00546912  0.83318655  0.66491418  1
  Te  Te171  1  0.34119533  0.16716564  -0.00631592  1
  Te  Te172  1  0.33933806  0.16302913  0.33399283  1
  Te  Te173  1  0.33439722  0.16666460  0.67109979  1
  Te  Te174  1  0.33342578  0.49981725  0.00324044  1
  Te  Te175  1  0.33192604  0.50103162  0.33545616  1
  Te  Te176  1  0.33789957  0.50149482  0.66191579  1
  Te  Te177  1  0.33866841  0.83409338  0.00447141  1
  Te  Te178  1  0.33508251  0.83284114  0.33454848  1
  Te  Te179  1  0.33356450  0.82932980  0.66227357  1
  Te  Te180  1  0.66133162  0.16949405  -0.00375967  1
  Te  Te181  1  0.66109147  0.16560811  0.33305215  1
  Te  Te182  1  0.67018048  0.16705231  0.67058588  1
  Te  Te183  1  0.67100719  0.50466147  0.00305199  1
  Te  Te184  1  0.66579026  0.50151089  0.33578288  1
  Te  Te185  1  0.66754594  0.50217367  0.66382263  1
  Te  Te186  1  0.66691363  0.83088609  0.00110208  1
  Te  Te187  1  0.66775748  0.83251982  0.33652046  1
  Te  Te188  1  0.66791746  0.83103058  0.66348753  1
  Te  Te189  1  0.00108455  0.00043562  0.16652878  1
  Te  Te190  1  -0.00407978  0.00084298  0.50582928  1
  Te  Te191  1  -0.00310337  0.00036795  0.82998794  1
  Te  Te192  1  0.00588857  0.33286900  0.17125241  1
  Te  Te193  1  0.00229001  0.33414759  0.50151097  1
  Te  Te194  1  -0.00203363  0.33464270  0.82872927  1
  Te  Te195  1  -0.00430406  0.66623184  0.17297214  1
  Te  Te196  1  0.00530491  0.66723236  0.48941978  1
  Te  Te197  1  -0.00255070  0.65936723  0.83262293  1
  Te  Te198  1  0.33248005  0.00065888  0.17109592  1
  Te  Te199  1  0.33186830  -0.00075078  0.49391448  1
  Te  Te200  1  0.33240937  0.00174494  0.83376035  1
  Te  Te201  1  0.32932724  0.33649981  0.17066830  1
  Te  Te202  1  0.33409792  0.33480034  0.49989911  1
  Te  Te203  1  0.33300135  0.33533523  0.83085981  1
  Te  Te204  1  0.33664077  0.66517528  0.16553560  1
  Te  Te205  1  0.33510481  0.66509940  0.50076078  1
  Te  Te206  1  0.33194570  0.66321624  0.83136930  1
  Te  Te207  1  0.66938781  0.00239160  0.16757828  1
  Te  Te208  1  0.67023359  -0.00317647  0.49564101  1
  Te  Te209  1  0.67072405  0.00463771  0.83682430  1
  Te  Te210  1  0.66724032  0.34256935  0.16650624  1
  Te  Te211  1  0.66376654  0.33662200  0.50712949  1
  Te  Te212  1  0.66953779  0.33080058  0.82649585  1
  Te  Te213  1  0.66701172  0.66354678  0.16868913  1
  Te  Te214  1  0.66589967  0.66734202  0.50288941  1
  Te  Te215  1  0.66763715  0.66670549  0.82880693  1
