# generated using pymatgen
data_AgSbTe2
_symmetry_space_group_name_H-M   'P 1'
_cell_length_a   18.32059145
_cell_length_b   18.31955075
_cell_length_c   18.32406801
_cell_angle_alpha   90.00063510
_cell_angle_beta   90.00071257
_cell_angle_gamma   89.99353337
_symmetry_Int_Tables_number   1
_chemical_formula_structural   AgSbTe2
_chemical_formula_sum   'Ag54 Sb54 Te108'
_cell_volume   6150.01537680
_cell_formula_units_Z   54
loop_
 _symmetry_equiv_pos_site_id
 _symmetry_equiv_pos_as_xyz
  1  'x, y, z'
loop_
 _atom_site_type_symbol
 _atom_site_label
 _atom_site_symmetry_multiplicity
 _atom_site_fract_x
 _atom_site_fract_y
 _atom_site_fract_z
 _atom_site_occupancy
  Ag  Ag0  1  0.66305880  -0.00258070  0.00854566  1
  Ag  Ag1  1  0.83366899  0.83022113  0.00558362  1
  Ag  Ag2  1  0.83558540  0.15720319  0.33133957  1
  Ag  Ag3  1  0.15897526  0.32913430  0.49968170  1
  Ag  Ag4  1  0.50056630  0.33413386  0.49517665  1
  Ag  Ag5  1  0.84078332  0.67403110  0.15986083  1
  Ag  Ag6  1  0.49927908  0.49950369  0.00167855  1
  Ag  Ag7  1  0.33418738  0.00007539  0.00387761  1
  Ag  Ag8  1  -0.00419223  0.66473706  -0.00017629  1
  Ag  Ag9  1  0.16282680  0.00020644  0.48817132  1
  Ag  Ag10  1  -0.00553174  0.33245192  0.67335124  1
  Ag  Ag11  1  0.67792276  0.67066104  0.00067555  1
  Ag  Ag12  1  0.67666390  0.83802555  0.16609188  1
  Ag  Ag13  1  0.83989348  0.00044041  0.49095240  1
  Ag  Ag14  1  0.49940140  0.49190009  0.67075313  1
  Ag  Ag15  1  0.50622366  0.33114158  0.16913582  1
  Ag  Ag16  1  0.32892748  0.15743776  0.16630965  1
  Ag  Ag17  1  0.16419011  0.83826944  0.32872640  1
  Ag  Ag18  1  0.16129564  0.67460773  0.83970956  1
  Ag  Ag19  1  0.49990748  0.16781372  0.66796525  1
  Ag  Ag20  1  0.00121823  0.16700820  0.83983926  1
  Ag  Ag21  1  0.16437095  0.66939880  0.49909926  1
  Ag  Ag22  1  -0.00006736  0.50031365  0.84184874  1
  Ag  Ag23  1  0.67031569  -0.00029906  0.32806786  1
  Ag  Ag24  1  0.16966062  -0.00317298  0.16932720  1
  Ag  Ag25  1  0.00137565  0.16867412  0.49772312  1
  Ag  Ag26  1  0.65927070  0.00440993  0.66889399  1
  Ag  Ag27  1  0.16258725  0.16350007  0.00194633  1
  Ag  Ag28  1  -0.00454066  0.83304492  0.16324860  1
  Ag  Ag29  1  0.83807816  0.33530476  0.84333656  1
  Ag  Ag30  1  0.32792319  0.83645379  0.83428121  1
  Ag  Ag31  1  0.83213764  0.33546670  0.16253724  1
  Ag  Ag32  1  0.17034850  -0.00579202  0.83797815  1
  Ag  Ag33  1  0.66682864  0.32875491  0.66782644  1
  Ag  Ag34  1  0.00303420  0.16342962  0.16586624  1
  Ag  Ag35  1  -0.00609240  0.33715095  -0.00128482  1
  Ag  Ag36  1  0.49485847  0.00296129  0.16519443  1
  Ag  Ag37  1  0.66565188  0.32816694  0.32400285  1
  Ag  Ag38  1  0.33394447  0.49847310  0.16618885  1
  Ag  Ag39  1  0.49302684  -0.00418067  0.84055118  1
  Ag  Ag40  1  0.50010132  0.49768799  0.32583374  1
  Ag  Ag41  1  0.00240457  0.50310215  0.16298646  1
  Ag  Ag42  1  0.33709473  -0.00175096  0.67389861  1
  Ag  Ag43  1  0.83585537  0.83972612  0.32374839  1
  Ag  Ag44  1  0.16007470  0.67535488  0.16234150  1
  Ag  Ag45  1  0.84447861  0.66637659  0.84250884  1
  Ag  Ag46  1  0.33256885  0.67208220  0.67248635  1
  Ag  Ag47  1  0.67386413  0.33257342  0.00483587  1
  Ag  Ag48  1  -0.00099957  -0.00091883  0.32969387  1
  Ag  Ag49  1  0.00329085  0.49170624  0.49898772  1
  Ag  Ag50  1  0.49970430  0.84129300  0.32940650  1
  Ag  Ag51  1  0.49695679  0.67056084  0.83607000  1
  Ag  Ag52  1  0.32844182  -0.00155703  0.32287630  1
  Ag  Ag53  1  0.00340206  0.83064971  0.84188794  1
  Sb  Sb54  1  0.50444058  0.16528355  0.33399660  1
  Sb  Sb55  1  0.83175198  0.50064520  0.33018875  1
  Sb  Sb56  1  0.49941400  0.83706325  0.66537148  1
  Sb  Sb57  1  0.66700658  0.83625193  0.49148668  1
  Sb  Sb58  1  0.66802457  0.83520588  0.84033002  1
  Sb  Sb59  1  0.16629514  0.49851611  0.00117589  1
  Sb  Sb60  1  0.16878474  0.50390511  0.33162822  1
  Sb  Sb61  1  0.16051391  0.83759621  0.00243887  1
  Sb  Sb62  1  0.83537060  -0.00211748  0.17055718  1
  Sb  Sb63  1  0.00044631  -0.00055824  0.00475227  1
  Sb  Sb64  1  -0.00525139  0.32825346  0.32955413  1
  Sb  Sb65  1  0.66999973  0.16617362  0.49993742  1
  Sb  Sb66  1  0.66930165  0.16341950  0.16726067  1
  Sb  Sb67  1  0.66834399  0.49719054  0.49951703  1
  Sb  Sb68  1  0.83862967  0.16579283  0.00574052  1
  Sb  Sb69  1  0.16352877  0.33021325  0.16985265  1
  Sb  Sb70  1  0.33042192  0.49963730  0.49606737  1
  Sb  Sb71  1  0.83363549  0.83496843  0.66955965  1
  Sb  Sb72  1  0.83296455  0.16675812  0.66388413  1
  Sb  Sb73  1  0.32810430  0.15794624  0.83822488  1
  Sb  Sb74  1  0.16838595  0.16476477  0.66918365  1
  Sb  Sb75  1  0.66980484  0.49990933  0.83654305  1
  Sb  Sb76  1  0.83243477  0.49780000  0.66834629  1
  Sb  Sb77  1  0.16873351  0.50012422  0.66603637  1
  Sb  Sb78  1  0.33344679  0.32861710  0.00255286  1
  Sb  Sb79  1  0.49960147  0.66710100  0.16196949  1
  Sb  Sb80  1  0.33038963  0.83672559  0.16290559  1
  Sb  Sb81  1  0.15997697  0.15937966  0.32851066  1
  Sb  Sb82  1  0.00476993  0.66027264  0.67596105  1
  Sb  Sb83  1  0.49813126  0.16612328  -0.00124116  1
  Sb  Sb84  1  0.49538092  0.66112537  0.50458604  1
  Sb  Sb85  1  0.00199679  0.00413903  0.66435561  1
  Sb  Sb86  1  0.33747369  0.32833531  0.33038394  1
  Sb  Sb87  1  0.66083937  0.66594026  0.67559057  1
  Sb  Sb88  1  0.50639026  0.33246946  0.83563263  1
  Sb  Sb89  1  0.33075608  0.50638961  0.83676597  1
  Sb  Sb90  1  0.00275593  0.83618226  0.49512439  1
  Sb  Sb91  1  0.33555397  0.33113857  0.66640779  1
  Sb  Sb92  1  0.66670446  0.66995053  0.32487259  1
  Sb  Sb93  1  0.00082520  0.67179049  0.32296454  1
  Sb  Sb94  1  0.66605136  0.49952118  0.16426948  1
  Sb  Sb95  1  0.83370790  0.50386413  0.00083021  1
  Sb  Sb96  1  0.84218331  0.67197942  0.49809838  1
  Sb  Sb97  1  0.32848180  0.16418300  0.49503578  1
  Sb  Sb98  1  0.50507095  0.83338455  0.00345754  1
  Sb  Sb99  1  0.49842536  0.00519313  0.49723308  1
  Sb  Sb100  1  0.33064186  0.67266609  -0.00251387  1
  Sb  Sb101  1  0.33269473  0.67223260  0.33395509  1
  Sb  Sb102  1  0.15770190  0.33220978  0.83168505  1
  Sb  Sb103  1  0.67119690  0.16575800  0.83340633  1
  Sb  Sb104  1  0.33166399  0.83594339  0.50183365  1
  Sb  Sb105  1  0.83441260  0.32869582  0.49724476  1
  Sb  Sb106  1  0.16676939  0.83397543  0.66831709  1
  Sb  Sb107  1  0.83501605  -0.00019914  0.83344726  1
  Te  Te108  1  0.16553799  0.16425659  0.16400569  1
  Te  Te109  1  0.16165351  0.16460031  0.50029092  1
  Te  Te110  1  0.16110553  0.16373715  0.83708273  1
  Te  Te111  1  0.16489517  0.50103329  0.16735919  1
  Te  Te112  1  0.16268769  0.50155914  0.49881781  1
  Te  Te113  1  0.16119309  0.50546821  0.83324273  1
  Te  Te114  1  0.16455374  0.83522154  0.16820015  1
  Te  Te115  1  0.16639840  0.83569755  0.49434447  1
  Te  Te116  1  0.16533106  0.83410555  0.83466319  1
  Te  Te117  1  0.49727877  0.16508781  0.16621687  1
  Te  Te118  1  0.49917515  0.17334750  0.50462987  1
  Te  Te119  1  0.49916493  0.16214141  0.82967632  1
  Te  Te120  1  0.49999365  0.49997943  0.16608772  1
  Te  Te121  1  0.49937149  0.49475160  0.49956576  1
  Te  Te122  1  0.49907903  0.50112564  0.83489835  1
  Te  Te123  1  0.49987536  0.83543439  0.16989157  1
  Te  Te124  1  0.49916197  0.83057063  0.49040816  1
  Te  Te125  1  0.49974389  0.83578992  0.83314627  1
  Te  Te126  1  0.83817920  0.17294019  0.17108704  1
  Te  Te127  1  0.83966017  0.16145794  0.49534457  1
  Te  Te128  1  0.84165123  0.16971413  0.83315381  1
  Te  Te129  1  0.83921129  0.49761886  0.16739895  1
  Te  Te130  1  0.84266594  0.50240597  0.49906564  1
  Te  Te131  1  0.83960046  0.50070365  0.83361811  1
  Te  Te132  1  0.83536666  0.83360850  0.16644034  1
  Te  Te133  1  0.83483704  0.83955683  0.49555910  1
  Te  Te134  1  0.83750691  0.83028445  0.83693531  1
  Te  Te135  1  0.16673803  0.00180648  -0.00014638  1
  Te  Te136  1  0.16634717  -0.00117545  0.33032522  1
  Te  Te137  1  0.17082108  -0.00054174  0.67158365  1
  Te  Te138  1  0.16089529  0.32740576  0.00036291  1
  Te  Te139  1  0.16775796  0.33281875  0.34022978  1
  Te  Te140  1  0.16335016  0.33273861  0.66002069  1
  Te  Te141  1  0.16233682  0.66576779  0.00084103  1
  Te  Te142  1  0.16749991  0.67297982  0.33301213  1
  Te  Te143  1  0.17195094  0.66716284  0.66686011  1
  Te  Te144  1  0.50230401  0.00026807  0.00167189  1
  Te  Te145  1  0.50350560  0.00014228  0.33162314  1
  Te  Te146  1  0.49925243  0.00172943  0.66403018  1
  Te  Te147  1  0.50221376  0.33481334  0.00423305  1
  Te  Te148  1  0.50372911  0.33290405  0.33068381  1
  Te  Te149  1  0.50258980  0.33252246  0.66838420  1
  Te  Te150  1  0.49827220  0.66460518  -0.00446476  1
  Te  Te151  1  0.50005146  0.66323928  0.33456214  1
  Te  Te152  1  0.49528391  0.66580016  0.67189945  1
  Te  Te153  1  0.82466565  -0.00392250  -0.00114157  1
  Te  Te154  1  0.83271153  -0.00167285  0.33207543  1
  Te  Te155  1  0.82782701  0.00053075  0.66236913  1
  Te  Te156  1  0.83395250  0.33128564  0.00151632  1
  Te  Te157  1  0.82591988  0.33342608  0.32965403  1
  Te  Te158  1  0.83124419  0.33275766  0.66680559  1
  Te  Te159  1  0.83404531  0.66671507  -0.00034499  1
  Te  Te160  1  0.83262922  0.67287369  0.32864265  1
  Te  Te161  1  0.83087907  0.66639316  0.67335514  1
  Te  Te162  1  0.00176275  0.16649109  0.00197989  1
  Te  Te163  1  -0.00432858  0.16229227  0.33153281  1
  Te  Te164  1  0.00058276  0.17244367  0.66519698  1
  Te  Te165  1  0.00078302  0.49888896  0.00188396  1
  Te  Te166  1  0.00021443  0.50071705  0.33072076  1
  Te  Te167  1  0.00062142  0.49296717  0.66554611  1
  Te  Te168  1  -0.00472938  0.83256543  0.00164063  1
  Te  Te169  1  0.00053773  0.83758091  0.32943682  1
  Te  Te170  1  -0.00116254  0.83309052  0.67511301  1
  Te  Te171  1  0.32799963  0.16115854  0.00590855  1
  Te  Te172  1  0.33419116  0.15889833  0.32659713  1
  Te  Te173  1  0.33857851  0.16194492  0.66634294  1
  Te  Te174  1  0.33758641  0.49973857  0.00474065  1
  Te  Te175  1  0.33904383  0.50077068  0.32784589  1
  Te  Te176  1  0.34025527  0.50073794  0.66654249  1
  Te  Te177  1  0.33575998  0.84016044  -0.00665426  1
  Te  Te178  1  0.33425310  0.83963638  0.33318110  1
  Te  Te179  1  0.33365683  0.83527054  0.67242097  1
  Te  Te180  1  0.66736056  0.16787824  -0.00035197  1
  Te  Te181  1  0.67293818  0.16620491  0.33385948  1
  Te  Te182  1  0.66304214  0.16647632  0.66656302  1
  Te  Te183  1  0.65940096  0.49548280  -0.00019824  1
  Te  Te184  1  0.66118248  0.49653203  0.33344504  1
  Te  Te185  1  0.65974636  0.49662617  0.66708625  1
  Te  Te186  1  0.67117024  0.83445828  0.00541017  1
  Te  Te187  1  0.66665255  0.83632214  0.32633282  1
  Te  Te188  1  0.66652334  0.83963189  0.66505746  1
  Te  Te189  1  0.00273682  0.00084811  0.16888116  1
  Te  Te190  1  0.00205010  0.00231846  0.49857174  1
  Te  Te191  1  0.00334018  0.00141734  0.83300485  1
  Te  Te192  1  -0.00062480  0.33156782  0.16461583  1
  Te  Te193  1  -0.00078419  0.33148315  0.49688303  1
  Te  Te194  1  -0.00245476  0.33352743  0.83520995  1
  Te  Te195  1  0.00057357  0.66788666  0.16251316  1
  Te  Te196  1  0.00501648  0.66542358  0.50443220  1
  Te  Te197  1  0.00168198  0.66677056  0.83708519  1
  Te  Te198  1  0.33349796  -0.00163000  0.16480109  1
  Te  Te199  1  0.32752045  0.00071199  0.50217921  1
  Te  Te200  1  0.33328425  -0.00194692  0.83395829  1
  Te  Te201  1  0.33673441  0.33635550  0.16624265  1
  Te  Te202  1  0.33496731  0.33221201  0.49915166  1
  Te  Te203  1  0.33052270  0.33343242  0.83392556  1
  Te  Te204  1  0.32776142  0.66307802  0.16601629  1
  Te  Te205  1  0.32587762  0.66689696  0.50570920  1
  Te  Te206  1  0.33251412  0.67120011  0.83181931  1
  Te  Te207  1  0.66426188  -0.00049129  0.16739271  1
  Te  Te208  1  0.66780280  0.00058905  0.49714302  1
  Te  Te209  1  0.66365238  0.00059465  0.83034248  1
  Te  Te210  1  0.66644173  0.33277685  0.16559114  1
  Te  Te211  1  0.66440598  0.33286352  0.50435348  1
  Te  Te212  1  0.67478311  0.33263189  0.83386384  1
  Te  Te213  1  0.66908548  0.66952337  0.15936789  1
  Te  Te214  1  0.67047567  0.66672946  0.50260168  1
  Te  Te215  1  0.66269948  0.66749232  0.84066732  1
