# generated using pymatgen
data_AgSbTe2
_symmetry_space_group_name_H-M   'P 1'
_cell_length_a   18.31311660
_cell_length_b   18.31386708
_cell_length_c   18.31008978
_cell_angle_alpha   89.99757909
_cell_angle_beta   89.99960456
_cell_angle_gamma   90.00143641
_symmetry_Int_Tables_number   1
_chemical_formula_structural   AgSbTe2
_chemical_formula_sum   'Ag54 Sb54 Te108'
_cell_volume   6140.91083569
_cell_formula_units_Z   54
loop_
 _symmetry_equiv_pos_site_id
 _symmetry_equiv_pos_as_xyz
  1  'x, y, z'
loop_
 _atom_site_type_symbol
 _atom_site_label
 _atom_site_symmetry_multiplicity
 _atom_site_fract_x
 _atom_site_fract_y
 _atom_site_fract_z
 _atom_site_occupancy
  Ag  Ag0  1  0.83261106  -0.00243763  0.15729154  1
  Ag  Ag1  1  0.33271687  0.50766647  0.50345298  1
  Ag  Ag2  1  0.50797532  0.33613889  0.16842420  1
  Ag  Ag3  1  0.16746137  0.50467381  0.32963130  1
  Ag  Ag4  1  0.50096642  0.16226110  0.33606656  1
  Ag  Ag5  1  -0.00384143  0.16821189  0.16242513  1
  Ag  Ag6  1  0.16468451  0.66639333  0.16861099  1
  Ag  Ag7  1  0.16442452  -0.00130515  0.83576078  1
  Ag  Ag8  1  0.82580750  0.67271974  0.49689853  1
  Ag  Ag9  1  0.66720393  0.49811198  0.83139363  1
  Ag  Ag10  1  0.17019797  0.83906497  0.00066616  1
  Ag  Ag11  1  0.34120823  0.83128036  0.16746629  1
  Ag  Ag12  1  -0.00233682  0.50063443  0.16801833  1
  Ag  Ag13  1  -0.01097878  0.16229780  0.84070300  1
  Ag  Ag14  1  0.33339827  -0.00358626  -0.00409762  1
  Ag  Ag15  1  0.66418179  0.33778290  0.32372024  1
  Ag  Ag16  1  0.67033655  0.16608021  0.83037465  1
  Ag  Ag17  1  -0.00134540  0.83470714  0.49816378  1
  Ag  Ag18  1  0.50279268  0.67081201  0.49556505  1
  Ag  Ag19  1  0.17207084  0.67107208  0.83861953  1
  Ag  Ag20  1  0.83285752  0.00300173  0.83457851  1
  Ag  Ag21  1  0.66465013  0.32790132  0.67058814  1
  Ag  Ag22  1  0.49860672  0.82909220  0.33024034  1
  Ag  Ag23  1  0.50532779  0.83426412  0.66492831  1
  Ag  Ag24  1  0.82394139  0.15802829  0.67523279  1
  Ag  Ag25  1  0.67256392  0.00082207  -0.00521086  1
  Ag  Ag26  1  0.83279183  0.15888040  -0.00351080  1
  Ag  Ag27  1  0.33798226  0.50434402  0.82909740  1
  Ag  Ag28  1  0.82903154  0.84150984  0.00283729  1
  Ag  Ag29  1  0.16008343  0.15757375  0.00005564  1
  Ag  Ag30  1  -0.00139351  -0.00654749  0.33456605  1
  Ag  Ag31  1  0.82942230  0.50064451  0.00019588  1
  Ag  Ag32  1  0.50177212  0.83345852  0.00802059  1
  Ag  Ag33  1  0.50590456  0.16093552  0.66472059  1
  Ag  Ag34  1  0.16542483  0.33788542  0.16621846  1
  Ag  Ag35  1  0.66893002  0.00049578  0.67220501  1
  Ag  Ag36  1  0.34147615  0.32867748  0.66533840  1
  Ag  Ag37  1  0.33992089  0.00140814  0.66688319  1
  Ag  Ag38  1  0.82404476  0.83852643  0.66547306  1
  Ag  Ag39  1  0.33463630  0.83322586  0.49723174  1
  Ag  Ag40  1  -0.00066769  0.67202406  0.33070253  1
  Ag  Ag41  1  0.83573783  -0.00793072  0.50834152  1
  Ag  Ag42  1  0.66853093  0.32786150  0.00319780  1
  Ag  Ag43  1  0.66633406  0.67208312  0.66533728  1
  Ag  Ag44  1  0.66290870  0.66621781  0.33278672  1
  Ag  Ag45  1  0.66393932  0.82980638  0.16354028  1
  Ag  Ag46  1  0.82763712  0.50071385  0.67107002  1
  Ag  Ag47  1  0.33540498  0.15722557  0.50341759  1
  Ag  Ag48  1  0.83100041  0.66973054  0.17018535  1
  Ag  Ag49  1  0.50016446  0.66819681  0.83005831  1
  Ag  Ag50  1  0.82962276  0.33313513  0.16326186  1
  Ag  Ag51  1  0.16811391  -0.00281477  0.50381362  1
  Ag  Ag52  1  0.33983667  0.66879472  0.33348922  1
  Ag  Ag53  1  0.50321707  0.67261589  0.17210406  1
  Sb  Sb54  1  0.00212855  0.15795441  0.49824502  1
  Sb  Sb55  1  0.50014307  0.33587831  0.49769910  1
  Sb  Sb56  1  0.82736685  0.83206605  0.33291356  1
  Sb  Sb57  1  -0.00420461  0.00082113  0.00330724  1
  Sb  Sb58  1  0.16983331  0.83559070  0.66877191  1
  Sb  Sb59  1  -0.00766113  0.32976478  0.00390058  1
  Sb  Sb60  1  0.33654129  0.16577868  0.82919984  1
  Sb  Sb61  1  0.82931974  0.32559985  0.83911591  1
  Sb  Sb62  1  0.16662264  0.50200018  0.66414456  1
  Sb  Sb63  1  0.34148156  0.66952007  0.66271096  1
  Sb  Sb64  1  -0.00617215  0.33109669  0.66783477  1
  Sb  Sb65  1  0.82869701  0.16473171  0.33143300  1
  Sb  Sb66  1  0.00209132  0.50810251  0.49372005  1
  Sb  Sb67  1  0.16208125  -0.00358374  0.16373358  1
  Sb  Sb68  1  -0.00331005  0.83285707  0.17089513  1
  Sb  Sb69  1  0.17088493  0.82863490  0.32834676  1
  Sb  Sb70  1  0.83504366  0.50396016  0.33082413  1
  Sb  Sb71  1  0.50370351  0.33676187  0.83447032  1
  Sb  Sb72  1  0.50537393  -0.00473346  0.16589346  1
  Sb  Sb73  1  0.66249552  0.16517100  0.50647985  1
  Sb  Sb74  1  0.66686206  0.83479192  0.83614635  1
  Sb  Sb75  1  0.16742908  0.16349225  0.67181204  1
  Sb  Sb76  1  0.33342771  0.67305010  0.00406444  1
  Sb  Sb77  1  0.66419080  0.50397297  0.50471830  1
  Sb  Sb78  1  0.67204501  0.50251228  0.16222746  1
  Sb  Sb79  1  -0.00415757  0.33407681  0.32837145  1
  Sb  Sb80  1  -0.00846100  0.66823480  0.66252984  1
  Sb  Sb81  1  0.50308524  -0.00587347  0.83166966  1
  Sb  Sb82  1  -0.00401678  0.49857799  0.83796842  1
  Sb  Sb83  1  0.50473200  0.50551737  0.00002395  1
  Sb  Sb84  1  0.33049241  -0.00559015  0.33511296  1
  Sb  Sb85  1  0.67115062  0.16602782  0.16259730  1
  Sb  Sb86  1  0.33877842  0.33775525  0.33526603  1
  Sb  Sb87  1  0.49797680  0.50702043  0.33321679  1
  Sb  Sb88  1  0.50457150  0.50259646  0.66720996  1
  Sb  Sb89  1  -0.00069166  0.66781977  0.00644915  1
  Sb  Sb90  1  0.16947298  0.67254355  0.49743857  1
  Sb  Sb91  1  0.66717702  0.67149930  0.00055009  1
  Sb  Sb92  1  0.66963717  -0.00242491  0.33304041  1
  Sb  Sb93  1  0.33217112  0.16225573  0.16886084  1
  Sb  Sb94  1  0.33022004  0.50659746  0.16695024  1
  Sb  Sb95  1  -0.00119899  0.83805879  0.83036696  1
  Sb  Sb96  1  0.83067979  0.33380220  0.49813470  1
  Sb  Sb97  1  0.33866405  0.32867890  -0.00185532  1
  Sb  Sb98  1  0.16941113  0.33096023  0.83864955  1
  Sb  Sb99  1  0.16988720  0.16806059  0.32847112  1
  Sb  Sb100  1  0.50500278  0.16107346  -0.00112704  1
  Sb  Sb101  1  0.17073752  0.32902224  0.49583406  1
  Sb  Sb102  1  0.33419163  0.83098501  0.83429334  1
  Sb  Sb103  1  0.49909050  -0.00587148  0.50290744  1
  Sb  Sb104  1  0.83116799  0.67048745  0.83413549  1
  Sb  Sb105  1  0.16390171  0.50072375  0.00416067  1
  Sb  Sb106  1  0.66521289  0.83222321  0.50041181  1
  Sb  Sb107  1  -0.00698295  -0.00078576  0.66394573  1
  Te  Te108  1  0.16396743  0.16784169  0.16132064  1
  Te  Te109  1  0.17164322  0.16000914  0.49905010  1
  Te  Te110  1  0.16756512  0.16274295  0.83970184  1
  Te  Te111  1  0.16327725  0.50383257  0.16821560  1
  Te  Te112  1  0.17165279  0.50001482  0.49562433  1
  Te  Te113  1  0.16563742  0.50275496  0.83438951  1
  Te  Te114  1  0.16731357  0.82833112  0.16086169  1
  Te  Te115  1  0.16985647  0.83873695  0.50078720  1
  Te  Te116  1  0.16630282  0.83436528  0.83792508  1
  Te  Te117  1  0.50011257  0.16860483  0.16948214  1
  Te  Te118  1  0.49505521  0.16672268  0.50223068  1
  Te  Te119  1  0.50639372  0.16678203  0.82854724  1
  Te  Te120  1  0.49932665  0.50076235  0.16572762  1
  Te  Te121  1  0.49212505  0.50809272  0.50042716  1
  Te  Te122  1  0.50085386  0.50671637  0.83387135  1
  Te  Te123  1  0.50053426  0.83279314  0.16686786  1
  Te  Te124  1  0.49777881  0.82927297  0.50134557  1
  Te  Te125  1  0.50007515  0.82660466  0.82919763  1
  Te  Te126  1  0.83589122  0.16615162  0.16503529  1
  Te  Te127  1  0.83549499  0.16417914  0.50343284  1
  Te  Te128  1  0.83123088  0.16388947  0.83457620  1
  Te  Te129  1  0.83642953  0.50281576  0.16465843  1
  Te  Te130  1  0.83493843  0.50446537  0.50445473  1
  Te  Te131  1  0.83195034  0.50152988  0.83465800  1
  Te  Te132  1  0.83139060  0.83169240  0.16569182  1
  Te  Te133  1  0.83226620  0.83201897  0.50005980  1
  Te  Te134  1  0.83386990  0.83927889  0.83522474  1
  Te  Te135  1  0.16622179  -0.00093200  -0.00162842  1
  Te  Te136  1  0.16163483  0.00002856  0.33603499  1
  Te  Te137  1  0.17183435  -0.00033259  0.66874764  1
  Te  Te138  1  0.16941019  0.33105142  0.00671089  1
  Te  Te139  1  0.16752280  0.33785267  0.32688877  1
  Te  Te140  1  0.17116929  0.33301494  0.66653128  1
  Te  Te141  1  0.16647598  0.66919388  0.00084930  1
  Te  Te142  1  0.16611026  0.66485140  0.33135050  1
  Te  Te143  1  0.16602092  0.66743823  0.67205095  1
  Te  Te144  1  0.50015722  -0.00702010  -0.00154790  1
  Te  Te145  1  0.50028100  0.00100059  0.33455823  1
  Te  Te146  1  0.50136325  -0.00117898  0.66652646  1
  Te  Te147  1  0.50670937  0.33227582  0.00608476  1
  Te  Te148  1  0.50505422  0.33174542  0.32978620  1
  Te  Te149  1  0.50158733  0.33091283  0.66649021  1
  Te  Te150  1  0.50004701  0.67327188  0.00287279  1
  Te  Te151  1  0.50198664  0.66878421  0.33229492  1
  Te  Te152  1  0.50565721  0.66905268  0.66646439  1
  Te  Te153  1  0.83171223  -0.00041139  -0.00072027  1
  Te  Te154  1  0.83716833  -0.00086163  0.33456612  1
  Te  Te155  1  0.83130428  -0.00070666  0.66798512  1
  Te  Te156  1  0.82747955  0.33246647  0.00475081  1
  Te  Te157  1  0.82550939  0.33382834  0.32797040  1
  Te  Te158  1  0.82734051  0.33487282  0.66607115  1
  Te  Te159  1  0.83306241  0.66714366  0.00315021  1
  Te  Te160  1  0.83031368  0.66715930  0.33215503  1
  Te  Te161  1  0.82732620  0.66952908  0.66615047  1
  Te  Te162  1  -0.00205420  0.16633470  0.00166855  1
  Te  Te163  1  0.00069073  0.16412524  0.32864327  1
  Te  Te164  1  -0.00501560  0.16730715  0.66904683  1
  Te  Te165  1  -0.00784644  0.49843858  0.00616777  1
  Te  Te166  1  0.00483949  0.50420665  0.32813603  1
  Te  Te167  1  -0.00790626  0.49925919  0.66662202  1
  Te  Te168  1  -0.00218453  0.83372392  -0.00083432  1
  Te  Te169  1  0.00232206  0.83212533  0.33763633  1
  Te  Te170  1  -0.00593833  0.83276854  0.65907219  1
  Te  Te171  1  0.33325824  0.15963024  -0.00098396  1
  Te  Te172  1  0.33870245  0.16774002  0.33827726  1
  Te  Te173  1  0.33439578  0.16433113  0.66402571  1
  Te  Te174  1  0.33338632  0.49857859  -0.00726803  1
  Te  Te175  1  0.32913312  0.50510820  0.33536065  1
  Te  Te176  1  0.33323728  0.49880181  0.66726501  1
  Te  Te177  1  0.33392942  0.83727346  0.00098112  1
  Te  Te178  1  0.33740521  0.82979285  0.33351741  1
  Te  Te179  1  0.33750053  0.83754447  0.66325423  1
  Te  Te180  1  0.66960439  0.16430104  -0.00433399  1
  Te  Te181  1  0.66025918  0.16741054  0.33430734  1
  Te  Te182  1  0.66564561  0.16502383  0.66811165  1
  Te  Te183  1  0.67094164  0.49626972  -0.00551419  1
  Te  Te184  1  0.66631563  0.50118153  0.33424813  1
  Te  Te185  1  0.66967294  0.49990536  0.66998708  1
  Te  Te186  1  0.66830862  0.83706355  0.00238320  1
  Te  Te187  1  0.65919834  0.83060600  0.32624654  1
  Te  Te188  1  0.66580741  0.83340321  0.66803655  1
  Te  Te189  1  -0.00535941  0.00239558  0.17245464  1
  Te  Te190  1  -0.00105516  -0.00436659  0.49673329  1
  Te  Te191  1  0.00143284  0.00479173  0.83151813  1
  Te  Te192  1  -0.00078116  0.33284425  0.16788331  1
  Te  Te193  1  0.00108009  0.33389597  0.49792252  1
  Te  Te194  1  0.00189282  0.32437031  0.83358500  1
  Te  Te195  1  -0.00120372  0.66597585  0.17156839  1
  Te  Te196  1  -0.00175167  0.67289407  0.49417103  1
  Te  Te197  1  0.00686687  0.66613890  0.83212787  1
  Te  Te198  1  0.33218666  -0.00648335  0.16362338  1
  Te  Te199  1  0.33252742  -0.00279362  0.50123260  1
  Te  Te200  1  0.33099343  -0.00098076  0.83282171  1
  Te  Te201  1  0.33279799  0.33300977  0.16599947  1
  Te  Te202  1  0.33368231  0.33474925  0.50507513  1
  Te  Te203  1  0.33491649  0.33883954  0.82790970  1
  Te  Te204  1  0.33420018  0.67034587  0.17061315  1
  Te  Te205  1  0.33440714  0.66965243  0.49664336  1
  Te  Te206  1  0.33318940  0.66373419  0.83282530  1
  Te  Te207  1  0.67284667  -0.00352402  0.16456167  1
  Te  Te208  1  0.67473918  -0.00066372  0.50416499  1
  Te  Te209  1  0.66873945  0.00212115  0.83272185  1
  Te  Te210  1  0.66744780  0.33427476  0.16518236  1
  Te  Te211  1  0.66616427  0.33510358  0.50234056  1
  Te  Te212  1  0.66652231  0.33540717  0.83082472  1
  Te  Te213  1  0.66732866  0.66790186  0.16722039  1
  Te  Te214  1  0.66682194  0.66645820  0.49833136  1
  Te  Te215  1  0.66475515  0.66240609  0.83103028  1
