# generated using pymatgen
data_AgSbTe2
_symmetry_space_group_name_H-M   'P 1'
_cell_length_a   18.33422059
_cell_length_b   18.33877138
_cell_length_c   18.33914622
_cell_angle_alpha   89.99840437
_cell_angle_beta   89.99918524
_cell_angle_gamma   89.99808371
_symmetry_Int_Tables_number   1
_chemical_formula_structural   AgSbTe2
_chemical_formula_sum   'Ag54 Sb54 Te108'
_cell_volume   6166.11757254
_cell_formula_units_Z   54
loop_
 _symmetry_equiv_pos_site_id
 _symmetry_equiv_pos_as_xyz
  1  'x, y, z'
loop_
 _atom_site_type_symbol
 _atom_site_label
 _atom_site_symmetry_multiplicity
 _atom_site_fract_x
 _atom_site_fract_y
 _atom_site_fract_z
 _atom_site_occupancy
  Ag  Ag0  1  0.83900850  0.49924703  0.66585887  1
  Ag  Ag1  1  0.84566583  0.66458769  0.50222644  1
  Ag  Ag2  1  0.67410406  0.33893180  0.66934532  1
  Ag  Ag3  1  0.01315283  0.66773497  0.34440746  1
  Ag  Ag4  1  0.00794794  0.16683146  0.50369915  1
  Ag  Ag5  1  0.49656138  0.82243138  0.33644924  1
  Ag  Ag6  1  0.00297673  0.81969473  0.49611027  1
  Ag  Ag7  1  0.15908474  0.49595297  0.66758637  1
  Ag  Ag8  1  0.66257163  0.33826992  0.33402422  1
  Ag  Ag9  1  0.49883074  0.66156862  0.82887368  1
  Ag  Ag10  1  0.16273600  0.82150446  0.33289369  1
  Ag  Ag11  1  0.66858050  0.17192029  0.16670893  1
  Ag  Ag12  1  0.15649683  0.66764940  0.48939433  1
  Ag  Ag13  1  0.00573030  0.66638501  -0.00030926  1
  Ag  Ag14  1  0.32666985  0.33203636  -0.01144057  1
  Ag  Ag15  1  0.00151815  0.50750125  0.50189933  1
  Ag  Ag16  1  0.67708818  0.65756163  0.66882343  1
  Ag  Ag17  1  0.16305043  0.65949680  0.83242509  1
  Ag  Ag18  1  0.49620412  0.66757531  0.17986545  1
  Ag  Ag19  1  0.16921948  -0.00118568  0.50135075  1
  Ag  Ag20  1  0.16347929  0.17325223  -0.00938933  1
  Ag  Ag21  1  0.32568947  0.17186777  0.82810692  1
  Ag  Ag22  1  0.32249238  0.33122537  0.67312544  1
  Ag  Ag23  1  0.16766123  0.34349221  0.16177011  1
  Ag  Ag24  1  -0.00017609  0.66104290  0.65603975  1
  Ag  Ag25  1  0.16267259  0.17728489  0.67008290  1
  Ag  Ag26  1  0.84159690  0.16735043  -0.01209509  1
  Ag  Ag27  1  0.49146966  -0.00795569  0.49262071  1
  Ag  Ag28  1  0.49130895  0.33908448  0.82946301  1
  Ag  Ag29  1  0.83438800  0.50544938  0.34106032  1
  Ag  Ag30  1  0.16533170  0.50153883  -0.00572088  1
  Ag  Ag31  1  0.16516965  0.66216065  0.17765708  1
  Ag  Ag32  1  0.33459104  -0.00804844  0.33607962  1
  Ag  Ag33  1  0.00366478  0.34171566  0.66652124  1
  Ag  Ag34  1  0.17092381  0.33258352  0.83083651  1
  Ag  Ag35  1  0.83454636  0.33503807  0.82637626  1
  Ag  Ag36  1  0.50026631  0.82635259  0.65354888  1
  Ag  Ag37  1  0.83817893  0.00550515  0.83421138  1
  Ag  Ag38  1  0.49726017  0.50602321  0.33334746  1
  Ag  Ag39  1  0.66850496  0.49897562  0.82896417  1
  Ag  Ag40  1  0.84040305  0.65817664  0.82400501  1
  Ag  Ag41  1  0.33200587  0.33778690  0.33505403  1
  Ag  Ag42  1  0.84144525  0.18095682  0.67051084  1
  Ag  Ag43  1  0.32599816  0.16611156  0.50331429  1
  Ag  Ag44  1  0.84427217  0.82215171  0.33379015  1
  Ag  Ag45  1  0.66732155  0.49865399  0.17185132  1
  Ag  Ag46  1  0.16329278  0.81839619  0.00294969  1
  Ag  Ag47  1  0.16735775  0.50814506  0.33495569  1
  Ag  Ag48  1  0.49783343  0.66978733  0.49502203  1
  Ag  Ag49  1  0.32332111  0.66548265  0.33546286  1
  Ag  Ag50  1  0.16483070  0.00949651  0.82950976  1
  Ag  Ag51  1  0.82999627  0.00128885  0.16712446  1
  Ag  Ag52  1  0.50314771  -0.00681873  0.17459691  1
  Ag  Ag53  1  0.00182504  0.82851165  0.17599900  1
  Sb  Sb54  1  0.66633991  0.16921531  0.49883493  1
  Sb  Sb55  1  0.84136786  0.83588013  0.00343483  1
  Sb  Sb56  1  0.32845879  0.65995539  0.66185075  1
  Sb  Sb57  1  0.32978946  0.00566389  0.00377564  1
  Sb  Sb58  1  0.50174754  0.50441295  0.66326170  1
  Sb  Sb59  1  0.16711563  -0.00313918  0.16820427  1
  Sb  Sb60  1  0.49086759  0.82942225  0.00508436  1
  Sb  Sb61  1  0.49733555  -0.00001252  0.83151319  1
  Sb  Sb62  1  0.00268016  0.34168228  0.33966692  1
  Sb  Sb63  1  0.00022708  0.50187953  0.82403905  1
  Sb  Sb64  1  0.32890406  0.83533876  0.49748177  1
  Sb  Sb65  1  0.67193653  0.66354759  -0.00442525  1
  Sb  Sb66  1  0.83534186  0.33952442  0.50637502  1
  Sb  Sb67  1  0.67151196  0.50231160  0.50073323  1
  Sb  Sb68  1  0.83813123  -0.00483748  0.49964757  1
  Sb  Sb69  1  0.66683271  0.82943612  0.49841736  1
  Sb  Sb70  1  0.32746032  0.83221292  0.17097619  1
  Sb  Sb71  1  0.32480457  0.66091134  0.00309300  1
  Sb  Sb72  1  0.49766739  0.16828334  0.00031607  1
  Sb  Sb73  1  0.66258324  0.00363275  0.33233801  1
  Sb  Sb74  1  0.66870091  0.00229817  0.00111318  1
  Sb  Sb75  1  0.49697464  0.33683272  0.16629414  1
  Sb  Sb76  1  0.83634647  0.66841503  0.17026101  1
  Sb  Sb77  1  -0.00121509  0.16286030  0.17078314  1
  Sb  Sb78  1  0.00634781  -0.01034132  0.33519800  1
  Sb  Sb79  1  0.32996885  0.83519066  0.83184645  1
  Sb  Sb80  1  0.16876927  0.82887834  0.66304632  1
  Sb  Sb81  1  0.49716295  0.33708104  0.50228443  1
  Sb  Sb82  1  0.33428536  0.16865505  0.16796661  1
  Sb  Sb83  1  0.66537863  0.66013999  0.33796637  1
  Sb  Sb84  1  0.00007650  0.50572197  0.17327703  1
  Sb  Sb85  1  0.33269160  0.49521475  0.83134032  1
  Sb  Sb86  1  0.83223248  0.82586219  0.66269893  1
  Sb  Sb87  1  0.83356759  0.16949844  0.33737911  1
  Sb  Sb88  1  0.83660108  0.33109969  0.16356920  1
  Sb  Sb89  1  0.00238337  -0.00283544  -0.00002386  1
  Sb  Sb90  1  0.66802219  0.00144142  0.66673880  1
  Sb  Sb91  1  0.49549877  0.50099339  0.00206123  1
  Sb  Sb92  1  0.49861055  0.16808228  0.66625838  1
  Sb  Sb93  1  0.66787929  0.82504685  0.83048318  1
  Sb  Sb94  1  0.00740859  0.33795214  -0.00681540  1
  Sb  Sb95  1  0.33169816  0.49965865  0.17046603  1
  Sb  Sb96  1  0.66928783  0.82938822  0.16939316  1
  Sb  Sb97  1  0.83978384  0.49740898  -0.00428697  1
  Sb  Sb98  1  0.16742529  0.33613799  0.50427369  1
  Sb  Sb99  1  0.66501095  0.33480382  -0.00208209  1
  Sb  Sb100  1  0.16766337  0.16919444  0.33760744  1
  Sb  Sb101  1  0.33132084  0.00611513  0.66042323  1
  Sb  Sb102  1  0.00092397  -0.00112798  0.66576593  1
  Sb  Sb103  1  0.66901884  0.17478922  0.83581671  1
  Sb  Sb104  1  0.00132080  0.82856043  0.82967290  1
  Sb  Sb105  1  0.00485064  0.16831496  0.82814570  1
  Sb  Sb106  1  0.49785930  0.16830223  0.33341502  1
  Sb  Sb107  1  0.32654529  0.49827898  0.49789665  1
  Te  Te108  1  0.16634691  0.16643442  0.16329755  1
  Te  Te109  1  0.16806609  0.16618924  0.50317955  1
  Te  Te110  1  0.16604125  0.16904123  0.83036773  1
  Te  Te111  1  0.16562423  0.50261924  0.17245472  1
  Te  Te112  1  0.16334927  0.50398921  0.49872387  1
  Te  Te113  1  0.16664512  0.49822747  0.83121038  1
  Te  Te114  1  0.16204746  0.83141230  0.16934178  1
  Te  Te115  1  0.16351634  0.83220340  0.49797428  1
  Te  Te116  1  0.16635814  0.83431597  0.83485282  1
  Te  Te117  1  0.50629040  0.16490567  0.16542090  1
  Te  Te118  1  0.49759979  0.16169030  0.50116601  1
  Te  Te119  1  0.49653514  0.16918227  0.83383925  1
  Te  Te120  1  0.50478693  0.50407078  0.16953546  1
  Te  Te121  1  0.49943957  0.50449817  0.49443342  1
  Te  Te122  1  0.50316851  0.49914430  0.83383999  1
  Te  Te123  1  0.50116646  0.83067734  0.17141903  1
  Te  Te124  1  0.50058676  0.83325726  0.49579066  1
  Te  Te125  1  0.49910019  0.83127528  0.83623575  1
  Te  Te126  1  0.83082387  0.16310989  0.16812629  1
  Te  Te127  1  0.83386740  0.16379813  0.50705988  1
  Te  Te128  1  0.83344598  0.16728125  0.83094153  1
  Te  Te129  1  0.82844494  0.49970001  0.16627924  1
  Te  Te130  1  0.83754094  0.50436450  0.50106924  1
  Te  Te131  1  0.83053684  0.49991688  0.83207488  1
  Te  Te132  1  0.83673147  0.83732762  0.17123646  1
  Te  Te133  1  0.83708142  0.82942464  0.49459932  1
  Te  Te134  1  0.83343533  0.83708016  0.83391743  1
  Te  Te135  1  0.16701466  0.00892326  -0.00338439  1
  Te  Te136  1  0.17304208  0.00058507  0.33710418  1
  Te  Te137  1  0.16755144  -0.00086220  0.66730428  1
  Te  Te138  1  0.16689626  0.33399198  -0.00157699  1
  Te  Te139  1  0.16764780  0.33635425  0.33014774  1
  Te  Te140  1  0.16410913  0.33434246  0.66745183  1
  Te  Te141  1  0.16547884  0.66245837  -0.00670933  1
  Te  Te142  1  0.16791269  0.66653298  0.33342263  1
  Te  Te143  1  0.16430868  0.66471210  0.67168787  1
  Te  Te144  1  0.49900898  -0.00106884  0.00627153  1
  Te  Te145  1  0.49656178  0.00167758  0.33326289  1
  Te  Te146  1  0.50026440  -0.00605450  0.66558861  1
  Te  Te147  1  0.49279026  0.33386192  -0.00568142  1
  Te  Te148  1  0.49971754  0.33998938  0.33305649  1
  Te  Te149  1  0.50253610  0.33515888  0.66984683  1
  Te  Te150  1  0.49857289  0.66652980  -0.00743763  1
  Te  Te151  1  0.50593744  0.66434537  0.33447883  1
  Te  Te152  1  0.49461707  0.66742281  0.67056420  1
  Te  Te153  1  0.83534651  0.00449802  -0.00148566  1
  Te  Te154  1  0.83220785  -0.00078505  0.33106794  1
  Te  Te155  1  0.83262452  -0.00083953  0.67050087  1
  Te  Te156  1  0.83474560  0.32825712  -0.00558962  1
  Te  Te157  1  0.83282493  0.33969763  0.33274110  1
  Te  Te158  1  0.83374094  0.33737348  0.66780231  1
  Te  Te159  1  0.84008686  0.66687830  -0.00489682  1
  Te  Te160  1  0.82984145  0.66564380  0.33503912  1
  Te  Te161  1  0.83522098  0.66531084  0.66569179  1
  Te  Te162  1  0.00018117  0.16741173  0.00281354  1
  Te  Te163  1  -0.00081881  0.16688739  0.34042520  1
  Te  Te164  1  0.00085836  0.16479120  0.66392662  1
  Te  Te165  1  0.00650464  0.50472566  0.00466040  1
  Te  Te166  1  -0.00131697  0.50577963  0.33898999  1
  Te  Te167  1  -0.00095877  0.50141360  0.66280165  1
  Te  Te168  1  0.00620266  0.82927837  0.00215211  1
  Te  Te169  1  0.00156690  0.82898391  0.33576431  1
  Te  Te170  1  0.00023335  0.82610538  0.65788528  1
  Te  Te171  1  0.32940998  0.17241090  -0.00197600  1
  Te  Te172  1  0.33311362  0.17268970  0.33736969  1
  Te  Te173  1  0.33180982  0.17164190  0.66607591  1
  Te  Te174  1  0.32580002  0.49215825  0.00121570  1
  Te  Te175  1  0.33241371  0.50190941  0.33427823  1
  Te  Te176  1  0.32697965  0.49108457  0.66453522  1
  Te  Te177  1  0.32168428  0.83457714  0.00069013  1
  Te  Te178  1  0.33592446  0.83064356  0.33333232  1
  Te  Te179  1  0.34157705  0.83353308  0.66588338  1
  Te  Te180  1  0.67161889  0.16843999  0.00619526  1
  Te  Te181  1  0.66696162  0.17563570  0.32894998  1
  Te  Te182  1  0.67095768  0.17270050  0.66679036  1
  Te  Te183  1  0.66723673  0.49940182  0.00103306  1
  Te  Te184  1  0.66991123  0.49679512  0.33382587  1
  Te  Te185  1  0.66757126  0.49892474  0.66763180  1
  Te  Te186  1  0.66635347  0.83324747  -0.00006452  1
  Te  Te187  1  0.66331207  0.83495343  0.33263749  1
  Te  Te188  1  0.66026297  0.82894395  0.66577425  1
  Te  Te189  1  -0.00529263  -0.00590535  0.16807801  1
  Te  Te190  1  0.00567222  0.00624724  0.49976398  1
  Te  Te191  1  0.00053736  -0.00266007  0.83297164  1
  Te  Te192  1  0.00657861  0.33209373  0.16745926  1
  Te  Te193  1  0.00063264  0.32723933  0.50648255  1
  Te  Te194  1  -0.00212224  0.33400336  0.82717125  1
  Te  Te195  1  0.00216042  0.66970279  0.16512370  1
  Te  Te196  1  0.00123036  0.66358459  0.49974493  1
  Te  Te197  1  0.00017273  0.66682498  0.83629334  1
  Te  Te198  1  0.33921760  0.00135256  0.17415932  1
  Te  Te199  1  0.33111242  0.00336684  0.49591527  1
  Te  Te200  1  0.33014724  0.00746355  0.83380451  1
  Te  Te201  1  0.32880174  0.33276734  0.17413208  1
  Te  Te202  1  0.33408996  0.32780724  0.49555207  1
  Te  Te203  1  0.33185032  0.33183673  0.83092999  1
  Te  Te204  1  0.33402056  0.66618439  0.17080092  1
  Te  Te205  1  0.33754526  0.66604923  0.49540312  1
  Te  Te206  1  0.33323975  0.66604409  0.83415156  1
  Te  Te207  1  0.66688778  0.00228491  0.16710284  1
  Te  Te208  1  0.65866403  0.00084492  0.50055208  1
  Te  Te209  1  0.66941953  0.00093317  0.83337356  1
  Te  Te210  1  0.66652961  0.33500715  0.16814568  1
  Te  Te211  1  0.66563322  0.33374336  0.49930194  1
  Te  Te212  1  0.66961587  0.33806785  0.83102513  1
  Te  Te213  1  0.66403636  0.66178677  0.16368327  1
  Te  Te214  1  0.65758246  0.66660681  0.50985137  1
  Te  Te215  1  0.66672789  0.66058670  0.82897557  1
