# generated using pymatgen
data_AgSbTe2
_symmetry_space_group_name_H-M   'P 1'
_cell_length_a   18.32634965
_cell_length_b   18.32233262
_cell_length_c   18.32823131
_cell_angle_alpha   90.00260693
_cell_angle_beta   90.00002010
_cell_angle_gamma   89.99957724
_symmetry_Int_Tables_number   1
_chemical_formula_structural   AgSbTe2
_chemical_formula_sum   'Ag54 Sb54 Te108'
_cell_volume   6154.28051972
_cell_formula_units_Z   54
loop_
 _symmetry_equiv_pos_site_id
 _symmetry_equiv_pos_as_xyz
  1  'x, y, z'
loop_
 _atom_site_type_symbol
 _atom_site_label
 _atom_site_symmetry_multiplicity
 _atom_site_fract_x
 _atom_site_fract_y
 _atom_site_fract_z
 _atom_site_occupancy
  Ag  Ag0  1  0.83599332  0.00019578  0.16517211  1
  Ag  Ag1  1  0.17353982  -0.00077839  0.83181647  1
  Ag  Ag2  1  0.65925785  0.01227148  0.66470235  1
  Ag  Ag3  1  0.33138248  0.49565397  0.16216495  1
  Ag  Ag4  1  0.32748812  0.00959083  -0.01005467  1
  Ag  Ag5  1  0.49696081  0.48723937  0.67151353  1
  Ag  Ag6  1  0.83778429  0.65949380  0.82565307  1
  Ag  Ag7  1  0.16346069  0.66496401  0.50237708  1
  Ag  Ag8  1  0.00676988  0.49788727  0.15777734  1
  Ag  Ag9  1  0.66432736  0.83509393  0.16885783  1
  Ag  Ag10  1  0.00234044  0.33487195  0.66954693  1
  Ag  Ag11  1  0.66518734  0.16926539  0.82385051  1
  Ag  Ag12  1  0.32994955  0.65669112  0.33647596  1
  Ag  Ag13  1  0.83520063  0.33666922  0.83046860  1
  Ag  Ag14  1  0.49604233  0.84182058  0.66377696  1
  Ag  Ag15  1  0.33901808  0.33391400  0.66495269  1
  Ag  Ag16  1  0.00487016  0.49878899  0.83715182  1
  Ag  Ag17  1  -0.00217690  0.66477910  0.66425905  1
  Ag  Ag18  1  0.17294417  0.33353607  0.50023677  1
  Ag  Ag19  1  0.49312917  0.33183770  0.50597056  1
  Ag  Ag20  1  0.00768912  0.33819037  0.33532188  1
  Ag  Ag21  1  0.84447165  0.66698394  0.50750385  1
  Ag  Ag22  1  0.49560836  0.17184072  -0.00607597  1
  Ag  Ag23  1  0.33332147  0.84166981  0.83015807  1
  Ag  Ag24  1  0.65894557  0.32840356  0.33563715  1
  Ag  Ag25  1  0.00166375  0.65443110  -0.00681955  1
  Ag  Ag26  1  0.65733858  0.33365596  -0.00086868  1
  Ag  Ag27  1  0.50516251  0.16910604  0.66759989  1
  Ag  Ag28  1  0.50316673  0.16843602  0.34134754  1
  Ag  Ag29  1  0.66400743  0.16874116  0.51148293  1
  Ag  Ag30  1  0.33012104  0.33514987  -0.00285921  1
  Ag  Ag31  1  0.01046011  0.00354065  -0.00573732  1
  Ag  Ag32  1  0.17111591  0.17221981  -0.00100570  1
  Ag  Ag33  1  0.66401708  0.49710042  0.16466281  1
  Ag  Ag34  1  0.33123144  0.49931561  0.83464579  1
  Ag  Ag35  1  0.00409267  0.82677425  0.50324825  1
  Ag  Ag36  1  0.01160113  0.33734604  -0.00205164  1
  Ag  Ag37  1  0.50004391  0.83905216  0.34205557  1
  Ag  Ag38  1  0.00932329  -0.00017239  0.67035538  1
  Ag  Ag39  1  0.67003221  0.66527612  0.66611132  1
  Ag  Ag40  1  0.33413904  0.33797194  0.34145862  1
  Ag  Ag41  1  0.16829249  0.49024410  -0.00017230  1
  Ag  Ag42  1  0.33451450  0.00190929  0.67191948  1
  Ag  Ag43  1  0.16675611  0.33376924  0.15878898  1
  Ag  Ag44  1  0.81981324  0.16842548  0.66773497  1
  Ag  Ag45  1  0.33201699  0.49557307  0.50382103  1
  Ag  Ag46  1  0.16511532  0.00409703  0.15467205  1
  Ag  Ag47  1  0.00472812  0.66027790  0.34520619  1
  Ag  Ag48  1  0.16579752  0.00050103  0.51054671  1
  Ag  Ag49  1  0.49089212  0.49038621  -0.00577535  1
  Ag  Ag50  1  0.65695827  0.32537165  0.66737609  1
  Ag  Ag51  1  0.49111027  0.00208133  0.82861578  1
  Ag  Ag52  1  0.66244619  0.00916268  0.33697668  1
  Ag  Ag53  1  0.16897201  0.84029980  0.66441930  1
  Sb  Sb54  1  0.50187589  0.66786773  0.82970575  1
  Sb  Sb55  1  0.00467765  0.83074823  0.82770517  1
  Sb  Sb56  1  0.83543221  -0.00198709  0.50093813  1
  Sb  Sb57  1  0.83908068  0.49753405  -0.00165975  1
  Sb  Sb58  1  0.66260486  0.83673101  0.83239393  1
  Sb  Sb59  1  0.82904147  0.83352245  0.33413810  1
  Sb  Sb60  1  0.00141176  0.17178411  0.16509585  1
  Sb  Sb61  1  0.66065333  0.49412498  0.50040672  1
  Sb  Sb62  1  -0.00188533  0.16629565  0.50310427  1
  Sb  Sb63  1  0.17061660  0.49996057  0.67086759  1
  Sb  Sb64  1  0.83437559  0.33667782  0.50678176  1
  Sb  Sb65  1  0.49587443  0.00635709  0.50824581  1
  Sb  Sb66  1  0.82732837  0.16811433  0.33955412  1
  Sb  Sb67  1  0.33791447  0.17377028  0.50195690  1
  Sb  Sb68  1  0.49665620  0.49594901  0.33381590  1
  Sb  Sb69  1  0.16335164  0.66858242  0.82928827  1
  Sb  Sb70  1  0.16451795  0.66333750  0.17021696  1
  Sb  Sb71  1  0.33568277  0.83047848  0.16372084  1
  Sb  Sb72  1  0.50031725  0.66463348  0.16731934  1
  Sb  Sb73  1  0.17093021  0.83329487  0.33917838  1
  Sb  Sb74  1  -0.00097389  0.00112726  0.33414421  1
  Sb  Sb75  1  0.16784517  0.49664837  0.32894692  1
  Sb  Sb76  1  0.17082736  0.16319332  0.67101901  1
  Sb  Sb77  1  0.83509795  0.00208101  0.83329909  1
  Sb  Sb78  1  0.49676361  0.66128652  0.50271476  1
  Sb  Sb79  1  0.33775302  0.00330835  0.33553509  1
  Sb  Sb80  1  0.16541461  0.32935291  0.83448037  1
  Sb  Sb81  1  -0.00102060  0.83065254  0.16996611  1
  Sb  Sb82  1  0.83721843  0.33050221  0.16255637  1
  Sb  Sb83  1  -0.00327598  0.17179638  0.83232241  1
  Sb  Sb84  1  0.83426907  0.83419984  -0.00019501  1
  Sb  Sb85  1  0.83553068  0.66768268  0.16635504  1
  Sb  Sb86  1  0.49838770  0.83622749  -0.00375321  1
  Sb  Sb87  1  0.50122397  0.32735317  0.83038764  1
  Sb  Sb88  1  0.49854677  0.00066544  0.16327074  1
  Sb  Sb89  1  0.83489276  0.83379426  0.66640388  1
  Sb  Sb90  1  0.17178967  0.17039026  0.33113385  1
  Sb  Sb91  1  0.66614150  0.17034585  0.16619254  1
  Sb  Sb92  1  0.83486254  0.49887447  0.33357766  1
  Sb  Sb93  1  0.00707338  0.50222525  0.50296458  1
  Sb  Sb94  1  0.49369435  0.33416647  0.16714864  1
  Sb  Sb95  1  0.66451566  0.00653798  -0.00102050  1
  Sb  Sb96  1  0.33891557  0.16644128  0.83372750  1
  Sb  Sb97  1  0.67083944  0.65840881  -0.00444183  1
  Sb  Sb98  1  0.32998281  0.83068088  0.50562783  1
  Sb  Sb99  1  0.33283854  0.17291295  0.16352187  1
  Sb  Sb100  1  0.33147731  0.66509816  0.66412853  1
  Sb  Sb101  1  0.83074699  0.49801065  0.66810065  1
  Sb  Sb102  1  0.66757101  0.83651411  0.49973989  1
  Sb  Sb103  1  0.66628805  0.66483855  0.33803870  1
  Sb  Sb104  1  0.83359575  0.16924156  -0.00556958  1
  Sb  Sb105  1  0.32836700  0.65915052  0.00221478  1
  Sb  Sb106  1  0.66431858  0.49265413  0.83486503  1
  Sb  Sb107  1  0.16704558  0.83643679  -0.00595915  1
  Te  Te108  1  0.16656318  0.16685921  0.16148111  1
  Te  Te109  1  0.16658688  0.16932677  0.49962828  1
  Te  Te110  1  0.16372609  0.15843334  0.84036003  1
  Te  Te111  1  0.16649483  0.49720628  0.16149409  1
  Te  Te112  1  0.17287452  0.49630239  0.50207268  1
  Te  Te113  1  0.16671709  0.50087633  0.83868143  1
  Te  Te114  1  0.16755870  0.83892137  0.16804520  1
  Te  Te115  1  0.16392556  0.83395652  0.50482126  1
  Te  Te116  1  0.17195438  0.83765733  0.82594029  1
  Te  Te117  1  0.50019984  0.16609455  0.16256345  1
  Te  Te118  1  0.50371762  0.17147586  0.50092663  1
  Te  Te119  1  0.50450733  0.16227248  0.83390072  1
  Te  Te120  1  0.49885233  0.49973328  0.16133842  1
  Te  Te121  1  0.49333961  0.49358948  0.50506941  1
  Te  Te122  1  0.49665637  0.50102158  0.83293302  1
  Te  Te123  1  0.50409660  0.83287233  0.16879505  1
  Te  Te124  1  0.49948757  0.83338405  0.50175815  1
  Te  Te125  1  0.49494425  0.83857413  0.82856614  1
  Te  Te126  1  0.83388766  0.15925412  0.16749499  1
  Te  Te127  1  0.82641448  0.16674641  0.50739357  1
  Te  Te128  1  0.82725821  0.17057341  0.82786345  1
  Te  Te129  1  0.83024659  0.49929751  0.16581332  1
  Te  Te130  1  0.83258199  0.50830030  0.50071449  1
  Te  Te131  1  0.83786610  0.49908867  0.83302484  1
  Te  Te132  1  0.82762545  0.83909454  0.16727593  1
  Te  Te133  1  0.83997057  0.82735279  0.49961649  1
  Te  Te134  1  0.83208154  0.82565732  0.83347600  1
  Te  Te135  1  0.16814609  -0.00176950  -0.00192804  1
  Te  Te136  1  0.16692353  0.00241623  0.33431083  1
  Te  Te137  1  0.16845901  0.00086760  0.66822477  1
  Te  Te138  1  0.16867072  0.33164925  -0.00151541  1
  Te  Te139  1  0.16775763  0.33157398  0.33622848  1
  Te  Te140  1  0.16605760  0.33143387  0.66505829  1
  Te  Te141  1  0.15996533  0.66590908  0.00139806  1
  Te  Te142  1  0.16590803  0.66729314  0.33815830  1
  Te  Te143  1  0.16255676  0.66946083  0.66195474  1
  Te  Te144  1  0.49512072  0.00398727  -0.00573924  1
  Te  Te145  1  0.50324019  0.00218283  0.33387950  1
  Te  Te146  1  0.49892513  0.00128142  0.66712665  1
  Te  Te147  1  0.49773595  0.33302257  0.00024348  1
  Te  Te148  1  0.49929948  0.33142209  0.33398406  1
  Te  Te149  1  0.49924066  0.33096333  0.66653638  1
  Te  Te150  1  0.50043614  0.66220447  -0.00141097  1
  Te  Te151  1  0.49615905  0.66950261  0.33522753  1
  Te  Te152  1  0.50317294  0.67010607  0.66621947  1
  Te  Te153  1  0.83725216  0.00192548  0.00329696  1
  Te  Te154  1  0.82710053  0.00080684  0.32937374  1
  Te  Te155  1  0.83146120  0.00372777  0.66645549  1
  Te  Te156  1  0.83307104  0.33194326  -0.00585123  1
  Te  Te157  1  0.83329603  0.33244747  0.33328488  1
  Te  Te158  1  0.83786836  0.33173114  0.66968124  1
  Te  Te159  1  0.84011674  0.66676551  -0.00427007  1
  Te  Te160  1  0.83900667  0.66677904  0.33656157  1
  Te  Te161  1  0.83616080  0.66701286  0.66713725  1
  Te  Te162  1  0.00235034  0.16584173  -0.00065568  1
  Te  Te163  1  -0.00162076  0.17488399  0.33429044  1
  Te  Te164  1  0.00092889  0.16738541  0.66717747  1
  Te  Te165  1  0.00229534  0.49733519  -0.00127253  1
  Te  Te166  1  0.00114974  0.49863448  0.33049456  1
  Te  Te167  1  0.00063451  0.49812007  0.67068357  1
  Te  Te168  1  0.00028962  0.83933364  0.00068686  1
  Te  Te169  1  0.00095638  0.83005836  0.33859539  1
  Te  Te170  1  0.00137882  0.83545951  0.66355543  1
  Te  Te171  1  0.33364008  0.16833163  -0.00093399  1
  Te  Te172  1  0.34188510  0.17308432  0.33265481  1
  Te  Te173  1  0.33957583  0.16891849  0.66744323  1
  Te  Te174  1  0.33169540  0.49858269  -0.00026687  1
  Te  Te175  1  0.33376536  0.49741061  0.33056226  1
  Te  Te176  1  0.33590057  0.49768204  0.66917995  1
  Te  Te177  1  0.33467415  0.83367047  -0.00562542  1
  Te  Te178  1  0.33988640  0.83264689  0.33262604  1
  Te  Te179  1  0.33305282  0.83296851  0.66983556  1
  Te  Te180  1  0.66301814  0.17287670  -0.00189879  1
  Te  Te181  1  0.66245218  0.16841057  0.33219992  1
  Te  Te182  1  0.66401263  0.16808407  0.66741544  1
  Te  Te183  1  0.66178861  0.49492087  0.00222654  1
  Te  Te184  1  0.66522540  0.49527102  0.32906703  1
  Te  Te185  1  0.66017827  0.50079374  0.66696879  1
  Te  Te186  1  0.66551962  0.83233730  0.00612269  1
  Te  Te187  1  0.66135009  0.83319406  0.33164418  1
  Te  Te188  1  0.66245805  0.82997702  0.66673126  1
  Te  Te189  1  0.00275779  -0.00125968  0.16680705  1
  Te  Te190  1  0.00389862  -0.00212040  0.50312005  1
  Te  Te191  1  0.00066041  -0.00105497  0.83137990  1
  Te  Te192  1  0.00296738  0.33779178  0.16461823  1
  Te  Te193  1  0.00240982  0.33490320  0.50034012  1
  Te  Te194  1  -0.00084024  0.33665839  0.83248069  1
  Te  Te195  1  -0.00155700  0.66165504  0.16507280  1
  Te  Te196  1  0.00360216  0.66472022  0.50237638  1
  Te  Te197  1  -0.00128483  0.66429665  0.83169663  1
  Te  Te198  1  0.32713234  -0.00190351  0.16569386  1
  Te  Te199  1  0.32578453  -0.00055329  0.50420685  1
  Te  Te200  1  0.33315980  0.00231246  0.83167550  1
  Te  Te201  1  0.32723996  0.33778589  0.16272478  1
  Te  Te202  1  0.33332512  0.33532629  0.50160693  1
  Te  Te203  1  0.33213477  0.33842398  0.83245112  1
  Te  Te204  1  0.33208172  0.66073877  0.17340745  1
  Te  Te205  1  0.32875475  0.66141620  0.49600863  1
  Te  Te206  1  0.33267501  0.66125244  0.83419421  1
  Te  Te207  1  0.66624032  -0.00227023  0.16741020  1
  Te  Te208  1  0.66699182  0.00353620  0.50040340  1
  Te  Te209  1  0.66677220  0.00409218  0.82952467  1
  Te  Te210  1  0.66947146  0.33707929  0.16608563  1
  Te  Te211  1  0.66711762  0.33052838  0.50086542  1
  Te  Te212  1  0.66960924  0.33105278  0.83058056  1
  Te  Te213  1  0.66884032  0.66424502  0.16683589  1
  Te  Te214  1  0.66816769  0.66641113  0.50494324  1
  Te  Te215  1  0.67274377  0.66665799  0.82811758  1
