# generated using pymatgen
data_AgSbTe2
_symmetry_space_group_name_H-M   'P 1'
_cell_length_a   18.33130984
_cell_length_b   18.33634327
_cell_length_c   18.33756391
_cell_angle_alpha   90.00058421
_cell_angle_beta   89.99949721
_cell_angle_gamma   89.99983514
_symmetry_Int_Tables_number   1
_chemical_formula_structural   AgSbTe2
_chemical_formula_sum   'Ag54 Sb54 Te108'
_cell_volume   6163.79049992
_cell_formula_units_Z   54
loop_
 _symmetry_equiv_pos_site_id
 _symmetry_equiv_pos_as_xyz
  1  'x, y, z'
loop_
 _atom_site_type_symbol
 _atom_site_label
 _atom_site_symmetry_multiplicity
 _atom_site_fract_x
 _atom_site_fract_y
 _atom_site_fract_z
 _atom_site_occupancy
  Ag  Ag0  1  0.66656640  0.50248447  0.50921873  1
  Ag  Ag1  1  0.17611719  0.33041714  0.83240495  1
  Ag  Ag2  1  -0.00462084  0.16260318  0.16186020  1
  Ag  Ag3  1  0.49527492  0.16431291  0.67260757  1
  Ag  Ag4  1  0.65532774  0.17582856  0.83269679  1
  Ag  Ag5  1  0.49742683  0.16600972  0.33587724  1
  Ag  Ag6  1  0.34349404  0.66780293  0.66848492  1
  Ag  Ag7  1  0.33584540  0.66379972  0.33318123  1
  Ag  Ag8  1  0.83199279  0.33436260  0.15814431  1
  Ag  Ag9  1  -0.00267320  0.83608172  0.16589324  1
  Ag  Ag10  1  0.83207809  0.17761517  -0.00379818  1
  Ag  Ag11  1  0.50209202  0.33395884  0.15413512  1
  Ag  Ag12  1  0.66244021  0.33623651  0.67618517  1
  Ag  Ag13  1  0.33854134  0.00843520  0.67120805  1
  Ag  Ag14  1  0.33509694  0.83723472  0.83046374  1
  Ag  Ag15  1  0.49850996  0.83924333  0.66592373  1
  Ag  Ag16  1  0.00238445  0.00742233  0.66909709  1
  Ag  Ag17  1  0.83543933  0.50268322  0.32443448  1
  Ag  Ag18  1  0.82646292  0.66337828  0.50703514  1
  Ag  Ag19  1  -0.00318227  0.00790227  0.00383093  1
  Ag  Ag20  1  0.16650195  0.50377302  0.33537212  1
  Ag  Ag21  1  0.17364506  0.82664828  0.32987029  1
  Ag  Ag22  1  0.50953041  0.48989569  -0.00063792  1
  Ag  Ag23  1  0.33881153  0.32475206  0.67571152  1
  Ag  Ag24  1  -0.00438152  0.32660197  0.67412141  1
  Ag  Ag25  1  0.49795021  0.00171295  0.51141108  1
  Ag  Ag26  1  0.49869698  0.66417394  0.16378579  1
  Ag  Ag27  1  0.66062756  0.33894127  -0.00563262  1
  Ag  Ag28  1  0.83197501  0.16743437  0.67288020  1
  Ag  Ag29  1  0.66654260  0.49419030  0.83391631  1
  Ag  Ag30  1  0.00012272  0.00127811  0.32289575  1
  Ag  Ag31  1  0.33923813  0.66007548  -0.00081135  1
  Ag  Ag32  1  0.50388710  0.17805803  -0.01543852  1
  Ag  Ag33  1  0.16881419  0.66659275  0.16661384  1
  Ag  Ag34  1  0.82797076  0.66661553  0.83900547  1
  Ag  Ag35  1  0.84075792  0.00436229  0.16356147  1
  Ag  Ag36  1  -0.00747525  0.33175976  -0.00345397  1
  Ag  Ag37  1  0.33530608  0.33544005  0.33256168  1
  Ag  Ag38  1  0.83397877  0.66362499  0.16068950  1
  Ag  Ag39  1  0.16885790  0.49757397  0.66827617  1
  Ag  Ag40  1  0.66196630  0.66034790  0.67147640  1
  Ag  Ag41  1  0.82880732  0.83363039  0.66683528  1
  Ag  Ag42  1  0.49465335  0.83201276  0.33886735  1
  Ag  Ag43  1  0.49775922  0.32568646  0.83950965  1
  Ag  Ag44  1  0.50263573  0.66920355  0.50408296  1
  Ag  Ag45  1  -0.00017932  0.16494780  0.50585394  1
  Ag  Ag46  1  0.34009125  0.16856196  0.51200934  1
  Ag  Ag47  1  -0.01166421  0.66367354  0.00363329  1
  Ag  Ag48  1  0.67030179  0.65723732  -0.00678165  1
  Ag  Ag49  1  0.34150015  0.16847965  0.82892267  1
  Ag  Ag50  1  0.34654388  0.33597413  -0.00720692  1
  Ag  Ag51  1  0.49393157  0.01263968  0.82772527  1
  Ag  Ag52  1  0.17333509  0.00701053  0.83067453  1
  Ag  Ag53  1  0.82774293  0.49481050  0.00350297  1
  Sb  Sb54  1  0.16894418  0.17150122  0.66977781  1
  Sb  Sb55  1  0.16010555  -0.00490223  0.16338510  1
  Sb  Sb56  1  0.33056657  -0.00080677  0.33905022  1
  Sb  Sb57  1  0.16974551  0.00130165  0.50529679  1
  Sb  Sb58  1  0.50225243  0.66450352  0.83401167  1
  Sb  Sb59  1  0.83373741  -0.00173456  0.83461161  1
  Sb  Sb60  1  0.83227605  0.33668574  0.49950546  1
  Sb  Sb61  1  0.16690089  0.33812235  0.16175890  1
  Sb  Sb62  1  -0.00337995  0.66608022  0.67110956  1
  Sb  Sb63  1  0.49911720  0.33290062  0.50380587  1
  Sb  Sb64  1  0.33877099  0.49725445  0.50144959  1
  Sb  Sb65  1  0.33397397  0.50159467  0.16588236  1
  Sb  Sb66  1  0.66965991  0.16925328  0.15927450  1
  Sb  Sb67  1  0.33327827  0.16933760  0.16302853  1
  Sb  Sb68  1  0.33100663  0.82975440  0.16402220  1
  Sb  Sb69  1  -0.00406930  0.49699226  0.50135899  1
  Sb  Sb70  1  0.16954447  0.66575366  0.49662548  1
  Sb  Sb71  1  0.00315197  0.32941197  0.33074379  1
  Sb  Sb72  1  0.49813775  0.83185736  -0.00369212  1
  Sb  Sb73  1  0.66262068  0.33602167  0.33028673  1
  Sb  Sb74  1  0.83195065  0.82766205  0.33492489  1
  Sb  Sb75  1  0.16678315  0.49954485  -0.00211651  1
  Sb  Sb76  1  0.83432506  0.82936761  -0.00332173  1
  Sb  Sb77  1  0.67011234  0.82985842  0.16606851  1
  Sb  Sb78  1  0.00375357  0.83569044  0.83653957  1
  Sb  Sb79  1  0.66323666  0.17273622  0.50929203  1
  Sb  Sb80  1  0.49995298  0.50039773  0.32966179  1
  Sb  Sb81  1  0.16580049  0.83139302  0.00279493  1
  Sb  Sb82  1  0.66795097  0.50038870  0.16158800  1
  Sb  Sb83  1  0.66221736  0.83241268  0.83085215  1
  Sb  Sb84  1  0.16934401  0.16767644  0.33264512  1
  Sb  Sb85  1  0.83132648  0.17063665  0.33126170  1
  Sb  Sb86  1  0.66250026  0.00290950  0.66784788  1
  Sb  Sb87  1  -0.00125202  0.16808832  0.83373752  1
  Sb  Sb88  1  0.16739749  0.66390889  0.83690059  1
  Sb  Sb89  1  0.82649316  0.33486097  0.83908262  1
  Sb  Sb90  1  0.67023688  0.00400210  -0.00299089  1
  Sb  Sb91  1  0.33892587  0.49548792  0.83251431  1
  Sb  Sb92  1  -0.00257026  0.50032123  0.16536526  1
  Sb  Sb93  1  0.66197546  0.66328104  0.33438130  1
  Sb  Sb94  1  -0.00078951  0.83701409  0.49745518  1
  Sb  Sb95  1  0.83090130  -0.00188030  0.50043021  1
  Sb  Sb96  1  0.16462924  0.16810816  -0.00203534  1
  Sb  Sb97  1  0.50346285  0.00136979  0.16515615  1
  Sb  Sb98  1  0.66412984  0.82751269  0.50328737  1
  Sb  Sb99  1  0.33710701  0.83523623  0.50503537  1
  Sb  Sb100  1  0.49936627  0.49759018  0.67148218  1
  Sb  Sb101  1  0.33088318  0.00416089  -0.00937620  1
  Sb  Sb102  1  0.16987443  0.83076769  0.66446706  1
  Sb  Sb103  1  -0.00571825  0.49718116  0.83449666  1
  Sb  Sb104  1  0.16764016  0.33372569  0.50710608  1
  Sb  Sb105  1  0.00371366  0.67083321  0.32663890  1
  Sb  Sb106  1  0.83195064  0.49778897  0.67061223  1
  Sb  Sb107  1  0.66834074  0.00144288  0.33329273  1
  Te  Te108  1  0.15760824  0.16746052  0.16597524  1
  Te  Te109  1  0.16346902  0.16642278  0.49908203  1
  Te  Te110  1  0.17544267  0.16769119  0.83476106  1
  Te  Te111  1  0.16513940  0.50627961  0.17214994  1
  Te  Te112  1  0.16600069  0.50077144  0.49614185  1
  Te  Te113  1  0.16519023  0.49529294  0.82980504  1
  Te  Te114  1  0.16164584  0.82801316  0.17150013  1
  Te  Te115  1  0.16710604  0.83347121  0.48935932  1
  Te  Te116  1  0.17354206  0.83539445  0.83218299  1
  Te  Te117  1  0.50157929  0.16873786  0.17182508  1
  Te  Te118  1  0.49884817  0.16594963  0.50007703  1
  Te  Te119  1  0.49937137  0.16779476  0.82990806  1
  Te  Te120  1  0.50048719  0.49953951  0.16149466  1
  Te  Te121  1  0.50557515  0.50767422  0.49817134  1
  Te  Te122  1  0.50615416  0.49506535  0.83858424  1
  Te  Te123  1  0.50041039  0.83195256  0.16989443  1
  Te  Te124  1  0.49925923  0.83076594  0.50303478  1
  Te  Te125  1  0.49540553  0.83500453  0.82799727  1
  Te  Te126  1  0.83560200  0.16886692  0.16553805  1
  Te  Te127  1  0.83571266  0.16695000  0.50296853  1
  Te  Te128  1  0.83103171  0.16459537  0.83308736  1
  Te  Te129  1  0.83323746  0.49995047  0.16447847  1
  Te  Te130  1  0.82927390  0.50446847  0.49994891  1
  Te  Te131  1  0.82823775  0.50597497  0.83821377  1
  Te  Te132  1  0.83708703  0.82962903  0.16788336  1
  Te  Te133  1  0.83236330  0.82691548  0.50587494  1
  Te  Te134  1  0.83446316  0.82961840  0.82598172  1
  Te  Te135  1  0.15998163  -0.00028931  -0.00635962  1
  Te  Te136  1  0.16157895  -0.00184841  0.33351291  1
  Te  Te137  1  0.16733421  -0.00334888  0.67117001  1
  Te  Te138  1  0.16244264  0.33514888  -0.00512796  1
  Te  Te139  1  0.17215282  0.33718731  0.33146761  1
  Te  Te140  1  0.17131421  0.33757993  0.67115608  1
  Te  Te141  1  0.17261138  0.66428757  0.00523545  1
  Te  Te142  1  0.17054599  0.66608459  0.33101613  1
  Te  Te143  1  0.16652303  0.66187648  0.66557232  1
  Te  Te144  1  0.50057757  0.00356998  -0.00247893  1
  Te  Te145  1  0.49947651  -0.00133789  0.33218794  1
  Te  Te146  1  0.49964739  0.00017866  0.66795263  1
  Te  Te147  1  0.50206669  0.33285391  -0.00062824  1
  Te  Te148  1  0.49575374  0.33243008  0.33483043  1
  Te  Te149  1  0.49951172  0.33137097  0.66845926  1
  Te  Te150  1  0.49826372  0.66831411  0.00164835  1
  Te  Te151  1  0.49646407  0.66696797  0.32979485  1
  Te  Te152  1  0.50187038  0.66394242  0.66708803  1
  Te  Te153  1  0.83766692  0.00006803  0.00210171  1
  Te  Te154  1  0.83844857  -0.00129498  0.33098932  1
  Te  Te155  1  0.83453560  0.00107624  0.66646573  1
  Te  Te156  1  0.83427579  0.33377746  0.00045945  1
  Te  Te157  1  0.83320779  0.33890317  0.32679110  1
  Te  Te158  1  0.83483864  0.32945387  0.66716203  1
  Te  Te159  1  0.83126930  0.66767196  -0.00030719  1
  Te  Te160  1  0.83318601  0.66378452  0.32838550  1
  Te  Te161  1  0.83258093  0.66555734  0.66627353  1
  Te  Te162  1  -0.00337705  0.16757744  -0.00043872  1
  Te  Te163  1  -0.00063042  0.16223974  0.33483719  1
  Te  Te164  1  0.00062713  0.16770793  0.66807532  1
  Te  Te165  1  -0.00431887  0.49897717  -0.00012766  1
  Te  Te166  1  -0.00049191  0.49922449  0.33490995  1
  Te  Te167  1  0.00492782  0.49382677  0.66684285  1
  Te  Te168  1  0.00000940  0.83057189  0.00439020  1
  Te  Te169  1  -0.00063220  0.83919230  0.32995738  1
  Te  Te170  1  -0.00048262  0.83553713  0.66661669  1
  Te  Te171  1  0.33791995  0.17156803  -0.00331315  1
  Te  Te172  1  0.33610564  0.16855294  0.33135241  1
  Te  Te173  1  0.33327863  0.16719357  0.66778014  1
  Te  Te174  1  0.33450975  0.49901096  -0.00086191  1
  Te  Te175  1  0.33146074  0.50051768  0.33493332  1
  Te  Te176  1  0.33094424  0.50361753  0.66555147  1
  Te  Te177  1  0.33264332  0.82931804  -0.00655513  1
  Te  Te178  1  0.33424463  0.83111032  0.33333443  1
  Te  Te179  1  0.33547080  0.82845384  0.66943539  1
  Te  Te180  1  0.66793961  0.16912946  -0.00536458  1
  Te  Te181  1  0.65985622  0.16805723  0.33606329  1
  Te  Te182  1  0.66797699  0.16964313  0.67103053  1
  Te  Te183  1  0.66767070  0.50021886  -0.00183091  1
  Te  Te184  1  0.67354457  0.49865616  0.33993108  1
  Te  Te185  1  0.66683915  0.49906459  0.67099004  1
  Te  Te186  1  0.66598851  0.82441040  -0.00175030  1
  Te  Te187  1  0.65723560  0.83365992  0.33372663  1
  Te  Te188  1  0.66547006  0.82620124  0.66732420  1
  Te  Te189  1  -0.00159126  0.00019352  0.16378181  1
  Te  Te190  1  -0.00055034  0.00399564  0.50891227  1
  Te  Te191  1  0.00223769  0.00041395  0.83093410  1
  Te  Te192  1  -0.00150570  0.32870796  0.16334940  1
  Te  Te193  1  0.00004467  0.32681343  0.50330526  1
  Te  Te194  1  0.00431622  0.33238647  0.83291626  1
  Te  Te195  1  -0.00287156  0.66813770  0.16304552  1
  Te  Te196  1  -0.00584220  0.66710680  0.49960757  1
  Te  Te197  1  -0.00235002  0.66702810  0.84156271  1
  Te  Te198  1  0.33177051  -0.00095546  0.16495798  1
  Te  Te199  1  0.33760475  0.00616312  0.50645854  1
  Te  Te200  1  0.33358851  0.00172324  0.83060166  1
  Te  Te201  1  0.33700900  0.33325743  0.16665385  1
  Te  Te202  1  0.33305546  0.32831128  0.49751623  1
  Te  Te203  1  0.33561443  0.33368908  0.83375752  1
  Te  Te204  1  0.33603746  0.66766218  0.16708803  1
  Te  Te205  1  0.33746112  0.66683346  0.50076280  1
  Te  Te206  1  0.33278203  0.66642683  0.83176268  1
  Te  Te207  1  0.67829652  -0.00128231  0.16577016  1
  Te  Te208  1  0.65846896  0.00067175  0.49919102  1
  Te  Te209  1  0.66071652  0.00319884  0.83350950  1
  Te  Te210  1  0.66490903  0.33329827  0.16218268  1
  Te  Te211  1  0.66715674  0.34061978  0.50611938  1
  Te  Te212  1  0.66688947  0.33400089  0.83341648  1
  Te  Te213  1  0.66574546  0.66697003  0.16283811  1
  Te  Te214  1  0.66535567  0.66280727  0.50116823  1
  Te  Te215  1  0.66785991  0.66647229  0.83219363  1
