# generated using pymatgen
data_AgSbTe2
_symmetry_space_group_name_H-M   'P 1'
_cell_length_a   18.33323566
_cell_length_b   18.33665805
_cell_length_c   18.33843893
_cell_angle_alpha   89.99896491
_cell_angle_beta   90.00057791
_cell_angle_gamma   89.99732246
_symmetry_Int_Tables_number   1
_chemical_formula_structural   AgSbTe2
_chemical_formula_sum   'Ag54 Sb54 Te108'
_cell_volume   6164.83801471
_cell_formula_units_Z   54
loop_
 _symmetry_equiv_pos_site_id
 _symmetry_equiv_pos_as_xyz
  1  'x, y, z'
loop_
 _atom_site_type_symbol
 _atom_site_label
 _atom_site_symmetry_multiplicity
 _atom_site_fract_x
 _atom_site_fract_y
 _atom_site_fract_z
 _atom_site_occupancy
  Ag  Ag0  1  -0.01012380  0.82434337  0.83280222  1
  Ag  Ag1  1  -0.00862221  0.00832369  0.67000466  1
  Ag  Ag2  1  0.16571363  0.01094421  0.16947053  1
  Ag  Ag3  1  0.50585890  0.66407453  0.50151916  1
  Ag  Ag4  1  -0.00520616  0.33242350  0.67625841  1
  Ag  Ag5  1  -0.00964028  0.66390977  0.67606940  1
  Ag  Ag6  1  0.83128446  0.50711415  0.67477129  1
  Ag  Ag7  1  0.15630824  0.16758094  0.66698994  1
  Ag  Ag8  1  0.49901358  0.17333185  0.32814227  1
  Ag  Ag9  1  0.83670087  0.32980427  0.15299899  1
  Ag  Ag10  1  0.49911915  0.49520844  0.33455500  1
  Ag  Ag11  1  0.33252321  0.82840688  0.16337057  1
  Ag  Ag12  1  0.33090984  0.65947233  0.00059530  1
  Ag  Ag13  1  -0.00444750  0.33494956  -0.00476482  1
  Ag  Ag14  1  0.33167241  0.49906696  0.84024461  1
  Ag  Ag15  1  0.83632047  0.17680701  0.00013059  1
  Ag  Ag16  1  0.17404640  0.49054395  0.33102932  1
  Ag  Ag17  1  0.16798457  0.00438017  0.49812032  1
  Ag  Ag18  1  0.66522631  0.49596766  0.17044096  1
  Ag  Ag19  1  0.16655498  0.17043773  0.32638753  1
  Ag  Ag20  1  0.67582749  -0.00802295  0.66704789  1
  Ag  Ag21  1  0.83215322  0.33485676  0.50962619  1
  Ag  Ag22  1  0.83638561  0.33605463  0.83710908  1
  Ag  Ag23  1  -0.00148446  0.16868084  0.16363179  1
  Ag  Ag24  1  0.66826886  0.50251151  0.50237345  1
  Ag  Ag25  1  0.16211922  0.32932696  0.15964598  1
  Ag  Ag26  1  0.33594564  0.50084776  0.16025119  1
  Ag  Ag27  1  0.67922079  0.83224703  0.82728038  1
  Ag  Ag28  1  0.49910972  0.00427902  0.16680473  1
  Ag  Ag29  1  0.33392283  0.66285760  0.32948428  1
  Ag  Ag30  1  0.33324389  0.82547837  0.83629938  1
  Ag  Ag31  1  0.83415928  0.01149476  0.15787985  1
  Ag  Ag32  1  0.15567615  0.33302964  0.84329489  1
  Ag  Ag33  1  0.51084060  0.50015391  0.66471924  1
  Ag  Ag34  1  0.83482605  -0.01073743  0.82911075  1
  Ag  Ag35  1  0.32972821  0.33595496  -0.00179751  1
  Ag  Ag36  1  0.67843102  0.66785766  0.66366764  1
  Ag  Ag37  1  0.33654376  0.83232414  0.50174251  1
  Ag  Ag38  1  0.83735027  0.67413440  0.82693991  1
  Ag  Ag39  1  0.83503784  0.49026898  -0.00903913  1
  Ag  Ag40  1  0.83440330  0.17137338  0.32575825  1
  Ag  Ag41  1  0.82545137  0.66200913  0.51331952  1
  Ag  Ag42  1  0.66625568  0.82438802  0.50748380  1
  Ag  Ag43  1  0.50319724  0.33552293  0.83695263  1
  Ag  Ag44  1  -0.00807160  0.49904092  0.83337854  1
  Ag  Ag45  1  0.68091990  0.33487279  0.00160660  1
  Ag  Ag46  1  -0.00495940  0.65888773  -0.00603461  1
  Ag  Ag47  1  0.49960835  0.17210882  0.00587396  1
  Ag  Ag48  1  0.32989556  0.16589874  0.49841071  1
  Ag  Ag49  1  0.83752691  0.16951928  0.67244161  1
  Ag  Ag50  1  0.16192007  0.17214664  0.00789555  1
  Ag  Ag51  1  0.83112821  0.82001346  0.67524533  1
  Ag  Ag52  1  0.67004475  0.33513990  0.32618802  1
  Ag  Ag53  1  0.83400670  0.83131516  -0.01340226  1
  Sb  Sb54  1  -0.00267723  0.17326406  0.83614457  1
  Sb  Sb55  1  0.50224684  0.83650043  -0.00105224  1
  Sb  Sb56  1  0.16390122  0.83811982  -0.00181008  1
  Sb  Sb57  1  0.83530829  0.00213721  0.50846828  1
  Sb  Sb58  1  0.16216953  0.32857875  0.49852200  1
  Sb  Sb59  1  0.50275472  0.66120363  0.83009519  1
  Sb  Sb60  1  0.50157698  0.33029703  0.16229864  1
  Sb  Sb61  1  -0.00708032  0.49875627  0.50631877  1
  Sb  Sb62  1  0.16746994  0.66988869  0.50033347  1
  Sb  Sb63  1  0.50500252  0.33782373  0.50195682  1
  Sb  Sb64  1  0.49761947  0.66574981  0.16981158  1
  Sb  Sb65  1  0.00188199  0.16633619  0.50121757  1
  Sb  Sb66  1  0.33862881  0.50111183  0.49929342  1
  Sb  Sb67  1  0.15984434  0.00558155  0.83307922  1
  Sb  Sb68  1  0.17025069  0.83638271  0.33212755  1
  Sb  Sb69  1  0.16515371  0.49173444  0.00183098  1
  Sb  Sb70  1  0.00287049  0.83999805  0.15725878  1
  Sb  Sb71  1  0.16142909  0.49491112  0.66577420  1
  Sb  Sb72  1  0.33175309  0.16982929  0.83274041  1
  Sb  Sb73  1  0.16018341  0.83891818  0.66813873  1
  Sb  Sb74  1  0.67389625  0.17249462  0.16623078  1
  Sb  Sb75  1  0.83375213  0.66184460  0.16189145  1
  Sb  Sb76  1  0.32834555  0.33441654  0.67291421  1
  Sb  Sb77  1  0.66212391  0.65844593  0.34181272  1
  Sb  Sb78  1  0.33257863  -0.00064628  0.66635916  1
  Sb  Sb79  1  0.67148334  0.00539035  -0.00273259  1
  Sb  Sb80  1  -0.00373994  0.00626207  -0.00606933  1
  Sb  Sb81  1  0.33249241  0.66633562  0.66892653  1
  Sb  Sb82  1  0.32914749  0.16993823  0.16852093  1
  Sb  Sb83  1  0.66704482  0.16917057  0.50039138  1
  Sb  Sb84  1  0.83026051  0.49347279  0.33356932  1
  Sb  Sb85  1  0.49788371  -0.00223791  0.49713214  1
  Sb  Sb86  1  0.33566625  0.33668554  0.32854586  1
  Sb  Sb87  1  0.67210133  0.16659154  0.83366909  1
  Sb  Sb88  1  0.66561762  0.82982302  0.16454150  1
  Sb  Sb89  1  -0.00041122  0.49337257  0.16051095  1
  Sb  Sb90  1  0.50893192  0.82796332  0.66721809  1
  Sb  Sb91  1  0.83114898  0.83871120  0.33688980  1
  Sb  Sb92  1  -0.00036599  0.00247125  0.33518606  1
  Sb  Sb93  1  0.50154610  0.49380993  -0.00150666  1
  Sb  Sb94  1  0.50502366  0.00334451  0.83628537  1
  Sb  Sb95  1  0.16878867  0.66253098  0.16491804  1
  Sb  Sb96  1  0.50262845  0.17268595  0.66684071  1
  Sb  Sb97  1  -0.00457570  0.33145822  0.33039495  1
  Sb  Sb98  1  0.66972679  0.66118212  -0.00612116  1
  Sb  Sb99  1  0.16011026  0.66011735  0.83461031  1
  Sb  Sb100  1  0.00241488  0.66246752  0.33347577  1
  Sb  Sb101  1  -0.00334432  0.83309429  0.50961344  1
  Sb  Sb102  1  0.67599700  0.33639596  0.66950914  1
  Sb  Sb103  1  0.67239668  0.50161285  0.83112214  1
  Sb  Sb104  1  0.66806984  0.00617255  0.33575604  1
  Sb  Sb105  1  0.49867399  0.83144757  0.33422140  1
  Sb  Sb106  1  0.33331249  0.00028477  0.33172329  1
  Sb  Sb107  1  0.33232405  0.00247258  0.00202979  1
  Te  Te108  1  0.16788652  0.16826762  0.16716060  1
  Te  Te109  1  0.16814754  0.16419191  0.50000963  1
  Te  Te110  1  0.16716828  0.17210946  0.83086829  1
  Te  Te111  1  0.16987039  0.49561287  0.17069289  1
  Te  Te112  1  0.16691659  0.50012189  0.49377712  1
  Te  Te113  1  0.17091916  0.49319666  0.83206765  1
  Te  Te114  1  0.17220547  0.83967257  0.16599836  1
  Te  Te115  1  0.17047847  0.83883857  0.50000109  1
  Te  Te116  1  0.17518648  0.83531089  0.83289184  1
  Te  Te117  1  0.49828898  0.16473173  0.16777753  1
  Te  Te118  1  0.49532881  0.16686894  0.49715690  1
  Te  Te119  1  0.50029398  0.17201692  0.83723264  1
  Te  Te120  1  0.49871262  0.49896903  0.16998119  1
  Te  Te121  1  0.50398790  0.50293689  0.50004309  1
  Te  Te122  1  0.49708752  0.49663704  0.83065151  1
  Te  Te123  1  0.49587325  0.83896860  0.16671072  1
  Te  Te124  1  0.49914463  0.82964085  0.50058879  1
  Te  Te125  1  0.49148779  0.83389695  0.83390295  1
  Te  Te126  1  0.83412322  0.16896047  0.16421094  1
  Te  Te127  1  0.83386094  0.16947024  0.49836411  1
  Te  Te128  1  0.83369036  0.17336839  0.83643131  1
  Te  Te129  1  0.83166719  0.49470250  0.16540076  1
  Te  Te130  1  0.82880990  0.49995512  0.49951283  1
  Te  Te131  1  0.83195161  0.49722886  0.83350377  1
  Te  Te132  1  0.83295687  0.83592964  0.16701917  1
  Te  Te133  1  0.82942171  0.83161928  0.50370650  1
  Te  Te134  1  0.83479529  0.83405182  0.83036412  1
  Te  Te135  1  0.16431255  0.00929077  0.00413481  1
  Te  Te136  1  0.16638131  0.00629977  0.33235717  1
  Te  Te137  1  0.16449219  0.00679938  0.66465343  1
  Te  Te138  1  0.16796824  0.33088450  0.00027147  1
  Te  Te139  1  0.16581854  0.33023777  0.33154057  1
  Te  Te140  1  0.16052549  0.32833513  0.66659557  1
  Te  Te141  1  0.17012658  0.66899290  0.00001076  1
  Te  Te142  1  0.17169012  0.66447128  0.33282912  1
  Te  Te143  1  0.15808527  0.66681260  0.66608927  1
  Te  Te144  1  0.50145292  0.00775882  0.00527744  1
  Te  Te145  1  0.50116620  0.00698580  0.32823673  1
  Te  Te146  1  0.50581629  0.00211283  0.66683717  1
  Te  Te147  1  0.49136935  0.33015969  -0.00309721  1
  Te  Te148  1  0.50376268  0.33355568  0.33371589  1
  Te  Te149  1  0.50071075  0.33927271  0.67195580  1
  Te  Te150  1  0.49505783  0.66699253  -0.00010677  1
  Te  Te151  1  0.49545211  0.66196913  0.33757473  1
  Te  Te152  1  0.50016253  0.66026309  0.66240178  1
  Te  Te153  1  0.83374847  -0.00272580  -0.00152182  1
  Te  Te154  1  0.83322914  0.00781171  0.32925212  1
  Te  Te155  1  0.83412803  0.00868965  0.66787770  1
  Te  Te156  1  0.83618018  0.33437026  -0.00194345  1
  Te  Te157  1  0.83040168  0.32989516  0.33526949  1
  Te  Te158  1  0.83437541  0.32930203  0.66770249  1
  Te  Te159  1  0.83467834  0.66908785  -0.00256590  1
  Te  Te160  1  0.83460027  0.66764578  0.33455837  1
  Te  Te161  1  0.83455712  0.66443643  0.66774875  1
  Te  Te162  1  -0.00116851  0.17093847  0.00255018  1
  Te  Te163  1  0.00020095  0.16645838  0.32806662  1
  Te  Te164  1  -0.00117894  0.16758389  0.66717304  1
  Te  Te165  1  -0.00136356  0.49871438  -0.00381320  1
  Te  Te166  1  0.00823749  0.49953141  0.33245501  1
  Te  Te167  1  -0.00398312  0.49833345  0.67180926  1
  Te  Te168  1  -0.00318266  0.83086036  -0.00616959  1
  Te  Te169  1  0.00121437  0.83177568  0.33281519  1
  Te  Te170  1  -0.00551975  0.82944099  0.67239584  1
  Te  Te171  1  0.33362326  0.17053976  0.00002463  1
  Te  Te172  1  0.33321072  0.16770175  0.33639408  1
  Te  Te173  1  0.33361500  0.16624036  0.66053943  1
  Te  Te174  1  0.33372393  0.49953715  0.00089597  1
  Te  Te175  1  0.33612522  0.50186409  0.33371158  1
  Te  Te176  1  0.33295567  0.50083733  0.66998499  1
  Te  Te177  1  0.33363001  0.83191663  0.00166787  1
  Te  Te178  1  0.33398024  0.82716058  0.33388211  1
  Te  Te179  1  0.33246213  0.83274385  0.66326643  1
  Te  Te180  1  0.66675501  0.17325297  -0.00013632  1
  Te  Te181  1  0.66653924  0.17337904  0.33381691  1
  Te  Te182  1  0.67091328  0.16191791  0.66625069  1
  Te  Te183  1  0.66979998  0.49634524  0.00366990  1
  Te  Te184  1  0.66364828  0.49510304  0.33319381  1
  Te  Te185  1  0.67001026  0.50171912  0.66547095  1
  Te  Te186  1  0.67097038  0.83151983  -0.00438888  1
  Te  Te187  1  0.66527528  0.83316225  0.33883840  1
  Te  Te188  1  0.66928927  0.83111818  0.66689346  1
  Te  Te189  1  -0.00093248  0.00597762  0.16628934  1
  Te  Te190  1  0.00627324  -0.00126444  0.50708494  1
  Te  Te191  1  -0.00380312  -0.00748954  0.82821481  1
  Te  Te192  1  -0.00008518  0.32966021  0.16372122  1
  Te  Te193  1  -0.00698035  0.33325691  0.50523686  1
  Te  Te194  1  -0.00147598  0.33563468  0.83477139  1
  Te  Te195  1  0.00095873  0.66830218  0.15939541  1
  Te  Te196  1  -0.00477290  0.66697963  0.50214122  1
  Te  Te197  1  -0.00112491  0.66323892  0.83616402  1
  Te  Te198  1  0.33238493  -0.00411668  0.16688801  1
  Te  Te199  1  0.33011457  -0.00208752  0.49908299  1
  Te  Te200  1  0.33423015  -0.00469539  0.83332753  1
  Te  Te201  1  0.33086045  0.33821848  0.16275001  1
  Te  Te202  1  0.33276602  0.32908444  0.50059970  1
  Te  Te203  1  0.33488188  0.33513342  0.83650722  1
  Te  Te204  1  0.33352363  0.66468371  0.16582714  1
  Te  Te205  1  0.33442491  0.66958660  0.49876047  1
  Te  Te206  1  0.33265247  0.66350396  0.83592356  1
  Te  Te207  1  0.66901394  -0.00380088  0.16746344  1
  Te  Te208  1  0.66636306  -0.00383605  0.50419026  1
  Te  Te209  1  0.67129358  -0.00610054  0.82973109  1
  Te  Te210  1  0.66790686  0.33713023  0.16485165  1
  Te  Te211  1  0.67115433  0.33687671  0.49908684  1
  Te  Te212  1  0.66706649  0.33391838  0.83822677  1
  Te  Te213  1  0.66560586  0.65989461  0.16720260  1
  Te  Te214  1  0.66616407  0.66500071  0.50260079  1
  Te  Te215  1  0.67007302  0.67099848  0.82776570  1
