# generated using pymatgen
data_AgSbTe2
_symmetry_space_group_name_H-M   'P 1'
_cell_length_a   18.34740927
_cell_length_b   18.34558989
_cell_length_c   18.34181284
_cell_angle_alpha   90.00671731
_cell_angle_beta   90.00020626
_cell_angle_gamma   90.00015259
_symmetry_Int_Tables_number   1
_chemical_formula_structural   AgSbTe2
_chemical_formula_sum   'Ag54 Sb54 Te108'
_cell_volume   6173.74495333
_cell_formula_units_Z   54
loop_
 _symmetry_equiv_pos_site_id
 _symmetry_equiv_pos_as_xyz
  1  'x, y, z'
loop_
 _atom_site_type_symbol
 _atom_site_label
 _atom_site_symmetry_multiplicity
 _atom_site_fract_x
 _atom_site_fract_y
 _atom_site_fract_z
 _atom_site_occupancy
  Ag  Ag0  1  0.33596574  0.50337483  0.50048813  1
  Ag  Ag1  1  0.83715281  0.50373544  0.32362479  1
  Ag  Ag2  1  0.49823104  0.00697661  0.83189851  1
  Ag  Ag3  1  0.00364985  0.49174029  0.83951056  1
  Ag  Ag4  1  0.17032882  0.16679425  0.67518807  1
  Ag  Ag5  1  0.83244444  0.18120258  -0.00653730  1
  Ag  Ag6  1  0.33500675  -0.01009048  0.33860913  1
  Ag  Ag7  1  0.17940051  0.66859750  0.49793952  1
  Ag  Ag8  1  0.00095929  0.01050927  -0.00246909  1
  Ag  Ag9  1  0.00447807  -0.00107313  0.33145106  1
  Ag  Ag10  1  0.33537903  0.82689506  0.49687847  1
  Ag  Ag11  1  0.00127752  0.33316588  -0.00245148  1
  Ag  Ag12  1  0.82986304  0.66772963  0.49635895  1
  Ag  Ag13  1  0.49849810  0.16670326  0.33040428  1
  Ag  Ag14  1  0.50430311  0.17191226  -0.00320122  1
  Ag  Ag15  1  0.83516663  0.16783351  0.68271353  1
  Ag  Ag16  1  0.17599673  0.33436997  0.15123540  1
  Ag  Ag17  1  0.83969703  0.32701025  0.84357836  1
  Ag  Ag18  1  0.65275333  0.83348610  0.49688525  1
  Ag  Ag19  1  0.31739034  0.33526864  -0.00210735  1
  Ag  Ag20  1  0.66387635  0.17106369  0.15281130  1
  Ag  Ag21  1  0.83173631  0.01321357  0.83502874  1
  Ag  Ag22  1  0.49373567  0.33108218  0.16379189  1
  Ag  Ag23  1  -0.00824570  0.17075734  0.83793480  1
  Ag  Ag24  1  0.17114713  0.83585602  0.66869296  1
  Ag  Ag25  1  0.49792482  0.67097317  0.50022433  1
  Ag  Ag26  1  0.33329865  0.00538929  0.66481704  1
  Ag  Ag27  1  0.16729704  0.33045548  0.84098213  1
  Ag  Ag28  1  0.49400081  0.50047721  0.66873895  1
  Ag  Ag29  1  0.68537876  0.33056221  0.00084433  1
  Ag  Ag30  1  0.33190804  0.17395294  0.83500845  1
  Ag  Ag31  1  0.16107113  0.49434183  0.00013713  1
  Ag  Ag32  1  0.83110517  0.65733788  0.15924579  1
  Ag  Ag33  1  0.33030777  0.65623298  -0.00372027  1
  Ag  Ag34  1  0.66336947  0.16433286  0.50246410  1
  Ag  Ag35  1  0.83401973  0.82699927  0.33549554  1
  Ag  Ag36  1  0.33310272  0.83241174  0.17815560  1
  Ag  Ag37  1  0.16853746  0.82919649  0.00052050  1
  Ag  Ag38  1  0.83116902  0.66249035  0.84422191  1
  Ag  Ag39  1  0.67842280  0.66183999  -0.00217444  1
  Ag  Ag40  1  0.49999866  0.66572019  0.83533960  1
  Ag  Ag41  1  0.83147849  0.33649373  0.15492211  1
  Ag  Ag42  1  0.49639558  -0.00455601  0.49932908  1
  Ag  Ag43  1  0.49281032  0.83517703  0.33827762  1
  Ag  Ag44  1  -0.00183955  0.65389653  -0.00241841  1
  Ag  Ag45  1  0.84035655  0.49263269  -0.00230878  1
  Ag  Ag46  1  0.48740655  0.49864420  0.33682197  1
  Ag  Ag47  1  0.16448603  0.18121875  -0.00667294  1
  Ag  Ag48  1  0.33157124  0.49264098  0.83550136  1
  Ag  Ag49  1  0.17049939  0.50092475  0.33068067  1
  Ag  Ag50  1  0.33548890  0.33451871  0.32875967  1
  Ag  Ag51  1  0.67847032  0.16749447  0.83621866  1
  Ag  Ag52  1  0.17539232  0.83032041  0.33306236  1
  Ag  Ag53  1  0.33378558  0.32994871  0.68182245  1
  Sb  Sb54  1  0.82882973  0.49580455  0.67287692  1
  Sb  Sb55  1  0.66782464  0.49432477  0.16494232  1
  Sb  Sb56  1  0.66159174  0.32968751  0.67439924  1
  Sb  Sb57  1  0.66384244  0.83608569  0.17008148  1
  Sb  Sb58  1  0.49745543  0.49467843  0.00094291  1
  Sb  Sb59  1  0.66655253  0.83612500  0.83181541  1
  Sb  Sb60  1  0.66199066  0.00014898  0.33500178  1
  Sb  Sb61  1  -0.00402228  0.16567670  0.50453346  1
  Sb  Sb62  1  0.16742326  0.00936036  0.83506984  1
  Sb  Sb63  1  0.00110873  0.83554935  0.83762528  1
  Sb  Sb64  1  0.83783323  0.83659435  0.66305911  1
  Sb  Sb65  1  0.00653730  0.33193462  0.67717987  1
  Sb  Sb66  1  0.66046456  0.00192678  0.66684803  1
  Sb  Sb67  1  0.82956079  0.33684331  0.49936939  1
  Sb  Sb68  1  -0.00139497  0.66811562  0.32830740  1
  Sb  Sb69  1  0.00440211  0.00241982  0.66933615  1
  Sb  Sb70  1  0.66535418  0.66670435  0.67015504  1
  Sb  Sb71  1  0.49725246  0.00535550  0.16765385  1
  Sb  Sb72  1  0.82893139  0.16775511  0.32777051  1
  Sb  Sb73  1  0.67063358  0.00531045  -0.00180507  1
  Sb  Sb74  1  0.82812207  -0.00341772  0.50240184  1
  Sb  Sb75  1  0.33674365  0.16884720  0.16173725  1
  Sb  Sb76  1  0.17399725  0.16749532  0.33170626  1
  Sb  Sb77  1  0.66082524  0.33177003  0.32556029  1
  Sb  Sb78  1  0.00586914  0.83205589  0.49703479  1
  Sb  Sb79  1  0.83438782  0.00173260  0.16252383  1
  Sb  Sb80  1  0.49418592  0.83195189  0.66063778  1
  Sb  Sb81  1  0.17066280  0.33734441  0.50156910  1
  Sb  Sb82  1  0.33716522  0.16715130  0.50229805  1
  Sb  Sb83  1  0.00133140  0.66632542  0.67310731  1
  Sb  Sb84  1  0.32968570  0.00499002  -0.00241053  1
  Sb  Sb85  1  0.49439676  0.83493686  0.00316889  1
  Sb  Sb86  1  0.50176551  0.66248255  0.16618052  1
  Sb  Sb87  1  0.00518597  0.83314913  0.16605505  1
  Sb  Sb88  1  0.00447522  0.33055507  0.32449805  1
  Sb  Sb89  1  0.00422679  0.50309836  0.50426299  1
  Sb  Sb90  1  0.33266773  0.50081130  0.16583959  1
  Sb  Sb91  1  0.16561539  0.66324320  0.16632437  1
  Sb  Sb92  1  0.17434022  -0.00606767  0.50030650  1
  Sb  Sb93  1  0.16773377  0.66111718  0.83497790  1
  Sb  Sb94  1  0.33324652  0.66495906  0.66791626  1
  Sb  Sb95  1  0.49759619  0.33338672  0.49596089  1
  Sb  Sb96  1  -0.00263909  0.16815069  0.15680265  1
  Sb  Sb97  1  0.66449276  0.49523659  0.83698109  1
  Sb  Sb98  1  0.17325519  0.49863165  0.66997124  1
  Sb  Sb99  1  0.65998710  0.50195765  0.49748080  1
  Sb  Sb100  1  0.33264993  0.83425567  0.83067784  1
  Sb  Sb101  1  0.49716125  0.16972595  0.66999640  1
  Sb  Sb102  1  0.49596438  0.33141383  0.84131169  1
  Sb  Sb103  1  0.66768809  0.66670542  0.33038081  1
  Sb  Sb104  1  -0.00093186  0.49997413  0.15908188  1
  Sb  Sb105  1  0.16871960  0.00380575  0.16555815  1
  Sb  Sb106  1  0.83849070  0.82944701  0.00430309  1
  Sb  Sb107  1  0.33385117  0.66585251  0.33233678  1
  Te  Te108  1  0.16683908  0.17426636  0.16172076  1
  Te  Te109  1  0.16510655  0.16637388  0.50550589  1
  Te  Te110  1  0.17211053  0.16872891  0.83463182  1
  Te  Te111  1  0.16577683  0.49560753  0.16756390  1
  Te  Te112  1  0.17081310  0.50583082  0.49894365  1
  Te  Te113  1  0.16956842  0.49632391  0.83599026  1
  Te  Te114  1  0.17179602  0.83240832  0.17041703  1
  Te  Te115  1  0.17133930  0.82858500  0.49398266  1
  Te  Te116  1  0.16694762  0.83190269  0.83315736  1
  Te  Te117  1  0.50240198  0.17063810  0.16704626  1
  Te  Te118  1  0.50226673  0.16317234  0.50007729  1
  Te  Te119  1  0.49217010  0.16590286  0.83457735  1
  Te  Te120  1  0.50104109  0.49485343  0.17574682  1
  Te  Te121  1  0.49698214  0.50197140  0.49531467  1
  Te  Te122  1  0.49629485  0.50269953  0.83401736  1
  Te  Te123  1  0.49658621  0.83309360  0.17378855  1
  Te  Te124  1  0.49612151  0.83266903  0.49800029  1
  Te  Te125  1  0.50105632  0.83033995  0.83247307  1
  Te  Te126  1  0.82764226  0.16955583  0.16083271  1
  Te  Te127  1  0.82745325  0.16613503  0.49859190  1
  Te  Te128  1  0.83490440  0.16840153  0.83846275  1
  Te  Te129  1  0.83321816  0.49906237  0.16417485  1
  Te  Te130  1  0.83243752  0.50499505  0.50376860  1
  Te  Te131  1  0.83140161  0.50331666  0.83544156  1
  Te  Te132  1  0.83125800  0.83339594  0.17422356  1
  Te  Te133  1  0.83500077  0.82969031  0.49730704  1
  Te  Te134  1  0.83323897  0.82250204  0.83053541  1
  Te  Te135  1  0.16182936  -0.00885290  0.00030522  1
  Te  Te136  1  0.16961497  -0.00176297  0.33300972  1
  Te  Te137  1  0.17171705  0.00065508  0.66738312  1
  Te  Te138  1  0.16229275  0.33708043  -0.00338091  1
  Te  Te139  1  0.17081800  0.33697551  0.33339275  1
  Te  Te140  1  0.17330496  0.33016924  0.66932360  1
  Te  Te141  1  0.16786627  0.66719945  0.00043164  1
  Te  Te142  1  0.16471600  0.66513257  0.33477512  1
  Te  Te143  1  0.16610286  0.67030740  0.65979666  1
  Te  Te144  1  0.49948531  0.00473002  -0.00480992  1
  Te  Te145  1  0.49586279  -0.00085023  0.33455689  1
  Te  Te146  1  0.49420442  -0.00033714  0.66737007  1
  Te  Te147  1  0.49697910  0.33063154  0.00428565  1
  Te  Te148  1  0.49730582  0.33422475  0.32938417  1
  Te  Te149  1  0.49346596  0.33799572  0.66658076  1
  Te  Te150  1  0.49259215  0.66578484  -0.00150012  1
  Te  Te151  1  0.50156503  0.66432403  0.33474021  1
  Te  Te152  1  0.49927325  0.66321246  0.66710740  1
  Te  Te153  1  0.83788412  -0.00352822  -0.00506172  1
  Te  Te154  1  0.83626403  -0.00174274  0.33309190  1
  Te  Te155  1  0.83497884  0.00481208  0.67227044  1
  Te  Te156  1  0.84026994  0.33672448  -0.00123362  1
  Te  Te157  1  0.83490287  0.33806654  0.33073722  1
  Te  Te158  1  0.83312012  0.32799479  0.66861892  1
  Te  Te159  1  0.83543572  0.66901015  0.00082353  1
  Te  Te160  1  0.83385332  0.66525835  0.33472174  1
  Te  Te161  1  0.83335205  0.66653186  0.66258140  1
  Te  Te162  1  0.00131831  0.16763336  -0.00262232  1
  Te  Te163  1  0.00156179  0.16173591  0.33446615  1
  Te  Te164  1  0.00055523  0.16618105  0.67176175  1
  Te  Te165  1  0.00052907  0.49826528  -0.00421979  1
  Te  Te166  1  -0.00084405  0.49929331  0.33562771  1
  Te  Te167  1  0.00031000  0.49949705  0.67730169  1
  Te  Te168  1  0.00657290  0.83743470  0.00126642  1
  Te  Te169  1  -0.00228240  0.83722154  0.33195976  1
  Te  Te170  1  0.01085605  0.83444090  0.66650086  1
  Te  Te171  1  0.33057232  0.16912595  -0.00179653  1
  Te  Te172  1  0.33795769  0.17106962  0.33256193  1
  Te  Te173  1  0.33182000  0.16829384  0.66823858  1
  Te  Te174  1  0.33235372  0.49689427  -0.00091661  1
  Te  Te175  1  0.33059811  0.50035069  0.33264114  1
  Te  Te176  1  0.33573906  0.49759919  0.66716661  1
  Te  Te177  1  0.32875855  0.83663158  -0.00146877  1
  Te  Te178  1  0.33333045  0.82996231  0.33678609  1
  Te  Te179  1  0.32907689  0.83728768  0.66119303  1
  Te  Te180  1  0.66639460  0.16715474  -0.00454013  1
  Te  Te181  1  0.66033522  0.16643813  0.34099555  1
  Te  Te182  1  0.67070538  0.16686366  0.66830649  1
  Te  Te183  1  0.67089666  0.50014995  0.00009647  1
  Te  Te184  1  0.67799702  0.49894408  0.33298225  1
  Te  Te185  1  0.65592989  0.49826338  0.66600949  1
  Te  Te186  1  0.66491768  0.82824365  0.00115272  1
  Te  Te187  1  0.66929797  0.83351068  0.33753132  1
  Te  Te188  1  0.66843174  0.83425058  0.65755512  1
  Te  Te189  1  0.00044833  0.00076608  0.16860792  1
  Te  Te190  1  -0.00148234  0.00011923  0.49435577  1
  Te  Te191  1  -0.00405706  0.00443033  0.83606360  1
  Te  Te192  1  -0.00536243  0.33329072  0.16119845  1
  Te  Te193  1  0.00015089  0.33412502  0.50002157  1
  Te  Te194  1  0.00085625  0.33175212  0.83585541  1
  Te  Te195  1  -0.00830730  0.66796989  0.15860065  1
  Te  Te196  1  -0.00769738  0.66612685  0.50053547  1
  Te  Te197  1  -0.00214132  0.66555541  0.83853295  1
  Te  Te198  1  0.33327476  -0.00557635  0.17441272  1
  Te  Te199  1  0.33758987  0.00050896  0.49859351  1
  Te  Te200  1  0.33668849  0.00145710  0.83006501  1
  Te  Te201  1  0.33319240  0.33423045  0.16611066  1
  Te  Te202  1  0.33364870  0.33930896  0.49035307  1
  Te  Te203  1  0.33403777  0.33412892  0.83763646  1
  Te  Te204  1  0.33385788  0.67154790  0.15736815  1
  Te  Te205  1  0.33709578  0.66506581  0.50113721  1
  Te  Te206  1  0.33579780  0.66515602  0.83554446  1
  Te  Te207  1  0.66595734  0.00911318  0.16665701  1
  Te  Te208  1  0.66019450  -0.00150115  0.50067289  1
  Te  Te209  1  0.66569117  0.00385424  0.83251413  1
  Te  Te210  1  0.67006533  0.32915846  0.16060737  1
  Te  Te211  1  0.66539636  0.32757258  0.50122525  1
  Te  Te212  1  0.67007038  0.32824238  0.84021492  1
  Te  Te213  1  0.67015389  0.66829557  0.15946609  1
  Te  Te214  1  0.66369995  0.66905615  0.49999632  1
  Te  Te215  1  0.66416697  0.66767900  0.83726469  1
