# generated using pymatgen
data_AgSbTe2
_symmetry_space_group_name_H-M   'P 1'
_cell_length_a   18.32834549
_cell_length_b   18.32921090
_cell_length_c   18.32691559
_cell_angle_alpha   89.99966205
_cell_angle_beta   90.00057075
_cell_angle_gamma   90.00192630
_symmetry_Int_Tables_number   1
_chemical_formula_structural   AgSbTe2
_chemical_formula_sum   'Ag54 Sb54 Te108'
_cell_volume   6156.81934243
_cell_formula_units_Z   54
loop_
 _symmetry_equiv_pos_site_id
 _symmetry_equiv_pos_as_xyz
  1  'x, y, z'
loop_
 _atom_site_type_symbol
 _atom_site_label
 _atom_site_symmetry_multiplicity
 _atom_site_fract_x
 _atom_site_fract_y
 _atom_site_fract_z
 _atom_site_occupancy
  Ag  Ag0  1  0.00975369  0.82546302  0.84393164  1
  Ag  Ag1  1  0.33463626  0.49264771  0.50702590  1
  Ag  Ag2  1  0.00920291  0.67747910  -0.00121580  1
  Ag  Ag3  1  0.83605024  0.33400947  0.16636717  1
  Ag  Ag4  1  0.49240261  0.16916468  0.33481873  1
  Ag  Ag5  1  0.33042780  0.33340677  0.34093705  1
  Ag  Ag6  1  0.49320065  0.16036411  -0.00201240  1
  Ag  Ag7  1  0.66111957  0.50077595  0.83033848  1
  Ag  Ag8  1  0.65284696  0.00406801  0.66647219  1
  Ag  Ag9  1  0.17388264  0.67168645  0.84139069  1
  Ag  Ag10  1  0.33150989  0.50278333  0.16655398  1
  Ag  Ag11  1  0.00574493  0.33812267  0.33032113  1
  Ag  Ag12  1  0.82940185  0.49954867  0.66647383  1
  Ag  Ag13  1  0.83551015  -0.00032823  0.49786475  1
  Ag  Ag14  1  0.49433426  -0.00251508  0.16496431  1
  Ag  Ag15  1  0.49163737  0.66881314  0.16128568  1
  Ag  Ag16  1  0.00099203  0.82758998  0.15603280  1
  Ag  Ag17  1  0.48822931  0.66680985  0.83628836  1
  Ag  Ag18  1  0.16791400  -0.00509025  0.83991124  1
  Ag  Ag19  1  0.33308568  0.51192305  0.82886393  1
  Ag  Ag20  1  0.00286336  0.50767333  0.16619828  1
  Ag  Ag21  1  0.33791409  0.33445487  0.66338834  1
  Ag  Ag22  1  0.00837834  0.66495854  0.68077756  1
  Ag  Ag23  1  0.01015396  0.16015575  0.83732203  1
  Ag  Ag24  1  0.49476116  0.00265704  0.51129763  1
  Ag  Ag25  1  0.33072820  0.16568761  0.82902802  1
  Ag  Ag26  1  0.66656776  0.33213097  -0.00441196  1
  Ag  Ag27  1  0.00649413  -0.00988081  0.00037595  1
  Ag  Ag28  1  0.65586028  0.33507095  0.67066218  1
  Ag  Ag29  1  0.84116114  0.16039454  0.00014920  1
  Ag  Ag30  1  0.17246829  0.00452525  0.50026266  1
  Ag  Ag31  1  0.84795643  0.83854249  0.00395896  1
  Ag  Ag32  1  0.83711815  0.82901396  0.32480552  1
  Ag  Ag33  1  0.84019716  -0.00163116  0.16477097  1
  Ag  Ag34  1  0.17210041  0.16721636  0.33152707  1
  Ag  Ag35  1  0.16067984  0.83583708  -0.00232508  1
  Ag  Ag36  1  0.33571640  0.00652224  0.66872384  1
  Ag  Ag37  1  0.66992401  0.66356775  0.32963369  1
  Ag  Ag38  1  0.32611603  0.66817063  -0.00979314  1
  Ag  Ag39  1  -0.00051306  0.66222289  0.32165305  1
  Ag  Ag40  1  0.17254512  0.32566057  0.49667191  1
  Ag  Ag41  1  0.00314652  0.50693622  0.83583646  1
  Ag  Ag42  1  0.16604428  -0.00378732  0.15661715  1
  Ag  Ag43  1  0.49681485  0.49956252  0.33531309  1
  Ag  Ag44  1  0.83532959  0.50415679  0.33393256  1
  Ag  Ag45  1  0.33263045  0.17113751  0.50797028  1
  Ag  Ag46  1  0.49462818  0.16008326  0.66911956  1
  Ag  Ag47  1  0.16529993  0.67063960  0.15902046  1
  Ag  Ag48  1  0.33349113  0.66094682  0.67691977  1
  Ag  Ag49  1  0.49729325  0.83402909  -0.00334835  1
  Ag  Ag50  1  0.32907570  0.82416710  0.83484173  1
  Ag  Ag51  1  0.49629005  0.83870127  0.67483575  1
  Ag  Ag52  1  0.49554283  0.50027908  0.66679517  1
  Ag  Ag53  1  0.16685832  0.15778532  -0.00082976  1
  Sb  Sb54  1  0.66357187  0.82952090  0.83394525  1
  Sb  Sb55  1  0.66768539  0.00313710  -0.00360100  1
  Sb  Sb56  1  0.16739672  0.49578895  0.33197219  1
  Sb  Sb57  1  0.16606113  0.50435041  -0.00019201  1
  Sb  Sb58  1  0.83992748  -0.00032196  0.83686884  1
  Sb  Sb59  1  0.32784786  -0.00505721  -0.00584386  1
  Sb  Sb60  1  0.49826236  0.33866496  0.83090843  1
  Sb  Sb61  1  0.00056689  -0.00027613  0.32630644  1
  Sb  Sb62  1  0.17350913  0.50097697  0.66793487  1
  Sb  Sb63  1  0.33590124  0.33527168  -0.00157271  1
  Sb  Sb64  1  0.66496796  0.66397604  0.00234553  1
  Sb  Sb65  1  0.33404569  0.00560267  0.33833007  1
  Sb  Sb66  1  0.83454494  0.16659286  0.32899753  1
  Sb  Sb67  1  0.16848716  0.66865412  0.49944254  1
  Sb  Sb68  1  0.32926031  0.82852887  0.15909872  1
  Sb  Sb69  1  0.33152713  0.65973843  0.33021639  1
  Sb  Sb70  1  0.49879563  0.50249020  -0.00157317  1
  Sb  Sb71  1  0.66062930  0.49831168  0.50483995  1
  Sb  Sb72  1  0.00069418  0.83482665  0.49974448  1
  Sb  Sb73  1  0.33329189  0.83664980  0.51006444  1
  Sb  Sb74  1  0.49202404  -0.00432340  0.83307514  1
  Sb  Sb75  1  0.83546447  0.50135759  0.00146168  1
  Sb  Sb76  1  0.50176830  0.83214526  0.33025003  1
  Sb  Sb77  1  0.66528339  0.33809402  0.33429561  1
  Sb  Sb78  1  0.17530162  0.16508285  0.66974704  1
  Sb  Sb79  1  0.49229517  0.32815630  0.50232048  1
  Sb  Sb80  1  0.00245814  0.33891165  0.66525422  1
  Sb  Sb81  1  0.16407109  0.33327708  0.16947922  1
  Sb  Sb82  1  0.66612397  0.16660090  0.16486113  1
  Sb  Sb83  1  0.84053884  0.66838015  0.16722319  1
  Sb  Sb84  1  0.66109618  0.66408685  0.66646726  1
  Sb  Sb85  1  0.66707117  0.50163258  0.16443227  1
  Sb  Sb86  1  0.00421477  -0.00396383  0.67331679  1
  Sb  Sb87  1  0.17210789  0.83313795  0.67689038  1
  Sb  Sb88  1  0.50169125  0.33408893  0.16652975  1
  Sb  Sb89  1  0.83319818  0.33431685  0.83875709  1
  Sb  Sb90  1  0.49686876  0.66915149  0.50142451  1
  Sb  Sb91  1  0.82861110  0.16933982  0.67075113  1
  Sb  Sb92  1  0.83876787  0.33024025  0.49609857  1
  Sb  Sb93  1  0.66575124  -0.00287740  0.33560631  1
  Sb  Sb94  1  0.67181795  0.83231431  0.16551233  1
  Sb  Sb95  1  0.00849692  0.16519315  0.50313271  1
  Sb  Sb96  1  0.66578936  0.83415189  0.50006023  1
  Sb  Sb97  1  0.83933533  0.66588083  0.83384326  1
  Sb  Sb98  1  0.66166376  0.16917929  0.83446202  1
  Sb  Sb99  1  0.65872390  0.16557201  0.50182506  1
  Sb  Sb100  1  0.83437603  0.66816431  0.49759220  1
  Sb  Sb101  1  0.00160700  0.16430700  0.16142353  1
  Sb  Sb102  1  0.16816053  0.33290450  0.83140609  1
  Sb  Sb103  1  -0.00145076  0.33292525  0.00417039  1
  Sb  Sb104  1  0.83133728  0.83067009  0.66883283  1
  Sb  Sb105  1  0.33250651  0.16764100  0.16565488  1
  Sb  Sb106  1  0.00468384  0.50062351  0.49949330  1
  Sb  Sb107  1  0.16250773  0.83771032  0.32549927  1
  Te  Te108  1  0.16598012  0.16157147  0.16648299  1
  Te  Te109  1  0.17168056  0.16547784  0.49708730  1
  Te  Te110  1  0.16742684  0.16682514  0.83606293  1
  Te  Te111  1  0.16480785  0.50348577  0.16603625  1
  Te  Te112  1  0.17428469  0.49831840  0.49928668  1
  Te  Te113  1  0.16716513  0.50388561  0.83393739  1
  Te  Te114  1  0.16314299  0.83436658  0.16098454  1
  Te  Te115  1  0.16730178  0.84170320  0.49784919  1
  Te  Te116  1  0.16847327  0.83298132  0.83708296  1
  Te  Te117  1  0.49928344  0.16331003  0.16579138  1
  Te  Te118  1  0.49378649  0.16183622  0.49939751  1
  Te  Te119  1  0.49530657  0.16604289  0.83254513  1
  Te  Te120  1  0.49852888  0.50183393  0.16884111  1
  Te  Te121  1  0.49408757  0.50110480  0.49869474  1
  Te  Te122  1  0.49560369  0.50422139  0.83172507  1
  Te  Te123  1  0.49967599  0.83428831  0.16452531  1
  Te  Te124  1  0.49926111  0.84154897  0.50185212  1
  Te  Te125  1  0.49805786  0.82951846  0.83301576  1
  Te  Te126  1  0.83382160  0.16274069  0.16251620  1
  Te  Te127  1  0.83385521  0.16099998  0.49979715  1
  Te  Te128  1  0.83653459  0.16696178  0.83948807  1
  Te  Te129  1  0.83571362  0.49876332  0.17002084  1
  Te  Te130  1  0.83256193  0.49896020  0.49732480  1
  Te  Te131  1  0.83721990  0.49987466  0.83049488  1
  Te  Te132  1  0.83731427  0.83575258  0.16510454  1
  Te  Te133  1  0.83320989  0.84013459  0.49880393  1
  Te  Te134  1  0.83514379  0.83387754  0.83867259  1
  Te  Te135  1  0.16668905  -0.00138420  -0.00014421  1
  Te  Te136  1  0.16658794  0.00568232  0.33532073  1
  Te  Te137  1  0.17091554  -0.00097178  0.66303264  1
  Te  Te138  1  0.16749988  0.32064388  0.00092140  1
  Te  Te139  1  0.16862910  0.32907998  0.33457826  1
  Te  Te140  1  0.17133597  0.33266304  0.65918050  1
  Te  Te141  1  0.16729910  0.66668304  0.00047189  1
  Te  Te142  1  0.16042794  0.66867163  0.33025189  1
  Te  Te143  1  0.16677688  0.66766479  0.66786756  1
  Te  Te144  1  0.50022624  0.00053076  0.00223165  1
  Te  Te145  1  0.50128339  0.00183874  0.32670864  1
  Te  Te146  1  0.49651544  0.00043787  0.66989434  1
  Te  Te147  1  0.50489103  0.32580563  0.00035157  1
  Te  Te148  1  0.49701605  0.33506821  0.33308482  1
  Te  Te149  1  0.49821708  0.33740634  0.66635301  1
  Te  Te150  1  0.50039852  0.66825024  0.00064151  1
  Te  Te151  1  0.49944373  0.66376621  0.33078074  1
  Te  Te152  1  0.49756951  0.66396989  0.66769853  1
  Te  Te153  1  0.83375956  -0.00038329  0.00357189  1
  Te  Te154  1  0.83279075  -0.00223455  0.33094814  1
  Te  Te155  1  0.83459774  -0.00007603  0.66226334  1
  Te  Te156  1  0.83004753  0.33107824  0.00553153  1
  Te  Te157  1  0.83441258  0.33560760  0.32940530  1
  Te  Te158  1  0.83327797  0.33836837  0.66490909  1
  Te  Te159  1  0.83361629  0.67372576  0.00084044  1
  Te  Te160  1  0.83715241  0.66594353  0.33296836  1
  Te  Te161  1  0.83259700  0.66130644  0.66502497  1
  Te  Te162  1  0.00032582  0.16732319  -0.00374129  1
  Te  Te163  1  0.00377429  0.17117777  0.33443585  1
  Te  Te164  1  -0.00213251  0.16812130  0.67533679  1
  Te  Te165  1  -0.00091271  0.50177123  0.00087522  1
  Te  Te166  1  -0.00059944  0.50074023  0.33294095  1
  Te  Te167  1  -0.00406113  0.50376738  0.66780235  1
  Te  Te168  1  0.00287985  0.83391795  -0.00060262  1
  Te  Te169  1  -0.00476626  0.83017900  0.33205433  1
  Te  Te170  1  -0.00203124  0.82665101  0.67028769  1
  Te  Te171  1  0.33368703  0.16707589  -0.00161008  1
  Te  Te172  1  0.33340210  0.17141094  0.33121039  1
  Te  Te173  1  0.33640831  0.16801172  0.66648842  1
  Te  Te174  1  0.33333571  0.50385347  -0.00020559  1
  Te  Te175  1  0.33544002  0.49622181  0.33033864  1
  Te  Te176  1  0.33535021  0.49924211  0.66882530  1
  Te  Te177  1  0.33795555  0.82950601  -0.00467392  1
  Te  Te178  1  0.33320788  0.83074739  0.33477277  1
  Te  Te179  1  0.33739235  0.83118898  0.67322869  1
  Te  Te180  1  0.66496134  0.17158346  -0.00168173  1
  Te  Te181  1  0.65852732  0.16788518  0.33349356  1
  Te  Te182  1  0.66009145  0.16854642  0.66831160  1
  Te  Te183  1  0.66771192  0.49382705  -0.00698873  1
  Te  Te184  1  0.66521009  0.50243586  0.33397031  1
  Te  Te185  1  0.66523229  0.49824415  0.67031832  1
  Te  Te186  1  0.65699103  0.83354116  -0.00075413  1
  Te  Te187  1  0.67381435  0.82661126  0.33299237  1
  Te  Te188  1  0.66166828  0.83703759  0.66710314  1
  Te  Te189  1  0.00096346  -0.00196318  0.16196356  1
  Te  Te190  1  -0.00033257  0.00090736  0.50095950  1
  Te  Te191  1  0.00631018  0.00093152  0.83803963  1
  Te  Te192  1  -0.00300399  0.33768390  0.17112878  1
  Te  Te193  1  0.00759108  0.33266052  0.49303219  1
  Te  Te194  1  0.00094086  0.34167564  0.83275091  1
  Te  Te195  1  0.00121336  0.66718690  0.16357022  1
  Te  Te196  1  0.00176700  0.66701994  0.50118488  1
  Te  Te197  1  0.00145579  0.66688666  0.83716135  1
  Te  Te198  1  0.33267469  -0.00135003  0.16842067  1
  Te  Te199  1  0.33429163  0.00276612  0.50406279  1
  Te  Te200  1  0.32780165  0.00599605  0.82911497  1
  Te  Te201  1  0.33280760  0.34139035  0.16742458  1
  Te  Te202  1  0.33175855  0.33260455  0.50035385  1
  Te  Te203  1  0.33202521  0.32743734  0.82964096  1
  Te  Te204  1  0.33125997  0.66308653  0.16537118  1
  Te  Te205  1  0.33211710  0.66315743  0.50621526  1
  Te  Te206  1  0.33315380  0.66783998  0.83342202  1
  Te  Te207  1  0.66486948  -0.00062093  0.16610851  1
  Te  Te208  1  0.66505125  0.00059528  0.50564013  1
  Te  Te209  1  0.66833580  0.00023182  0.82577257  1
  Te  Te210  1  0.67339577  0.33429085  0.16417938  1
  Te  Te211  1  0.66987898  0.33251184  0.50821630  1
  Te  Te212  1  0.66686083  0.33800428  0.83139805  1
  Te  Te213  1  0.65695357  0.66599173  0.17065531  1
  Te  Te214  1  0.66583957  0.66611891  0.49059833  1
  Te  Te215  1  0.66319553  0.66100000  0.83327859  1
