# generated using pymatgen
data_AgSbTe2
_symmetry_space_group_name_H-M   'P 1'
_cell_length_a   18.33029524
_cell_length_b   18.33214359
_cell_length_c   18.34075682
_cell_angle_alpha   89.99736238
_cell_angle_beta   89.99895493
_cell_angle_gamma   90.00126891
_symmetry_Int_Tables_number   1
_chemical_formula_structural   AgSbTe2
_chemical_formula_sum   'Ag54 Sb54 Te108'
_cell_volume   6163.11061464
_cell_formula_units_Z   54
loop_
 _symmetry_equiv_pos_site_id
 _symmetry_equiv_pos_as_xyz
  1  'x, y, z'
loop_
 _atom_site_type_symbol
 _atom_site_label
 _atom_site_symmetry_multiplicity
 _atom_site_fract_x
 _atom_site_fract_y
 _atom_site_fract_z
 _atom_site_occupancy
  Ag  Ag0  1  0.00440324  0.50498588  0.16867205  1
  Ag  Ag1  1  0.83065599  0.83235620  0.00369532  1
  Ag  Ag2  1  -0.00384902  0.82424994  0.17083389  1
  Ag  Ag3  1  0.67646733  0.82557120  0.15955048  1
  Ag  Ag4  1  0.67118143  0.16889708  0.83619574  1
  Ag  Ag5  1  0.83103973  0.66559855  0.83700307  1
  Ag  Ag6  1  0.16131791  0.16515864  0.66634615  1
  Ag  Ag7  1  0.50186911  0.00269791  0.50223135  1
  Ag  Ag8  1  0.50298834  0.49862270  0.33218294  1
  Ag  Ag9  1  0.83743494  0.82833167  0.32644871  1
  Ag  Ag10  1  0.82849029  0.16541047  -0.00725867  1
  Ag  Ag11  1  0.66602613  0.00081661  -0.00313960  1
  Ag  Ag12  1  0.66725837  0.33146303  -0.00435115  1
  Ag  Ag13  1  0.83004761  0.34236365  0.15962981  1
  Ag  Ag14  1  0.34080860  0.32893684  0.66813197  1
  Ag  Ag15  1  0.16441928  0.34769670  0.16581107  1
  Ag  Ag16  1  0.33233606  -0.00006194  -0.00239662  1
  Ag  Ag17  1  -0.00364217  0.66762746  0.33202028  1
  Ag  Ag18  1  0.31808389  0.49947560  0.16638982  1
  Ag  Ag19  1  0.51314389  0.65884134  0.83376480  1
  Ag  Ag20  1  0.51131039  0.16860956  -0.00145900  1
  Ag  Ag21  1  0.15763306  0.82667343  0.32558465  1
  Ag  Ag22  1  -0.00105551  0.49626078  0.83300525  1
  Ag  Ag23  1  0.15523215  0.66291751  0.17166493  1
  Ag  Ag24  1  0.66770592  0.50017117  0.49492323  1
  Ag  Ag25  1  0.83118017  0.83489588  0.67144201  1
  Ag  Ag26  1  0.50400142  0.33586898  0.51051311  1
  Ag  Ag27  1  0.15524268  0.66920456  0.48843092  1
  Ag  Ag28  1  0.67067676  0.83760287  0.84042055  1
  Ag  Ag29  1  0.16654286  -0.00582991  0.16726693  1
  Ag  Ag30  1  -0.01093482  0.17417118  0.83066132  1
  Ag  Ag31  1  0.15738170  0.83254186  0.00959395  1
  Ag  Ag32  1  0.83719884  0.66815887  0.48824581  1
  Ag  Ag33  1  0.16739838  -0.00393446  0.49750420  1
  Ag  Ag34  1  0.67705931  0.66911892  0.32433355  1
  Ag  Ag35  1  -0.00159635  0.50645855  0.49382749  1
  Ag  Ag36  1  -0.00121339  0.82443369  0.49038874  1
  Ag  Ag37  1  0.83497323  0.66664194  0.16945520  1
  Ag  Ag38  1  0.16382154  0.16010029  0.33330387  1
  Ag  Ag39  1  0.16561764  0.50741112  0.32637435  1
  Ag  Ag40  1  0.16588074  0.50624734  0.01415231  1
  Ag  Ag41  1  0.66551082  -0.00717803  0.32916610  1
  Ag  Ag42  1  0.83372749  0.16799831  0.67447789  1
  Ag  Ag43  1  0.66944588  0.66783539  0.00407027  1
  Ag  Ag44  1  0.33428575  0.00426023  0.66917052  1
  Ag  Ag45  1  0.16739471  0.00098476  0.83514559  1
  Ag  Ag46  1  0.66687407  0.33062465  0.67798609  1
  Ag  Ag47  1  0.67033134  0.50354850  0.16959500  1
  Ag  Ag48  1  0.50839207  0.33863590  0.16364423  1
  Ag  Ag49  1  0.66532662  0.00581330  0.67058675  1
  Ag  Ag50  1  0.82957268  0.32930881  0.83613611  1
  Ag  Ag51  1  0.50241193  0.49299231  0.66483027  1
  Ag  Ag52  1  0.51155558  0.33655358  0.83037997  1
  Ag  Ag53  1  -0.00657999  0.33326286  0.66942347  1
  Sb  Sb54  1  0.33786312  0.83555697  0.83475604  1
  Sb  Sb55  1  0.00108393  0.16850925  0.50426197  1
  Sb  Sb56  1  0.83312574  0.00299060  0.83371109  1
  Sb  Sb57  1  -0.00096410  -0.00058804  -0.00030278  1
  Sb  Sb58  1  0.50039661  0.49560423  0.00152735  1
  Sb  Sb59  1  0.66862638  0.16845633  0.15899374  1
  Sb  Sb60  1  0.83436593  -0.00656218  0.16515603  1
  Sb  Sb61  1  0.33066113  0.49787585  0.83702155  1
  Sb  Sb62  1  -0.00652560  0.33594837  -0.00306680  1
  Sb  Sb63  1  0.32862640  0.66531296  0.33155446  1
  Sb  Sb64  1  0.83384630  -0.00664201  0.50194401  1
  Sb  Sb65  1  0.50742868  0.83312753  0.66692957  1
  Sb  Sb66  1  0.50766093  0.66037848  0.16381058  1
  Sb  Sb67  1  0.50248533  0.00295218  0.83088794  1
  Sb  Sb68  1  0.82997180  0.34016104  0.50206974  1
  Sb  Sb69  1  0.33710163  0.67006131  0.00192891  1
  Sb  Sb70  1  0.83483888  0.50205967  0.00183393  1
  Sb  Sb71  1  0.33769469  0.32998261  -0.00210866  1
  Sb  Sb72  1  0.50548282  0.82840704  0.33342751  1
  Sb  Sb73  1  0.50749970  0.83700693  -0.00006521  1
  Sb  Sb74  1  0.33051290  0.17151431  0.16437915  1
  Sb  Sb75  1  0.32456900  0.83545444  0.50104871  1
  Sb  Sb76  1  0.00075226  0.34114400  0.33486521  1
  Sb  Sb77  1  -0.00127001  0.00487743  0.66792127  1
  Sb  Sb78  1  0.66694140  0.33705007  0.33003476  1
  Sb  Sb79  1  0.00057009  0.16993197  0.16232157  1
  Sb  Sb80  1  0.67367132  0.83028163  0.49953424  1
  Sb  Sb81  1  0.33275170  0.33525493  0.33388606  1
  Sb  Sb82  1  0.32655473  0.82946650  0.16496067  1
  Sb  Sb83  1  0.83331285  0.50689630  0.33098121  1
  Sb  Sb84  1  0.49999714  0.00343920  0.16773169  1
  Sb  Sb85  1  0.16276559  0.32976721  0.83583588  1
  Sb  Sb86  1  0.50293765  0.17173545  0.67156223  1
  Sb  Sb87  1  0.15868678  0.84032876  0.66623244  1
  Sb  Sb88  1  0.16743547  0.49490907  0.66378646  1
  Sb  Sb89  1  0.83540026  0.16044659  0.33100084  1
  Sb  Sb90  1  0.33284448  -0.00034216  0.33237480  1
  Sb  Sb91  1  -0.00761436  0.83149284  0.83488090  1
  Sb  Sb92  1  -0.00230442  0.66181262  0.66043184  1
  Sb  Sb93  1  0.82982793  0.49872121  0.66809167  1
  Sb  Sb94  1  0.33510841  0.16672374  0.83258406  1
  Sb  Sb95  1  -0.00770322  0.66568031  0.00755844  1
  Sb  Sb96  1  0.16000488  0.67029532  0.83857428  1
  Sb  Sb97  1  0.33410734  0.66566732  0.66694771  1
  Sb  Sb98  1  0.16890069  0.33413886  0.49773943  1
  Sb  Sb99  1  0.50511334  0.66330130  0.50170487  1
  Sb  Sb100  1  0.16365907  0.16429511  -0.00081475  1
  Sb  Sb101  1  0.00099919  -0.00850012  0.33319091  1
  Sb  Sb102  1  0.67057774  0.49817139  0.83550535  1
  Sb  Sb103  1  0.33370051  0.49914758  0.49601737  1
  Sb  Sb104  1  0.66746649  0.16871981  0.50570027  1
  Sb  Sb105  1  0.49972365  0.17066855  0.33027709  1
  Sb  Sb106  1  0.66979640  0.66400852  0.66931466  1
  Sb  Sb107  1  0.33316779  0.16719948  0.50312891  1
  Te  Te108  1  0.16523928  0.15775880  0.16948316  1
  Te  Te109  1  0.16640399  0.16408067  0.50003477  1
  Te  Te110  1  0.16510359  0.16259415  0.83082674  1
  Te  Te111  1  0.16173318  0.50293781  0.17004508  1
  Te  Te112  1  0.16486714  0.50306683  0.49611794  1
  Te  Te113  1  0.16106030  0.50055943  0.83322332  1
  Te  Te114  1  0.16521398  0.83319969  0.16630058  1
  Te  Te115  1  0.15953257  0.83302305  0.50038827  1
  Te  Te116  1  0.16577939  0.83804113  0.83537883  1
  Te  Te117  1  0.49877651  0.17442635  0.16217591  1
  Te  Te118  1  0.50057754  0.16699781  0.49796862  1
  Te  Te119  1  0.50549382  0.17089446  0.83776561  1
  Te  Te120  1  0.51085304  0.49654410  0.16799202  1
  Te  Te121  1  0.50091925  0.49877599  0.49906510  1
  Te  Te122  1  0.49877096  0.49788308  0.83203552  1
  Te  Te123  1  0.50302347  0.83291046  0.16833455  1
  Te  Te124  1  0.49853715  0.83729840  0.49989280  1
  Te  Te125  1  0.50871912  0.82839008  0.83249793  1
  Te  Te126  1  0.83582595  0.17175816  0.16295042  1
  Te  Te127  1  0.83470144  0.16720128  0.50450600  1
  Te  Te128  1  0.83180078  0.16725466  0.83221041  1
  Te  Te129  1  0.83091475  0.50126482  0.16603149  1
  Te  Te130  1  0.83436389  0.50626310  0.50039579  1
  Te  Te131  1  0.83854992  0.49937576  0.83432998  1
  Te  Te132  1  0.83495553  0.83179114  0.16533570  1
  Te  Te133  1  0.83820632  0.82828971  0.49964003  1
  Te  Te134  1  0.83009988  0.83274893  0.83579305  1
  Te  Te135  1  0.16623286  -0.00094409  0.00067678  1
  Te  Te136  1  0.16781825  -0.00128363  0.33527538  1
  Te  Te137  1  0.16707201  0.00339344  0.66446521  1
  Te  Te138  1  0.16893435  0.33395016  0.00491024  1
  Te  Te139  1  0.16688864  0.33492803  0.32892921  1
  Te  Te140  1  0.16714879  0.32726062  0.66660338  1
  Te  Te141  1  0.16891077  0.66943447  0.00263302  1
  Te  Te142  1  0.16555626  0.66756724  0.33182479  1
  Te  Te143  1  0.16776926  0.66804349  0.66623015  1
  Te  Te144  1  0.50191874  0.00418723  -0.00080612  1
  Te  Te145  1  0.50335794  0.00129604  0.33798571  1
  Te  Te146  1  0.50084282  0.00151112  0.66399986  1
  Te  Te147  1  0.50248367  0.33027792  -0.00031865  1
  Te  Te148  1  0.49951346  0.33728495  0.32894265  1
  Te  Te149  1  0.50356319  0.33226741  0.66839102  1
  Te  Te150  1  0.50523266  0.66689266  -0.00580034  1
  Te  Te151  1  0.50299021  0.66026251  0.33439575  1
  Te  Te152  1  0.50011079  0.66207120  0.67087438  1
  Te  Te153  1  0.82759335  -0.00067848  0.00020738  1
  Te  Te154  1  0.82585319  -0.00725265  0.33372900  1
  Te  Te155  1  0.82790975  0.00133088  0.66682063  1
  Te  Te156  1  0.82908680  0.33415992  -0.00131993  1
  Te  Te157  1  0.83421477  0.32797221  0.32800582  1
  Te  Te158  1  0.83051465  0.33191467  0.66752088  1
  Te  Te159  1  0.82785652  0.66897508  -0.00051782  1
  Te  Te160  1  0.83419797  0.66914336  0.33073306  1
  Te  Te161  1  0.83362938  0.67019478  0.67363017  1
  Te  Te162  1  -0.00751544  0.16745723  -0.00722994  1
  Te  Te163  1  0.00423388  0.16617488  0.33435583  1
  Te  Te164  1  -0.00170487  0.17120658  0.67022775  1
  Te  Te165  1  0.00710881  0.50013337  0.00188555  1
  Te  Te166  1  0.00255964  0.50481353  0.33320362  1
  Te  Te167  1  0.00026746  0.49418867  0.66776127  1
  Te  Te168  1  -0.00214678  0.83280375  0.00314308  1
  Te  Te169  1  -0.00033040  0.82998596  0.33150503  1
  Te  Te170  1  -0.00922307  0.83334369  0.66654398  1
  Te  Te171  1  0.33470604  0.15941105  -0.00083511  1
  Te  Te172  1  0.32478668  0.16703025  0.33234296  1
  Te  Te173  1  0.32867980  0.16513322  0.66806123  1
  Te  Te174  1  0.32750858  0.50006530  0.00462410  1
  Te  Te175  1  0.33379244  0.49960064  0.32738389  1
  Te  Te176  1  0.33893888  0.49620989  0.66736941  1
  Te  Te177  1  0.32891603  0.84015497  -0.00048569  1
  Te  Te178  1  0.32658954  0.83356424  0.33300878  1
  Te  Te179  1  0.33375627  0.84126279  0.66804508  1
  Te  Te180  1  0.66955916  0.16735779  -0.00253422  1
  Te  Te181  1  0.66708717  0.15741360  0.33368740  1
  Te  Te182  1  0.66884442  0.16782679  0.67152660  1
  Te  Te183  1  0.66573986  0.49935291  0.00462043  1
  Te  Te184  1  0.66624223  0.50172609  0.33390519  1
  Te  Te185  1  0.66268414  0.49569682  0.66375183  1
  Te  Te186  1  0.66863350  0.83366732  0.00058552  1
  Te  Te187  1  0.66873607  0.83114373  0.33248053  1
  Te  Te188  1  0.67205365  0.83575140  0.66907677  1
  Te  Te189  1  0.00563546  -0.00187124  0.16717921  1
  Te  Te190  1  0.00590095  -0.00255777  0.50030676  1
  Te  Te191  1  0.00795035  0.00219275  0.83302009  1
  Te  Te192  1  0.00037253  0.33816463  0.16668779  1
  Te  Te193  1  -0.00069382  0.33989650  0.50601581  1
  Te  Te194  1  -0.00263261  0.33363901  0.83083150  1
  Te  Te195  1  -0.00304658  0.66578298  0.16843475  1
  Te  Te196  1  -0.00143512  0.66457286  0.49809081  1
  Te  Te197  1  -0.00597216  0.66256539  0.83272671  1
  Te  Te198  1  0.33114577  -0.00052827  0.16282904  1
  Te  Te199  1  0.33263641  0.00056774  0.50378725  1
  Te  Te200  1  0.33092632  0.00046083  0.83217808  1
  Te  Te201  1  0.33059647  0.33831885  0.16588884  1
  Te  Te202  1  0.34048522  0.33402634  0.50773448  1
  Te  Te203  1  0.33750124  0.33341727  0.82831070  1
  Te  Te204  1  0.33072344  0.66063840  0.16551928  1
  Te  Te205  1  0.32799222  0.66752051  0.50068495  1
  Te  Te206  1  0.33833460  0.66679578  0.83325744  1
  Te  Te207  1  0.66599038  -0.00303922  0.16460864  1
  Te  Te208  1  0.66580302  -0.00042790  0.50512649  1
  Te  Te209  1  0.66611295  0.00012284  0.83364741  1
  Te  Te210  1  0.66866194  0.33421272  0.16467347  1
  Te  Te211  1  0.66276266  0.33818381  0.49804859  1
  Te  Te212  1  0.66905605  0.33550758  0.83500267  1
  Te  Te213  1  0.66896662  0.66747312  0.16599520  1
  Te  Te214  1  0.67097712  0.66235019  0.49825940  1
  Te  Te215  1  0.67049914  0.66434452  0.83483438  1
