# generated using pymatgen
data_AgSbTe2
_symmetry_space_group_name_H-M   'P 1'
_cell_length_a   18.32774654
_cell_length_b   18.32477560
_cell_length_c   18.32321582
_cell_angle_alpha   90.00009474
_cell_angle_beta   90.00059885
_cell_angle_gamma   90.00228948
_symmetry_Int_Tables_number   1
_chemical_formula_structural   AgSbTe2
_chemical_formula_sum   'Ag54 Sb54 Te108'
_cell_volume   6153.88578897
_cell_formula_units_Z   54
loop_
 _symmetry_equiv_pos_site_id
 _symmetry_equiv_pos_as_xyz
  1  'x, y, z'
loop_
 _atom_site_type_symbol
 _atom_site_label
 _atom_site_symmetry_multiplicity
 _atom_site_fract_x
 _atom_site_fract_y
 _atom_site_fract_z
 _atom_site_occupancy
  Ag  Ag0  1  0.82716407  0.83380136  0.34330270  1
  Ag  Ag1  1  0.49529523  0.51287329  0.33214389  1
  Ag  Ag2  1  0.83951126  0.16873868  0.00012029  1
  Ag  Ag3  1  0.33635247  0.66795928  -0.00793810  1
  Ag  Ag4  1  0.17512414  0.66843531  0.83097386  1
  Ag  Ag5  1  0.50269285  0.67201053  0.49748803  1
  Ag  Ag6  1  0.66317461  0.66921770  0.00075806  1
  Ag  Ag7  1  0.66020621  0.67152305  0.33563363  1
  Ag  Ag8  1  0.65948699  0.83392529  0.82829301  1
  Ag  Ag9  1  0.33541894  0.83295817  0.82741050  1
  Ag  Ag10  1  0.83530497  -0.01183544  0.50150874  1
  Ag  Ag11  1  0.82996953  -0.00416124  0.83217386  1
  Ag  Ag12  1  0.49411381  0.67377842  0.83215245  1
  Ag  Ag13  1  0.16976251  0.83318935  0.66396479  1
  Ag  Ag14  1  0.16581503  0.16874455  0.67024776  1
  Ag  Ag15  1  0.82568949  0.67697224  0.49550658  1
  Ag  Ag16  1  0.16229674  0.17226532  -0.00531556  1
  Ag  Ag17  1  0.83401989  0.34234408  0.16300764  1
  Ag  Ag18  1  0.67662481  0.83005288  0.50063834  1
  Ag  Ag19  1  0.48950071  0.33260386  0.83462336  1
  Ag  Ag20  1  0.66818950  -0.01133476  0.33207351  1
  Ag  Ag21  1  0.16530272  0.33126331  0.51007068  1
  Ag  Ag22  1  0.16578475  0.00052429  0.17034595  1
  Ag  Ag23  1  0.00385518  0.15773788  0.49979790  1
  Ag  Ag24  1  0.50009405  0.83025642  0.33665310  1
  Ag  Ag25  1  0.00122075  0.83527103  0.82691941  1
  Ag  Ag26  1  0.83037773  0.66371451  0.16721031  1
  Ag  Ag27  1  0.17085363  0.83642259  0.34233124  1
  Ag  Ag28  1  -0.00374595  0.49859103  0.16400004  1
  Ag  Ag29  1  0.16593565  0.49912011  0.67276963  1
  Ag  Ag30  1  0.00459886  -0.00354858  0.33224631  1
  Ag  Ag31  1  0.33108444  -0.01062707  0.66646773  1
  Ag  Ag32  1  0.66129295  0.67190707  0.66553293  1
  Ag  Ag33  1  0.16830729  0.50337862  0.33137240  1
  Ag  Ag34  1  0.16892473  0.33404795  0.83346303  1
  Ag  Ag35  1  0.83770707  0.83299343  0.65674531  1
  Ag  Ag36  1  0.33254741  0.83219772  0.50403516  1
  Ag  Ag37  1  0.50121634  -0.01048640  0.83387315  1
  Ag  Ag38  1  0.33843717  0.67428048  0.33706613  1
  Ag  Ag39  1  0.00518122  0.32887916  -0.00426517  1
  Ag  Ag40  1  0.33295665  0.67331392  0.67358463  1
  Ag  Ag41  1  0.00138978  0.00365253  0.00113430  1
  Ag  Ag42  1  0.33196135  0.16163502  0.83417644  1
  Ag  Ag43  1  0.67576457  0.50491896  0.16565264  1
  Ag  Ag44  1  0.66223244  0.15691860  0.83625742  1
  Ag  Ag45  1  0.16216377  0.49429772  -0.00130908  1
  Ag  Ag46  1  0.32346013  -0.01041888  0.33963310  1
  Ag  Ag47  1  0.16608048  0.15497834  0.33302057  1
  Ag  Ag48  1  0.49956391  0.82945607  -0.00903275  1
  Ag  Ag49  1  0.32339530  0.33703903  -0.00566796  1
  Ag  Ag50  1  0.83932805  0.49816184  0.00463081  1
  Ag  Ag51  1  -0.01084950  0.83677079  0.50247917  1
  Ag  Ag52  1  0.67091060  0.16810149  0.16049284  1
  Ag  Ag53  1  0.00585734  0.33225474  0.67189095  1
  Sb  Sb54  1  0.33028407  0.50121991  0.16564093  1
  Sb  Sb55  1  0.32878318  0.33408258  0.33053124  1
  Sb  Sb56  1  0.49312467  0.16620381  0.67028021  1
  Sb  Sb57  1  0.49382944  0.50554089  0.66520019  1
  Sb  Sb58  1  0.83095124  0.83253503  -0.00091713  1
  Sb  Sb59  1  0.49854070  0.50603939  0.00294909  1
  Sb  Sb60  1  0.83736708  0.32695460  0.83916836  1
  Sb  Sb61  1  0.00077876  0.67402923  0.33437028  1
  Sb  Sb62  1  0.16011425  -0.00143575  0.49496747  1
  Sb  Sb63  1  0.00042684  0.66733842  -0.00084808  1
  Sb  Sb64  1  0.49567151  0.83068784  0.66765269  1
  Sb  Sb65  1  0.32438690  0.33444395  0.67382290  1
  Sb  Sb66  1  0.00311201  0.32967982  0.33132642  1
  Sb  Sb67  1  0.66620958  0.50753445  0.83790784  1
  Sb  Sb68  1  0.00281634  0.50349550  0.49593419  1
  Sb  Sb69  1  0.66780085  0.83101199  0.17129433  1
  Sb  Sb70  1  0.00387640  0.16157265  0.83299677  1
  Sb  Sb71  1  0.16790332  -0.00112807  0.83409115  1
  Sb  Sb72  1  0.66714508  0.33716469  0.33249881  1
  Sb  Sb73  1  0.33207044  0.83274671  0.16987304  1
  Sb  Sb74  1  0.16150732  0.33186414  0.16126086  1
  Sb  Sb75  1  0.49792056  -0.00166070  0.16428057  1
  Sb  Sb76  1  0.50448365  0.33533461  0.16127365  1
  Sb  Sb77  1  0.00016890  0.83247375  0.16843456  1
  Sb  Sb78  1  0.66417170  -0.00901940  0.66859007  1
  Sb  Sb79  1  0.32422439  0.15859342  0.50541950  1
  Sb  Sb80  1  0.49605779  0.15980545  0.33401394  1
  Sb  Sb81  1  0.83923842  0.50822849  0.67200071  1
  Sb  Sb82  1  0.50467729  0.66645726  0.16935700  1
  Sb  Sb83  1  0.67304704  0.33763528  0.67027307  1
  Sb  Sb84  1  0.83774036  0.15864551  0.32903269  1
  Sb  Sb85  1  0.83122034  0.67490440  0.83380391  1
  Sb  Sb86  1  0.32882206  -0.00287321  -0.00370952  1
  Sb  Sb87  1  0.00497985  -0.00121378  0.66552132  1
  Sb  Sb88  1  0.33000758  0.50869925  0.49895804  1
  Sb  Sb89  1  0.33245991  0.16575201  0.16215383  1
  Sb  Sb90  1  -0.00212312  0.16864705  0.16601562  1
  Sb  Sb91  1  0.49982302  0.16384883  -0.00404989  1
  Sb  Sb92  1  0.49357629  0.34020308  0.50411452  1
  Sb  Sb93  1  0.33052780  0.50540999  0.83400551  1
  Sb  Sb94  1  0.83882169  0.15981108  0.67242490  1
  Sb  Sb95  1  0.50297349  -0.00919464  0.50267004  1
  Sb  Sb96  1  0.00470697  0.66889744  0.66668244  1
  Sb  Sb97  1  0.16369150  0.66847949  0.16486538  1
  Sb  Sb98  1  0.16898901  0.66934326  0.50299634  1
  Sb  Sb99  1  0.66818421  0.33637011  -0.00111193  1
  Sb  Sb100  1  0.67065233  -0.00384930  0.00088365  1
  Sb  Sb101  1  0.84077005  0.33224793  0.49630367  1
  Sb  Sb102  1  0.83592856  -0.00240771  0.16680443  1
  Sb  Sb103  1  0.16968340  0.83289422  -0.00443360  1
  Sb  Sb104  1  0.83546993  0.50952297  0.32627788  1
  Sb  Sb105  1  0.00349974  0.50324941  0.83771909  1
  Sb  Sb106  1  0.66729053  0.51149250  0.49409440  1
  Sb  Sb107  1  0.67367031  0.15612167  0.50122550  1
  Te  Te108  1  0.16663167  0.16399514  0.16818784  1
  Te  Te109  1  0.16299325  0.16897513  0.50037212  1
  Te  Te110  1  0.16862047  0.16598432  0.83453055  1
  Te  Te111  1  0.16280636  0.50015754  0.16542753  1
  Te  Te112  1  0.16546348  0.49604133  0.49748919  1
  Te  Te113  1  0.16554323  0.50028821  0.83473124  1
  Te  Te114  1  0.16523930  0.83717250  0.17251452  1
  Te  Te115  1  0.17228046  0.83267942  0.50202361  1
  Te  Te116  1  0.16836475  0.83201436  0.83061004  1
  Te  Te117  1  0.50893401  0.16737922  0.16627010  1
  Te  Te118  1  0.50149688  0.16988974  0.50145682  1
  Te  Te119  1  0.49935005  0.16873801  0.83334038  1
  Te  Te120  1  0.50531507  0.49836170  0.17319939  1
  Te  Te121  1  0.49949977  0.50687087  0.49299097  1
  Te  Te122  1  0.50090783  0.49780123  0.83382381  1
  Te  Te123  1  0.49992754  0.83427812  0.16576889  1
  Te  Te124  1  0.49518879  0.82970505  0.49642611  1
  Te  Te125  1  0.49977382  0.83094489  0.83131152  1
  Te  Te126  1  0.83039433  0.16618196  0.16185892  1
  Te  Te127  1  0.84142417  0.16468136  0.50128554  1
  Te  Te128  1  0.83056715  0.15985424  0.83853247  1
  Te  Te129  1  0.83383289  0.50151580  0.16462852  1
  Te  Te130  1  0.83473989  0.50236129  0.50126621  1
  Te  Te131  1  0.83450302  0.49934062  0.84133390  1
  Te  Te132  1  0.83441178  0.82684862  0.17072477  1
  Te  Te133  1  0.83291963  0.83267776  0.50033384  1
  Te  Te134  1  0.83472575  0.83735839  0.83310200  1
  Te  Te135  1  0.16274291  0.00133878  0.00451943  1
  Te  Te136  1  0.16565523  -0.00179930  0.33394438  1
  Te  Te137  1  0.17135519  -0.00108981  0.66643932  1
  Te  Te138  1  0.16510205  0.33277547  -0.00078525  1
  Te  Te139  1  0.16751477  0.33879853  0.33256259  1
  Te  Te140  1  0.16461474  0.33269097  0.66963603  1
  Te  Te141  1  0.16947215  0.66426739  -0.00296709  1
  Te  Te142  1  0.17009934  0.66617836  0.33338566  1
  Te  Te143  1  0.17030840  0.66902913  0.66939241  1
  Te  Te144  1  0.49901975  -0.00625959  -0.00472459  1
  Te  Te145  1  0.50332554  -0.00555926  0.33336536  1
  Te  Te146  1  0.49356803  0.00175377  0.67279414  1
  Te  Te147  1  0.49652229  0.33461588  -0.00620929  1
  Te  Te148  1  0.49784769  0.33570030  0.33481419  1
  Te  Te149  1  0.50015791  0.33704066  0.67270853  1
  Te  Te150  1  0.49932543  0.66843734  -0.00182527  1
  Te  Te151  1  0.49970696  0.66986487  0.33267853  1
  Te  Te152  1  0.49939195  0.66450932  0.66830303  1
  Te  Te153  1  0.83771997  0.00303878  -0.00160861  1
  Te  Te154  1  0.83325717  -0.00448296  0.33463734  1
  Te  Te155  1  0.83267098  -0.00587314  0.66764805  1
  Te  Te156  1  0.83537959  0.33233842  0.00276248  1
  Te  Te157  1  0.83402307  0.33220991  0.32708051  1
  Te  Te158  1  0.84275001  0.33475628  0.66629507  1
  Te  Te159  1  0.83055453  0.66386698  0.00171718  1
  Te  Te160  1  0.83315123  0.67159420  0.33419415  1
  Te  Te161  1  0.82995273  0.67126142  0.66469154  1
  Te  Te162  1  0.00073523  0.16613000  -0.00062455  1
  Te  Te163  1  0.00508447  0.16183649  0.33646412  1
  Te  Te164  1  0.00510296  0.16856471  0.66417452  1
  Te  Te165  1  0.00099187  0.49989950  0.00232914  1
  Te  Te166  1  0.00516353  0.49882954  0.32800524  1
  Te  Te167  1  0.00673670  0.49576097  0.66613389  1
  Te  Te168  1  0.00028941  0.83848314  -0.00314671  1
  Te  Te169  1  0.00493440  0.83815048  0.33556335  1
  Te  Te170  1  0.00205436  0.83424527  0.66560727  1
  Te  Te171  1  0.32983399  0.16685852  -0.00483619  1
  Te  Te172  1  0.32739900  0.16400406  0.33330081  1
  Te  Te173  1  0.32607845  0.16519005  0.67244806  1
  Te  Te174  1  0.32909892  0.50222750  0.00048889  1
  Te  Te175  1  0.33120088  0.50217523  0.33210625  1
  Te  Te176  1  0.32526284  0.50722504  0.66544707  1
  Te  Te177  1  0.33652996  0.82941154  -0.00406148  1
  Te  Te178  1  0.33272530  0.83311059  0.33185330  1
  Te  Te179  1  0.33218298  0.83128549  0.66730623  1
  Te  Te180  1  0.66785145  0.16573072  -0.00293988  1
  Te  Te181  1  0.66638102  0.16637121  0.33411460  1
  Te  Te182  1  0.66800782  0.16734899  0.67226725  1
  Te  Te183  1  0.66858993  0.50465225  0.00483036  1
  Te  Te184  1  0.66592407  0.50484523  0.32785376  1
  Te  Te185  1  0.66833577  0.50782894  0.66680346  1
  Te  Te186  1  0.66364636  0.82953180  -0.00328419  1
  Te  Te187  1  0.66604638  0.83170624  0.33317105  1
  Te  Te188  1  0.66921798  0.83047031  0.66667851  1
  Te  Te189  1  0.00335589  0.00071788  0.16676698  1
  Te  Te190  1  -0.00459299  -0.00212050  0.49955054  1
  Te  Te191  1  -0.00268358  -0.00424339  0.83455424  1
  Te  Te192  1  -0.00534114  0.33616189  0.16129927  1
  Te  Te193  1  0.00478077  0.33255601  0.50108268  1
  Te  Te194  1  0.00451572  0.33260829  0.83537220  1
  Te  Te195  1  -0.00572182  0.66085200  0.16648477  1
  Te  Te196  1  -0.00658973  0.67363094  0.50095746  1
  Te  Te197  1  0.00461164  0.67445983  0.83287819  1
  Te  Te198  1  0.32881975  0.00148607  0.17376137  1
  Te  Te199  1  0.33636888  -0.00547771  0.49998535  1
  Te  Te200  1  0.33511605  -0.00185711  0.83223249  1
  Te  Te201  1  0.33550176  0.33301497  0.15648902  1
  Te  Te202  1  0.32725013  0.33163406  0.50095181  1
  Te  Te203  1  0.32990689  0.33186947  0.83597778  1
  Te  Te204  1  0.33240213  0.66548908  0.16555212  1
  Te  Te205  1  0.33560876  0.67204750  0.49611186  1
  Te  Te206  1  0.33398761  0.66897919  0.83339809  1
  Te  Te207  1  0.66680611  0.00502820  0.17116390  1
  Te  Te208  1  0.67132209  -0.00650481  0.49570658  1
  Te  Te209  1  0.66508768  -0.00285442  0.83431592  1
  Te  Te210  1  0.67168105  0.33160330  0.16627822  1
  Te  Te211  1  0.66508094  0.33265836  0.50215073  1
  Te  Te212  1  0.66638642  0.33000829  0.83237025  1
  Te  Te213  1  0.67003325  0.66512730  0.16563302  1
  Te  Te214  1  0.66487221  0.67134216  0.49812631  1
  Te  Te215  1  0.66402230  0.67131273  0.83456553  1
