# generated using pymatgen
data_AgSbTe2
_symmetry_space_group_name_H-M   'P 1'
_cell_length_a   18.32504127
_cell_length_b   18.32716898
_cell_length_c   18.32295310
_cell_angle_alpha   89.99970213
_cell_angle_beta   90.00078834
_cell_angle_gamma   89.99670980
_symmetry_Int_Tables_number   1
_chemical_formula_structural   AgSbTe2
_chemical_formula_sum   'Ag54 Sb54 Te108'
_cell_volume   6153.69283739
_cell_formula_units_Z   54
loop_
 _symmetry_equiv_pos_site_id
 _symmetry_equiv_pos_as_xyz
  1  'x, y, z'
loop_
 _atom_site_type_symbol
 _atom_site_label
 _atom_site_symmetry_multiplicity
 _atom_site_fract_x
 _atom_site_fract_y
 _atom_site_fract_z
 _atom_site_occupancy
  Ag  Ag0  1  0.16661523  0.16242892  0.67206093  1
  Ag  Ag1  1  0.49248515  0.82996711  -0.00066152  1
  Ag  Ag2  1  0.16892900  0.67674609  0.49470808  1
  Ag  Ag3  1  0.66554910  0.15502150  0.50413671  1
  Ag  Ag4  1  0.16452526  -0.00482460  0.16335119  1
  Ag  Ag5  1  0.17157562  -0.00591377  0.49545446  1
  Ag  Ag6  1  0.00471880  0.83925379  0.16241444  1
  Ag  Ag7  1  0.32272761  0.17085730  0.16140359  1
  Ag  Ag8  1  0.50075415  0.50521285  0.66925460  1
  Ag  Ag9  1  0.32867932  -0.00476757  -0.00070915  1
  Ag  Ag10  1  0.17006624  0.83348109  0.32285584  1
  Ag  Ag11  1  0.16586059  0.67607664  0.16420014  1
  Ag  Ag12  1  0.16582590  0.83866203  0.00475516  1
  Ag  Ag13  1  0.50074834  0.32841071  0.84240188  1
  Ag  Ag14  1  0.33432570  0.83597612  0.83862849  1
  Ag  Ag15  1  0.49908115  -0.00100614  0.83009215  1
  Ag  Ag16  1  0.65697051  0.33237850  0.00170214  1
  Ag  Ag17  1  0.82159693  0.82858203  0.66557775  1
  Ag  Ag18  1  0.82609775  0.50826817  0.66234245  1
  Ag  Ag19  1  0.50382878  0.83591486  0.66271540  1
  Ag  Ag20  1  0.16923978  0.32440064  0.16277600  1
  Ag  Ag21  1  0.33894290  -0.00189333  0.67180430  1
  Ag  Ag22  1  0.65820221  -0.00736601  0.65906127  1
  Ag  Ag23  1  0.00290809  0.31943287  0.00358981  1
  Ag  Ag24  1  0.82623254  0.66840860  0.49843030  1
  Ag  Ag25  1  0.00903113  0.00362369  0.00431264  1
  Ag  Ag26  1  0.15964383  0.15653231  0.00293525  1
  Ag  Ag27  1  0.50153959  -0.00685616  0.50513376  1
  Ag  Ag28  1  0.49908428  0.83262428  0.33427558  1
  Ag  Ag29  1  0.50243860  0.33280766  0.50128792  1
  Ag  Ag30  1  0.33309222  0.49835755  0.16239442  1
  Ag  Ag31  1  0.33134948  0.67020922  0.32477751  1
  Ag  Ag32  1  0.49786303  0.50014268  -0.00157981  1
  Ag  Ag33  1  0.66604622  0.67424472  0.66415735  1
  Ag  Ag34  1  0.00514330  0.67629286  0.00392540  1
  Ag  Ag35  1  0.66223760  0.83637129  0.50192938  1
  Ag  Ag36  1  0.66790512  0.16484552  0.83344661  1
  Ag  Ag37  1  -0.00064425  -0.00188553  0.32317092  1
  Ag  Ag38  1  0.33411745  0.67563307  0.00536537  1
  Ag  Ag39  1  0.83288059  0.50295525  0.33092219  1
  Ag  Ag40  1  0.84617231  0.16899729  0.00720638  1
  Ag  Ag41  1  0.66305476  0.67047837  0.00019469  1
  Ag  Ag42  1  0.00505053  0.84044438  0.84499063  1
  Ag  Ag43  1  0.50421306  0.67604972  0.50339982  1
  Ag  Ag44  1  0.33791949  0.33086541  0.00395149  1
  Ag  Ag45  1  0.49691877  0.33359378  0.15756872  1
  Ag  Ag46  1  0.83351691  0.33379442  0.16362200  1
  Ag  Ag47  1  0.00426141  0.15881100  0.15901495  1
  Ag  Ag48  1  0.17179504  0.50049605  0.66368669  1
  Ag  Ag49  1  0.66882280  0.83286652  0.16684533  1
  Ag  Ag50  1  0.66721027  -0.00273682  0.33800085  1
  Ag  Ag51  1  0.83725624  0.66630209  0.16715905  1
  Ag  Ag52  1  0.83234482  0.16618366  0.32449321  1
  Ag  Ag53  1  -0.00246564  0.16007314  0.84727961  1
  Sb  Sb54  1  0.33587484  0.50390966  0.83875134  1
  Sb  Sb55  1  0.82865785  0.49772042  0.00173766  1
  Sb  Sb56  1  0.00112464  0.33211894  0.67501037  1
  Sb  Sb57  1  -0.00356788  0.16281399  0.49682382  1
  Sb  Sb58  1  -0.00167054  0.83421612  0.49756228  1
  Sb  Sb59  1  0.33711027  0.16352016  0.49744232  1
  Sb  Sb60  1  0.83681493  0.83562338  -0.00150312  1
  Sb  Sb61  1  0.66595808  0.32686775  0.32808064  1
  Sb  Sb62  1  0.17139025  0.33074180  0.84243613  1
  Sb  Sb63  1  0.49760126  0.16035275  0.66716918  1
  Sb  Sb64  1  0.33635596  0.32948468  0.67324960  1
  Sb  Sb65  1  0.50305966  0.50533399  0.33259283  1
  Sb  Sb66  1  0.00282268  -0.00131968  0.66992992  1
  Sb  Sb67  1  0.17037459  0.83527845  0.66735750  1
  Sb  Sb68  1  0.16264221  0.15737156  0.32562137  1
  Sb  Sb69  1  0.83009882  -0.00034410  0.83400491  1
  Sb  Sb70  1  0.82785179  -0.00507990  0.49924795  1
  Sb  Sb71  1  0.84031240  -0.00049378  0.16678827  1
  Sb  Sb72  1  0.66368992  0.33227733  0.66956436  1
  Sb  Sb73  1  0.00311550  0.50045607  0.16475371  1
  Sb  Sb74  1  0.33496900  0.33790133  0.32345047  1
  Sb  Sb75  1  0.17248986  0.50230479  0.00121525  1
  Sb  Sb76  1  0.83242096  0.66838244  0.83535666  1
  Sb  Sb77  1  0.67040796  0.16231578  0.16402636  1
  Sb  Sb78  1  0.82738935  0.33734076  0.49446346  1
  Sb  Sb79  1  0.17164625  0.33070055  0.49580734  1
  Sb  Sb80  1  0.83378487  0.16546709  0.66719127  1
  Sb  Sb81  1  0.33509204  0.50236257  0.49651539  1
  Sb  Sb82  1  0.34010615  0.83353329  0.50247780  1
  Sb  Sb83  1  0.33315294  -0.00619115  0.32959926  1
  Sb  Sb84  1  0.33357780  0.16091102  0.83999421  1
  Sb  Sb85  1  0.83218978  0.83392718  0.33413879  1
  Sb  Sb86  1  0.66432622  0.67400966  0.33376473  1
  Sb  Sb87  1  0.17097032  0.00015207  0.83767892  1
  Sb  Sb88  1  0.82900911  0.33148174  0.84075821  1
  Sb  Sb89  1  -0.00306530  0.66885910  0.67003336  1
  Sb  Sb90  1  0.49531308  -0.00023229  0.16510700  1
  Sb  Sb91  1  0.66418048  -0.00050947  0.00057055  1
  Sb  Sb92  1  0.16693466  0.66835835  0.83651248  1
  Sb  Sb93  1  0.16420841  0.50786185  0.33308248  1
  Sb  Sb94  1  0.49728826  0.66669379  0.16530817  1
  Sb  Sb95  1  0.49781456  0.16695563  0.00023010  1
  Sb  Sb96  1  0.66375966  0.83764643  0.83205123  1
  Sb  Sb97  1  0.50318406  0.16037670  0.33345119  1
  Sb  Sb98  1  0.66367233  0.50398214  0.16591856  1
  Sb  Sb99  1  -0.00089499  0.32645042  0.32356274  1
  Sb  Sb100  1  0.00188756  0.67317705  0.32699092  1
  Sb  Sb101  1  0.66376610  0.49680521  0.83369004  1
  Sb  Sb102  1  0.00065353  0.49954385  0.83692196  1
  Sb  Sb103  1  -0.00076125  0.50224868  0.50043090  1
  Sb  Sb104  1  0.66521775  0.50530043  0.50151565  1
  Sb  Sb105  1  0.50024171  0.67221741  0.83241144  1
  Sb  Sb106  1  0.33768777  0.67020916  0.66703828  1
  Sb  Sb107  1  0.32977211  0.83271501  0.15985051  1
  Te  Te108  1  0.16391995  0.16515040  0.16447878  1
  Te  Te109  1  0.16672599  0.16326119  0.49985593  1
  Te  Te110  1  0.16265236  0.16701402  0.83519249  1
  Te  Te111  1  0.17216288  0.50356415  0.16824850  1
  Te  Te112  1  0.16703422  0.50064061  0.50372813  1
  Te  Te113  1  0.16776023  0.49851330  0.82268027  1
  Te  Te114  1  0.16589988  0.83411451  0.16444662  1
  Te  Te115  1  0.16615076  0.83455357  0.49985432  1
  Te  Te116  1  0.16564836  0.83334790  0.83798019  1
  Te  Te117  1  0.49968539  0.17204281  0.16841495  1
  Te  Te118  1  0.50506841  0.16618154  0.50012223  1
  Te  Te119  1  0.50227037  0.16490522  0.83241389  1
  Te  Te120  1  0.49641062  0.49628629  0.16472959  1
  Te  Te121  1  0.50020952  0.50071861  0.50206487  1
  Te  Te122  1  0.49958947  0.49426751  0.83410677  1
  Te  Te123  1  0.50426425  0.83385846  0.16608429  1
  Te  Te124  1  0.50189342  0.83327942  0.50156420  1
  Te  Te125  1  0.49850121  0.83734296  0.83753478  1
  Te  Te126  1  0.83492326  0.16755869  0.16599942  1
  Te  Te127  1  0.82753744  0.16800060  0.49774562  1
  Te  Te128  1  0.83438204  0.16693535  0.83525354  1
  Te  Te129  1  0.83251813  0.50139065  0.16878100  1
  Te  Te130  1  0.83253998  0.50553359  0.50096172  1
  Te  Te131  1  0.83320958  0.49904131  0.82329898  1
  Te  Te132  1  0.83246097  0.82867661  0.16645669  1
  Te  Te133  1  0.82991113  0.82776744  0.50343287  1
  Te  Te134  1  0.83902785  0.83362949  0.82678547  1
  Te  Te135  1  0.16790774  -0.00147092  0.00065348  1
  Te  Te136  1  0.16649456  -0.00613214  0.33327521  1
  Te  Te137  1  0.17025416  0.00210446  0.66289251  1
  Te  Te138  1  0.16770504  0.33635466  0.00547793  1
  Te  Te139  1  0.16649077  0.33475473  0.32629779  1
  Te  Te140  1  0.16812488  0.33330435  0.66439435  1
  Te  Te141  1  0.16824048  0.66740658  0.00331332  1
  Te  Te142  1  0.16850255  0.67169081  0.33291436  1
  Te  Te143  1  0.16781866  0.66475707  0.66295651  1
  Te  Te144  1  0.49665916  -0.00472027  -0.00270611  1
  Te  Te145  1  0.50173792  -0.00637676  0.33642964  1
  Te  Te146  1  0.49918864  -0.00135439  0.66610825  1
  Te  Te147  1  0.49966573  0.33098588  0.00092192  1
  Te  Te148  1  0.50048333  0.33483248  0.33776856  1
  Te  Te149  1  0.49975921  0.33755456  0.66371629  1
  Te  Te150  1  0.50029003  0.66862655  -0.00057419  1
  Te  Te151  1  0.49671161  0.67152475  0.33764400  1
  Te  Te152  1  0.50217114  0.66742127  0.66530656  1
  Te  Te153  1  0.83532741  0.00766374  -0.00001651  1
  Te  Te154  1  0.83338638  0.00338079  0.33369765  1
  Te  Te155  1  0.82988249  -0.00388381  0.66573838  1
  Te  Te156  1  0.83382599  0.33216620  0.00473397  1
  Te  Te157  1  0.83300834  0.33120835  0.32635066  1
  Te  Te158  1  0.83285917  0.33952117  0.66521291  1
  Te  Te159  1  0.82802279  0.66533641  0.00492495  1
  Te  Te160  1  0.83370492  0.66511525  0.33233052  1
  Te  Te161  1  0.83067969  0.66724588  0.66522979  1
  Te  Te162  1  0.00265711  0.16424230  0.00248400  1
  Te  Te163  1  -0.00569005  0.15968969  0.32916718  1
  Te  Te164  1  0.00481431  0.16704757  0.66814178  1
  Te  Te165  1  -0.00120360  0.50670565  -0.00112317  1
  Te  Te166  1  -0.00791232  0.49866366  0.33312140  1
  Te  Te167  1  0.00127858  0.49984692  0.66872965  1
  Te  Te168  1  -0.00111530  0.83360164  0.00171178  1
  Te  Te169  1  0.00305041  0.83939771  0.32911595  1
  Te  Te170  1  -0.00105170  0.83377874  0.67009695  1
  Te  Te171  1  0.33065928  0.16599478  0.00259299  1
  Te  Te172  1  0.33297213  0.16763303  0.32567553  1
  Te  Te173  1  0.32637659  0.16173910  0.66714737  1
  Te  Te174  1  0.33818796  0.49869584  0.00292219  1
  Te  Te175  1  0.33328954  0.50828031  0.32590150  1
  Te  Te176  1  0.33691699  0.49976479  0.66716217  1
  Te  Te177  1  0.33300597  0.83435076  0.00009867  1
  Te  Te178  1  0.33411218  0.82918852  0.33384430  1
  Te  Te179  1  0.33851626  0.83734741  0.67389362  1
  Te  Te180  1  0.66771291  0.16839302  -0.00313679  1
  Te  Te181  1  0.67050019  0.15985590  0.33556394  1
  Te  Te182  1  0.66792194  0.16332427  0.66763788  1
  Te  Te183  1  0.66029370  0.49994440  -0.00003639  1
  Te  Te184  1  0.67342823  0.49878757  0.33381366  1
  Te  Te185  1  0.66322989  0.50458652  0.66746915  1
  Te  Te186  1  0.66735158  0.83171419  0.00127980  1
  Te  Te187  1  0.66474721  0.83710496  0.33351132  1
  Te  Te188  1  0.66365109  0.83326177  0.66900985  1
  Te  Te189  1  0.00188498  -0.00124220  0.16500680  1
  Te  Te190  1  0.00649175  -0.00028904  0.49910512  1
  Te  Te191  1  -0.00070917  0.00047190  0.83695698  1
  Te  Te192  1  -0.00078432  0.33311956  0.16164078  1
  Te  Te193  1  0.00031393  0.33271274  0.49938796  1
  Te  Te194  1  0.00062706  0.32845419  0.84255905  1
  Te  Te195  1  0.00058416  0.66745452  0.16324333  1
  Te  Te196  1  0.00324958  0.66781602  0.49967459  1
  Te  Te197  1  0.00005584  0.67055492  0.84161536  1
  Te  Te198  1  0.32837796  0.00565283  0.16294258  1
  Te  Te199  1  0.33457784  0.00026121  0.50137623  1
  Te  Te200  1  0.33777189  -0.00320376  0.83494964  1
  Te  Te201  1  0.33405755  0.33297516  0.16347226  1
  Te  Te202  1  0.33966289  0.33261113  0.49980030  1
  Te  Te203  1  0.34005454  0.33242052  0.84085478  1
  Te  Te204  1  0.33172154  0.66642899  0.16477268  1
  Te  Te205  1  0.33099238  0.66697470  0.49892932  1
  Te  Te206  1  0.33304710  0.67348194  0.84178380  1
  Te  Te207  1  0.66477124  -0.00572206  0.16988977  1
  Te  Te208  1  0.66540316  -0.00287731  0.50052334  1
  Te  Te209  1  0.66158775  0.00468614  0.83193281  1
  Te  Te210  1  0.66656975  0.33224407  0.16185484  1
  Te  Te211  1  0.66174935  0.32970311  0.49974252  1
  Te  Te212  1  0.66165860  0.32730096  0.83750724  1
  Te  Te213  1  0.66815228  0.67091103  0.16483340  1
  Te  Te214  1  0.66585168  0.67126240  0.50170542  1
  Te  Te215  1  0.66702121  0.66636756  0.83698291  1
