# generated using pymatgen
data_AgSbTe2
_symmetry_space_group_name_H-M   'P 1'
_cell_length_a   18.32510040
_cell_length_b   18.32512514
_cell_length_c   18.32094854
_cell_angle_alpha   89.99779062
_cell_angle_beta   89.99340205
_cell_angle_gamma   89.99965770
_symmetry_Int_Tables_number   1
_chemical_formula_structural   AgSbTe2
_chemical_formula_sum   'Ag54 Sb54 Te108'
_cell_volume   6152.35324989
_cell_formula_units_Z   54
loop_
 _symmetry_equiv_pos_site_id
 _symmetry_equiv_pos_as_xyz
  1  'x, y, z'
loop_
 _atom_site_type_symbol
 _atom_site_label
 _atom_site_symmetry_multiplicity
 _atom_site_fract_x
 _atom_site_fract_y
 _atom_site_fract_z
 _atom_site_occupancy
  Ag  Ag0  1  -0.00831511  0.66200324  0.32829363  1
  Ag  Ag1  1  0.49667537  0.33789556  0.50275377  1
  Ag  Ag2  1  0.49709973  -0.00413369  0.16955139  1
  Ag  Ag3  1  0.16686376  0.83168984  0.66424800  1
  Ag  Ag4  1  0.67887174  0.66675834  0.33691565  1
  Ag  Ag5  1  0.15690331  0.66653632  0.16981518  1
  Ag  Ag6  1  0.49971747  0.82718742  0.33241358  1
  Ag  Ag7  1  0.83270170  0.66339216  0.49036032  1
  Ag  Ag8  1  0.48875546  0.33542280  0.82037520  1
  Ag  Ag9  1  0.00407413  0.82737267  0.83646996  1
  Ag  Ag10  1  0.16765159  0.00542540  0.83291514  1
  Ag  Ag11  1  0.66750740  0.49862079  0.50231917  1
  Ag  Ag12  1  -0.00114598  0.66585896  0.00922265  1
  Ag  Ag13  1  0.16219918  0.83744745  0.00082204  1
  Ag  Ag14  1  0.66015392  0.33947919  0.66238778  1
  Ag  Ag15  1  0.32573305  0.33038934  0.33697841  1
  Ag  Ag16  1  0.00481223  0.50309288  0.82892102  1
  Ag  Ag17  1  0.83204143  0.50264437  0.65584166  1
  Ag  Ag18  1  0.32717735  0.16302182  0.16875508  1
  Ag  Ag19  1  0.33058523  0.82785658  0.49652573  1
  Ag  Ag20  1  0.50032300  0.67021097  0.17219323  1
  Ag  Ag21  1  0.17255768  0.49867751  0.66494705  1
  Ag  Ag22  1  0.33465598  0.66023414  0.66482471  1
  Ag  Ag23  1  0.17184046  0.33592850  0.50272095  1
  Ag  Ag24  1  -0.00589923  0.50052225  0.49482695  1
  Ag  Ag25  1  0.16340531  0.16380572  0.33280642  1
  Ag  Ag26  1  0.17163407  0.17480167  0.66786223  1
  Ag  Ag27  1  0.83211998  -0.00456653  0.49474136  1
  Ag  Ag28  1  0.66407621  0.65821522  0.65772528  1
  Ag  Ag29  1  0.66721565  0.83088539  0.17054233  1
  Ag  Ag30  1  0.32722540  0.49156122  0.82214895  1
  Ag  Ag31  1  0.32811403  0.00367344  0.33096171  1
  Ag  Ag32  1  0.84036056  0.51122734  0.33778032  1
  Ag  Ag33  1  -0.00089474  0.50595708  0.17593879  1
  Ag  Ag34  1  0.50156929  0.50492639  0.34123624  1
  Ag  Ag35  1  0.00425102  0.33717485  0.33438532  1
  Ag  Ag36  1  0.16944569  0.16045430  0.00262134  1
  Ag  Ag37  1  0.49312899  0.17907903  0.66538695  1
  Ag  Ag38  1  0.66736053  0.17322413  0.50061424  1
  Ag  Ag39  1  0.00398126  -0.00125295  0.33340773  1
  Ag  Ag40  1  0.32856477  0.17246839  0.83215258  1
  Ag  Ag41  1  0.49791029  0.49620622  0.65949966  1
  Ag  Ag42  1  0.33008151  0.00194510  0.00584122  1
  Ag  Ag43  1  0.83780341  0.50885416  0.00411768  1
  Ag  Ag44  1  0.66521163  -0.00158132  -0.00078888  1
  Ag  Ag45  1  0.83693479  0.82404697  0.33069017  1
  Ag  Ag46  1  0.00915892  0.16952666  0.17390650  1
  Ag  Ag47  1  0.33528825  0.50134117  0.50356093  1
  Ag  Ag48  1  0.83966029  0.66663057  0.17782521  1
  Ag  Ag49  1  0.84168254  0.82791879  0.00955634  1
  Ag  Ag50  1  0.16422408  0.83654334  0.33335118  1
  Ag  Ag51  1  0.66599791  -0.00015409  0.66476572  1
  Ag  Ag52  1  0.84425880  0.16469527  0.33444285  1
  Ag  Ag53  1  0.17161762  0.33003644  0.82416785  1
  Sb  Sb54  1  0.16174747  0.50073901  -0.00541977  1
  Sb  Sb55  1  0.32958817  0.49814311  0.17110380  1
  Sb  Sb56  1  0.67154240  0.83364563  0.83668916  1
  Sb  Sb57  1  0.01007445  0.16945993  0.83821130  1
  Sb  Sb58  1  0.49671062  0.82957005  0.65874655  1
  Sb  Sb59  1  0.33424936  -0.00127774  0.66352603  1
  Sb  Sb60  1  0.33467265  0.83732309  0.17394029  1
  Sb  Sb61  1  0.50456307  0.65831066  0.49424413  1
  Sb  Sb62  1  0.83874050  0.33638151  0.83034715  1
  Sb  Sb63  1  0.83180412  0.17080081  0.65910223  1
  Sb  Sb64  1  0.00236117  0.33937478  0.00386596  1
  Sb  Sb65  1  0.33711689  0.34075191  0.66048444  1
  Sb  Sb66  1  0.33416841  0.17028551  0.50024321  1
  Sb  Sb67  1  0.50229479  0.00327552  0.49662966  1
  Sb  Sb68  1  -0.00115812  0.82919444  0.16784568  1
  Sb  Sb69  1  0.16411967  0.00323131  0.49922961  1
  Sb  Sb70  1  0.33189405  0.66715845  0.33756676  1
  Sb  Sb71  1  0.49406253  0.16515329  -0.00382701  1
  Sb  Sb72  1  0.83901367  -0.00052419  0.83077829  1
  Sb  Sb73  1  0.49851170  0.66146089  0.83336971  1
  Sb  Sb74  1  0.67126428  0.50772485  0.17495306  1
  Sb  Sb75  1  0.32541953  0.83497927  0.82948075  1
  Sb  Sb76  1  0.83196618  -0.00791221  0.17356414  1
  Sb  Sb77  1  0.00054939  0.66291773  0.66375875  1
  Sb  Sb78  1  0.16946169  -0.00184427  0.16674495  1
  Sb  Sb79  1  0.66702952  -0.00545406  0.33523634  1
  Sb  Sb80  1  0.83296520  0.34014169  0.49815404  1
  Sb  Sb81  1  0.83627303  0.82806100  0.66333669  1
  Sb  Sb82  1  0.49677349  0.16705208  0.33827044  1
  Sb  Sb83  1  0.67364294  0.67014740  0.00606519  1
  Sb  Sb84  1  0.49887340  0.83435903  0.00717523  1
  Sb  Sb85  1  0.83499327  0.66523047  0.83316200  1
  Sb  Sb86  1  0.66728103  0.33911096  0.33954049  1
  Sb  Sb87  1  0.83978109  0.16315826  0.00820010  1
  Sb  Sb88  1  0.66785579  0.49856350  0.82385449  1
  Sb  Sb89  1  0.16572868  0.33371103  0.17072130  1
  Sb  Sb90  1  -0.00073340  0.00014005  0.66165401  1
  Sb  Sb91  1  0.49777364  0.33347748  0.17285310  1
  Sb  Sb92  1  0.50485116  0.50107822  -0.00043569  1
  Sb  Sb93  1  0.16303939  0.49959662  0.33989450  1
  Sb  Sb94  1  -0.00195234  0.17292830  0.49284587  1
  Sb  Sb95  1  0.33027163  0.32884630  -0.00018918  1
  Sb  Sb96  1  0.83472342  0.34091423  0.17147432  1
  Sb  Sb97  1  0.00294865  0.82822861  0.49761227  1
  Sb  Sb98  1  0.16388353  0.66201243  0.49672749  1
  Sb  Sb99  1  0.66483908  0.82988494  0.49523151  1
  Sb  Sb100  1  0.00313312  -0.00562420  0.00571140  1
  Sb  Sb101  1  0.65968394  0.16578215  0.82478519  1
  Sb  Sb102  1  0.16499100  0.66607846  0.83333912  1
  Sb  Sb103  1  0.66594978  0.15974466  0.17341704  1
  Sb  Sb104  1  0.00192975  0.33694014  0.66088907  1
  Sb  Sb105  1  0.66682254  0.32951280  -0.00769268  1
  Sb  Sb106  1  0.32661471  0.67153519  -0.00195900  1
  Sb  Sb107  1  0.49368880  0.00331727  0.83524062  1
  Te  Te108  1  0.16845058  0.16786935  0.17098463  1
  Te  Te109  1  0.16610178  0.17148463  0.49953971  1
  Te  Te110  1  0.16942103  0.16671271  0.82972636  1
  Te  Te111  1  0.16125016  0.50389213  0.16381875  1
  Te  Te112  1  0.17025243  0.49748282  0.50499122  1
  Te  Te113  1  0.16706887  0.49934226  0.82967325  1
  Te  Te114  1  0.16791915  0.82899974  0.16889957  1
  Te  Te115  1  0.16912271  0.83312159  0.49893610  1
  Te  Te116  1  0.16333505  0.83340156  0.83343292  1
  Te  Te117  1  0.49696062  0.16363029  0.16642553  1
  Te  Te118  1  0.50414955  0.17110276  0.50578144  1
  Te  Te119  1  0.49274308  0.17103236  0.82743484  1
  Te  Te120  1  0.49987688  0.50273790  0.16961709  1
  Te  Te121  1  0.49843474  0.49846373  0.50022843  1
  Te  Te122  1  0.49683162  0.49535712  0.83138303  1
  Te  Te123  1  0.50192425  0.83368497  0.17206841  1
  Te  Te124  1  0.49368981  0.83427796  0.49260204  1
  Te  Te125  1  0.49972479  0.83273246  0.83237494  1
  Te  Te126  1  0.83507452  0.16685020  0.17277718  1
  Te  Te127  1  0.83030380  0.16445602  0.49608637  1
  Te  Te128  1  0.83460268  0.16716817  0.83603338  1
  Te  Te129  1  0.83735710  0.50620515  0.17050114  1
  Te  Te130  1  0.83331016  0.50102050  0.49765567  1
  Te  Te131  1  0.83892698  0.49892250  0.83468355  1
  Te  Te132  1  0.83145918  0.82825259  0.16873510  1
  Te  Te133  1  0.83360881  0.83164123  0.49596788  1
  Te  Te134  1  0.84119894  0.83417534  0.83535429  1
  Te  Te135  1  0.16762423  -0.00056138  -0.00091935  1
  Te  Te136  1  0.16673789  -0.00075523  0.33405290  1
  Te  Te137  1  0.16647185  -0.00405759  0.66849245  1
  Te  Te138  1  0.16634747  0.32654752  -0.00519238  1
  Te  Te139  1  0.16586164  0.33258543  0.33542905  1
  Te  Te140  1  0.16629209  0.33473362  0.66453426  1
  Te  Te141  1  0.16194422  0.67105941  0.00491386  1
  Te  Te142  1  0.16460105  0.67050770  0.32983649  1
  Te  Te143  1  0.16900077  0.66581148  0.66527298  1
  Te  Te144  1  0.49896568  -0.00020131  0.00371262  1
  Te  Te145  1  0.49752605  -0.00182937  0.32979555  1
  Te  Te146  1  0.50453134  -0.00023686  0.66704412  1
  Te  Te147  1  0.50080352  0.33362125  -0.00498722  1
  Te  Te148  1  0.49883915  0.33792017  0.33851205  1
  Te  Te149  1  0.50023418  0.33496996  0.66409874  1
  Te  Te150  1  0.50121704  0.66701411  0.00759779  1
  Te  Te151  1  0.49667327  0.66660008  0.33026742  1
  Te  Te152  1  0.50032592  0.66188910  0.66616132  1
  Te  Te153  1  0.83097621  -0.00581590  0.00038940  1
  Te  Te154  1  0.83394716  0.00177112  0.33645436  1
  Te  Te155  1  0.82957808  -0.00025005  0.66186793  1
  Te  Te156  1  0.83306156  0.33793918  -0.00035899  1
  Te  Te157  1  0.83766559  0.32777423  0.33381957  1
  Te  Te158  1  0.82722993  0.33977645  0.66610975  1
  Te  Te159  1  0.83712537  0.66865429  -0.00044706  1
  Te  Te160  1  0.83435482  0.66726122  0.33350215  1
  Te  Te161  1  0.82986152  0.66237411  0.66358252  1
  Te  Te162  1  0.00614496  0.16712818  0.00809128  1
  Te  Te163  1  0.00297899  0.16622893  0.33273216  1
  Te  Te164  1  0.00558807  0.16774588  0.66773530  1
  Te  Te165  1  -0.00331247  0.50437786  -0.00078599  1
  Te  Te166  1  0.00074915  0.50097364  0.33461693  1
  Te  Te167  1  -0.00140284  0.50004259  0.66727266  1
  Te  Te168  1  0.00185482  0.83040861  -0.00079240  1
  Te  Te169  1  0.00147830  0.83459784  0.33386294  1
  Te  Te170  1  0.00572221  0.83182691  0.67090150  1
  Te  Te171  1  0.32877069  0.16262437  0.00128744  1
  Te  Te172  1  0.33133484  0.16585495  0.33329953  1
  Te  Te173  1  0.33197741  0.16350532  0.66837388  1
  Te  Te174  1  0.33388489  0.50099301  -0.00171484  1
  Te  Te175  1  0.33422800  0.49614274  0.33589021  1
  Te  Te176  1  0.33352723  0.50150405  0.66575532  1
  Te  Te177  1  0.32845527  0.84017332  -0.00132325  1
  Te  Te178  1  0.32984368  0.83412352  0.33624904  1
  Te  Te179  1  0.32864963  0.82964487  0.66114766  1
  Te  Te180  1  0.66902041  0.16079021  -0.00028210  1
  Te  Te181  1  0.66725746  0.16726752  0.33954714  1
  Te  Te182  1  0.66676343  0.16389831  0.66079858  1
  Te  Te183  1  0.67452821  0.49995365  -0.00114945  1
  Te  Te184  1  0.66480409  0.50421116  0.33852964  1
  Te  Te185  1  0.66594068  0.50082353  0.66371129  1
  Te  Te186  1  0.66850785  0.83738602  0.00423375  1
  Te  Te187  1  0.66738111  0.82907101  0.33096269  1
  Te  Te188  1  0.66661688  0.83523046  0.66748326  1
  Te  Te189  1  -0.00081570  0.00650900  0.17295101  1
  Te  Te190  1  -0.00636897  -0.00043374  0.49419559  1
  Te  Te191  1  0.00675310  -0.00172494  0.83297685  1
  Te  Te192  1  0.00000280  0.33363953  0.17286768  1
  Te  Te193  1  0.00448762  0.33990793  0.49463720  1
  Te  Te194  1  0.00717627  0.33850753  0.83366243  1
  Te  Te195  1  -0.00069216  0.66636960  0.16790389  1
  Te  Te196  1  -0.00456443  0.66114541  0.49500110  1
  Te  Te197  1  0.00003232  0.66487990  0.83576293  1
  Te  Te198  1  0.33586439  0.00275028  0.16837412  1
  Te  Te199  1  0.33321602  -0.00322955  0.49386711  1
  Te  Te200  1  0.32765117  0.00344652  0.83513386  1
  Te  Te201  1  0.33326335  0.32708209  0.17359215  1
  Te  Te202  1  0.33341203  0.33581330  0.49533327  1
  Te  Te203  1  0.33149003  0.33295482  0.83607457  1
  Te  Te204  1  0.33651780  0.66596565  0.16462340  1
  Te  Te205  1  0.33209478  0.66417112  0.50417107  1
  Te  Te206  1  0.33336338  0.66205528  0.82898733  1
  Te  Te207  1  0.66185377  -0.00494629  0.16369619  1
  Te  Te208  1  0.66989796  -0.00019958  0.50276047  1
  Te  Te209  1  0.66638019  -0.00005022  0.83402607  1
  Te  Te210  1  0.66520778  0.33214783  0.16303753  1
  Te  Te211  1  0.66500344  0.33595647  0.50283133  1
  Te  Te212  1  0.66259959  0.33111160  0.82516991  1
  Te  Te213  1  0.66504521  0.67141443  0.17086164  1
  Te  Te214  1  0.66991090  0.66396509  0.49862005  1
  Te  Te215  1  0.66570416  0.66716454  0.82625141  1
