# generated using pymatgen
data_AgSbTe2
_symmetry_space_group_name_H-M   'P 1'
_cell_length_a   18.32724077
_cell_length_b   18.31756585
_cell_length_c   18.32682053
_cell_angle_alpha   90.00225429
_cell_angle_beta   90.00060983
_cell_angle_gamma   89.99748044
_symmetry_Int_Tables_number   1
_chemical_formula_structural   AgSbTe2
_chemical_formula_sum   'Ag54 Sb54 Te108'
_cell_volume   6152.50496606
_cell_formula_units_Z   54
loop_
 _symmetry_equiv_pos_site_id
 _symmetry_equiv_pos_as_xyz
  1  'x, y, z'
loop_
 _atom_site_type_symbol
 _atom_site_label
 _atom_site_symmetry_multiplicity
 _atom_site_fract_x
 _atom_site_fract_y
 _atom_site_fract_z
 _atom_site_occupancy
  Ag  Ag0  1  -0.00155391  0.00618951  0.34163349  1
  Ag  Ag1  1  -0.00156120  0.83977960  0.50762244  1
  Ag  Ag2  1  0.83163535  0.84072368  0.33323228  1
  Ag  Ag3  1  0.33303068  0.00161377  -0.00534561  1
  Ag  Ag4  1  0.66994242  0.16748520  0.16880165  1
  Ag  Ag5  1  0.66639344  0.66237068  0.33779851  1
  Ag  Ag6  1  0.32584057  0.00795751  0.66917376  1
  Ag  Ag7  1  0.83386455  0.16397122  0.67009534  1
  Ag  Ag8  1  0.65988277  0.49684639  0.17417028  1
  Ag  Ag9  1  0.33711880  0.49367228  0.16332199  1
  Ag  Ag10  1  0.49673419  0.49999722  -0.00294122  1
  Ag  Ag11  1  0.49991414  0.00258096  0.16448546  1
  Ag  Ag12  1  0.32911481  0.49703771  0.83205722  1
  Ag  Ag13  1  -0.00198815  -0.00092563  0.66514075  1
  Ag  Ag14  1  0.17000859  0.32897498  0.50343038  1
  Ag  Ag15  1  0.50371765  0.65847585  0.50760535  1
  Ag  Ag16  1  0.49984459  0.33914435  0.50505456  1
  Ag  Ag17  1  0.33880015  0.49362893  0.50489171  1
  Ag  Ag18  1  0.49705516  0.00043725  0.83314141  1
  Ag  Ag19  1  0.67039263  0.83713909  0.83141914  1
  Ag  Ag20  1  0.00989896  0.50361171  0.83147401  1
  Ag  Ag21  1  0.00064546  0.32575059  0.33583812  1
  Ag  Ag22  1  0.32891662  0.16864463  0.16776988  1
  Ag  Ag23  1  0.00223261  0.16142814  0.83716711  1
  Ag  Ag24  1  0.16745936  0.66301173  0.15633987  1
  Ag  Ag25  1  0.82884925  0.32797148  0.49615401  1
  Ag  Ag26  1  0.15943354  0.00710946  0.50612146  1
  Ag  Ag27  1  0.17025254  0.33914046  0.82589951  1
  Ag  Ag28  1  0.66791024  0.83829270  0.17100704  1
  Ag  Ag29  1  0.16532847  0.16706802  0.32809751  1
  Ag  Ag30  1  -0.00151939  0.67225181  0.67157772  1
  Ag  Ag31  1  0.16269963  0.65986194  0.83510990  1
  Ag  Ag32  1  0.66068471  0.49494218  0.49799570  1
  Ag  Ag33  1  0.00931029  0.66579549  -0.01311430  1
  Ag  Ag34  1  0.00164527  0.16620622  0.16393811  1
  Ag  Ag35  1  0.32921759  0.00771949  0.33383115  1
  Ag  Ag36  1  0.82931933  0.32925363  0.17639613  1
  Ag  Ag37  1  0.67030573  0.00190758  0.33538040  1
  Ag  Ag38  1  0.32910641  0.66282133  -0.00308749  1
  Ag  Ag39  1  0.66261916  0.33317022  0.65870466  1
  Ag  Ag40  1  0.49553082  0.66140102  0.83118804  1
  Ag  Ag41  1  0.33354133  0.33139385  0.66095096  1
  Ag  Ag42  1  0.16727342  0.49575053  0.67094839  1
  Ag  Ag43  1  0.33191865  0.32925119  0.34059982  1
  Ag  Ag44  1  0.84194510  0.16601799  -0.00136573  1
  Ag  Ag45  1  0.83998079  0.00501983  0.50467610  1
  Ag  Ag46  1  0.67454410  0.00251186  0.66590441  1
  Ag  Ag47  1  0.66766976  0.66440864  0.66380530  1
  Ag  Ag48  1  0.16338626  0.16516186  0.00189499  1
  Ag  Ag49  1  0.49269228  0.33774215  0.82633921  1
  Ag  Ag50  1  0.66787438  0.33313357  0.33938494  1
  Ag  Ag51  1  -0.00250556  0.83800003  0.82801980  1
  Ag  Ag52  1  0.16373010  0.00227093  0.82594486  1
  Ag  Ag53  1  0.84200513  0.00192883  0.82430906  1
  Sb  Sb54  1  -0.00389967  0.83864062  0.16583872  1
  Sb  Sb55  1  0.00104124  0.49958113  0.50488580  1
  Sb  Sb56  1  0.50000532  0.00159340  0.50164203  1
  Sb  Sb57  1  0.32906968  0.83281761  0.50032623  1
  Sb  Sb58  1  0.00255344  0.49524600  0.16228376  1
  Sb  Sb59  1  0.83102818  0.49739078  0.33405293  1
  Sb  Sb60  1  0.16397048  0.83364697  0.66827369  1
  Sb  Sb61  1  0.16260579  0.16760117  0.66884423  1
  Sb  Sb62  1  0.00169034  0.33314905  0.00000181  1
  Sb  Sb63  1  0.00451283  0.00071659  -0.00601618  1
  Sb  Sb64  1  0.66253802  0.00123687  -0.00012346  1
  Sb  Sb65  1  0.67127093  0.16196761  0.83538047  1
  Sb  Sb66  1  0.83052681  0.49507693  -0.00028299  1
  Sb  Sb67  1  0.67088902  0.83188609  0.50000391  1
  Sb  Sb68  1  0.50038589  0.83133269  -0.00216812  1
  Sb  Sb69  1  0.49450519  0.49797155  0.66886963  1
  Sb  Sb70  1  0.50461418  0.16792552  0.66893800  1
  Sb  Sb71  1  0.82928950  0.66737624  0.50174007  1
  Sb  Sb72  1  0.32635314  0.16796331  0.83723310  1
  Sb  Sb73  1  0.33206430  0.83395136  0.83278191  1
  Sb  Sb74  1  0.16926665  0.66388839  0.50505203  1
  Sb  Sb75  1  0.83617968  0.49426990  0.66682819  1
  Sb  Sb76  1  0.50685575  0.83495327  0.33270642  1
  Sb  Sb77  1  0.16583579  0.83457935  -0.00147205  1
  Sb  Sb78  1  0.83391092  0.83975720  0.00161229  1
  Sb  Sb79  1  -0.00041892  0.16188548  0.49872973  1
  Sb  Sb80  1  0.83487495  0.66333188  0.16672058  1
  Sb  Sb81  1  0.83481227  0.32666582  0.82994258  1
  Sb  Sb82  1  0.00124156  0.32843749  0.66305126  1
  Sb  Sb83  1  0.16628133  0.33371916  0.16801453  1
  Sb  Sb84  1  0.17029203  0.00155014  0.16603141  1
  Sb  Sb85  1  0.33018592  0.17307643  0.49601268  1
  Sb  Sb86  1  0.66593089  0.33212067  0.00067266  1
  Sb  Sb87  1  0.83437908  0.84129274  0.66267747  1
  Sb  Sb88  1  0.33756730  0.66384204  0.33075132  1
  Sb  Sb89  1  0.33300810  0.33429871  -0.00141746  1
  Sb  Sb90  1  0.83740059  0.16553898  0.33187908  1
  Sb  Sb91  1  0.33698009  0.83647327  0.16748867  1
  Sb  Sb92  1  -0.00301397  0.66887094  0.33597916  1
  Sb  Sb93  1  0.33356851  0.66230333  0.67184454  1
  Sb  Sb94  1  0.49631836  0.16698459  0.33153975  1
  Sb  Sb95  1  0.49848935  0.66728688  0.16400130  1
  Sb  Sb96  1  0.50238932  0.33129523  0.16920026  1
  Sb  Sb97  1  0.66922386  0.17234426  0.49463555  1
  Sb  Sb98  1  0.49710866  0.16918019  0.00003364  1
  Sb  Sb99  1  0.82825697  0.00753541  0.16883109  1
  Sb  Sb100  1  0.16892314  0.49320173  0.33742573  1
  Sb  Sb101  1  0.50277503  0.83351771  0.66782561  1
  Sb  Sb102  1  0.50091921  0.49845589  0.33337321  1
  Sb  Sb103  1  0.16065830  0.84179520  0.33313383  1
  Sb  Sb104  1  0.66320518  0.50180259  0.82921838  1
  Sb  Sb105  1  0.83724695  0.67385762  0.83177601  1
  Sb  Sb106  1  0.17138637  0.49825282  -0.00578576  1
  Sb  Sb107  1  0.66468509  0.66526382  -0.00202872  1
  Te  Te108  1  0.16660813  0.16767278  0.16568186  1
  Te  Te109  1  0.16544385  0.16661627  0.49428133  1
  Te  Te110  1  0.16244658  0.16280484  0.83511696  1
  Te  Te111  1  0.17086641  0.50301086  0.16587975  1
  Te  Te112  1  0.17010190  0.49592381  0.50541537  1
  Te  Te113  1  0.16883080  0.49954114  0.83315421  1
  Te  Te114  1  0.16573923  0.82333864  0.16633716  1
  Te  Te115  1  0.16052561  0.83825114  0.49953484  1
  Te  Te116  1  0.16180921  0.83596345  0.83360612  1
  Te  Te117  1  0.49923944  0.16280177  0.16539213  1
  Te  Te118  1  0.50002183  0.17645963  0.50101392  1
  Te  Te119  1  0.50027643  0.16447944  0.83521044  1
  Te  Te120  1  0.49827729  0.49973480  0.16131677  1
  Te  Te121  1  0.49981449  0.49909347  0.50047264  1
  Te  Te122  1  0.49854333  0.50031654  0.83536257  1
  Te  Te123  1  0.50769093  0.83898313  0.16539813  1
  Te  Te124  1  0.49872290  0.82407029  0.50035590  1
  Te  Te125  1  0.50459202  0.83595218  0.83385247  1
  Te  Te126  1  0.83482645  0.17073237  0.16475891  1
  Te  Te127  1  0.83399209  0.16572394  0.50600531  1
  Te  Te128  1  0.83832706  0.16223202  0.83485768  1
  Te  Te129  1  0.82960240  0.49164185  0.16592711  1
  Te  Te130  1  0.82883894  0.49384250  0.50039620  1
  Te  Te131  1  0.83710802  0.49836983  0.83483503  1
  Te  Te132  1  0.82742243  0.83285899  0.17017949  1
  Te  Te133  1  0.83793257  0.83743940  0.49450619  1
  Te  Te134  1  0.83294752  0.84100292  0.83496460  1
  Te  Te135  1  0.17160463  0.00317080  -0.00252078  1
  Te  Te136  1  0.16671996  0.00511828  0.33354769  1
  Te  Te137  1  0.16474971  0.00145296  0.66500331  1
  Te  Te138  1  0.16615517  0.32657391  -0.00744986  1
  Te  Te139  1  0.16896585  0.32884119  0.33502574  1
  Te  Te140  1  0.16757833  0.33310335  0.66595910  1
  Te  Te141  1  0.16826827  0.66610223  -0.00427512  1
  Te  Te142  1  0.16660538  0.66761455  0.33460141  1
  Te  Te143  1  0.16474418  0.66329305  0.67131291  1
  Te  Te144  1  0.49334812  0.00102445  -0.00161512  1
  Te  Te145  1  0.50259442  0.00059168  0.33285912  1
  Te  Te146  1  0.50337655  0.00096218  0.67019457  1
  Te  Te147  1  0.49973005  0.33802120  -0.00947551  1
  Te  Te148  1  0.50098448  0.33278522  0.33806117  1
  Te  Te149  1  0.50020224  0.33259487  0.66690548  1
  Te  Te150  1  0.49598855  0.66285744  -0.00474215  1
  Te  Te151  1  0.50658331  0.66794927  0.33504885  1
  Te  Te152  1  0.50265412  0.66703594  0.66991551  1
  Te  Te153  1  0.83474967  0.00647727  -0.00355294  1
  Te  Te154  1  0.83187368  0.00108297  0.33495827  1
  Te  Te155  1  0.83400283  0.00229568  0.66520767  1
  Te  Te156  1  0.83377153  0.32635094  0.00243415  1
  Te  Te157  1  0.82968374  0.33235180  0.33600228  1
  Te  Te158  1  0.83060640  0.32691362  0.66194804  1
  Te  Te159  1  0.83887112  0.66613646  0.00049792  1
  Te  Te160  1  0.82706929  0.67118054  0.33366212  1
  Te  Te161  1  0.83165760  0.66512455  0.66644651  1
  Te  Te162  1  0.00212294  0.16618685  0.00170552  1
  Te  Te163  1  0.00315649  0.16636370  0.33092944  1
  Te  Te164  1  -0.00371286  0.16115306  0.67322480  1
  Te  Te165  1  -0.00123637  0.50493302  -0.00574111  1
  Te  Te166  1  -0.00008978  0.49480989  0.33296545  1
  Te  Te167  1  0.00426307  0.50176803  0.67142865  1
  Te  Te168  1  -0.00123068  0.82638883  -0.00352342  1
  Te  Te169  1  -0.00648146  0.83777091  0.33416469  1
  Te  Te170  1  -0.00076569  0.83459030  0.66785532  1
  Te  Te171  1  0.33001418  0.16354584  0.00624590  1
  Te  Te172  1  0.33055013  0.16755925  0.32897245  1
  Te  Te173  1  0.33280256  0.16802174  0.66827750  1
  Te  Te174  1  0.33548364  0.50125411  -0.00081061  1
  Te  Te175  1  0.33372615  0.49626771  0.33105185  1
  Te  Te176  1  0.32832921  0.49643226  0.66929941  1
  Te  Te177  1  0.33330825  0.83378780  0.00104276  1
  Te  Te178  1  0.33270851  0.84008328  0.33387465  1
  Te  Te179  1  0.33340518  0.84613127  0.66544904  1
  Te  Te180  1  0.67007070  0.16680939  0.00854301  1
  Te  Te181  1  0.66644887  0.16573206  0.32783658  1
  Te  Te182  1  0.67201494  0.16488526  0.66770376  1
  Te  Te183  1  0.66162989  0.50029853  0.00421603  1
  Te  Te184  1  0.66658986  0.49854731  0.33421378  1
  Te  Te185  1  0.66861085  0.49940609  0.66273645  1
  Te  Te186  1  0.66832408  0.83217242  -0.00026371  1
  Te  Te187  1  0.67091239  0.83855768  0.33267352  1
  Te  Te188  1  0.66844476  0.83358076  0.67025750  1
  Te  Te189  1  0.00025087  0.00480821  0.17039378  1
  Te  Te190  1  -0.00000204  0.00003074  0.50081189  1
  Te  Te191  1  0.00162472  -0.00058669  0.83309326  1
  Te  Te192  1  -0.00239484  0.33013677  0.17115621  1
  Te  Te193  1  0.00267618  0.33449575  0.49549608  1
  Te  Te194  1  0.00345488  0.33336659  0.83171736  1
  Te  Te195  1  0.00427599  0.66581280  0.16762868  1
  Te  Te196  1  -0.00014040  0.67097958  0.50580446  1
  Te  Te197  1  0.00021001  0.66733033  0.82973823  1
  Te  Te198  1  0.33596106  0.00157231  0.17013922  1
  Te  Te199  1  0.33396543  0.00046142  0.49983870  1
  Te  Te200  1  0.33266937  -0.00003073  0.83236353  1
  Te  Te201  1  0.33450515  0.33305805  0.16983230  1
  Te  Te202  1  0.33057104  0.33532319  0.50106692  1
  Te  Te203  1  0.33258038  0.33474448  0.83159463  1
  Te  Te204  1  0.33115256  0.66520685  0.16385110  1
  Te  Te205  1  0.33919344  0.66022441  0.50069257  1
  Te  Te206  1  0.33453622  0.66689341  0.83512350  1
  Te  Te207  1  0.66388266  0.00098059  0.16733881  1
  Te  Te208  1  0.66544304  0.00029985  0.50120991  1
  Te  Te209  1  0.66236895  -0.00182996  0.83225892  1
  Te  Te210  1  0.66710719  0.33368554  0.16833371  1
  Te  Te211  1  0.66753855  0.33417653  0.50005447  1
  Te  Te212  1  0.66497403  0.33272106  0.82688734  1
  Te  Te213  1  0.66656173  0.66304102  0.16961286  1
  Te  Te214  1  0.66446968  0.66430777  0.50133686  1
  Te  Te215  1  0.66564880  0.67013609  0.82974203  1
