# generated using pymatgen
data_AgSbTe2
_symmetry_space_group_name_H-M   'P 1'
_cell_length_a   18.34116165
_cell_length_b   18.34879582
_cell_length_c   18.34685308
_cell_angle_alpha   90.00190368
_cell_angle_beta   90.00362942
_cell_angle_gamma   90.00274894
_symmetry_Int_Tables_number   1
_chemical_formula_structural   AgSbTe2
_chemical_formula_sum   'Ag54 Sb54 Te108'
_cell_volume   6174.41744072
_cell_formula_units_Z   54
loop_
 _symmetry_equiv_pos_site_id
 _symmetry_equiv_pos_as_xyz
  1  'x, y, z'
loop_
 _atom_site_type_symbol
 _atom_site_label
 _atom_site_symmetry_multiplicity
 _atom_site_fract_x
 _atom_site_fract_y
 _atom_site_fract_z
 _atom_site_occupancy
  Ag  Ag0  1  0.16682567  0.34251328  0.82306999  1
  Ag  Ag1  1  0.33476982  0.84082301  0.17114573  1
  Ag  Ag2  1  0.16922570  0.00039956  0.82222241  1
  Ag  Ag3  1  0.01341803  0.51262620  0.49998282  1
  Ag  Ag4  1  0.16595176  0.65995957  0.82226275  1
  Ag  Ag5  1  0.33224981  -0.00120921  0.33617070  1
  Ag  Ag6  1  0.32771692  0.67012058  0.33635759  1
  Ag  Ag7  1  0.17546387  -0.00541418  0.18049176  1
  Ag  Ag8  1  0.17406024  0.33525701  0.50471760  1
  Ag  Ag9  1  0.16780877  0.66577337  0.50191547  1
  Ag  Ag10  1  0.16981855  0.67062271  0.17815448  1
  Ag  Ag11  1  0.66758310  0.66504855  -0.00895681  1
  Ag  Ag12  1  0.49403660  0.00032849  0.49724109  1
  Ag  Ag13  1  0.66492764  0.50879617  0.15739741  1
  Ag  Ag14  1  0.17232362  0.15911749  0.34108961  1
  Ag  Ag15  1  0.33279380  0.32287329  0.34041356  1
  Ag  Ag16  1  0.33100654  0.49449138  0.50205600  1
  Ag  Ag17  1  0.17358739  0.16213890  0.65939815  1
  Ag  Ag18  1  0.00338919  0.82976860  0.49701018  1
  Ag  Ag19  1  0.66681496  0.66453926  0.66994971  1
  Ag  Ag20  1  0.16959707  0.50115930  -0.01014122  1
  Ag  Ag21  1  0.49514339  0.49750597  0.66426781  1
  Ag  Ag22  1  0.49330287  0.66699415  0.49953813  1
  Ag  Ag23  1  0.82794998  0.82561141  0.00302753  1
  Ag  Ag24  1  0.83241373  0.34657304  0.83172179  1
  Ag  Ag25  1  0.65772250  -0.00560605  0.33883930  1
  Ag  Ag26  1  0.32751902  0.50100357  0.82225952  1
  Ag  Ag27  1  0.33053201  0.00223274  0.65290776  1
  Ag  Ag28  1  0.16846117  0.82618949  0.66354001  1
  Ag  Ag29  1  0.66433486  0.50479529  0.83436572  1
  Ag  Ag30  1  0.01309670  -0.00915020  0.33832864  1
  Ag  Ag31  1  0.49479055  0.17044351  0.65697325  1
  Ag  Ag32  1  0.33338934  0.16428021  0.49849753  1
  Ag  Ag33  1  0.82725478  0.83166039  0.33511153  1
  Ag  Ag34  1  0.00678298  0.67229246  0.34361587  1
  Ag  Ag35  1  0.33282486  0.15715889  0.18207557  1
  Ag  Ag36  1  0.65041486  0.15426726  0.50033219  1
  Ag  Ag37  1  0.66810221  0.83653982  0.49576722  1
  Ag  Ag38  1  0.17462004  0.00201740  0.49884875  1
  Ag  Ag39  1  0.66253288  0.34488937  0.66511549  1
  Ag  Ag40  1  0.66757312  0.82317119  0.82903023  1
  Ag  Ag41  1  0.66203678  0.82911596  0.17779375  1
  Ag  Ag42  1  0.50212601  0.83755378  0.33637668  1
  Ag  Ag43  1  0.49220562  -0.00252994  0.18031511  1
  Ag  Ag44  1  0.82502862  0.50656676  -0.00346366  1
  Ag  Ag45  1  0.17368757  0.50338343  0.66677848  1
  Ag  Ag46  1  0.17397308  0.16775310  -0.00137998  1
  Ag  Ag47  1  0.49446964  0.16914991  -0.00222205  1
  Ag  Ag48  1  0.83235867  0.50729230  0.33537712  1
  Ag  Ag49  1  0.50515371  0.49980169  -0.00754292  1
  Ag  Ag50  1  0.01097985  0.66544471  0.66089070  1
  Ag  Ag51  1  0.82322776  0.66440043  0.83464064  1
  Ag  Ag52  1  0.82888087  -0.00352222  0.49690374  1
  Ag  Ag53  1  0.49140211  0.32583485  0.50215151  1
  Sb  Sb54  1  0.83841302  0.16298124  0.33539452  1
  Sb  Sb55  1  0.00580106  0.16543547  0.83172548  1
  Sb  Sb56  1  0.66714452  0.67208686  0.33636239  1
  Sb  Sb57  1  0.01317182  0.16301174  0.16923769  1
  Sb  Sb58  1  0.83003447  0.16890182  -0.00165850  1
  Sb  Sb59  1  0.66424597  0.34172900  -0.00803236  1
  Sb  Sb60  1  0.33473620  0.82917778  0.83550446  1
  Sb  Sb61  1  0.33415909  0.33198546  0.65919408  1
  Sb  Sb62  1  0.16971672  0.33453385  0.16959522  1
  Sb  Sb63  1  0.00273823  0.33874561  0.66495100  1
  Sb  Sb64  1  0.00942178  0.16232072  0.49972687  1
  Sb  Sb65  1  0.49102565  0.15795722  0.33945538  1
  Sb  Sb66  1  0.83613084  -0.00658236  0.82748921  1
  Sb  Sb67  1  0.66316170  0.50451467  0.50324802  1
  Sb  Sb68  1  0.83575055  0.67057621  0.50158203  1
  Sb  Sb69  1  -0.00169226  0.66583813  -0.00154265  1
  Sb  Sb70  1  0.49534358  0.33733716  0.82571294  1
  Sb  Sb71  1  0.33169603  0.66660491  0.65926822  1
  Sb  Sb72  1  0.49793421  0.32978751  0.17304239  1
  Sb  Sb73  1  0.83214514  0.50336542  0.66766681  1
  Sb  Sb74  1  0.65668914  0.16155357  0.17313102  1
  Sb  Sb75  1  0.33248667  0.00232554  0.00437937  1
  Sb  Sb76  1  0.82869332  0.33784786  0.16287386  1
  Sb  Sb77  1  0.83105824  0.16715976  0.66419139  1
  Sb  Sb78  1  0.83250463  0.33255413  0.50342699  1
  Sb  Sb79  1  0.50256233  0.50494807  0.33702356  1
  Sb  Sb80  1  0.00372506  -0.00222476  0.00640928  1
  Sb  Sb81  1  0.49656217  0.83170387  0.65858795  1
  Sb  Sb82  1  0.49796826  0.67042695  0.17201722  1
  Sb  Sb83  1  0.01146407  -0.00757694  0.65727631  1
  Sb  Sb84  1  0.33563247  0.66388597  0.00310699  1
  Sb  Sb85  1  0.83430400  0.83098203  0.66128666  1
  Sb  Sb86  1  0.33614393  0.50079943  0.17057947  1
  Sb  Sb87  1  0.00584570  0.33575420  0.33824237  1
  Sb  Sb88  1  0.33202699  0.83527802  0.49430746  1
  Sb  Sb89  1  0.16679787  0.50197761  0.33910694  1
  Sb  Sb90  1  0.00249669  0.33633099  -0.00178686  1
  Sb  Sb91  1  0.50043349  0.66415390  0.82752985  1
  Sb  Sb92  1  0.16950868  0.83549177  0.34022261  1
  Sb  Sb93  1  0.00237255  0.83166661  0.17573777  1
  Sb  Sb94  1  0.66041204  -0.00334454  0.65926373  1
  Sb  Sb95  1  0.49586062  -0.00009925  0.82912023  1
  Sb  Sb96  1  0.33043170  0.17142330  0.82784180  1
  Sb  Sb97  1  0.16279079  0.83123301  -0.00242567  1
  Sb  Sb98  1  0.33334752  0.33388253  0.00243201  1
  Sb  Sb99  1  0.66347086  0.16929135  0.82733478  1
  Sb  Sb100  1  0.50510577  0.83038630  0.00622556  1
  Sb  Sb101  1  0.83152557  -0.00354043  0.17551671  1
  Sb  Sb102  1  0.83366364  0.66823745  0.16473683  1
  Sb  Sb103  1  0.66564569  -0.00691821  0.00579932  1
  Sb  Sb104  1  0.00189707  0.50309643  0.82709545  1
  Sb  Sb105  1  0.66199793  0.33062197  0.34140129  1
  Sb  Sb106  1  -0.00071937  0.50372894  0.17166568  1
  Sb  Sb107  1  -0.00197144  0.82982094  0.82716527  1
  Te  Te108  1  0.17441558  0.16626906  0.16155069  1
  Te  Te109  1  0.17061821  0.16501146  0.50059790  1
  Te  Te110  1  0.16757570  0.16424267  0.83633344  1
  Te  Te111  1  0.16760577  0.50372809  0.16286212  1
  Te  Te112  1  0.16982016  0.50265297  0.49949100  1
  Te  Te113  1  0.16536733  0.50002316  0.83035451  1
  Te  Te114  1  0.16916307  0.83298334  0.16302110  1
  Te  Te115  1  0.16514530  0.83165901  0.50391446  1
  Te  Te116  1  0.16677179  0.83474563  0.82909256  1
  Te  Te117  1  0.49449427  0.16254730  0.16128904  1
  Te  Te118  1  0.49498082  0.16627754  0.50042304  1
  Te  Te119  1  0.49882148  0.16859302  0.83549973  1
  Te  Te120  1  0.50409334  0.49943389  0.16469046  1
  Te  Te121  1  0.49798922  0.50492852  0.50341084  1
  Te  Te122  1  0.50049661  0.49967707  0.83176627  1
  Te  Te123  1  0.50053639  0.83695222  0.17045592  1
  Te  Te124  1  0.50193853  0.83355464  0.49733058  1
  Te  Te125  1  0.50613852  0.83275101  0.83430306  1
  Te  Te126  1  0.83275375  0.16721447  0.16499248  1
  Te  Te127  1  0.83284765  0.16257763  0.49976176  1
  Te  Te128  1  0.83330356  0.16801050  0.83341949  1
  Te  Te129  1  0.82869162  0.50124116  0.16266953  1
  Te  Te130  1  0.83333220  0.49890498  0.49603820  1
  Te  Te131  1  0.83416966  0.50452115  0.83400478  1
  Te  Te132  1  0.82823216  0.83366850  0.16841750  1
  Te  Te133  1  0.83145198  0.83625563  0.49596036  1
  Te  Te134  1  0.82883452  0.82928779  0.83516480  1
  Te  Te135  1  0.16547075  0.00192580  -0.00333287  1
  Te  Te136  1  0.17068691  -0.00111236  0.33672845  1
  Te  Te137  1  0.16983311  0.00329628  0.66283346  1
  Te  Te138  1  0.16697383  0.33464101  -0.00143604  1
  Te  Te139  1  0.17169152  0.33100716  0.33808298  1
  Te  Te140  1  0.16700648  0.33648462  0.66492513  1
  Te  Te141  1  0.16645590  0.66377142  -0.00478813  1
  Te  Te142  1  0.16596592  0.66690016  0.33712954  1
  Te  Te143  1  0.16996807  0.66501092  0.66297718  1
  Te  Te144  1  0.50042020  0.00354327  -0.00223024  1
  Te  Te145  1  0.49824438  -0.00188966  0.33618808  1
  Te  Te146  1  0.49374703  0.00365279  0.66292934  1
  Te  Te147  1  0.49984296  0.33576174  0.00133689  1
  Te  Te148  1  0.49468287  0.33608385  0.34126053  1
  Te  Te149  1  0.50201791  0.33358762  0.66183638  1
  Te  Te150  1  0.50505731  0.66170379  0.00158277  1
  Te  Te151  1  0.49776662  0.67265037  0.33885799  1
  Te  Te152  1  0.50223063  0.66423157  0.66095807  1
  Te  Te153  1  0.83471337  -0.00124346  -0.00093339  1
  Te  Te154  1  0.83139740  -0.00288529  0.33799761  1
  Te  Te155  1  0.83625045  0.00037830  0.65937932  1
  Te  Te156  1  0.83319919  0.33777225  -0.00793805  1
  Te  Te157  1  0.83394149  0.33726556  0.33294454  1
  Te  Te158  1  0.82944838  0.33354445  0.67263014  1
  Te  Te159  1  0.83210443  0.66522766  -0.00223790  1
  Te  Te160  1  0.83569331  0.66759478  0.33224781  1
  Te  Te161  1  0.82829161  0.66713789  0.67411329  1
  Te  Te162  1  0.00521738  0.16647567  0.00138195  1
  Te  Te163  1  0.00825976  0.16319290  0.33339393  1
  Te  Te164  1  0.00704198  0.16668993  0.66580956  1
  Te  Te165  1  0.00231178  0.50111091  0.00270657  1
  Te  Te166  1  -0.00478189  0.50310805  0.33842269  1
  Te  Te167  1  0.00401730  0.50549021  0.65980581  1
  Te  Te168  1  -0.01043041  0.83241850  0.00118679  1
  Te  Te169  1  -0.00415442  0.83218169  0.33751226  1
  Te  Te170  1  0.00378563  0.82604144  0.65989998  1
  Te  Te171  1  0.33360065  0.16897025  -0.00375204  1
  Te  Te172  1  0.33015944  0.16343898  0.33763713  1
  Te  Te173  1  0.33351019  0.16453963  0.66361229  1
  Te  Te174  1  0.33178763  0.49917194  0.00211405  1
  Te  Te175  1  0.33446925  0.50835688  0.33799043  1
  Te  Te176  1  0.33464303  0.50087245  0.66399048  1
  Te  Te177  1  0.33468933  0.83178731  0.00777499  1
  Te  Te178  1  0.33551128  0.83295401  0.32902604  1
  Te  Te179  1  0.32938500  0.84011403  0.67162748  1
  Te  Te180  1  0.66177491  0.16717611  0.00150108  1
  Te  Te181  1  0.66922293  0.16207890  0.33961856  1
  Te  Te182  1  0.66207677  0.16531361  0.66084665  1
  Te  Te183  1  0.66604950  0.50311012  -0.00323311  1
  Te  Te184  1  0.67062847  0.49995622  0.33133857  1
  Te  Te185  1  0.66552506  0.50284312  0.66946681  1
  Te  Te186  1  0.66936395  0.82852832  -0.00198706  1
  Te  Te187  1  0.66660172  0.83369924  0.33510874  1
  Te  Te188  1  0.66553468  0.83022997  0.66662194  1
  Te  Te189  1  0.00727293  -0.00133308  0.17585294  1
  Te  Te190  1  0.00271727  -0.00377305  0.49584020  1
  Te  Te191  1  0.00559060  -0.00241709  0.83327839  1
  Te  Te192  1  -0.00146872  0.33316002  0.16855424  1
  Te  Te193  1  0.00420262  0.33626638  0.50069301  1
  Te  Te194  1  0.00167661  0.33332771  0.83196229  1
  Te  Te195  1  0.00941176  0.66699686  0.17182973  1
  Te  Te196  1  -0.00286429  0.66857514  0.50066538  1
  Te  Te197  1  0.00586310  0.66768978  0.82822816  1
  Te  Te198  1  0.33237793  0.00088717  0.16703401  1
  Te  Te199  1  0.33410511  -0.00171637  0.49659915  1
  Te  Te200  1  0.32858289  -0.00165387  0.83382845  1
  Te  Te201  1  0.33341574  0.32945257  0.17823388  1
  Te  Te202  1  0.33185487  0.33522855  0.49780701  1
  Te  Te203  1  0.32694221  0.34157430  0.83555623  1
  Te  Te204  1  0.32982563  0.66778795  0.17206973  1
  Te  Te205  1  0.33243968  0.66815074  0.49733767  1
  Te  Te206  1  0.32874206  0.66136242  0.83473720  1
  Te  Te207  1  0.66296741  -0.00546126  0.17326286  1
  Te  Te208  1  0.66406451  -0.00264046  0.49859522  1
  Te  Te209  1  0.66812700  -0.00201334  0.83309456  1
  Te  Te210  1  0.66447662  0.33630736  0.16828098  1
  Te  Te211  1  0.66507057  0.33315813  0.50573221  1
  Te  Te212  1  0.66775774  0.33700159  0.82573129  1
  Te  Te213  1  0.66618767  0.66812496  0.16679946  1
  Te  Te214  1  0.66713630  0.67150214  0.50393618  1
  Te  Te215  1  0.66355790  0.66483471  0.83270017  1
