# generated using pymatgen
data_AgSbTe2
_symmetry_space_group_name_H-M   'P 1'
_cell_length_a   18.32238334
_cell_length_b   18.32098372
_cell_length_c   18.32588385
_cell_angle_alpha   90.00029122
_cell_angle_beta   90.00142378
_cell_angle_gamma   89.99863272
_symmetry_Int_Tables_number   1
_chemical_formula_structural   AgSbTe2
_chemical_formula_sum   'Ag54 Sb54 Te108'
_cell_volume   6151.70758247
_cell_formula_units_Z   54
loop_
 _symmetry_equiv_pos_site_id
 _symmetry_equiv_pos_as_xyz
  1  'x, y, z'
loop_
 _atom_site_type_symbol
 _atom_site_label
 _atom_site_symmetry_multiplicity
 _atom_site_fract_x
 _atom_site_fract_y
 _atom_site_fract_z
 _atom_site_occupancy
  Ag  Ag0  1  0.50152922  0.16785710  -0.00153492  1
  Ag  Ag1  1  0.50197674  0.16137933  0.33239884  1
  Ag  Ag2  1  0.82885103  0.16554770  0.00055679  1
  Ag  Ag3  1  0.16669425  0.50029261  0.67620494  1
  Ag  Ag4  1  0.50114424  0.00417147  0.82762331  1
  Ag  Ag5  1  0.33782783  0.33303055  0.00845795  1
  Ag  Ag6  1  0.33205584  0.49000331  0.16791067  1
  Ag  Ag7  1  0.50136359  -0.00377288  0.50025095  1
  Ag  Ag8  1  0.66445190  0.66860047  0.33643976  1
  Ag  Ag9  1  0.50417563  0.67719934  0.49877564  1
  Ag  Ag10  1  0.33661235  0.17739306  0.16486695  1
  Ag  Ag11  1  0.34322970  0.00306751  0.33742734  1
  Ag  Ag12  1  0.34218041  0.33424360  0.32230835  1
  Ag  Ag13  1  0.66275361  0.00232466  0.66233532  1
  Ag  Ag14  1  0.66440470  0.67386847  0.00150840  1
  Ag  Ag15  1  0.66729945  0.82926531  0.16313816  1
  Ag  Ag16  1  0.82367218  0.83687162  0.00376733  1
  Ag  Ag17  1  0.17589785  0.16971752  0.00212346  1
  Ag  Ag18  1  0.34188468  0.83286756  0.83129474  1
  Ag  Ag19  1  0.16581728  0.65916783  0.16322533  1
  Ag  Ag20  1  0.66046377  0.33395135  0.33378607  1
  Ag  Ag21  1  0.66122792  0.16221993  0.82826869  1
  Ag  Ag22  1  0.82216465  0.16852415  0.66956823  1
  Ag  Ag23  1  0.83104355  0.33515367  0.16937285  1
  Ag  Ag24  1  -0.00284643  0.00068366  0.66955867  1
  Ag  Ag25  1  0.49867279  0.49048832  -0.00089772  1
  Ag  Ag26  1  0.49270630  0.33172704  0.16391858  1
  Ag  Ag27  1  0.34090603  0.50066389  0.49741878  1
  Ag  Ag28  1  0.66336412  0.16032999  0.50588256  1
  Ag  Ag29  1  0.50291532  0.84149846  0.33884207  1
  Ag  Ag30  1  0.50560003  0.83604807  0.00030416  1
  Ag  Ag31  1  0.50550738  0.16240935  0.67031170  1
  Ag  Ag32  1  0.66554989  0.67277554  0.65983939  1
  Ag  Ag33  1  0.66006847  -0.00380127  0.34118869  1
  Ag  Ag34  1  0.65943624  0.83707253  0.83653530  1
  Ag  Ag35  1  0.17208958  0.49961925  0.33165680  1
  Ag  Ag36  1  0.34507110  0.83369154  0.50108747  1
  Ag  Ag37  1  0.66233552  0.50247527  0.49794975  1
  Ag  Ag38  1  -0.00177316  0.00215830  -0.00259480  1
  Ag  Ag39  1  -0.00697041  0.83551757  0.49480327  1
  Ag  Ag40  1  0.00113728  0.16538154  0.16292550  1
  Ag  Ag41  1  0.17792590  0.33824994  0.84220203  1
  Ag  Ag42  1  0.82685546  0.33704201  0.49373078  1
  Ag  Ag43  1  0.33120605  0.49832835  0.83267782  1
  Ag  Ag44  1  0.18079932  0.33697050  0.16293488  1
  Ag  Ag45  1  0.66260664  0.83308817  0.49707894  1
  Ag  Ag46  1  0.83050988  0.66467920  0.16605021  1
  Ag  Ag47  1  0.82823144  0.49718208  0.33605533  1
  Ag  Ag48  1  0.16967824  0.65721940  0.83817283  1
  Ag  Ag49  1  -0.00792360  0.83604820  0.16695172  1
  Ag  Ag50  1  0.83130686  0.49510524  0.66126404  1
  Ag  Ag51  1  0.01300965  0.49866623  0.83236073  1
  Ag  Ag52  1  0.49683537  0.32745773  0.84218867  1
  Ag  Ag53  1  0.34634536  -0.00043824  0.66365386  1
  Sb  Sb54  1  0.83277621  0.66612232  0.83703939  1
  Sb  Sb55  1  0.82865202  0.33252154  0.83582098  1
  Sb  Sb56  1  0.16638566  0.33618152  0.49656799  1
  Sb  Sb57  1  0.33821287  0.83228597  0.16716530  1
  Sb  Sb58  1  0.33909338  0.66171283  -0.00048545  1
  Sb  Sb59  1  0.34128103  0.16671867  0.49574902  1
  Sb  Sb60  1  0.66292778  0.50000966  0.82935474  1
  Sb  Sb61  1  0.33980855  0.66335192  0.33317634  1
  Sb  Sb62  1  0.66375140  0.50278525  0.17189462  1
  Sb  Sb63  1  0.50065190  0.00413409  0.16937872  1
  Sb  Sb64  1  0.16855419  0.17035838  0.67327088  1
  Sb  Sb65  1  -0.00108554  0.33033982  0.66785888  1
  Sb  Sb66  1  0.66389964  0.16499468  0.16620837  1
  Sb  Sb67  1  0.33542643  0.33174349  0.66704736  1
  Sb  Sb68  1  0.66638566  0.32912787  0.66096877  1
  Sb  Sb69  1  0.50268922  0.66372537  0.16882178  1
  Sb  Sb70  1  -0.00099498  0.33259659  0.33095815  1
  Sb  Sb71  1  0.83104534  -0.00054243  0.16525926  1
  Sb  Sb72  1  -0.00446317  0.66878827  0.66661500  1
  Sb  Sb73  1  0.17343220  0.49483012  -0.00103949  1
  Sb  Sb74  1  -0.00314580  0.67056838  0.00106977  1
  Sb  Sb75  1  0.16899853  0.83600769  0.00092184  1
  Sb  Sb76  1  0.82204407  0.00178627  0.50193959  1
  Sb  Sb77  1  -0.00247908  0.50375822  0.50278061  1
  Sb  Sb78  1  0.17571985  0.17278623  0.32580407  1
  Sb  Sb79  1  0.00489427  0.32827781  0.00164029  1
  Sb  Sb80  1  0.50092207  0.49451730  0.66871870  1
  Sb  Sb81  1  0.82564077  0.00051423  0.83293357  1
  Sb  Sb82  1  0.50524182  0.33115455  0.49588034  1
  Sb  Sb83  1  0.82703210  0.49896262  0.00153746  1
  Sb  Sb84  1  0.00372035  0.49858249  0.16236482  1
  Sb  Sb85  1  0.17443621  -0.00035057  0.50125915  1
  Sb  Sb86  1  -0.00176108  -0.00209869  0.33339458  1
  Sb  Sb87  1  -0.00552788  0.66668188  0.33248629  1
  Sb  Sb88  1  0.33493945  0.00459401  0.00029728  1
  Sb  Sb89  1  0.17338018  0.00169196  0.83318083  1
  Sb  Sb90  1  -0.00077030  0.83248238  0.83572888  1
  Sb  Sb91  1  0.34183947  0.16958564  0.83783992  1
  Sb  Sb92  1  0.17263824  0.82870213  0.33197539  1
  Sb  Sb93  1  0.82869124  0.83413015  0.66829420  1
  Sb  Sb94  1  0.33950806  0.66914121  0.66702132  1
  Sb  Sb95  1  0.65957028  0.33360859  0.00569119  1
  Sb  Sb96  1  0.82332292  0.66309826  0.49616046  1
  Sb  Sb97  1  0.16696614  0.82865901  0.66756629  1
  Sb  Sb98  1  0.82433357  0.17269892  0.33130788  1
  Sb  Sb99  1  0.66660419  -0.00345114  -0.00186886  1
  Sb  Sb100  1  0.49851204  0.66959760  0.83046965  1
  Sb  Sb101  1  0.50266498  0.84161675  0.66484967  1
  Sb  Sb102  1  -0.01034542  0.16189285  0.49674138  1
  Sb  Sb103  1  0.17267064  0.66436009  0.49942898  1
  Sb  Sb104  1  -0.00352849  0.16881178  0.83876469  1
  Sb  Sb105  1  0.50089210  0.49733317  0.33091950  1
  Sb  Sb106  1  0.16692420  0.00331727  0.16649677  1
  Sb  Sb107  1  0.82131721  0.82861218  0.32804300  1
  Te  Te108  1  0.16593456  0.17070913  0.16229703  1
  Te  Te109  1  0.16326449  0.16836651  0.50112779  1
  Te  Te110  1  0.16582015  0.17272811  0.84007696  1
  Te  Te111  1  0.16820551  0.49862958  0.16652695  1
  Te  Te112  1  0.16854667  0.50062651  0.49617332  1
  Te  Te113  1  0.17052797  0.49829481  0.83584664  1
  Te  Te114  1  0.16497649  0.82933669  0.16644694  1
  Te  Te115  1  0.16793912  0.83161497  0.49906658  1
  Te  Te116  1  0.17152152  0.83004658  0.83448321  1
  Te  Te117  1  0.49879562  0.16995533  0.16551270  1
  Te  Te118  1  0.50461800  0.16434819  0.49771923  1
  Te  Te119  1  0.50126837  0.16589795  0.83544429  1
  Te  Te120  1  0.49585044  0.49616545  0.16231007  1
  Te  Te121  1  0.50032352  0.49838235  0.49999292  1
  Te  Te122  1  0.49455651  0.49907114  0.83678122  1
  Te  Te123  1  0.50351960  0.83193501  0.16357740  1
  Te  Te124  1  0.50180032  0.83543632  0.50072812  1
  Te  Te125  1  0.49989196  0.83305982  0.83501897  1
  Te  Te126  1  0.83429542  0.16906728  0.16442239  1
  Te  Te127  1  0.82530378  0.17215387  0.50291023  1
  Te  Te128  1  0.82759474  0.16736668  0.83282721  1
  Te  Te129  1  0.83490712  0.50050634  0.16937733  1
  Te  Te130  1  0.83251286  0.49779536  0.49942841  1
  Te  Te131  1  0.83268625  0.49888126  0.82882876  1
  Te  Te132  1  0.83177778  0.83130214  0.16385928  1
  Te  Te133  1  0.83288171  0.83271089  0.49935959  1
  Te  Te134  1  0.82931281  0.83267821  0.84133950  1
  Te  Te135  1  0.16222616  0.00745945  -0.00082761  1
  Te  Te136  1  0.17394178  0.00016046  0.33463382  1
  Te  Te137  1  0.16256510  0.00070472  0.66767212  1
  Te  Te138  1  0.17066906  0.32949083  0.00166812  1
  Te  Te139  1  0.16966959  0.33894811  0.32840530  1
  Te  Te140  1  0.16679544  0.33954606  0.66950558  1
  Te  Te141  1  0.16654348  0.66738058  0.00118202  1
  Te  Te142  1  0.16679305  0.66080765  0.32955933  1
  Te  Te143  1  0.16599689  0.66012694  0.66932864  1
  Te  Te144  1  0.49971878  0.00136215  -0.00317217  1
  Te  Te145  1  0.50047704  0.00053800  0.33244049  1
  Te  Te146  1  0.50235393  0.00362422  0.66733874  1
  Te  Te147  1  0.49849217  0.33123332  0.00215416  1
  Te  Te148  1  0.50086016  0.33117646  0.33009071  1
  Te  Te149  1  0.49977250  0.32419820  0.67314510  1
  Te  Te150  1  0.50505351  0.67330845  -0.00021843  1
  Te  Te151  1  0.50579491  0.67055958  0.33634997  1
  Te  Te152  1  0.50688961  0.66236998  0.66050653  1
  Te  Te153  1  0.83671771  0.00224463  -0.00116726  1
  Te  Te154  1  0.82744282  0.00140576  0.33412973  1
  Te  Te155  1  0.83256636  0.00476533  0.66707432  1
  Te  Te156  1  0.83250909  0.33004868  0.00402606  1
  Te  Te157  1  0.83231283  0.33683184  0.33299735  1
  Te  Te158  1  0.83330219  0.33258366  0.66696319  1
  Te  Te159  1  0.82776036  0.66815564  0.00484561  1
  Te  Te160  1  0.82752786  0.66096694  0.32719018  1
  Te  Te161  1  0.82719204  0.66191952  0.66787360  1
  Te  Te162  1  -0.00825401  0.16269037  0.00303377  1
  Te  Te163  1  0.00221254  0.16380037  0.32641138  1
  Te  Te164  1  -0.00151210  0.16069730  0.66618684  1
  Te  Te165  1  -0.00308238  0.50065640  -0.00667060  1
  Te  Te166  1  -0.00020406  0.50006506  0.33333815  1
  Te  Te167  1  -0.00101988  0.50042178  0.67034608  1
  Te  Te168  1  -0.00079185  0.83837171  0.00444700  1
  Te  Te169  1  0.00125958  0.83425334  0.33088502  1
  Te  Te170  1  -0.00222986  0.83823714  0.66535477  1
  Te  Te171  1  0.33646914  0.16983580  0.00350453  1
  Te  Te172  1  0.33871333  0.16834726  0.32916326  1
  Te  Te173  1  0.33526313  0.15957197  0.66497223  1
  Te  Te174  1  0.33865116  0.49573446  -0.00036578  1
  Te  Te175  1  0.33400892  0.49779920  0.33388857  1
  Te  Te176  1  0.33124808  0.50058011  0.66564733  1
  Te  Te177  1  0.33800063  0.83437959  -0.00324676  1
  Te  Te178  1  0.33964427  0.83529268  0.33648339  1
  Te  Te179  1  0.33194736  0.83724892  0.66562707  1
  Te  Te180  1  0.66525475  0.16526573  -0.00247983  1
  Te  Te181  1  0.66192760  0.16875626  0.33399296  1
  Te  Te182  1  0.66558443  0.16568954  0.66661224  1
  Te  Te183  1  0.65993351  0.50592948  -0.00098622  1
  Te  Te184  1  0.66744602  0.49936095  0.33696288  1
  Te  Te185  1  0.66928512  0.49973866  0.66190651  1
  Te  Te186  1  0.66637580  0.83497215  -0.00020931  1
  Te  Te187  1  0.66323438  0.83258418  0.33669228  1
  Te  Te188  1  0.66876777  0.83418590  0.66662833  1
  Te  Te189  1  -0.00037510  -0.00070589  0.16481146  1
  Te  Te190  1  0.00121177  -0.00522671  0.50230498  1
  Te  Te191  1  0.00246671  -0.00050167  0.83348249  1
  Te  Te192  1  -0.00747100  0.32944935  0.16608857  1
  Te  Te193  1  -0.00836551  0.33250467  0.49949271  1
  Te  Te194  1  0.00225427  0.33795519  0.83437502  1
  Te  Te195  1  -0.00070575  0.66997480  0.16630593  1
  Te  Te196  1  0.00022910  0.67505243  0.50050083  1
  Te  Te197  1  0.00614707  0.66309537  0.83300965  1
  Te  Te198  1  0.33247928  0.00201681  0.17250333  1
  Te  Te199  1  0.33947645  -0.00091834  0.50018042  1
  Te  Te200  1  0.33858433  -0.00386123  0.83033491  1
  Te  Te201  1  0.33584994  0.33373122  0.16638642  1
  Te  Te202  1  0.33313347  0.33879151  0.49687948  1
  Te  Te203  1  0.33571491  0.33571638  0.83235414  1
  Te  Te204  1  0.32751318  0.66288311  0.16632834  1
  Te  Te205  1  0.34025114  0.66729695  0.50015691  1
  Te  Te206  1  0.32930108  0.66648852  0.83295655  1
  Te  Te207  1  0.66675487  -0.00838640  0.17419834  1
  Te  Te208  1  0.66202030  -0.00047754  0.50144821  1
  Te  Te209  1  0.66138970  -0.00114484  0.83110074  1
  Te  Te210  1  0.67069137  0.33388215  0.17246075  1
  Te  Te211  1  0.66889746  0.33761636  0.49511477  1
  Te  Te212  1  0.66048760  0.33053540  0.83500363  1
  Te  Te213  1  0.66831062  0.66905140  0.16744981  1
  Te  Te214  1  0.66432652  0.66711497  0.49947511  1
  Te  Te215  1  0.66653947  0.66991590  0.83459497  1
