# generated using pymatgen
data_AgSbTe2
_symmetry_space_group_name_H-M   'P 1'
_cell_length_a   18.31489193
_cell_length_b   18.31181108
_cell_length_c   18.31477346
_cell_angle_alpha   90.00488823
_cell_angle_beta   89.99748692
_cell_angle_gamma   90.00168339
_symmetry_Int_Tables_number   1
_chemical_formula_structural   AgSbTe2
_chemical_formula_sum   'Ag54 Sb54 Te108'
_cell_volume   6142.38746553
_cell_formula_units_Z   54
loop_
 _symmetry_equiv_pos_site_id
 _symmetry_equiv_pos_as_xyz
  1  'x, y, z'
loop_
 _atom_site_type_symbol
 _atom_site_label
 _atom_site_symmetry_multiplicity
 _atom_site_fract_x
 _atom_site_fract_y
 _atom_site_fract_z
 _atom_site_occupancy
  Ag  Ag0  1  0.65997586  0.67247523  0.66149696  1
  Ag  Ag1  1  0.50838893  0.82667511  0.66803183  1
  Ag  Ag2  1  0.00689341  0.33299179  0.67318469  1
  Ag  Ag3  1  0.16511517  0.34331724  0.15923020  1
  Ag  Ag4  1  0.48839261  0.49246380  -0.00172876  1
  Ag  Ag5  1  0.33002071  0.83340907  0.83354332  1
  Ag  Ag6  1  0.16871666  0.50225027  0.32176603  1
  Ag  Ag7  1  0.67010038  0.16391538  0.83488103  1
  Ag  Ag8  1  0.33415628  0.17440430  0.50479505  1
  Ag  Ag9  1  -0.00271427  0.16647221  0.83078622  1
  Ag  Ag10  1  -0.00008454  0.82976338  0.16399889  1
  Ag  Ag11  1  -0.00096662  -0.00187246  0.33135826  1
  Ag  Ag12  1  0.32373407  0.50090872  0.15978112  1
  Ag  Ag13  1  0.50061138  -0.00076207  0.16290668  1
  Ag  Ag14  1  0.83043164  0.83133573  0.66747896  1
  Ag  Ag15  1  0.33371610  0.00596946  -0.00262717  1
  Ag  Ag16  1  0.32756905  0.34018928  0.67455027  1
  Ag  Ag17  1  0.33281862  0.17420079  0.83484361  1
  Ag  Ag18  1  0.00067099  0.66639786  0.66615769  1
  Ag  Ag19  1  0.16681306  0.33661462  0.50136330  1
  Ag  Ag20  1  0.67150691  0.83858628  0.83075920  1
  Ag  Ag21  1  0.00077267  0.00076988  -0.00374323  1
  Ag  Ag22  1  0.49959731  0.66570645  0.50314062  1
  Ag  Ag23  1  0.00953870  0.49387931  0.49971659  1
  Ag  Ag24  1  0.16663409  0.33497178  0.83668730  1
  Ag  Ag25  1  0.84262448  0.32511274  0.83387659  1
  Ag  Ag26  1  0.33336711  0.66386293  0.33828093  1
  Ag  Ag27  1  0.16356212  0.65706141  0.16817372  1
  Ag  Ag28  1  0.67307689  0.83206116  0.16815996  1
  Ag  Ag29  1  0.66347553  0.67003437  0.33789342  1
  Ag  Ag30  1  0.16476403  0.83043220  0.00263745  1
  Ag  Ag31  1  0.33885099  0.65776466  0.66301822  1
  Ag  Ag32  1  0.49324301  0.50660405  0.66793824  1
  Ag  Ag33  1  0.66199449  0.32699112  -0.00101436  1
  Ag  Ag34  1  0.17096290  0.49447228  0.00845191  1
  Ag  Ag35  1  0.01054157  0.32971873  -0.00747109  1
  Ag  Ag36  1  0.01128420  0.50530380  0.16784337  1
  Ag  Ag37  1  0.66519522  0.16530985  0.49786466  1
  Ag  Ag38  1  0.82987494  0.16174368  0.33624363  1
  Ag  Ag39  1  0.49952996  0.16901710  0.00023247  1
  Ag  Ag40  1  0.83741203  0.00229553  0.83418996  1
  Ag  Ag41  1  0.32821858  0.49566818  0.50454007  1
  Ag  Ag42  1  0.66774378  0.32861669  0.33095331  1
  Ag  Ag43  1  0.33204893  0.49129166  0.83361859  1
  Ag  Ag44  1  0.50507480  0.16624758  0.33212561  1
  Ag  Ag45  1  0.32815291  0.33662928  -0.00727383  1
  Ag  Ag46  1  -0.00261282  -0.00119645  0.67695565  1
  Ag  Ag47  1  0.66353383  0.00306220  -0.00216938  1
  Ag  Ag48  1  0.15960721  0.82574546  0.32678003  1
  Ag  Ag49  1  0.83519398  0.83538641  0.33264630  1
  Ag  Ag50  1  0.84202048  0.67034654  0.17004789  1
  Ag  Ag51  1  0.00081477  0.17075773  0.50567418  1
  Ag  Ag52  1  0.66691587  0.83248190  0.50361853  1
  Ag  Ag53  1  -0.00073886  0.84174425  0.83519542  1
  Sb  Sb54  1  0.50315914  0.83522333  0.33571604  1
  Sb  Sb55  1  0.83753603  0.49702393  -0.00076987  1
  Sb  Sb56  1  0.49468600  0.33258912  0.83521963  1
  Sb  Sb57  1  0.83752906  0.50194805  0.33273462  1
  Sb  Sb58  1  0.00172727  0.66948090  0.33356295  1
  Sb  Sb59  1  0.33632821  0.83064118  0.50426842  1
  Sb  Sb60  1  0.32921258  0.82829153  0.16183362  1
  Sb  Sb61  1  0.83436991  -0.00020200  0.50318167  1
  Sb  Sb62  1  0.16427622  0.83005474  0.66929879  1
  Sb  Sb63  1  0.49799190  0.66763024  0.82606086  1
  Sb  Sb64  1  0.83559563  0.16257285  0.66745019  1
  Sb  Sb65  1  0.49375412  0.49827279  0.33313478  1
  Sb  Sb66  1  0.67105407  -0.00122106  0.32920724  1
  Sb  Sb67  1  -0.00162452  0.33062360  0.33401176  1
  Sb  Sb68  1  0.83001233  0.16685100  -0.00054204  1
  Sb  Sb69  1  0.83781944  0.33690123  0.16314462  1
  Sb  Sb70  1  0.49674130  0.83493899  -0.00366410  1
  Sb  Sb71  1  0.16395930  0.17039171  0.66776987  1
  Sb  Sb72  1  0.33444504  0.17155243  0.16326764  1
  Sb  Sb73  1  0.00765677  0.49410377  0.83319337  1
  Sb  Sb74  1  0.00257325  0.66735571  -0.00042413  1
  Sb  Sb75  1  0.66571700  0.16321493  0.16520470  1
  Sb  Sb76  1  0.49635102  0.33159352  0.16435814  1
  Sb  Sb77  1  0.33357524  0.33753901  0.33310476  1
  Sb  Sb78  1  0.16730295  0.66293177  0.83675136  1
  Sb  Sb79  1  0.67118293  -0.00692058  0.67275865  1
  Sb  Sb80  1  0.66523315  0.66954883  -0.00044581  1
  Sb  Sb81  1  0.17038165  0.66073961  0.49461245  1
  Sb  Sb82  1  0.83185898  -0.00534688  0.16321674  1
  Sb  Sb83  1  0.32979076  -0.00248512  0.32936224  1
  Sb  Sb84  1  0.17251161  0.49826936  0.66629300  1
  Sb  Sb85  1  0.83296165  0.50431541  0.66732397  1
  Sb  Sb86  1  0.49971962  0.16649701  0.66816985  1
  Sb  Sb87  1  0.16803288  -0.00148758  0.16351676  1
  Sb  Sb88  1  0.16098615  0.00290019  0.83617483  1
  Sb  Sb89  1  0.17047144  0.17130886  -0.00204722  1
  Sb  Sb90  1  0.50406377  0.00005923  0.83794518  1
  Sb  Sb91  1  0.50091862  -0.00126942  0.49696518  1
  Sb  Sb92  1  0.83829372  0.33116485  0.50430600  1
  Sb  Sb93  1  0.16436779  0.00278428  0.49855756  1
  Sb  Sb94  1  0.49446066  0.33588340  0.49984384  1
  Sb  Sb95  1  0.66373009  0.50048826  0.49953759  1
  Sb  Sb96  1  0.16628792  0.16951460  0.33535583  1
  Sb  Sb97  1  0.66558445  0.50426232  0.16593933  1
  Sb  Sb98  1  0.83024444  0.66862235  0.49660884  1
  Sb  Sb99  1  0.32943147  0.00112882  0.67386459  1
  Sb  Sb100  1  0.33239730  0.66117817  -0.00238688  1
  Sb  Sb101  1  0.83731262  0.83509109  -0.00060270  1
  Sb  Sb102  1  0.66572062  0.33565235  0.66965071  1
  Sb  Sb103  1  0.49697398  0.66973309  0.17087384  1
  Sb  Sb104  1  -0.00285449  0.83410342  0.50147960  1
  Sb  Sb105  1  0.66045671  0.49799073  0.83470437  1
  Sb  Sb106  1  0.83550549  0.67051435  0.83472158  1
  Sb  Sb107  1  -0.00009792  0.16535872  0.16356769  1
  Te  Te108  1  0.16673383  0.17623333  0.16824532  1
  Te  Te109  1  0.16651842  0.17200671  0.49979554  1
  Te  Te110  1  0.16714137  0.17314637  0.83341411  1
  Te  Te111  1  0.16715523  0.50028879  0.16595095  1
  Te  Te112  1  0.16746751  0.49674777  0.49915745  1
  Te  Te113  1  0.17288809  0.49616257  0.84246700  1
  Te  Te114  1  0.16348410  0.83267661  0.16677354  1
  Te  Te115  1  0.16699102  0.83332501  0.49215949  1
  Te  Te116  1  0.16466025  0.83158523  0.83701551  1
  Te  Te117  1  0.49992196  0.16205485  0.16537294  1
  Te  Te118  1  0.50159614  0.16662248  0.49890631  1
  Te  Te119  1  0.50094574  0.16565502  0.83637229  1
  Te  Te120  1  0.49574527  0.50074242  0.16251660  1
  Te  Te121  1  0.49528102  0.50394020  0.50172404  1
  Te  Te122  1  0.49332701  0.50110381  0.83464805  1
  Te  Te123  1  0.50214105  0.83778587  0.16581921  1
  Te  Te124  1  0.50458841  0.83038030  0.50383653  1
  Te  Te125  1  0.50003976  0.83399280  0.82914333  1
  Te  Te126  1  0.83343715  0.16768073  0.17707967  1
  Te  Te127  1  0.83189759  0.16584525  0.49604042  1
  Te  Te128  1  0.83376516  0.16551163  0.83320622  1
  Te  Te129  1  0.83785211  0.50760519  0.16695008  1
  Te  Te130  1  0.84372117  0.49990487  0.50007503  1
  Te  Te131  1  0.83284448  0.49632526  0.83324717  1
  Te  Te132  1  0.83525225  0.83078583  0.16805564  1
  Te  Te133  1  0.82751701  0.83335923  0.49872685  1
  Te  Te134  1  0.83487649  0.83508242  0.83245275  1
  Te  Te135  1  0.16620002  -0.00479647  0.00067817  1
  Te  Te136  1  0.16112281  -0.00472467  0.33100159  1
  Te  Te137  1  0.15645993  -0.00162837  0.66598541  1
  Te  Te138  1  0.16806889  0.33336671  -0.00100344  1
  Te  Te139  1  0.16593679  0.33789926  0.33599560  1
  Te  Te140  1  0.16693027  0.33434146  0.66612339  1
  Te  Te141  1  0.16741529  0.66917429  0.00662402  1
  Te  Te142  1  0.16840800  0.66616617  0.32932430  1
  Te  Te143  1  0.16514384  0.66560145  0.66621996  1
  Te  Te144  1  0.49936408  0.00151191  0.00239092  1
  Te  Te145  1  0.49867411  0.00561667  0.32795163  1
  Te  Te146  1  0.49843014  -0.00759859  0.66587558  1
  Te  Te147  1  0.50082174  0.33156600  0.00064729  1
  Te  Te148  1  0.50725145  0.32782090  0.33242324  1
  Te  Te149  1  0.49570500  0.33851603  0.66660468  1
  Te  Te150  1  0.50004015  0.65900896  0.00152026  1
  Te  Te151  1  0.50036995  0.66669321  0.33866748  1
  Te  Te152  1  0.49873014  0.66709677  0.66420159  1
  Te  Te153  1  0.83529077  0.00114885  -0.00470938  1
  Te  Te154  1  0.83816381  -0.00256013  0.33265260  1
  Te  Te155  1  0.83934045  -0.00647402  0.67199800  1
  Te  Te156  1  0.83148982  0.33241985  -0.00496176  1
  Te  Te157  1  0.82715738  0.33198631  0.33310519  1
  Te  Te158  1  0.83608772  0.33518622  0.67366610  1
  Te  Te159  1  0.83244820  0.66477930  0.00870787  1
  Te  Te160  1  0.82858336  0.67005402  0.32970230  1
  Te  Te161  1  0.83442339  0.67171588  0.66676172  1
  Te  Te162  1  -0.00057260  0.16669109  -0.00443671  1
  Te  Te163  1  -0.00189867  0.16246326  0.33472495  1
  Te  Te164  1  -0.00230023  0.16935751  0.66757156  1
  Te  Te165  1  0.00474948  0.49675342  0.00228981  1
  Te  Te166  1  0.00492447  0.49993665  0.33300812  1
  Te  Te167  1  0.00010072  0.49935660  0.66510817  1
  Te  Te168  1  0.00319779  0.83382520  -0.00072267  1
  Te  Te169  1  -0.00224100  0.83530366  0.33371244  1
  Te  Te170  1  -0.00214321  0.83317374  0.66788637  1
  Te  Te171  1  0.33744171  0.16712467  -0.00238410  1
  Te  Te172  1  0.33643742  0.16569586  0.33657022  1
  Te  Te173  1  0.33471624  0.16908143  0.66776059  1
  Te  Te174  1  0.33191742  0.49876687  -0.00180561  1
  Te  Te175  1  0.33008659  0.50318748  0.33771801  1
  Te  Te176  1  0.33405139  0.49944798  0.66641119  1
  Te  Te177  1  0.32976847  0.83340767  -0.00513404  1
  Te  Te178  1  0.33125643  0.82858813  0.33401936  1
  Te  Te179  1  0.33249641  0.83350440  0.67182276  1
  Te  Te180  1  0.66376384  0.16616549  -0.00196666  1
  Te  Te181  1  0.66665275  0.16545624  0.33360017  1
  Te  Te182  1  0.66695281  0.16634569  0.66761548  1
  Te  Te183  1  0.66405911  0.49506906  0.00001721  1
  Te  Te184  1  0.66653788  0.50217405  0.33317275  1
  Te  Te185  1  0.66073242  0.50719109  0.66656798  1
  Te  Te186  1  0.66564151  0.83672634  -0.00332093  1
  Te  Te187  1  0.66921767  0.83193132  0.33345892  1
  Te  Te188  1  0.66827078  0.83201599  0.66749824  1
  Te  Te189  1  -0.00014626  -0.00383900  0.16226713  1
  Te  Te190  1  0.00004856  0.00660400  0.49727039  1
  Te  Te191  1  -0.00071467  0.00164185  0.83579916  1
  Te  Te192  1  0.00279709  0.33554500  0.16215341  1
  Te  Te193  1  0.00349427  0.33155758  0.50171944  1
  Te  Te194  1  0.00192066  0.33213171  0.83308807  1
  Te  Te195  1  0.00238667  0.66869807  0.16702864  1
  Te  Te196  1  0.00036380  0.66333368  0.50496711  1
  Te  Te197  1  -0.00023636  0.67168556  0.82760869  1
  Te  Te198  1  0.33721755  -0.00084149  0.16037828  1
  Te  Te199  1  0.33265386  0.00804909  0.50058480  1
  Te  Te200  1  0.33125254  0.00081790  0.83785596  1
  Te  Te201  1  0.32873174  0.33925614  0.16380295  1
  Te  Te202  1  0.32954664  0.33299482  0.50006642  1
  Te  Te203  1  0.33067335  0.33171191  0.83289337  1
  Te  Te204  1  0.33018763  0.66205983  0.17141715  1
  Te  Te205  1  0.33632338  0.66571446  0.50156699  1
  Te  Te206  1  0.33192047  0.67145226  0.82701356  1
  Te  Te207  1  0.66484763  -0.00626117  0.16021121  1
  Te  Te208  1  0.66677697  0.00266315  0.50062840  1
  Te  Te209  1  0.67058808  0.00117422  0.83748747  1
  Te  Te210  1  0.66836564  0.33516069  0.16462978  1
  Te  Te211  1  0.66785841  0.33020732  0.49920430  1
  Te  Te212  1  0.66985444  0.33002002  0.83538749  1
  Te  Te213  1  0.66522236  0.67206510  0.16952420  1
  Te  Te214  1  0.66400163  0.66681996  0.49965078  1
  Te  Te215  1  0.66857979  0.67089442  0.82939234  1
