# generated using pymatgen
data_AgSbTe2
_symmetry_space_group_name_H-M   'P 1'
_cell_length_a   18.36144356
_cell_length_b   18.35797519
_cell_length_c   18.36779874
_cell_angle_alpha   89.99987076
_cell_angle_beta   90.00028483
_cell_angle_gamma   89.99978897
_symmetry_Int_Tables_number   1
_chemical_formula_structural   AgSbTe2
_chemical_formula_sum   'Ag54 Sb54 Te108'
_cell_volume   6191.39785601
_cell_formula_units_Z   54
loop_
 _symmetry_equiv_pos_site_id
 _symmetry_equiv_pos_as_xyz
  1  'x, y, z'
loop_
 _atom_site_type_symbol
 _atom_site_label
 _atom_site_symmetry_multiplicity
 _atom_site_fract_x
 _atom_site_fract_y
 _atom_site_fract_z
 _atom_site_occupancy
  Ag  Ag0  1  0.15926990  0.01026731  0.16520724  1
  Ag  Ag1  1  -0.00007656  0.83295134  0.83412721  1
  Ag  Ag2  1  0.17114567  0.49449104  0.66029900  1
  Ag  Ag3  1  0.16332598  0.33367963  0.82640219  1
  Ag  Ag4  1  -0.00779330  0.33089324  0.00743983  1
  Ag  Ag5  1  0.66088056  0.33049590  0.66796760  1
  Ag  Ag6  1  0.84164453  0.01495590  0.16757153  1
  Ag  Ag7  1  0.16073346  0.16723513  0.01020197  1
  Ag  Ag8  1  0.50340317  0.33350813  0.83247750  1
  Ag  Ag9  1  0.17063038  0.65127687  0.49823784  1
  Ag  Ag10  1  0.00448285  0.17123243  0.48495425  1
  Ag  Ag11  1  0.50062346  0.17185050  0.32995179  1
  Ag  Ag12  1  0.84326729  0.16944195  0.32724532  1
  Ag  Ag13  1  0.84142895  0.65372332  0.83438458  1
  Ag  Ag14  1  0.67405975  0.33023967  0.33042300  1
  Ag  Ag15  1  0.16522926  0.17636801  0.65959379  1
  Ag  Ag16  1  0.66641271  0.17238042  0.49974401  1
  Ag  Ag17  1  0.83796938  0.33324121  0.84382955  1
  Ag  Ag18  1  0.66982387  0.83384804  0.16523194  1
  Ag  Ag19  1  0.50108205  0.01503205  0.16551386  1
  Ag  Ag20  1  0.33058052  0.17483500  0.49648466  1
  Ag  Ag21  1  0.83453347  0.33180612  0.15975740  1
  Ag  Ag22  1  0.84500526  0.17583340  0.01111798  1
  Ag  Ag23  1  0.16327279  0.49076378  0.33666412  1
  Ag  Ag24  1  0.16621309  0.66060305  0.83370876  1
  Ag  Ag25  1  0.16037477  0.83631719  0.33260217  1
  Ag  Ag26  1  0.32300300  0.16734615  0.16907811  1
  Ag  Ag27  1  -0.00526190  0.32911103  0.32666945  1
  Ag  Ag28  1  -0.00000231  0.01476392  0.32489999  1
  Ag  Ag29  1  0.16445955  0.01615101  0.84117643  1
  Ag  Ag30  1  0.33023407  0.65906627  0.66750163  1
  Ag  Ag31  1  0.16632246  0.66737868  0.17068966  1
  Ag  Ag32  1  0.49938975  0.49070145  -0.00356260  1
  Ag  Ag33  1  0.32908771  0.49848674  0.82449897  1
  Ag  Ag34  1  0.83836181  0.83817887  0.32972632  1
  Ag  Ag35  1  0.83242639  0.48878516  0.00413823  1
  Ag  Ag36  1  0.00168651  0.16783148  0.16911160  1
  Ag  Ag37  1  0.00100491  0.48530748  0.16788089  1
  Ag  Ag38  1  0.49889568  0.17413004  0.01305375  1
  Ag  Ag39  1  0.49557943  0.33248480  0.50716510  1
  Ag  Ag40  1  0.00160177  0.01337573  0.00652627  1
  Ag  Ag41  1  0.50817894  0.33178704  0.15530656  1
  Ag  Ag42  1  0.15679013  0.17085754  0.32985076  1
  Ag  Ag43  1  0.00762933  0.32973587  0.66777722  1
  Ag  Ag44  1  0.16905573  0.33322059  0.50744693  1
  Ag  Ag45  1  0.84389959  0.17319039  0.66466558  1
  Ag  Ag46  1  0.48883893  0.65110249  0.50109722  1
  Ag  Ag47  1  0.67567996  0.83175032  0.83933354  1
  Ag  Ag48  1  0.67690775  0.33163368  0.00083285  1
  Ag  Ag49  1  0.48921409  0.49246613  0.67050255  1
  Ag  Ag50  1  0.32932710  0.66161059  -0.00555620  1
  Ag  Ag51  1  0.84301269  0.48534781  0.32531749  1
  Ag  Ag52  1  0.33082880  0.49451182  0.50648092  1
  Ag  Ag53  1  0.49600577  0.17402049  0.65900037  1
  Sb  Sb54  1  0.49477414  0.66216915  0.16984837  1
  Sb  Sb55  1  0.16414899  0.83597223  0.00168591  1
  Sb  Sb56  1  0.32839638  0.49310455  0.16758619  1
  Sb  Sb57  1  0.83936680  0.66189585  0.16405596  1
  Sb  Sb58  1  0.67092774  0.49802457  0.16629588  1
  Sb  Sb59  1  0.49942390  0.01309940  0.49313853  1
  Sb  Sb60  1  0.32998704  0.82509943  0.83434388  1
  Sb  Sb61  1  0.66677237  0.66150790  0.33378909  1
  Sb  Sb62  1  0.49824825  0.65947328  0.83051320  1
  Sb  Sb63  1  0.33206156  0.83821320  0.16664550  1
  Sb  Sb64  1  0.83492000  0.00657120  0.49253035  1
  Sb  Sb65  1  0.00579909  0.65789331  0.66892862  1
  Sb  Sb66  1  0.33381426  0.33919987  0.66606390  1
  Sb  Sb67  1  0.00281315  0.66226973  0.00008827  1
  Sb  Sb68  1  0.83396926  0.83928571  0.66711499  1
  Sb  Sb69  1  0.49684843  0.48861961  0.33381480  1
  Sb  Sb70  1  0.16520284  0.83045727  0.66531757  1
  Sb  Sb71  1  0.83432317  0.83554894  0.00257391  1
  Sb  Sb72  1  0.66479938  0.49614311  0.83414578  1
  Sb  Sb73  1  0.33033265  0.17470293  0.83328808  1
  Sb  Sb74  1  0.32886455  0.00148125  0.00136096  1
  Sb  Sb75  1  0.67089682  0.00966128  0.00375618  1
  Sb  Sb76  1  0.33032563  0.82886298  0.49938590  1
  Sb  Sb77  1  0.33407131  0.33457292  0.00127122  1
  Sb  Sb78  1  0.66421096  0.65835024  0.66850332  1
  Sb  Sb79  1  0.32762266  0.32941316  0.33417522  1
  Sb  Sb80  1  0.66118242  0.48914627  0.49915372  1
  Sb  Sb81  1  0.00317148  0.66259704  0.33282479  1
  Sb  Sb82  1  0.83527238  0.33084968  0.49719034  1
  Sb  Sb83  1  0.83932141  0.00736827  0.83956611  1
  Sb  Sb84  1  0.33124900  0.00124498  0.66791557  1
  Sb  Sb85  1  0.50187118  0.82947511  0.66832630  1
  Sb  Sb86  1  0.16075548  0.32942584  0.16644789  1
  Sb  Sb87  1  0.50055511  0.83897267  0.33257252  1
  Sb  Sb88  1  0.83762774  0.66568723  0.50294952  1
  Sb  Sb89  1  0.00276251  0.16913912  0.83907739  1
  Sb  Sb90  1  0.66714186  0.17032144  0.82981563  1
  Sb  Sb91  1  0.00158235  0.00924842  0.66890045  1
  Sb  Sb92  1  0.66480748  0.66208785  -0.00140420  1
  Sb  Sb93  1  0.67226887  0.00868734  0.32790468  1
  Sb  Sb94  1  0.16670451  0.49419062  0.00020358  1
  Sb  Sb95  1  0.00271484  0.83925748  0.49962367  1
  Sb  Sb96  1  -0.00166361  0.83864069  0.16529625  1
  Sb  Sb97  1  0.50161147  0.83499774  0.00023452  1
  Sb  Sb98  1  0.00647643  0.48930931  0.49419851  1
  Sb  Sb99  1  0.32919187  0.66440759  0.33478434  1
  Sb  Sb100  1  0.16544924  0.01066257  0.49725511  1
  Sb  Sb101  1  0.49742238  0.00965800  0.83750140  1
  Sb  Sb102  1  0.66692112  0.83728681  0.49662664  1
  Sb  Sb103  1  0.66668392  0.00953733  0.66969269  1
  Sb  Sb104  1  0.83547406  0.49013998  0.66761132  1
  Sb  Sb105  1  0.66858037  0.17019332  0.17157348  1
  Sb  Sb106  1  0.00353112  0.49655590  0.83824990  1
  Sb  Sb107  1  0.32596227  0.00615962  0.33135629  1
  Te  Te108  1  0.16661432  0.16725477  0.16875602  1
  Te  Te109  1  0.16844781  0.17050199  0.49916871  1
  Te  Te110  1  0.16821845  0.17055293  0.83082024  1
  Te  Te111  1  0.16309479  0.50179591  0.16840760  1
  Te  Te112  1  0.16758016  0.49526761  0.49973387  1
  Te  Te113  1  0.16864297  0.49870205  0.83459852  1
  Te  Te114  1  0.16658935  0.83223010  0.17150241  1
  Te  Te115  1  0.16598887  0.83426531  0.49357329  1
  Te  Te116  1  0.16260457  0.82309869  0.83358750  1
  Te  Te117  1  0.50830652  0.17131657  0.16891401  1
  Te  Te118  1  0.49550213  0.17166359  0.50139560  1
  Te  Te119  1  0.49802016  0.17162292  0.82747713  1
  Te  Te120  1  0.49927104  0.49458225  0.16232360  1
  Te  Te121  1  0.49583278  0.49492932  0.49963119  1
  Te  Te122  1  0.49812596  0.49626365  0.83416495  1
  Te  Te123  1  0.50372077  0.83049718  0.16778627  1
  Te  Te124  1  0.49990919  0.83689737  0.49986165  1
  Te  Te125  1  0.50226900  0.83620010  0.83400512  1
  Te  Te126  1  0.83201873  0.17002906  0.16722511  1
  Te  Te127  1  0.83404097  0.16573252  0.50437265  1
  Te  Te128  1  0.83275762  0.17331726  0.82817079  1
  Te  Te129  1  0.83720733  0.49753448  0.16598292  1
  Te  Te130  1  0.83389271  0.50405829  0.49592631  1
  Te  Te131  1  0.83341104  0.49576975  0.83580472  1
  Te  Te132  1  0.83108709  0.82761561  0.16952656  1
  Te  Te133  1  0.83375733  0.83434684  0.49373485  1
  Te  Te134  1  0.83498946  0.83857238  0.83301405  1
  Te  Te135  1  0.16322450  0.00272104  0.00149730  1
  Te  Te136  1  0.16123543  0.00556189  0.33139830  1
  Te  Te137  1  0.16636117  -0.00033314  0.67089915  1
  Te  Te138  1  0.16413109  0.32790203  -0.00152903  1
  Te  Te139  1  0.16122976  0.33084918  0.33064248  1
  Te  Te140  1  0.16927553  0.33312317  0.66743624  1
  Te  Te141  1  0.16873204  0.66663483  -0.00253336  1
  Te  Te142  1  0.16717638  0.66485108  0.33440326  1
  Te  Te143  1  0.16919835  0.66534286  0.66737692  1
  Te  Te144  1  0.50031451  0.00411088  0.00523099  1
  Te  Te145  1  0.50184539  0.00466969  0.32635689  1
  Te  Te146  1  0.49966664  0.00425364  0.66732685  1
  Te  Te147  1  0.49526085  0.33291179  -0.00343156  1
  Te  Te148  1  0.50265091  0.33268081  0.33643558  1
  Te  Te149  1  0.49769379  0.33319183  0.66880433  1
  Te  Te150  1  0.49611460  0.66442854  0.00070235  1
  Te  Te151  1  0.50016688  0.66804014  0.34012886  1
  Te  Te152  1  0.49672974  0.66421850  0.66112535  1
  Te  Te153  1  0.83831279  0.00427125  0.00600562  1
  Te  Te154  1  0.83775013  0.00212235  0.32763323  1
  Te  Te155  1  0.83315066  0.00985636  0.66790704  1
  Te  Te156  1  0.83375232  0.33247578  -0.00091328  1
  Te  Te157  1  0.83365541  0.32990646  0.33647878  1
  Te  Te158  1  0.83055822  0.33154633  0.66524820  1
  Te  Te159  1  0.83347776  0.66436267  -0.00661676  1
  Te  Te160  1  0.83279748  0.67106651  0.33465047  1
  Te  Te161  1  0.83393486  0.66612527  0.67374086  1
  Te  Te162  1  0.00095265  0.16892510  0.00136590  1
  Te  Te163  1  -0.00115671  0.16914791  0.32920514  1
  Te  Te164  1  0.00437118  0.17172305  0.66975313  1
  Te  Te165  1  -0.00411717  0.49532418  0.00481258  1
  Te  Te166  1  0.00107848  0.49737952  0.32877798  1
  Te  Te167  1  0.00602386  0.49157706  0.66555762  1
  Te  Te168  1  -0.00077725  0.83298898  -0.00586177  1
  Te  Te169  1  0.00000869  0.83306102  0.33336499  1
  Te  Te170  1  -0.00191028  0.83421708  0.67141359  1
  Te  Te171  1  0.33639560  0.16406202  0.00305309  1
  Te  Te172  1  0.34042198  0.16521653  0.33215916  1
  Te  Te173  1  0.32964584  0.16276911  0.66485366  1
  Te  Te174  1  0.33515794  0.50372507  0.00328421  1
  Te  Te175  1  0.32530576  0.49975833  0.33616063  1
  Te  Te176  1  0.33227176  0.50267221  0.66521774  1
  Te  Te177  1  0.33419877  0.82378066  0.00055811  1
  Te  Te178  1  0.32649879  0.83533693  0.33286275  1
  Te  Te179  1  0.33373042  0.82525134  0.66677558  1
  Te  Te180  1  0.65923378  0.17362544  -0.00312384  1
  Te  Te181  1  0.66205454  0.17120324  0.33878583  1
  Te  Te182  1  0.66108793  0.17107354  0.66302533  1
  Te  Te183  1  0.66560033  0.49498602  0.00024758  1
  Te  Te184  1  0.67326259  0.49344143  0.33318443  1
  Te  Te185  1  0.66221481  0.49212489  0.66628775  1
  Te  Te186  1  0.66689167  0.83142306  -0.00032875  1
  Te  Te187  1  0.66991645  0.83388664  0.33027195  1
  Te  Te188  1  0.66842962  0.83385605  0.66892015  1
  Te  Te189  1  0.00075901  0.00015340  0.16589568  1
  Te  Te190  1  0.00024290  0.00781736  0.49720931  1
  Te  Te191  1  0.00540921  -0.00506879  0.83491862  1
  Te  Te192  1  -0.00167017  0.32884287  0.16703558  1
  Te  Te193  1  0.00422917  0.32814095  0.50304574  1
  Te  Te194  1  -0.00034072  0.33530497  0.83090917  1
  Te  Te195  1  0.00726766  0.66787902  0.16575034  1
  Te  Te196  1  0.00809188  0.66919692  0.50289368  1
  Te  Te197  1  -0.00019909  0.66846437  0.83340153  1
  Te  Te198  1  0.33672630  0.00576528  0.16614072  1
  Te  Te199  1  0.33403754  0.00321134  0.50017815  1
  Te  Te200  1  0.32472799  -0.00475816  0.83441401  1
  Te  Te201  1  0.34516550  0.32607104  0.16807778  1
  Te  Te202  1  0.33198050  0.33269476  0.49749258  1
  Te  Te203  1  0.32882607  0.33985267  0.83516632  1
  Te  Te204  1  0.32730805  0.66667583  0.16437971  1
  Te  Te205  1  0.33049770  0.66412632  0.50121593  1
  Te  Te206  1  0.33135714  0.66060542  0.83222814  1
  Te  Te207  1  0.66420581  -0.00767629  0.16540086  1
  Te  Te208  1  0.66616019  0.00646369  0.50071959  1
  Te  Te209  1  0.66566633  -0.00833669  0.83585632  1
  Te  Te210  1  0.67025239  0.33584735  0.16589399  1
  Te  Te211  1  0.66284103  0.32918778  0.50312151  1
  Te  Te212  1  0.66535943  0.33359418  0.83361352  1
  Te  Te213  1  0.66540719  0.67177804  0.16648088  1
  Te  Te214  1  0.66381350  0.66862469  0.50223056  1
  Te  Te215  1  0.66755567  0.67304958  0.83245590  1
