# generated using pymatgen
data_AgSbTe2
_symmetry_space_group_name_H-M   'P 1'
_cell_length_a   18.35488772
_cell_length_b   18.35495051
_cell_length_c   18.35671718
_cell_angle_alpha   89.99631296
_cell_angle_beta   89.99603896
_cell_angle_gamma   90.00070147
_symmetry_Int_Tables_number   1
_chemical_formula_structural   AgSbTe2
_chemical_formula_sum   'Ag54 Sb54 Te108'
_cell_volume   6184.43408062
_cell_formula_units_Z   54
loop_
 _symmetry_equiv_pos_site_id
 _symmetry_equiv_pos_as_xyz
  1  'x, y, z'
loop_
 _atom_site_type_symbol
 _atom_site_label
 _atom_site_symmetry_multiplicity
 _atom_site_fract_x
 _atom_site_fract_y
 _atom_site_fract_z
 _atom_site_occupancy
  Ag  Ag0  1  -0.00027436  0.00393468  -0.00197652  1
  Ag  Ag1  1  0.51086174  0.66577172  0.82027520  1
  Ag  Ag2  1  0.16265388  0.17100471  0.66069598  1
  Ag  Ag3  1  0.51331591  0.16873038  0.65966638  1
  Ag  Ag4  1  0.67729195  0.33230038  0.34856690  1
  Ag  Ag5  1  0.66714944  0.83861094  0.50199255  1
  Ag  Ag6  1  0.16752124  0.83908469  0.33639034  1
  Ag  Ag7  1  0.32997009  0.49954018  0.82045693  1
  Ag  Ag8  1  0.33051159  0.33871588  0.00214630  1
  Ag  Ag9  1  0.66781407  0.82995344  0.81764449  1
  Ag  Ag10  1  -0.01126867  0.16737818  0.49853990  1
  Ag  Ag11  1  0.67644696  0.50021083  0.18000716  1
  Ag  Ag12  1  0.67262459  0.48931925  0.50166737  1
  Ag  Ag13  1  0.66635923  0.66425103  -0.00406249  1
  Ag  Ag14  1  0.67764443  0.17576442  0.50133086  1
  Ag  Ag15  1  0.33810776  0.49158897  0.50345793  1
  Ag  Ag16  1  0.33121470  0.83448687  0.18006234  1
  Ag  Ag17  1  -0.00655806  0.33468124  0.33796329  1
  Ag  Ag18  1  0.82922676  0.66176767  0.50355361  1
  Ag  Ag19  1  0.67580288  0.00431632  0.34480658  1
  Ag  Ag20  1  0.82745935  0.01264260  0.50090021  1
  Ag  Ag21  1  0.16784730  0.32675948  0.50212056  1
  Ag  Ag22  1  0.83459014  0.49915180  0.00156587  1
  Ag  Ag23  1  0.16488499  0.49289265  0.66474032  1
  Ag  Ag24  1  0.66876345  0.33080572  0.65869679  1
  Ag  Ag25  1  0.51027038  0.50346235  0.66112124  1
  Ag  Ag26  1  0.33685304  0.83480501  0.49911165  1
  Ag  Ag27  1  0.82889181  0.66378313  0.82001518  1
  Ag  Ag28  1  -0.00211362  0.65986263  0.34336990  1
  Ag  Ag29  1  0.16874645  0.33435185  0.81945104  1
  Ag  Ag30  1  -0.00362048  0.16590945  0.17632586  1
  Ag  Ag31  1  0.33219287  0.17464324  0.50057657  1
  Ag  Ag32  1  0.33147287  0.33143595  0.34275178  1
  Ag  Ag33  1  0.83591788  0.17247151  0.00171866  1
  Ag  Ag34  1  0.83346530  0.16425034  0.65537252  1
  Ag  Ag35  1  0.16293727  0.00903416  0.50086829  1
  Ag  Ag36  1  0.83162724  0.50594208  0.65772332  1
  Ag  Ag37  1  0.83455921  0.17314100  0.34528973  1
  Ag  Ag38  1  -0.00738680  0.66617025  0.66161925  1
  Ag  Ag39  1  0.32966123  0.00237278  0.33963615  1
  Ag  Ag40  1  0.83376905  0.49259343  0.34094792  1
  Ag  Ag41  1  0.51204550  0.82399620  0.66207753  1
  Ag  Ag42  1  -0.00538249  0.00190566  0.66206006  1
  Ag  Ag43  1  0.82276069  0.32646837  0.49940105  1
  Ag  Ag44  1  0.82943958  0.83212484  0.66165311  1
  Ag  Ag45  1  0.67421564  -0.00228589  0.65886878  1
  Ag  Ag46  1  -0.00564001  0.49657567  0.16959651  1
  Ag  Ag47  1  0.15725232  0.00020175  0.17793935  1
  Ag  Ag48  1  0.51149341  0.33567818  0.50217389  1
  Ag  Ag49  1  0.33730697  0.65885619  -0.00285281  1
  Ag  Ag50  1  0.16702329  0.49719870  -0.00465141  1
  Ag  Ag51  1  0.16514641  0.00345973  0.81856534  1
  Ag  Ag52  1  0.83820660  0.00480590  0.18046047  1
  Ag  Ag53  1  0.50778526  0.65728186  0.50477204  1
  Sb  Sb54  1  0.16393339  0.66462880  0.50185214  1
  Sb  Sb55  1  0.33395532  0.66343162  0.66684375  1
  Sb  Sb56  1  0.66482000  0.83062783  0.17322937  1
  Sb  Sb57  1  0.16471924  0.83490321  0.66116242  1
  Sb  Sb58  1  0.83679915  -0.00295177  0.82392899  1
  Sb  Sb59  1  0.32953679  0.66631357  0.33562987  1
  Sb  Sb60  1  0.00133782  0.33137815  0.00541687  1
  Sb  Sb61  1  0.33440061  0.33529273  0.65975753  1
  Sb  Sb62  1  0.66614132  0.50446141  0.82504156  1
  Sb  Sb63  1  0.50454979  0.16969704  -0.00972685  1
  Sb  Sb64  1  0.16546912  0.32831702  0.17163345  1
  Sb  Sb65  1  0.50666238  0.49831863  0.34389929  1
  Sb  Sb66  1  0.50512269  0.00338613  0.50183626  1
  Sb  Sb67  1  0.67541790  0.17113798  0.17542410  1
  Sb  Sb68  1  0.16191081  0.16997508  -0.00425124  1
  Sb  Sb69  1  0.83670464  0.83447909  0.34108080  1
  Sb  Sb70  1  0.50043685  0.66521037  0.16868593  1
  Sb  Sb71  1  -0.00131999  0.33193412  0.65786845  1
  Sb  Sb72  1  0.50014442  0.83150170  -0.00605510  1
  Sb  Sb73  1  0.50542191  0.16805347  0.34302340  1
  Sb  Sb74  1  0.49586786  -0.00555098  0.82698645  1
  Sb  Sb75  1  -0.00218155  0.83758822  0.50010858  1
  Sb  Sb76  1  0.66677380  0.33961864  -0.00101281  1
  Sb  Sb77  1  0.83405970  0.33219986  0.17571344  1
  Sb  Sb78  1  0.33139171  0.17309382  0.82673154  1
  Sb  Sb79  1  0.49589469  0.83408337  0.34457568  1
  Sb  Sb80  1  0.00145079  0.83668938  0.17033273  1
  Sb  Sb81  1  0.67238944  0.66434683  0.33837946  1
  Sb  Sb82  1  0.33204773  0.00099738  0.65811118  1
  Sb  Sb83  1  0.49873646  0.50158910  -0.00696747  1
  Sb  Sb84  1  0.50130290  0.00044647  0.16830454  1
  Sb  Sb85  1  -0.00450616  0.83359064  0.82956374  1
  Sb  Sb86  1  0.50052638  0.33412584  0.17541799  1
  Sb  Sb87  1  0.16513689  0.66503387  0.83119085  1
  Sb  Sb88  1  -0.00525598  0.49420887  0.49760995  1
  Sb  Sb89  1  0.67640513  -0.00230365  -0.00041600  1
  Sb  Sb90  1  -0.00036211  0.00370388  0.33780069  1
  Sb  Sb91  1  0.32425374  0.00136733  0.00519017  1
  Sb  Sb92  1  0.67320700  0.66994632  0.66467889  1
  Sb  Sb93  1  0.83403470  0.66654110  0.16950595  1
  Sb  Sb94  1  0.16568118  0.66857582  0.16663719  1
  Sb  Sb95  1  0.33152650  0.50215265  0.16907075  1
  Sb  Sb96  1  0.16789833  0.83106786  0.00253049  1
  Sb  Sb97  1  0.33592595  0.82893889  0.82795630  1
  Sb  Sb98  1  0.83621909  0.33738717  0.82489854  1
  Sb  Sb99  1  0.00287874  0.49930903  0.83297129  1
  Sb  Sb100  1  0.16198291  0.49929908  0.33703738  1
  Sb  Sb101  1  -0.00200874  0.66574174  -0.00140395  1
  Sb  Sb102  1  0.32537987  0.16279696  0.17531969  1
  Sb  Sb103  1  -0.00074630  0.16612699  0.82640510  1
  Sb  Sb104  1  0.16001762  0.16472867  0.34328154  1
  Sb  Sb105  1  0.49459145  0.34186998  0.82240813  1
  Sb  Sb106  1  0.66943911  0.16009631  0.82103762  1
  Sb  Sb107  1  0.83273824  0.83145555  -0.00487301  1
  Te  Te108  1  0.15889770  0.15996449  0.16469121  1
  Te  Te109  1  0.17371547  0.16516062  0.50172757  1
  Te  Te110  1  0.16644935  0.16707734  0.82709371  1
  Te  Te111  1  0.16308394  0.49977529  0.16484929  1
  Te  Te112  1  0.16928230  0.49930701  0.50316060  1
  Te  Te113  1  0.16902316  0.49848952  0.83280557  1
  Te  Te114  1  0.16958330  0.83842553  0.16996334  1
  Te  Te115  1  0.16927148  0.83425163  0.49736374  1
  Te  Te116  1  0.16698981  0.83923710  0.83302397  1
  Te  Te117  1  0.50039693  0.16709467  0.16172702  1
  Te  Te118  1  0.49223235  0.17115785  0.50380165  1
  Te  Te119  1  0.49989474  0.16791547  0.82160293  1
  Te  Te120  1  0.50563501  0.50006265  0.16679834  1
  Te  Te121  1  0.49937689  0.49825330  0.50397763  1
  Te  Te122  1  0.49363910  0.50709155  0.82558083  1
  Te  Te123  1  0.49285344  0.83339951  0.16681033  1
  Te  Te124  1  0.50067216  0.83458045  0.50535569  1
  Te  Te125  1  0.50394453  0.82657294  0.82597417  1
  Te  Te126  1  0.83757761  0.16481064  0.16154119  1
  Te  Te127  1  0.83319426  0.16713567  0.50016576  1
  Te  Te128  1  0.83323583  0.16769205  0.84095853  1
  Te  Te129  1  0.83390178  0.49965146  0.16368020  1
  Te  Te130  1  0.83439348  0.50007649  0.50094265  1
  Te  Te131  1  0.83421843  0.50282039  0.83647262  1
  Te  Te132  1  0.83283803  0.84160050  0.16713502  1
  Te  Te133  1  0.83215924  0.82602847  0.50323769  1
  Te  Te134  1  0.82842786  0.82757329  0.82778690  1
  Te  Te135  1  0.16061202  0.00094745  0.00348620  1
  Te  Te136  1  0.16628794  -0.00075158  0.33748070  1
  Te  Te137  1  0.16511128  -0.00019843  0.66120959  1
  Te  Te138  1  0.16883725  0.33759485  0.00389354  1
  Te  Te139  1  0.17100419  0.33270370  0.33796675  1
  Te  Te140  1  0.16431586  0.33333968  0.66324361  1
  Te  Te141  1  0.16895298  0.66063387  -0.00128153  1
  Te  Te142  1  0.16081858  0.67086351  0.33356092  1
  Te  Te143  1  0.15693951  0.66436074  0.66850550  1
  Te  Te144  1  0.50016437  0.00111386  -0.00206246  1
  Te  Te145  1  0.49392639  0.00120760  0.33147455  1
  Te  Te146  1  0.50463896  0.00435721  0.66776371  1
  Te  Te147  1  0.49416984  0.33350158  -0.00117088  1
  Te  Te148  1  0.49266209  0.33319251  0.34111150  1
  Te  Te149  1  0.50306948  0.33482817  0.66176280  1
  Te  Te150  1  0.49996793  0.66674458  -0.00080827  1
  Te  Te151  1  0.49955979  0.66635835  0.34138212  1
  Te  Te152  1  0.49693256  0.66430238  0.66360571  1
  Te  Te153  1  0.83928199  -0.00038295  -0.00447278  1
  Te  Te154  1  0.83351622  0.00026290  0.33900665  1
  Te  Te155  1  0.83385783  0.00237295  0.66349120  1
  Te  Te156  1  0.83364554  0.33712859  -0.00372694  1
  Te  Te157  1  0.83375395  0.33324551  0.33754407  1
  Te  Te158  1  0.83196084  0.33107887  0.66230157  1
  Te  Te159  1  0.83155887  0.66350658  0.00213941  1
  Te  Te160  1  0.83759449  0.66435824  0.33663688  1
  Te  Te161  1  0.83421821  0.66442262  0.66374793  1
  Te  Te162  1  -0.00384338  0.16405149  0.00121602  1
  Te  Te163  1  -0.00501615  0.17021657  0.33537053  1
  Te  Te164  1  -0.00066890  0.16485295  0.66129153  1
  Te  Te165  1  0.00026030  0.50007013  0.00470040  1
  Te  Te166  1  -0.00292475  0.49797776  0.33096581  1
  Te  Te167  1  -0.00227238  0.50123901  0.66648135  1
  Te  Te168  1  0.00053667  0.83992721  0.00133535  1
  Te  Te169  1  0.00519394  0.82486577  0.33372653  1
  Te  Te170  1  -0.00494501  0.83558242  0.66620028  1
  Te  Te171  1  0.33490803  0.17113316  0.00076117  1
  Te  Te172  1  0.33485220  0.16620372  0.33751999  1
  Te  Te173  1  0.32490283  0.16696937  0.66169270  1
  Te  Te174  1  0.33248661  0.49971732  0.00523666  1
  Te  Te175  1  0.33233254  0.49750101  0.33754814  1
  Te  Te176  1  0.32600426  0.50035692  0.66342675  1
  Te  Te177  1  0.33342977  0.83030285  -0.00190772  1
  Te  Te178  1  0.33004161  0.83308471  0.33757050  1
  Te  Te179  1  0.33605593  0.83247330  0.66102144  1
  Te  Te180  1  0.67209179  0.16845677  0.00086973  1
  Te  Te181  1  0.67137735  0.16707167  0.33911014  1
  Te  Te182  1  0.67088133  0.16526611  0.66149921  1
  Te  Te183  1  0.66838780  0.50309301  -0.00442758  1
  Te  Te184  1  0.67215221  0.49767684  0.33839637  1
  Te  Te185  1  0.66909565  0.49677591  0.66302339  1
  Te  Te186  1  0.66611653  0.82690660  0.00319001  1
  Te  Te187  1  0.66615046  0.83927272  0.33834575  1
  Te  Te188  1  0.66847056  0.83362784  0.66133666  1
  Te  Te189  1  -0.00170259  0.00157645  0.17031806  1
  Te  Te190  1  0.00067231  0.00351688  0.50240313  1
  Te  Te191  1  0.00502151  -0.00025348  0.83063991  1
  Te  Te192  1  0.00024658  0.33175647  0.17385271  1
  Te  Te193  1  0.00786297  0.32871767  0.49516770  1
  Te  Te194  1  0.00916559  0.33267124  0.83620369  1
  Te  Te195  1  -0.00019476  0.66189060  0.16701459  1
  Te  Te196  1  -0.00312736  0.66751506  0.50176605  1
  Te  Te197  1  -0.00694052  0.66705350  0.83010368  1
  Te  Te198  1  0.33023518  -0.00435862  0.17219514  1
  Te  Te199  1  0.33457315  -0.00463234  0.49742290  1
  Te  Te200  1  0.32681395  0.00007470  0.83549093  1
  Te  Te201  1  0.33396945  0.33260799  0.16704233  1
  Te  Te202  1  0.32648772  0.33528953  0.50012283  1
  Te  Te203  1  0.32795783  0.33914265  0.83789040  1
  Te  Te204  1  0.33359263  0.67153033  0.16235484  1
  Te  Te205  1  0.33451988  0.67002073  0.49953594  1
  Te  Te206  1  0.33240407  0.66255917  0.83745049  1
  Te  Te207  1  0.67186164  0.00037865  0.16987193  1
  Te  Te208  1  0.66725860  -0.00158527  0.50097462  1
  Te  Te209  1  0.66553163  -0.00789698  0.83149623  1
  Te  Te210  1  0.66563714  0.34088910  0.17032150  1
  Te  Te211  1  0.66672507  0.33464532  0.50277011  1
  Te  Te212  1  0.66464403  0.33141172  0.82942559  1
  Te  Te213  1  0.66631007  0.66134202  0.16372033  1
  Te  Te214  1  0.66678685  0.67000871  0.49833897  1
  Te  Te215  1  0.66766289  0.66803638  0.83604861  1
