# generated using pymatgen
data_AgSbTe2
_symmetry_space_group_name_H-M   'P 1'
_cell_length_a   18.37889316
_cell_length_b   18.37340678
_cell_length_c   18.37985131
_cell_angle_alpha   89.99678108
_cell_angle_beta   89.99758331
_cell_angle_gamma   89.99527892
_symmetry_Int_Tables_number   1
_chemical_formula_structural   AgSbTe2
_chemical_formula_sum   'Ag54 Sb54 Te108'
_cell_volume   6206.56109223
_cell_formula_units_Z   54
loop_
 _symmetry_equiv_pos_site_id
 _symmetry_equiv_pos_as_xyz
  1  'x, y, z'
loop_
 _atom_site_type_symbol
 _atom_site_label
 _atom_site_symmetry_multiplicity
 _atom_site_fract_x
 _atom_site_fract_y
 _atom_site_fract_z
 _atom_site_occupancy
  Ag  Ag0  1  0.83636353  0.84221464  0.00729138  1
  Ag  Ag1  1  0.32450150  0.49791577  0.16638050  1
  Ag  Ag2  1  0.16748786  0.15661707  0.01812002  1
  Ag  Ag3  1  0.01303883  -0.00062855  0.33795663  1
  Ag  Ag4  1  0.16559365  0.50177102  0.33030768  1
  Ag  Ag5  1  0.48885837  0.49066956  0.66748256  1
  Ag  Ag6  1  0.17079193  0.15952244  0.33083995  1
  Ag  Ag7  1  0.65809737  0.00087404  -0.00247708  1
  Ag  Ag8  1  0.32783914  0.49168002  0.51068886  1
  Ag  Ag9  1  0.16741940  0.00254035  0.16847942  1
  Ag  Ag10  1  0.48797732  0.84072664  0.00578147  1
  Ag  Ag11  1  0.49282813  0.00220666  0.50418979  1
  Ag  Ag12  1  0.32346614  0.00233781  -0.00495502  1
  Ag  Ag13  1  0.66253974  0.00250878  0.67180668  1
  Ag  Ag14  1  0.16665781  0.84261976  0.32978945  1
  Ag  Ag15  1  0.33093239  0.31946295  0.66800680  1
  Ag  Ag16  1  0.16721092  0.84712774  0.66271694  1
  Ag  Ag17  1  0.01233305  0.16098736  0.49565147  1
  Ag  Ag18  1  0.49283005  0.16219586  0.66933194  1
  Ag  Ag19  1  0.66608701  -0.00148141  0.33362859  1
  Ag  Ag20  1  0.83441451  0.15859380  0.67184619  1
  Ag  Ag21  1  0.00326800  0.67826126  0.32930624  1
  Ag  Ag22  1  0.66687156  0.67848493  0.66763816  1
  Ag  Ag23  1  0.32755383  0.84369568  0.16653303  1
  Ag  Ag24  1  0.49523407  0.31527152  0.83013222  1
  Ag  Ag25  1  0.84237949  0.16076477  -0.00346615  1
  Ag  Ag26  1  0.01314311  0.00456536  0.66168743  1
  Ag  Ag27  1  0.49764070  0.84180190  0.33023098  1
  Ag  Ag28  1  0.48670054  0.16047146  0.33859677  1
  Ag  Ag29  1  0.32721367  0.16151257  0.16721871  1
  Ag  Ag30  1  0.00387372  0.66940859  0.01092515  1
  Ag  Ag31  1  0.16899368  0.31821815  0.17458085  1
  Ag  Ag32  1  0.17092268  0.31596957  0.49392842  1
  Ag  Ag33  1  0.33167114  0.16483563  0.82461145  1
  Ag  Ag34  1  0.84301685  0.50768664  0.33475165  1
  Ag  Ag35  1  0.49787625  0.00115785  0.82434508  1
  Ag  Ag36  1  0.16928876  0.50172666  0.01290541  1
  Ag  Ag37  1  0.32328175  0.16614350  0.51349782  1
  Ag  Ag38  1  0.16760172  0.83966499  0.01223366  1
  Ag  Ag39  1  0.65184241  0.15977189  0.83239614  1
  Ag  Ag40  1  0.83377166  0.49450108  0.66572096  1
  Ag  Ag41  1  0.16447859  0.66956496  0.16723637  1
  Ag  Ag42  1  0.32820932  0.00854294  0.67346719  1
  Ag  Ag43  1  0.18532142  0.15538350  0.64203300  1
  Ag  Ag44  1  0.01390729  0.16187174  0.17026410  1
  Ag  Ag45  1  0.33205542  0.49114926  0.82358220  1
  Ag  Ag46  1  0.66588520  0.83996060  0.49758348  1
  Ag  Ag47  1  0.82817148  0.00317316  0.83422740  1
  Ag  Ag48  1  0.84384779  0.67046951  0.16803031  1
  Ag  Ag49  1  0.17263106  0.00479159  0.50941470  1
  Ag  Ag50  1  0.84340593  0.83445639  0.32780042  1
  Ag  Ag51  1  0.66491412  0.16045227  0.15819995  1
  Ag  Ag52  1  0.17388279  0.49728600  0.66334208  1
  Ag  Ag53  1  0.17222303  0.00445958  0.82346551  1
  Sb  Sb54  1  0.33476184  0.66819284  0.66751754  1
  Sb  Sb55  1  0.66454793  0.83978330  0.16963886  1
  Sb  Sb56  1  0.66289191  0.50615794  0.50335196  1
  Sb  Sb57  1  0.67180934  0.67557237  -0.00295735  1
  Sb  Sb58  1  0.49709177  0.66807118  0.16717383  1
  Sb  Sb59  1  0.49217299  0.32529454  0.50584895  1
  Sb  Sb60  1  0.66522788  0.49596426  0.16846240  1
  Sb  Sb61  1  0.49050614  0.32818296  0.16265014  1
  Sb  Sb62  1  0.00550038  0.33303546  0.00095953  1
  Sb  Sb63  1  0.83344427  0.66795910  0.49509055  1
  Sb  Sb64  1  0.00804869  0.83753849  0.16747972  1
  Sb  Sb65  1  0.67219254  0.67499350  0.33525213  1
  Sb  Sb66  1  0.16735410  0.67144094  0.49531456  1
  Sb  Sb67  1  0.66513128  0.32190683  -0.00098273  1
  Sb  Sb68  1  0.49345561  0.49890656  0.33915644  1
  Sb  Sb69  1  0.66245531  0.49434197  0.83057906  1
  Sb  Sb70  1  -0.00199047  0.67040217  0.66351183  1
  Sb  Sb71  1  0.66573801  0.84333443  0.83076562  1
  Sb  Sb72  1  0.49678306  0.84187185  0.66539032  1
  Sb  Sb73  1  0.16838211  0.66998894  0.83721508  1
  Sb  Sb74  1  0.00827524  0.50054081  0.16887464  1
  Sb  Sb75  1  0.66792318  0.32367595  0.33336254  1
  Sb  Sb76  1  0.49416404  0.00171914  0.16891548  1
  Sb  Sb77  1  0.33148304  0.32564965  -0.00447404  1
  Sb  Sb78  1  0.83978933  0.33199656  0.50120356  1
  Sb  Sb79  1  0.33122535  0.00345085  0.33307596  1
  Sb  Sb80  1  0.00571188  -0.00140705  0.00033850  1
  Sb  Sb81  1  0.82650573  0.32299293  0.83035030  1
  Sb  Sb82  1  0.00964606  0.32342095  0.66441393  1
  Sb  Sb83  1  0.00755000  0.16268530  0.83375367  1
  Sb  Sb84  1  -0.00121870  0.83991863  0.49648358  1
  Sb  Sb85  1  0.00898200  0.50103664  0.83094082  1
  Sb  Sb86  1  0.49457361  0.15814402  -0.00353757  1
  Sb  Sb87  1  0.83718286  -0.00271798  0.16357883  1
  Sb  Sb88  1  0.33152141  0.84129672  0.83697005  1
  Sb  Sb89  1  0.49942531  0.67315954  0.83147990  1
  Sb  Sb90  1  0.83411800  0.00088509  0.50289089  1
  Sb  Sb91  1  0.83356579  0.67141028  0.83673742  1
  Sb  Sb92  1  0.00201872  0.83835113  0.83518678  1
  Sb  Sb93  1  0.48882112  0.50616162  -0.00668709  1
  Sb  Sb94  1  0.83460299  0.83905146  0.66643996  1
  Sb  Sb95  1  0.83784847  0.16114774  0.33192673  1
  Sb  Sb96  1  0.66060471  0.32686614  0.66650364  1
  Sb  Sb97  1  0.33040576  0.33025118  0.33714537  1
  Sb  Sb98  1  0.32662131  0.67267541  0.00150757  1
  Sb  Sb99  1  0.32618732  0.66727543  0.33178753  1
  Sb  Sb100  1  0.83754199  0.50051942  0.00038330  1
  Sb  Sb101  1  0.83977607  0.33220463  0.16784772  1
  Sb  Sb102  1  0.66235109  0.15842665  0.50427965  1
  Sb  Sb103  1  0.33427773  0.84047899  0.49658147  1
  Sb  Sb104  1  0.17347125  0.32617884  0.83168791  1
  Sb  Sb105  1  0.00460754  0.32934795  0.33285811  1
  Sb  Sb106  1  0.49906464  0.67295866  0.50109506  1
  Sb  Sb107  1  0.00800461  0.49541102  0.49997589  1
  Te  Te108  1  0.16852976  0.16420288  0.17169150  1
  Te  Te109  1  0.16716727  0.16220116  0.49075741  1
  Te  Te110  1  0.17130312  0.16396796  0.83531786  1
  Te  Te111  1  0.16619165  0.51064735  0.16871605  1
  Te  Te112  1  0.17043624  0.50464455  0.50066685  1
  Te  Te113  1  0.17179646  0.49885546  0.82650459  1
  Te  Te114  1  0.16824790  0.82926499  0.16891060  1
  Te  Te115  1  0.16667869  0.83922754  0.49865350  1
  Te  Te116  1  0.16810639  0.83901598  0.82717283  1
  Te  Te117  1  0.50610327  0.16872335  0.17141946  1
  Te  Te118  1  0.49694037  0.16222525  0.49922295  1
  Te  Te119  1  0.49456487  0.15882743  0.83437079  1
  Te  Te120  1  0.49566685  0.49851835  0.16707812  1
  Te  Te121  1  0.49515695  0.49854796  0.50568580  1
  Te  Te122  1  0.49559013  0.50551599  0.82674265  1
  Te  Te123  1  0.49518776  0.83150706  0.16779913  1
  Te  Te124  1  0.50184096  0.83978066  0.49595194  1
  Te  Te125  1  0.49891264  0.84035529  0.83890275  1
  Te  Te126  1  0.82532753  0.16808206  0.16268247  1
  Te  Te127  1  0.83359817  0.16932420  0.50337338  1
  Te  Te128  1  0.83888268  0.16192491  0.83653363  1
  Te  Te129  1  0.83188178  0.50252494  0.16851920  1
  Te  Te130  1  0.83316645  0.50012935  0.49878683  1
  Te  Te131  1  0.83337497  0.50009020  0.83108961  1
  Te  Te132  1  0.83096129  0.83055878  0.16757935  1
  Te  Te133  1  0.82811826  0.83257642  0.49439473  1
  Te  Te134  1  0.83367559  0.83941820  0.83723944  1
  Te  Te135  1  0.16463254  -0.00069725  0.00733708  1
  Te  Te136  1  0.17021351  -0.00048320  0.32794092  1
  Te  Te137  1  0.16730036  0.00382652  0.66685860  1
  Te  Te138  1  0.16742699  0.34134511  0.00114363  1
  Te  Te139  1  0.16701917  0.34185633  0.33406602  1
  Te  Te140  1  0.17104010  0.33787615  0.66620380  1
  Te  Te141  1  0.16283280  0.66748384  0.00183111  1
  Te  Te142  1  0.16228441  0.66356620  0.33060152  1
  Te  Te143  1  0.16412180  0.65856539  0.66753173  1
  Te  Te144  1  0.50242318  -0.00363945  0.00222352  1
  Te  Te145  1  0.49855775  0.00107003  0.33241029  1
  Te  Te146  1  0.50239074  0.00136190  0.66493933  1
  Te  Te147  1  0.49942520  0.33931249  -0.00837702  1
  Te  Te148  1  0.50146920  0.32755199  0.33173762  1
  Te  Te149  1  0.49473421  0.33069063  0.66952233  1
  Te  Te150  1  0.50272585  0.67773452  -0.00057167  1
  Te  Te151  1  0.50177345  0.67199193  0.33431489  1
  Te  Te152  1  0.50704340  0.66788350  0.66619958  1
  Te  Te153  1  0.84144179  0.00139550  -0.00126997  1
  Te  Te154  1  0.82938573  -0.00436925  0.33321827  1
  Te  Te155  1  0.82229213  0.00012272  0.67003118  1
  Te  Te156  1  0.83354391  0.32762386  -0.00042617  1
  Te  Te157  1  0.83400134  0.34551667  0.33330266  1
  Te  Te158  1  0.83434028  0.33396944  0.66600395  1
  Te  Te159  1  0.83870260  0.66799796  0.00433022  1
  Te  Te160  1  0.83655570  0.66869626  0.32935569  1
  Te  Te161  1  0.83007198  0.66916065  0.66769154  1
  Te  Te162  1  0.00382676  0.16685853  0.00596947  1
  Te  Te163  1  0.00045091  0.16261511  0.33343421  1
  Te  Te164  1  -0.00686265  0.16264555  0.66708557  1
  Te  Te165  1  0.00380499  0.50556336  -0.00084621  1
  Te  Te166  1  0.00075886  0.49875121  0.33408544  1
  Te  Te167  1  -0.00793236  0.50204044  0.66562138  1
  Te  Te168  1  0.00160108  0.82953224  0.00100875  1
  Te  Te169  1  0.00183209  0.83632470  0.33287227  1
  Te  Te170  1  0.00540497  0.83708971  0.66465808  1
  Te  Te171  1  0.32943935  0.16240177  0.00859355  1
  Te  Te172  1  0.33107099  0.16888533  0.32390554  1
  Te  Te173  1  0.33701197  0.16405480  0.66804761  1
  Te  Te174  1  0.32874139  0.50288794  0.00536484  1
  Te  Te175  1  0.33122572  0.49925885  0.32757893  1
  Te  Te176  1  0.33355165  0.50671710  0.66602583  1
  Te  Te177  1  0.32914479  0.83839118  0.00274641  1
  Te  Te178  1  0.33194034  0.83151765  0.32993477  1
  Te  Te179  1  0.32866955  0.83614560  0.66548184  1
  Te  Te180  1  0.66249428  0.16064512  -0.00371761  1
  Te  Te181  1  0.67087335  0.16047258  0.33471455  1
  Te  Te182  1  0.67173119  0.16357064  0.67038282  1
  Te  Te183  1  0.66579264  0.50087315  -0.00032717  1
  Te  Te184  1  0.66399579  0.50161295  0.33427048  1
  Te  Te185  1  0.67484795  0.49635760  0.66713275  1
  Te  Te186  1  0.67577792  0.83854084  -0.00005416  1
  Te  Te187  1  0.65945590  0.83756812  0.33528353  1
  Te  Te188  1  0.66569956  0.83698924  0.66347326  1
  Te  Te189  1  0.00255697  0.00398747  0.17208814  1
  Te  Te190  1  -0.00010135  0.00351168  0.49938763  1
  Te  Te191  1  0.00152103  0.00017925  0.82396190  1
  Te  Te192  1  0.00751313  0.32448496  0.16580568  1
  Te  Te193  1  0.00912536  0.32491501  0.50009387  1
  Te  Te194  1  -0.00447312  0.33452559  0.83265961  1
  Te  Te195  1  0.00058790  0.66504461  0.17044023  1
  Te  Te196  1  -0.00010787  0.66562230  0.49239425  1
  Te  Te197  1  -0.00034885  0.66779949  0.83638285  1
  Te  Te198  1  0.33029778  0.00017053  0.16248063  1
  Te  Te199  1  0.33317744  0.00243124  0.50521317  1
  Te  Te200  1  0.33288685  0.00157693  0.83482720  1
  Te  Te201  1  0.32645377  0.33474053  0.16390204  1
  Te  Te202  1  0.32909349  0.33031417  0.50434166  1
  Te  Te203  1  0.33656092  0.33125269  0.83024750  1
  Te  Te204  1  0.33005180  0.66212550  0.16601329  1
  Te  Te205  1  0.33478199  0.65764641  0.50020603  1
  Te  Te206  1  0.33430054  0.65520523  0.83397358  1
  Te  Te207  1  0.66847362  0.00247916  0.16516390  1
  Te  Te208  1  0.66720369  -0.00243282  0.49480787  1
  Te  Te209  1  0.66740785  0.00276429  0.83614217  1
  Te  Te210  1  0.66615946  0.32632578  0.16606981  1
  Te  Te211  1  0.66659472  0.33646853  0.49852353  1
  Te  Te212  1  0.65753721  0.32466190  0.83400028  1
  Te  Te213  1  0.66894559  0.66534180  0.16569252  1
  Te  Te214  1  0.66643625  0.67369013  0.50615323  1
  Te  Te215  1  0.66737499  0.66474583  0.82780523  1
