# generated using pymatgen
data_AgSbTe2
_symmetry_space_group_name_H-M   'P 1'
_cell_length_a   18.32063861
_cell_length_b   18.32575788
_cell_length_c   18.32581844
_cell_angle_alpha   90.00042936
_cell_angle_beta   90.00091341
_cell_angle_gamma   89.99969794
_symmetry_Int_Tables_number   1
_chemical_formula_structural   AgSbTe2
_chemical_formula_sum   'Ag54 Sb54 Te108'
_cell_volume   6152.70272281
_cell_formula_units_Z   54
loop_
 _symmetry_equiv_pos_site_id
 _symmetry_equiv_pos_as_xyz
  1  'x, y, z'
loop_
 _atom_site_type_symbol
 _atom_site_label
 _atom_site_symmetry_multiplicity
 _atom_site_fract_x
 _atom_site_fract_y
 _atom_site_fract_z
 _atom_site_occupancy
  Ag  Ag0  1  0.83455213  0.00558632  0.17581722  1
  Ag  Ag1  1  0.82637318  0.49888474  0.66353236  1
  Ag  Ag2  1  -0.00265773  0.84288535  0.50022393  1
  Ag  Ag3  1  -0.00024253  0.16312452  0.83668536  1
  Ag  Ag4  1  0.82679861  0.50192434  0.00313885  1
  Ag  Ag5  1  0.66768201  0.67087188  -0.00241877  1
  Ag  Ag6  1  0.49981212  0.65649408  0.50667229  1
  Ag  Ag7  1  0.83545801  0.49138822  0.33088922  1
  Ag  Ag8  1  0.34346854  0.50050470  0.50156008  1
  Ag  Ag9  1  -0.00368743  0.00315014  0.33568808  1
  Ag  Ag10  1  0.15709781  -0.00427945  0.49364349  1
  Ag  Ag11  1  0.50325595  0.66236817  0.82941476  1
  Ag  Ag12  1  0.15785971  0.32243992  0.16809569  1
  Ag  Ag13  1  -0.00394754  0.49264769  0.16912138  1
  Ag  Ag14  1  0.32487717  0.16554880  0.16436189  1
  Ag  Ag15  1  0.66481765  0.49396833  0.49912799  1
  Ag  Ag16  1  0.50993561  0.16611458  0.33194681  1
  Ag  Ag17  1  0.82703966  0.66333397  0.83821274  1
  Ag  Ag18  1  0.32597348  0.00493027  0.33440844  1
  Ag  Ag19  1  0.16669046  0.84267013  -0.00397631  1
  Ag  Ag20  1  0.67231028  0.16617777  0.49406102  1
  Ag  Ag21  1  0.50867320  0.33752440  0.50482789  1
  Ag  Ag22  1  0.66777865  -0.00211712  0.66599605  1
  Ag  Ag23  1  0.67017445  0.32616793  0.33873427  1
  Ag  Ag24  1  0.67062573  0.83721783  0.16109900  1
  Ag  Ag25  1  0.51015526  0.00566940  0.83374644  1
  Ag  Ag26  1  0.33432588  0.16543787  0.83803088  1
  Ag  Ag27  1  0.83221074  0.00803682  0.49219289  1
  Ag  Ag28  1  0.16697651  0.83382827  0.66846796  1
  Ag  Ag29  1  0.50350901  0.49999577  0.66550434  1
  Ag  Ag30  1  0.66844346  -0.00313824  -0.00310261  1
  Ag  Ag31  1  0.49906255  0.16870612  -0.00208635  1
  Ag  Ag32  1  0.16505144  -0.00152035  0.83608892  1
  Ag  Ag33  1  0.16808414  0.67359748  0.83392305  1
  Ag  Ag34  1  0.33447359  0.66131076  0.66543972  1
  Ag  Ag35  1  0.83680018  0.65807729  0.16265695  1
  Ag  Ag36  1  0.50769138  0.49635925  -0.00851047  1
  Ag  Ag37  1  0.67153381  0.00532380  0.33753739  1
  Ag  Ag38  1  0.82687564  0.00364618  0.83292676  1
  Ag  Ag39  1  0.16989426  0.16093854  0.00420627  1
  Ag  Ag40  1  0.00200281  0.16645902  0.16774592  1
  Ag  Ag41  1  0.82638937  0.32663624  0.49155803  1
  Ag  Ag42  1  0.33691198  0.33855123  0.66520383  1
  Ag  Ag43  1  0.16145673  0.66859723  0.16489323  1
  Ag  Ag44  1  0.82977369  0.16644410  0.33546659  1
  Ag  Ag45  1  -0.00844360  0.16080874  0.48969659  1
  Ag  Ag46  1  0.82698972  0.33147165  0.83204722  1
  Ag  Ag47  1  0.83678850  0.33463443  0.17544465  1
  Ag  Ag48  1  0.16978371  0.67225018  0.50215500  1
  Ag  Ag49  1  0.50622730  0.33228286  0.82897935  1
  Ag  Ag50  1  0.66813418  0.83813800  0.83457280  1
  Ag  Ag51  1  0.16003093  0.00474553  0.16800573  1
  Ag  Ag52  1  0.67037391  0.84009647  0.50114412  1
  Ag  Ag53  1  0.15996054  0.50080862  0.33123320  1
  Sb  Sb54  1  -0.00460334  0.49810937  0.49387376  1
  Sb  Sb55  1  0.50390021  0.00387419  0.16457774  1
  Sb  Sb56  1  0.66492195  0.33124655  0.66123714  1
  Sb  Sb57  1  0.33647713  0.66495202  -0.00561974  1
  Sb  Sb58  1  0.33325670  0.83012279  0.50142251  1
  Sb  Sb59  1  0.66854303  0.66732445  0.33179355  1
  Sb  Sb60  1  0.16338225  0.16714038  0.32820739  1
  Sb  Sb61  1  0.33669858  0.49676509  0.82724258  1
  Sb  Sb62  1  0.16531872  0.83461702  0.33426421  1
  Sb  Sb63  1  -0.00289214  0.83742483  0.17074480  1
  Sb  Sb64  1  0.00319625  0.66709097  0.66650610  1
  Sb  Sb65  1  0.83328822  0.83162998  0.00018033  1
  Sb  Sb66  1  0.16677054  0.16127702  0.67007107  1
  Sb  Sb67  1  0.67251269  0.16171029  0.17218049  1
  Sb  Sb68  1  -0.00422620  0.49708639  0.83762618  1
  Sb  Sb69  1  0.33119192  0.66802392  0.33771945  1
  Sb  Sb70  1  0.83166253  0.16893555  0.66181542  1
  Sb  Sb71  1  0.32772308  0.49525876  0.17221937  1
  Sb  Sb72  1  0.83181243  0.66510926  0.49942199  1
  Sb  Sb73  1  0.83181989  0.16776381  0.00301987  1
  Sb  Sb74  1  0.50220490  0.66440953  0.16450083  1
  Sb  Sb75  1  0.16510013  0.49963305  0.00472037  1
  Sb  Sb76  1  0.00056353  0.33316039  0.66593333  1
  Sb  Sb77  1  0.66694918  0.50285875  0.82969218  1
  Sb  Sb78  1  0.49860107  0.82845981  0.66725405  1
  Sb  Sb79  1  0.33509834  0.33139226  -0.00366443  1
  Sb  Sb80  1  0.33355776  0.83848937  0.16662321  1
  Sb  Sb81  1  0.33744016  0.32864518  0.33631276  1
  Sb  Sb82  1  -0.00230259  0.33149044  0.00304156  1
  Sb  Sb83  1  0.66314736  0.66929498  0.66967504  1
  Sb  Sb84  1  0.50181266  0.83546124  -0.00281498  1
  Sb  Sb85  1  0.50365502  0.83993933  0.33536979  1
  Sb  Sb86  1  -0.00103975  0.83886639  0.82931518  1
  Sb  Sb87  1  -0.00476444  0.66666931  0.00078659  1
  Sb  Sb88  1  -0.00090503  0.66946175  0.33341209  1
  Sb  Sb89  1  0.66726909  0.16125623  0.83057823  1
  Sb  Sb90  1  0.67457119  0.50212803  0.17024283  1
  Sb  Sb91  1  0.83208875  0.83919453  0.33341222  1
  Sb  Sb92  1  0.33502444  0.00045756  0.66524707  1
  Sb  Sb93  1  0.50356814  0.49459485  0.33716049  1
  Sb  Sb94  1  0.33427347  0.16859944  0.49881840  1
  Sb  Sb95  1  0.50353259  0.33001393  0.16701074  1
  Sb  Sb96  1  0.16493338  0.33223709  0.49480182  1
  Sb  Sb97  1  0.16874061  0.50472352  0.66186838  1
  Sb  Sb98  1  0.50113377  0.17211970  0.66809738  1
  Sb  Sb99  1  0.83383096  0.83151218  0.66675808  1
  Sb  Sb100  1  -0.00755579  0.32681027  0.33233012  1
  Sb  Sb101  1  -0.00224852  0.00106055  0.00324806  1
  Sb  Sb102  1  0.66837563  0.33228745  0.00256129  1
  Sb  Sb103  1  0.50701787  0.00298412  0.50274210  1
  Sb  Sb104  1  -0.00516011  0.00011251  0.66100810  1
  Sb  Sb105  1  0.16712760  0.32942012  0.83684053  1
  Sb  Sb106  1  0.33308484  0.00354157  0.00183966  1
  Sb  Sb107  1  0.33395033  0.83768888  0.83246588  1
  Te  Te108  1  0.16482496  0.16444756  0.16628425  1
  Te  Te109  1  0.16384163  0.16157600  0.50061549  1
  Te  Te110  1  0.16637272  0.16564103  0.83753502  1
  Te  Te111  1  0.16308855  0.50543783  0.16902018  1
  Te  Te112  1  0.16356570  0.50185262  0.49481278  1
  Te  Te113  1  0.16513302  0.50377868  0.83415592  1
  Te  Te114  1  0.16580580  0.83276113  0.16462512  1
  Te  Te115  1  0.16673999  0.83434754  0.50019654  1
  Te  Te116  1  0.16624770  0.83364246  0.83333295  1
  Te  Te117  1  0.49391296  0.16773459  0.16429826  1
  Te  Te118  1  0.50084710  0.17151591  0.49775576  1
  Te  Te119  1  0.50044352  0.16719528  0.83439083  1
  Te  Te120  1  0.49805778  0.49865665  0.16243342  1
  Te  Te121  1  0.50264902  0.49843468  0.49932478  1
  Te  Te122  1  0.50024910  0.49969780  0.83168150  1
  Te  Te123  1  0.50793522  0.83257104  0.16591845  1
  Te  Te124  1  0.50570926  0.82952187  0.50145272  1
  Te  Te125  1  0.50397086  0.83204193  0.83373503  1
  Te  Te126  1  0.83818634  0.16585572  0.16794889  1
  Te  Te127  1  0.83278046  0.16690943  0.49912904  1
  Te  Te128  1  0.83455896  0.16606861  0.83477607  1
  Te  Te129  1  0.83500403  0.49897977  0.16727957  1
  Te  Te130  1  0.83132857  0.49953324  0.49872082  1
  Te  Te131  1  0.83328810  0.50076499  0.83587900  1
  Te  Te132  1  0.82973483  0.83536046  0.16624631  1
  Te  Te133  1  0.83244575  0.83444220  0.50115763  1
  Te  Te134  1  0.83099868  0.83408479  0.83335402  1
  Te  Te135  1  0.16624475  0.00221421  -0.00047362  1
  Te  Te136  1  0.16509920  0.00073973  0.33329157  1
  Te  Te137  1  0.16841653  -0.00487383  0.66945535  1
  Te  Te138  1  0.16756898  0.33047368  0.00745787  1
  Te  Te139  1  0.16872892  0.33888488  0.32752113  1
  Te  Te140  1  0.17352433  0.33486746  0.66617192  1
  Te  Te141  1  0.16777223  0.66432095  -0.00183061  1
  Te  Te142  1  0.16617201  0.66431167  0.33227379  1
  Te  Te143  1  0.17007377  0.66882708  0.66713246  1
  Te  Te144  1  0.50238841  0.00280831  -0.00488872  1
  Te  Te145  1  0.50601487  0.00671978  0.33371854  1
  Te  Te146  1  0.50322144  -0.00121117  0.67284102  1
  Te  Te147  1  0.50187329  0.33284669  -0.00460635  1
  Te  Te148  1  0.50577302  0.32746025  0.33675005  1
  Te  Te149  1  0.49938036  0.33844563  0.66745854  1
  Te  Te150  1  0.50441047  0.66477961  -0.00431297  1
  Te  Te151  1  0.49926954  0.66627960  0.33875538  1
  Te  Te152  1  0.49721226  0.66218602  0.66743737  1
  Te  Te153  1  0.82960260  -0.00057045  -0.00361282  1
  Te  Te154  1  0.83261739  0.00210897  0.33366791  1
  Te  Te155  1  0.82809348  -0.00105879  0.67145843  1
  Te  Te156  1  0.83147854  0.33791835  -0.00514562  1
  Te  Te157  1  0.83089427  0.33140430  0.33385666  1
  Te  Te158  1  0.83333143  0.33871349  0.67235056  1
  Te  Te159  1  0.82919701  0.66558805  0.00008074  1
  Te  Te160  1  0.83336521  0.65960651  0.32712270  1
  Te  Te161  1  0.83313915  0.66109614  0.67143523  1
  Te  Te162  1  0.00400462  0.16598665  0.00096607  1
  Te  Te163  1  -0.00291094  0.16184174  0.33150168  1
  Te  Te164  1  -0.00049557  0.16728633  0.67358375  1
  Te  Te165  1  -0.00674186  0.49960358  0.00811775  1
  Te  Te166  1  -0.00111937  0.50123563  0.32816510  1
  Te  Te167  1  -0.00830710  0.49943514  0.66701423  1
  Te  Te168  1  0.00886985  0.83360729  -0.00061807  1
  Te  Te169  1  -0.00094848  0.84170941  0.34123143  1
  Te  Te170  1  0.00717487  0.83348490  0.65920773  1
  Te  Te171  1  0.33492005  0.16695972  -0.00050848  1
  Te  Te172  1  0.33549961  0.16338350  0.33066112  1
  Te  Te173  1  0.33394416  0.16999267  0.67173962  1
  Te  Te174  1  0.34130628  0.49880571  0.00190783  1
  Te  Te175  1  0.33187975  0.49961292  0.34013545  1
  Te  Te176  1  0.33548169  0.50057763  0.66175207  1
  Te  Te177  1  0.32496484  0.83297520  0.00067040  1
  Te  Te178  1  0.33571515  0.84443688  0.33303868  1
  Te  Te179  1  0.32713748  0.82788135  0.66708606  1
  Te  Te180  1  0.66135722  0.16172756  0.00169847  1
  Te  Te181  1  0.66890366  0.16651368  0.33390557  1
  Te  Te182  1  0.66617678  0.15836518  0.65655338  1
  Te  Te183  1  0.66649567  0.50175979  0.00100724  1
  Te  Te184  1  0.67097412  0.49828136  0.33824507  1
  Te  Te185  1  0.66574989  0.50051470  0.66068011  1
  Te  Te186  1  0.66677275  0.83479106  -0.00291441  1
  Te  Te187  1  0.66665738  0.83840747  0.33664848  1
  Te  Te188  1  0.66659337  0.83759981  0.66774515  1
  Te  Te189  1  -0.00149962  0.00186980  0.16989977  1
  Te  Te190  1  -0.00189674  0.00289572  0.49928750  1
  Te  Te191  1  0.00278200  0.00349963  0.83215477  1
  Te  Te192  1  -0.00238088  0.33115794  0.16778576  1
  Te  Te193  1  -0.00562091  0.32555935  0.50040078  1
  Te  Te194  1  -0.00321032  0.32722615  0.83370608  1
  Te  Te195  1  -0.00071430  0.66923768  0.16717783  1
  Te  Te196  1  0.00537942  0.66960609  0.49965114  1
  Te  Te197  1  0.00106040  0.66762150  0.83348608  1
  Te  Te198  1  0.33037219  0.00393910  0.17062114  1
  Te  Te199  1  0.33175708  -0.00031798  0.49669319  1
  Te  Te200  1  0.32889723  0.00504440  0.83232043  1
  Te  Te201  1  0.33118342  0.32722675  0.16781541  1
  Te  Te202  1  0.33313321  0.33699754  0.50418146  1
  Te  Te203  1  0.33580381  0.32888507  0.82883545  1
  Te  Te204  1  0.32801166  0.66682640  0.16761800  1
  Te  Te205  1  0.33189685  0.66330612  0.50240117  1
  Te  Te206  1  0.33348877  0.66681065  0.82844985  1
  Te  Te207  1  0.66985970  -0.00257662  0.16646151  1
  Te  Te208  1  0.66831027  0.00020653  0.49887015  1
  Te  Te209  1  0.66713665  -0.00046829  0.83489277  1
  Te  Te210  1  0.67323571  0.33318932  0.17276389  1
  Te  Te211  1  0.66808237  0.33305040  0.50067983  1
  Te  Te212  1  0.66609792  0.33169848  0.83257825  1
  Te  Te213  1  0.66944422  0.67206870  0.16303866  1
  Te  Te214  1  0.66427344  0.66980535  0.50024525  1
  Te  Te215  1  0.66685875  0.66895871  0.83561015  1
