# generated using pymatgen
data_AgSbTe2
_symmetry_space_group_name_H-M   'P 1'
_cell_length_a   18.34723226
_cell_length_b   18.35423815
_cell_length_c   18.34602108
_cell_angle_alpha   90.00088048
_cell_angle_beta   89.99684122
_cell_angle_gamma   90.00391257
_symmetry_Int_Tables_number   1
_chemical_formula_structural   AgSbTe2
_chemical_formula_sum   'Ag54 Sb54 Te108'
_cell_volume   6178.01285751
_cell_formula_units_Z   54
loop_
 _symmetry_equiv_pos_site_id
 _symmetry_equiv_pos_as_xyz
  1  'x, y, z'
loop_
 _atom_site_type_symbol
 _atom_site_label
 _atom_site_symmetry_multiplicity
 _atom_site_fract_x
 _atom_site_fract_y
 _atom_site_fract_z
 _atom_site_occupancy
  Ag  Ag0  1  0.33185815  -0.00355956  0.34107822  1
  Ag  Ag1  1  0.83207225  0.32840359  0.51399518  1
  Ag  Ag2  1  0.82436188  0.33269023  0.82636878  1
  Ag  Ag3  1  0.33157212  0.16197284  0.51154761  1
  Ag  Ag4  1  -0.00424952  0.65836266  0.66494238  1
  Ag  Ag5  1  0.33972006  0.15792063  0.16737344  1
  Ag  Ag6  1  0.66828673  0.32957696  -0.01625451  1
  Ag  Ag7  1  0.51223998  0.32713243  0.82604043  1
  Ag  Ag8  1  0.16676281  0.66974935  0.83184216  1
  Ag  Ag9  1  0.16889591  0.67344433  0.16291750  1
  Ag  Ag10  1  0.35067252  0.33344840  0.66892158  1
  Ag  Ag11  1  0.66025173  0.16470741  0.15725588  1
  Ag  Ag12  1  0.00488358  0.83237724  0.18179989  1
  Ag  Ag13  1  0.49918045  0.17667887  0.66980304  1
  Ag  Ag14  1  0.32864245  0.83683968  0.17214453  1
  Ag  Ag15  1  0.83248633  0.83114606  -0.00911550  1
  Ag  Ag16  1  0.32912856  0.84158194  0.49946076  1
  Ag  Ag17  1  -0.00241262  0.50794142  0.51284594  1
  Ag  Ag18  1  0.50073203  0.50158988  0.34162269  1
  Ag  Ag19  1  0.66550104  0.33919970  0.67078219  1
  Ag  Ag20  1  0.66887838  0.65932139  0.67489119  1
  Ag  Ag21  1  0.66643392  0.17254160  0.83206599  1
  Ag  Ag22  1  0.83177186  0.17547898  0.66914541  1
  Ag  Ag23  1  0.66741906  -0.00165941  -0.00695036  1
  Ag  Ag24  1  -0.01230792  0.49730466  0.82313532  1
  Ag  Ag25  1  -0.01130379  0.16838638  0.82367063  1
  Ag  Ag26  1  0.00012203  0.83472243  0.49509325  1
  Ag  Ag27  1  0.66807533  0.66832651  -0.01017337  1
  Ag  Ag28  1  -0.00203876  0.67623907  0.34145003  1
  Ag  Ag29  1  0.50288783  0.33380436  0.51614884  1
  Ag  Ag30  1  0.16129777  0.83159974  0.00259048  1
  Ag  Ag31  1  0.16565015  -0.00315683  0.83154536  1
  Ag  Ag32  1  0.66909595  0.66697461  0.33223560  1
  Ag  Ag33  1  0.84192767  0.48595955  0.67039391  1
  Ag  Ag34  1  0.33620490  0.49399917  0.82674134  1
  Ag  Ag35  1  0.82925733  0.00454987  0.82830069  1
  Ag  Ag36  1  0.50672168  0.00683642  0.83274828  1
  Ag  Ag37  1  0.67108925  0.83563526  0.83377495  1
  Ag  Ag38  1  0.82913757  0.50514794  -0.01445641  1
  Ag  Ag39  1  0.00286185  -0.01289413  0.33769831  1
  Ag  Ag40  1  0.33530665  0.01072721  0.66771532  1
  Ag  Ag41  1  0.33457065  0.66150555  0.66827774  1
  Ag  Ag42  1  0.15379002  0.50160580  0.67020376  1
  Ag  Ag43  1  -0.00221562  0.16400645  0.50796967  1
  Ag  Ag44  1  0.49957550  0.67194204  0.16855233  1
  Ag  Ag45  1  0.83701775  0.00015769  0.51099732  1
  Ag  Ag46  1  0.83347659  0.83410044  0.66890974  1
  Ag  Ag47  1  0.67180890  0.48709010  0.83040519  1
  Ag  Ag48  1  0.84285438  0.83367278  0.33958967  1
  Ag  Ag49  1  -0.02042303  0.34805368  0.66642941  1
  Ag  Ag50  1  0.49739301  -0.00093637  0.16437007  1
  Ag  Ag51  1  0.15385060  0.83294255  0.32775325  1
  Ag  Ag52  1  0.34036644  0.16539852  0.82526621  1
  Ag  Ag53  1  0.50167543  0.48968443  0.66774580  1
  Sb  Sb54  1  0.66706251  0.16789070  0.50792965  1
  Sb  Sb55  1  0.17311347  -0.00818173  0.16333477  1
  Sb  Sb56  1  0.83608845  0.67009281  0.50540192  1
  Sb  Sb57  1  0.50291420  0.83368548  -0.00072960  1
  Sb  Sb58  1  0.33635775  0.50324975  0.16368031  1
  Sb  Sb59  1  0.50093333  0.33012739  0.16364425  1
  Sb  Sb60  1  0.00042786  0.50869881  0.16695325  1
  Sb  Sb61  1  0.16019062  0.50719684  -0.01162632  1
  Sb  Sb62  1  0.16688038  0.16886373  0.66933360  1
  Sb  Sb63  1  0.16476453  0.66917256  0.50593773  1
  Sb  Sb64  1  0.50085904  0.16897211  0.33786395  1
  Sb  Sb65  1  0.16837718  0.15724523  0.33366627  1
  Sb  Sb66  1  0.16453554  -0.00203641  0.50562109  1
  Sb  Sb67  1  0.66666139  0.00209075  0.67399683  1
  Sb  Sb68  1  0.67011740  0.83344267  0.50532211  1
  Sb  Sb69  1  0.50166036  0.83368195  0.66788467  1
  Sb  Sb70  1  0.82885738  -0.00256594  0.16343485  1
  Sb  Sb71  1  0.50114385  0.66498429  0.83337287  1
  Sb  Sb72  1  0.16437770  0.82899725  0.66788939  1
  Sb  Sb73  1  0.33444877  0.83652092  0.83049948  1
  Sb  Sb74  1  0.82931707  0.16400496  -0.01148197  1
  Sb  Sb75  1  0.16788018  0.33825869  0.16597842  1
  Sb  Sb76  1  0.67163329  0.50046163  0.51288992  1
  Sb  Sb77  1  0.16500813  0.33325393  0.50630321  1
  Sb  Sb78  1  0.33540713  0.32733795  0.34242136  1
  Sb  Sb79  1  0.33176115  0.49774189  0.50962103  1
  Sb  Sb80  1  0.33593856  0.66805879  -0.00357512  1
  Sb  Sb81  1  0.83167690  0.66977902  0.16695660  1
  Sb  Sb82  1  0.66693481  -0.00431651  0.32876476  1
  Sb  Sb83  1  0.16759086  0.15941899  -0.00448186  1
  Sb  Sb84  1  -0.00466984  -0.00311797  -0.00035095  1
  Sb  Sb85  1  -0.00098691  -0.00004134  0.66426068  1
  Sb  Sb86  1  -0.00497889  0.66911047  -0.00452840  1
  Sb  Sb87  1  0.16620676  0.33482754  0.82961689  1
  Sb  Sb88  1  0.66693380  0.83415992  0.16155769  1
  Sb  Sb89  1  0.83218476  0.33137118  0.16009075  1
  Sb  Sb90  1  0.49973923  0.66218667  0.49940203  1
  Sb  Sb91  1  0.66641123  0.33817022  0.33709104  1
  Sb  Sb92  1  0.34002927  0.33189732  -0.01054789  1
  Sb  Sb93  1  0.33140965  0.67346775  0.33681603  1
  Sb  Sb94  1  -0.00305597  0.33551217  0.34587278  1
  Sb  Sb95  1  0.50284164  0.16519672  -0.01028579  1
  Sb  Sb96  1  0.16891592  0.51017287  0.33907506  1
  Sb  Sb97  1  -0.00009483  0.15963859  0.16901995  1
  Sb  Sb98  1  0.83302760  0.15943526  0.34325864  1
  Sb  Sb99  1  -0.00828979  0.33517708  -0.01347397  1
  Sb  Sb100  1  0.66574911  0.49942148  0.15994155  1
  Sb  Sb101  1  0.83269024  0.66320426  0.82949419  1
  Sb  Sb102  1  0.50605803  0.50134816  -0.00790979  1
  Sb  Sb103  1  0.33807230  -0.00157489  -0.00406327  1
  Sb  Sb104  1  0.50029816  0.00425816  0.50310515  1
  Sb  Sb105  1  0.50121083  0.82980882  0.33230483  1
  Sb  Sb106  1  0.82981660  0.50662296  0.34197411  1
  Sb  Sb107  1  -0.00502079  0.83171390  0.82809030  1
  Te  Te108  1  0.16990651  0.16806586  0.16490046  1
  Te  Te109  1  0.16932441  0.16574076  0.49938997  1
  Te  Te110  1  0.17047493  0.16020134  0.83471029  1
  Te  Te111  1  0.16777950  0.50937920  0.16525873  1
  Te  Te112  1  0.15962343  0.50078783  0.50601421  1
  Te  Te113  1  0.17297743  0.50307592  0.82886457  1
  Te  Te114  1  0.16666454  0.83142928  0.16637853  1
  Te  Te115  1  0.16716553  0.83397600  0.49532883  1
  Te  Te116  1  0.16566454  0.83302155  0.83567373  1
  Te  Te117  1  0.49994643  0.16433239  0.16961825  1
  Te  Te118  1  0.49715898  0.17131933  0.50560415  1
  Te  Te119  1  0.50092269  0.16650236  0.82957304  1
  Te  Te120  1  0.49925262  0.50233499  0.16756945  1
  Te  Te121  1  0.49948469  0.49564746  0.50265935  1
  Te  Te122  1  0.49829610  0.49983138  0.82936332  1
  Te  Te123  1  0.49665139  0.83465948  0.16598147  1
  Te  Te124  1  0.49335125  0.83472524  0.49987688  1
  Te  Te125  1  0.50478467  0.84028884  0.83427431  1
  Te  Te126  1  0.83061018  0.16581967  0.16774352  1
  Te  Te127  1  0.83435585  0.16553172  0.50647964  1
  Te  Te128  1  0.83135675  0.16644562  0.82923681  1
  Te  Te129  1  0.83394181  0.49928370  0.16528302  1
  Te  Te130  1  0.83812900  0.49450645  0.50617617  1
  Te  Te131  1  0.83120648  0.50075477  0.82946139  1
  Te  Te132  1  0.83718896  0.83376734  0.16818940  1
  Te  Te133  1  0.83495343  0.83671316  0.50065292  1
  Te  Te134  1  0.83299865  0.83442886  0.83260729  1
  Te  Te135  1  0.16518428  -0.00754409  -0.00697951  1
  Te  Te136  1  0.16940209  -0.00719309  0.33224764  1
  Te  Te137  1  0.17397006  -0.00203018  0.67279936  1
  Te  Te138  1  0.16570953  0.33578628  -0.00026586  1
  Te  Te139  1  0.16678152  0.33578829  0.33358679  1
  Te  Te140  1  0.16816783  0.34153991  0.66703349  1
  Te  Te141  1  0.16686821  0.67155389  -0.00204539  1
  Te  Te142  1  0.16375670  0.67189904  0.32912772  1
  Te  Te143  1  0.16685350  0.66357792  0.67117845  1
  Te  Te144  1  0.50660791  -0.00029218  -0.00041087  1
  Te  Te145  1  0.49642502  0.00088273  0.33105664  1
  Te  Te146  1  0.49623832  0.00206755  0.66936155  1
  Te  Te147  1  0.50801601  0.33443249  -0.00499746  1
  Te  Te148  1  0.50026474  0.34078286  0.33458594  1
  Te  Te149  1  0.50575980  0.33216050  0.67119512  1
  Te  Te150  1  0.50556891  0.66690920  0.00690797  1
  Te  Te151  1  0.50020802  0.66232055  0.33073751  1
  Te  Te152  1  0.50301526  0.66575786  0.66630491  1
  Te  Te153  1  0.82829628  -0.00530757  -0.00486242  1
  Te  Te154  1  0.83563846  -0.00593015  0.33325548  1
  Te  Te155  1  0.83247729  -0.00525661  0.66848734  1
  Te  Te156  1  0.82678455  0.33742242  -0.00625066  1
  Te  Te157  1  0.83250965  0.33361706  0.33582458  1
  Te  Te158  1  0.82580642  0.33125851  0.66917894  1
  Te  Te159  1  0.82803311  0.66910918  0.00104716  1
  Te  Te160  1  0.83542739  0.67135485  0.33409453  1
  Te  Te161  1  0.83167134  0.67332373  0.66587050  1
  Te  Te162  1  -0.00094811  0.16667293  -0.00206100  1
  Te  Te163  1  0.00083612  0.16471023  0.33819293  1
  Te  Te164  1  0.00056439  0.16306253  0.66723118  1
  Te  Te165  1  -0.00828545  0.50055175  -0.00494989  1
  Te  Te166  1  -0.00013410  0.50475233  0.33608054  1
  Te  Te167  1  -0.00151246  0.50192691  0.66831321  1
  Te  Te168  1  -0.00316807  0.83346258  -0.00105622  1
  Te  Te169  1  -0.00143504  0.83156899  0.33722106  1
  Te  Te170  1  -0.00236000  0.83154327  0.66082218  1
  Te  Te171  1  0.33390069  0.16712217  0.00544810  1
  Te  Te172  1  0.33379913  0.16012449  0.32890719  1
  Te  Te173  1  0.33053060  0.16850665  0.66828584  1
  Te  Te174  1  0.33217259  0.49923643  -0.00830471  1
  Te  Te175  1  0.33710148  0.49928587  0.33442344  1
  Te  Te176  1  0.34285984  0.49955340  0.66669029  1
  Te  Te177  1  0.32821216  0.83212373  0.00500348  1
  Te  Te178  1  0.33522042  0.83668759  0.33377868  1
  Te  Te179  1  0.33273866  0.82719326  0.66363386  1
  Te  Te180  1  0.66766975  0.16627582  -0.00321739  1
  Te  Te181  1  0.66718831  0.16633918  0.32820533  1
  Te  Te182  1  0.66737853  0.16729401  0.67058468  1
  Te  Te183  1  0.67040226  0.50461617  -0.00497990  1
  Te  Te184  1  0.66284798  0.50547387  0.33133164  1
  Te  Te185  1  0.66464456  0.50175905  0.67053736  1
  Te  Te186  1  0.66996698  0.83199026  -0.00233516  1
  Te  Te187  1  0.66987109  0.82863135  0.33325438  1
  Te  Te188  1  0.66926871  0.82868957  0.66970683  1
  Te  Te189  1  0.00081174  -0.00426477  0.17274990  1
  Te  Te190  1  -0.00119751  0.00086017  0.49802359  1
  Te  Te191  1  -0.00222751  0.00292777  0.83286638  1
  Te  Te192  1  0.00080066  0.33148402  0.16646789  1
  Te  Te193  1  -0.00279133  0.32583780  0.50748162  1
  Te  Te194  1  -0.00066234  0.33189076  0.82560338  1
  Te  Te195  1  0.00307850  0.67212584  0.16643365  1
  Te  Te196  1  0.00051847  0.66815246  0.50222341  1
  Te  Te197  1  0.00523915  0.66336167  0.82877260  1
  Te  Te198  1  0.33685632  -0.00179495  0.16297338  1
  Te  Te199  1  0.33430706  0.00164070  0.50196564  1
  Te  Te200  1  0.33612230  0.00215154  0.83072802  1
  Te  Te201  1  0.33394134  0.32961378  0.16580783  1
  Te  Te202  1  0.33676257  0.32791516  0.50631015  1
  Te  Te203  1  0.33291905  0.33000543  0.82855689  1
  Te  Te204  1  0.33452375  0.67018667  0.16700947  1
  Te  Te205  1  0.33249534  0.66908918  0.50584107  1
  Te  Te206  1  0.33239804  0.66769795  0.82928889  1
  Te  Te207  1  0.66066431  0.00281965  0.16152440  1
  Te  Te208  1  0.67341265  0.00041238  0.49750022  1
  Te  Te209  1  0.66768891  -0.00125766  0.83330503  1
  Te  Te210  1  0.66636442  0.32654280  0.16635970  1
  Te  Te211  1  0.66695798  0.33386410  0.50301922  1
  Te  Te212  1  0.66786523  0.33226560  0.82982390  1
  Te  Te213  1  0.66239111  0.66650184  0.17086822  1
  Te  Te214  1  0.66679582  0.66739264  0.49403139  1
  Te  Te215  1  0.66478629  0.67449328  0.83255089  1
