# generated using pymatgen
data_AgSbTe2
_symmetry_space_group_name_H-M   'P 1'
_cell_length_a   18.35961932
_cell_length_b   18.35903701
_cell_length_c   18.35682429
_cell_angle_alpha   90.00302859
_cell_angle_beta   90.00792862
_cell_angle_gamma   89.99715467
_symmetry_Int_Tables_number   1
_chemical_formula_structural   AgSbTe2
_chemical_formula_sum   'Ag54 Sb54 Te108'
_cell_volume   6187.44163063
_cell_formula_units_Z   54
loop_
 _symmetry_equiv_pos_site_id
 _symmetry_equiv_pos_as_xyz
  1  'x, y, z'
loop_
 _atom_site_type_symbol
 _atom_site_label
 _atom_site_symmetry_multiplicity
 _atom_site_fract_x
 _atom_site_fract_y
 _atom_site_fract_z
 _atom_site_occupancy
  Ag  Ag0  1  -0.00738177  -0.00799900  0.66956664  1
  Ag  Ag1  1  0.81912812  0.50417909  0.66554003  1
  Ag  Ag2  1  0.81685691  0.66389173  0.50590397  1
  Ag  Ag3  1  0.33272327  0.00147918  -0.00587242  1
  Ag  Ag4  1  0.17145782  0.83859169  -0.01301615  1
  Ag  Ag5  1  0.17080001  0.82628821  0.67201699  1
  Ag  Ag6  1  0.66456696  0.66502118  -0.00163365  1
  Ag  Ag7  1  0.00149328  0.16310163  0.83277364  1
  Ag  Ag8  1  0.18171633  0.15876599  -0.00508846  1
  Ag  Ag9  1  0.66309954  0.16662562  0.82965192  1
  Ag  Ag10  1  0.81798630  0.66370347  0.17077451  1
  Ag  Ag11  1  0.81804406  0.82414546  0.66727327  1
  Ag  Ag12  1  0.33702294  0.33861769  0.33527242  1
  Ag  Ag13  1  0.49928092  -0.00162703  0.83028401  1
  Ag  Ag14  1  0.66485730  0.16351946  0.51477856  1
  Ag  Ag15  1  0.81807947  0.33615423  0.16552137  1
  Ag  Ag16  1  0.34790257  0.66156732  0.33343364  1
  Ag  Ag17  1  0.50653932  0.82728982  0.66507608  1
  Ag  Ag18  1  0.34354716  0.34076751  0.66755508  1
  Ag  Ag19  1  0.66373752  0.51253008  0.50947095  1
  Ag  Ag20  1  0.17980224  -0.00349819  0.83539411  1
  Ag  Ag21  1  0.17568689  0.50550657  0.66790081  1
  Ag  Ag22  1  0.50385867  0.49970969  -0.00166315  1
  Ag  Ag23  1  0.66706475  0.66774908  0.66221197  1
  Ag  Ag24  1  -0.01038338  0.66772472  0.66669920  1
  Ag  Ag25  1  0.82441619  0.16982619  0.67060505  1
  Ag  Ag26  1  0.34627334  0.50136520  0.50986117  1
  Ag  Ag27  1  0.17006710  0.67986396  0.82868579  1
  Ag  Ag28  1  0.50490434  -0.00850265  0.50984824  1
  Ag  Ag29  1  0.66049587  0.17312778  0.16410538  1
  Ag  Ag30  1  0.50075253  0.50884267  0.33930647  1
  Ag  Ag31  1  0.34374835  0.16552935  0.15286776  1
  Ag  Ag32  1  0.82821841  0.33119663  0.82581701  1
  Ag  Ag33  1  0.33615475  0.83552820  0.83390833  1
  Ag  Ag34  1  0.66146594  0.82264249  0.51284076  1
  Ag  Ag35  1  0.33883729  0.15875071  0.83557749  1
  Ag  Ag36  1  0.66213998  -0.00457601  0.34891568  1
  Ag  Ag37  1  0.50279512  0.81990440  0.34443807  1
  Ag  Ag38  1  0.65667041  0.66777579  0.34786220  1
  Ag  Ag39  1  0.49886770  0.16762707  -0.00118740  1
  Ag  Ag40  1  0.65914851  0.82699060  0.82390009  1
  Ag  Ag41  1  0.50374971  0.66004817  0.17858342  1
  Ag  Ag42  1  0.50432953  0.66579961  0.49289484  1
  Ag  Ag43  1  -0.00050434  0.33553508  0.33351750  1
  Ag  Ag44  1  0.66224900  0.50296495  0.82055245  1
  Ag  Ag45  1  0.00951267  0.00172339  -0.01592166  1
  Ag  Ag46  1  0.50472757  0.50543212  0.66379315  1
  Ag  Ag47  1  0.34399751  0.50069582  0.82652687  1
  Ag  Ag48  1  0.66107713  0.50390579  0.16756527  1
  Ag  Ag49  1  0.33709729  0.83558321  0.15642363  1
  Ag  Ag50  1  0.66629168  -0.01492876  0.66536740  1
  Ag  Ag51  1  0.66429364  0.35154316  0.66816961  1
  Ag  Ag52  1  -0.00739194  0.50109541  0.50587702  1
  Ag  Ag53  1  0.50224366  0.34281125  0.16836216  1
  Sb  Sb54  1  0.82258464  -0.00586568  0.50627820  1
  Sb  Sb55  1  0.82862504  -0.00002465  0.16517171  1
  Sb  Sb56  1  0.17872933  0.83172238  0.33682297  1
  Sb  Sb57  1  0.16935467  0.16580643  0.32517435  1
  Sb  Sb58  1  0.50265795  0.33972516  0.49870408  1
  Sb  Sb59  1  -0.00471331  0.33710076  0.66503818  1
  Sb  Sb60  1  -0.00722975  0.17059384  0.50921268  1
  Sb  Sb61  1  0.17501098  -0.00187207  0.51303372  1
  Sb  Sb62  1  0.34300453  0.82705391  0.50663191  1
  Sb  Sb63  1  0.66281694  -0.00148331  -0.00806313  1
  Sb  Sb64  1  0.82849504  0.33928796  0.50279423  1
  Sb  Sb65  1  0.82233572  0.83003230  0.33857085  1
  Sb  Sb66  1  0.66348906  0.33686743  0.33394258  1
  Sb  Sb67  1  0.34297007  0.17180867  0.50572319  1
  Sb  Sb68  1  0.34172037  0.67075247  0.00023058  1
  Sb  Sb69  1  0.82853042  0.17102129  0.33787668  1
  Sb  Sb70  1  0.17408609  0.66643156  0.15991215  1
  Sb  Sb71  1  0.17518452  0.50130300  0.33957922  1
  Sb  Sb72  1  0.65989291  0.82665550  0.16645863  1
  Sb  Sb73  1  0.33765332  0.32775954  -0.00433036  1
  Sb  Sb74  1  0.33913994  0.66211631  0.66628457  1
  Sb  Sb75  1  0.17113099  0.66497459  0.50844335  1
  Sb  Sb76  1  -0.00156067  0.33000175  0.00058774  1
  Sb  Sb77  1  0.49990257  0.66677530  0.83041504  1
  Sb  Sb78  1  0.34222098  -0.00118005  0.32918281  1
  Sb  Sb79  1  -0.00240432  0.16786928  0.15954949  1
  Sb  Sb80  1  0.16494798  0.16588277  0.67438172  1
  Sb  Sb81  1  0.49739649  0.83274654  -0.00461675  1
  Sb  Sb82  1  0.50803207  0.16577532  0.67214594  1
  Sb  Sb83  1  -0.00832167  0.82740656  0.50536687  1
  Sb  Sb84  1  0.83404704  0.83270613  -0.00749209  1
  Sb  Sb85  1  -0.00343167  0.67063645  -0.00818497  1
  Sb  Sb86  1  0.82254016  0.50027245  0.33960626  1
  Sb  Sb87  1  0.66404063  0.33759562  -0.00407870  1
  Sb  Sb88  1  0.83002991  0.66341638  0.82608850  1
  Sb  Sb89  1  0.00254594  0.84023375  0.82914711  1
  Sb  Sb90  1  -0.00457702  0.66189400  0.34118448  1
  Sb  Sb91  1  0.50384159  0.33410796  0.83282185  1
  Sb  Sb92  1  0.16662513  0.33055243  0.83159207  1
  Sb  Sb93  1  0.00424549  0.83148547  0.16540821  1
  Sb  Sb94  1  0.82918033  0.00358989  0.82922052  1
  Sb  Sb95  1  0.82688984  0.16682737  -0.00618047  1
  Sb  Sb96  1  -0.00591496  0.00316685  0.34128240  1
  Sb  Sb97  1  -0.00315973  0.49706014  0.82625362  1
  Sb  Sb98  1  -0.01230257  0.49885995  0.17325867  1
  Sb  Sb99  1  0.34008014  0.00167490  0.67381580  1
  Sb  Sb100  1  0.82551853  0.50180468  -0.00465071  1
  Sb  Sb101  1  0.34215501  0.49867679  0.16517156  1
  Sb  Sb102  1  0.16952349  -0.00024733  0.15545353  1
  Sb  Sb103  1  0.50183432  0.16835892  0.32935951  1
  Sb  Sb104  1  0.17432847  0.33436123  0.16565493  1
  Sb  Sb105  1  0.50136283  -0.00099698  0.16349728  1
  Sb  Sb106  1  0.17660105  0.50272051  -0.00943051  1
  Sb  Sb107  1  0.16781592  0.33359021  0.50249227  1
  Te  Te108  1  0.16991022  0.16681573  0.15726046  1
  Te  Te109  1  0.16623668  0.16514602  0.49869233  1
  Te  Te110  1  0.16948040  0.16385955  0.83707059  1
  Te  Te111  1  0.16498673  0.50048037  0.16347422  1
  Te  Te112  1  0.16699724  0.49989204  0.50609678  1
  Te  Te113  1  0.16627784  0.49881514  0.82842982  1
  Te  Te114  1  0.17578398  0.83284836  0.16721998  1
  Te  Te115  1  0.16703613  0.83308606  0.50646942  1
  Te  Te116  1  0.16481280  0.83723871  0.83118733  1
  Te  Te117  1  0.50006968  0.16418764  0.16347350  1
  Te  Te118  1  0.50528593  0.16156483  0.49945044  1
  Te  Te119  1  0.49931441  0.16791429  0.83644780  1
  Te  Te120  1  0.50018149  0.50135365  0.16476719  1
  Te  Te121  1  0.50334869  0.50034248  0.50042865  1
  Te  Te122  1  0.50332256  0.49974147  0.83324329  1
  Te  Te123  1  0.49505378  0.83160958  0.16361817  1
  Te  Te124  1  0.50228316  0.83131143  0.50313687  1
  Te  Te125  1  0.49880478  0.83390060  0.83069070  1
  Te  Te126  1  0.82986899  0.17113965  0.16638612  1
  Te  Te127  1  0.82700621  0.16682439  0.50648977  1
  Te  Te128  1  0.82578390  0.17056045  0.83037134  1
  Te  Te129  1  0.82525360  0.50020415  0.16648933  1
  Te  Te130  1  0.82803994  0.50430280  0.50451806  1
  Te  Te131  1  0.82856758  0.49499106  0.82852028  1
  Te  Te132  1  0.83522369  0.82839108  0.16591867  1
  Te  Te133  1  0.82505232  0.82629076  0.50594409  1
  Te  Te134  1  0.82697157  0.83155047  0.82694091  1
  Te  Te135  1  0.16905846  -0.00070703  -0.00525100  1
  Te  Te136  1  0.16471571  -0.00160774  0.33615871  1
  Te  Te137  1  0.16369848  -0.00144776  0.67474013  1
  Te  Te138  1  0.16609172  0.32862754  -0.00076620  1
  Te  Te139  1  0.17032860  0.33369923  0.33315841  1
  Te  Te140  1  0.16766165  0.33746672  0.66723045  1
  Te  Te141  1  0.16574246  0.67135776  -0.00772396  1
  Te  Te142  1  0.16737915  0.66724865  0.33146199  1
  Te  Te143  1  0.17106704  0.66609558  0.67089923  1
  Te  Te144  1  0.49675909  0.00249454  -0.00603362  1
  Te  Te145  1  0.50467744  -0.00171267  0.33376510  1
  Te  Te146  1  0.50372005  -0.00079638  0.66955203  1
  Te  Te147  1  0.50020640  0.33396092  0.00756313  1
  Te  Te148  1  0.49689617  0.33580975  0.32952646  1
  Te  Te149  1  0.50345981  0.33864307  0.66531247  1
  Te  Te150  1  0.50438872  0.66363160  0.00138721  1
  Te  Te151  1  0.50295191  0.66464269  0.33340902  1
  Te  Te152  1  0.50384583  0.66639291  0.66504618  1
  Te  Te153  1  0.84443432  -0.00127473  -0.00022549  1
  Te  Te154  1  0.82499102  -0.00053207  0.33399383  1
  Te  Te155  1  0.83158275  0.00148556  0.66586338  1
  Te  Te156  1  0.83356365  0.33455450  0.00743481  1
  Te  Te157  1  0.83596376  0.33534007  0.32613760  1
  Te  Te158  1  0.82926518  0.33344193  0.66711264  1
  Te  Te159  1  0.83023742  0.66764286  0.00792934  1
  Te  Te160  1  0.82987890  0.66598614  0.33212273  1
  Te  Te161  1  0.83146083  0.66498176  0.66569337  1
  Te  Te162  1  -0.00237667  0.16243044  -0.00605324  1
  Te  Te163  1  0.00034461  0.17038214  0.33460987  1
  Te  Te164  1  -0.00350613  0.16695206  0.67245529  1
  Te  Te165  1  0.00208050  0.49978864  0.00051637  1
  Te  Te166  1  0.00316995  0.49664114  0.34096555  1
  Te  Te167  1  0.00281193  0.50223919  0.66368371  1
  Te  Te168  1  0.00686892  0.83960983  -0.00043388  1
  Te  Te169  1  0.00104814  0.83446280  0.33539784  1
  Te  Te170  1  0.00430092  0.83131725  0.66588605  1
  Te  Te171  1  0.33758380  0.16525747  -0.00377864  1
  Te  Te172  1  0.33298189  0.17107348  0.33416159  1
  Te  Te173  1  0.33324479  0.17375388  0.67173647  1
  Te  Te174  1  0.34022197  0.49962557  -0.00655388  1
  Te  Te175  1  0.33779805  0.49967992  0.33143094  1
  Te  Te176  1  0.33564698  0.50005110  0.66805119  1
  Te  Te177  1  0.33145360  0.83641990  -0.00358307  1
  Te  Te178  1  0.34222791  0.83097503  0.33430532  1
  Te  Te179  1  0.33181287  0.83469303  0.67206846  1
  Te  Te180  1  0.66156885  0.16641126  0.00034564  1
  Te  Te181  1  0.66690156  0.16470835  0.32353119  1
  Te  Te182  1  0.66613664  0.16337055  0.67198428  1
  Te  Te183  1  0.66262617  0.50309219  0.00678356  1
  Te  Te184  1  0.66076482  0.50260709  0.32898742  1
  Te  Te185  1  0.66400026  0.50595289  0.66468389  1
  Te  Te186  1  0.66788405  0.83010930  -0.00579249  1
  Te  Te187  1  0.66072016  0.83343675  0.33239953  1
  Te  Te188  1  0.66281010  0.83011637  0.66815939  1
  Te  Te189  1  -0.00108026  0.00031681  0.17142547  1
  Te  Te190  1  0.00100249  0.00057391  0.50698937  1
  Te  Te191  1  -0.00528358  0.00468285  0.82764031  1
  Te  Te192  1  0.00163549  0.33331438  0.17224735  1
  Te  Te193  1  -0.00194082  0.33842940  0.49501087  1
  Te  Te194  1  -0.00732234  0.32670161  0.83353692  1
  Te  Te195  1  -0.00056107  0.66565755  0.16688273  1
  Te  Te196  1  0.00093245  0.66060917  0.50686873  1
  Te  Te197  1  0.00354899  0.66595300  0.82713735  1
  Te  Te198  1  0.33401246  0.00192457  0.16143913  1
  Te  Te199  1  0.34171838  0.00079533  0.49962786  1
  Te  Te200  1  0.33720826  -0.00074569  0.83440089  1
  Te  Te201  1  0.33838773  0.32842528  0.16862102  1
  Te  Te202  1  0.33419061  0.33927030  0.50086287  1
  Te  Te203  1  0.33391033  0.33898489  0.82949933  1
  Te  Te204  1  0.33825503  0.66939772  0.16964704  1
  Te  Te205  1  0.33726531  0.66109323  0.49374909  1
  Te  Te206  1  0.33000904  0.66658646  0.83441822  1
  Te  Te207  1  0.66742093  0.00458431  0.16091757  1
  Te  Te208  1  0.66321960  0.00329183  0.50441691  1
  Te  Te209  1  0.66288726  0.00169869  0.83073406  1
  Te  Te210  1  0.66188940  0.33315097  0.16746390  1
  Te  Te211  1  0.66712804  0.32412651  0.50279831  1
  Te  Te212  1  0.66873311  0.33558433  0.82987431  1
  Te  Te213  1  0.66237754  0.66788988  0.16179048  1
  Te  Te214  1  0.66317492  0.66725289  0.50214474  1
  Te  Te215  1  0.66755430  0.66420460  0.83498937  1
