# generated using pymatgen
data_AgSbTe2
_symmetry_space_group_name_H-M   'P 1'
_cell_length_a   18.35076600
_cell_length_b   18.33896698
_cell_length_c   18.34092313
_cell_angle_alpha   89.99925442
_cell_angle_beta   90.00110265
_cell_angle_gamma   89.99983255
_symmetry_Int_Tables_number   1
_chemical_formula_structural   AgSbTe2
_chemical_formula_sum   'Ag54 Sb54 Te108'
_cell_volume   6172.34590532
_cell_formula_units_Z   54
loop_
 _symmetry_equiv_pos_site_id
 _symmetry_equiv_pos_as_xyz
  1  'x, y, z'
loop_
 _atom_site_type_symbol
 _atom_site_label
 _atom_site_symmetry_multiplicity
 _atom_site_fract_x
 _atom_site_fract_y
 _atom_site_fract_z
 _atom_site_occupancy
  Ag  Ag0  1  0.82844900  0.00041763  0.83613026  1
  Ag  Ag1  1  0.16033215  0.16475970  0.33296853  1
  Ag  Ag2  1  0.50002050  0.32616643  0.15633392  1
  Ag  Ag3  1  0.50861139  0.32602385  0.83741808  1
  Ag  Ag4  1  0.51049240  -0.00168521  0.16603515  1
  Ag  Ag5  1  0.84104047  0.16348027  0.32263856  1
  Ag  Ag6  1  0.83986880  0.33371633  0.50177260  1
  Ag  Ag7  1  0.83774003  0.83811640  0.66634105  1
  Ag  Ag8  1  0.16684394  0.67678711  0.49886094  1
  Ag  Ag9  1  -0.00622079  -0.00613393  0.66507378  1
  Ag  Ag10  1  0.83499710  0.68344048  0.16732820  1
  Ag  Ag11  1  -0.00049614  0.83418423  0.49296263  1
  Ag  Ag12  1  -0.00084557  0.67991741  0.66603249  1
  Ag  Ag13  1  0.32145018  0.32719245  0.33134613  1
  Ag  Ag14  1  -0.00525274  0.49287774  0.17023939  1
  Ag  Ag15  1  0.82961215  0.83718372  0.00990192  1
  Ag  Ag16  1  -0.01267271  0.83756749  0.17637663  1
  Ag  Ag17  1  0.84021561  0.83938348  0.32292214  1
  Ag  Ag18  1  0.15930784  0.48732677  0.33484167  1
  Ag  Ag19  1  0.16191049  -0.00161004  0.82896074  1
  Ag  Ag20  1  0.00100749  -0.00287267  0.33296354  1
  Ag  Ag21  1  0.33574112  0.83717334  0.17015630  1
  Ag  Ag22  1  0.67580706  0.84218993  0.16198332  1
  Ag  Ag23  1  -0.00077506  0.49328294  0.83465949  1
  Ag  Ag24  1  0.82977277  -0.00165976  0.16483320  1
  Ag  Ag25  1  0.67441116  0.33060264  -0.00627368  1
  Ag  Ag26  1  0.15693773  0.33574356  0.49508819  1
  Ag  Ag27  1  0.15865866  0.83751169  0.33845709  1
  Ag  Ag28  1  0.66827129  0.16191338  0.83749707  1
  Ag  Ag29  1  0.50570663  -0.00011304  0.83352332  1
  Ag  Ag30  1  0.84213626  0.49128897  0.32269146  1
  Ag  Ag31  1  0.50122998  0.49740977  0.66942263  1
  Ag  Ag32  1  -0.00871432  0.33513953  0.00239335  1
  Ag  Ag33  1  0.67544259  0.32599257  0.67504031  1
  Ag  Ag34  1  0.33727732  0.33223849  -0.00224012  1
  Ag  Ag35  1  0.32619956  -0.00089527  0.33155627  1
  Ag  Ag36  1  0.33788971  0.84081648  0.83445677  1
  Ag  Ag37  1  0.00037189  0.32751890  0.33096254  1
  Ag  Ag38  1  0.66849527  0.84340961  0.83456638  1
  Ag  Ag39  1  0.49583837  0.67950458  0.50224535  1
  Ag  Ag40  1  0.83631784  0.48592557  0.00347235  1
  Ag  Ag41  1  0.50097918  -0.00471591  0.49983218  1
  Ag  Ag42  1  -0.00610870  0.33077045  0.66415000  1
  Ag  Ag43  1  0.33106613  0.48900907  0.83390584  1
  Ag  Ag44  1  0.15641093  0.83504232  0.65697363  1
  Ag  Ag45  1  0.34112770  0.16397874  0.83632766  1
  Ag  Ag46  1  -0.00745762  0.16614169  0.17252562  1
  Ag  Ag47  1  0.67166028  -0.00072003  0.67263860  1
  Ag  Ag48  1  0.82801858  0.32646566  0.83640523  1
  Ag  Ag49  1  0.83210393  0.16904021  0.00405559  1
  Ag  Ag50  1  0.67589793  0.16058296  0.16042700  1
  Ag  Ag51  1  0.51060705  0.83607413  -0.00122167  1
  Ag  Ag52  1  0.67268467  0.83657434  0.50142617  1
  Ag  Ag53  1  0.32898620  0.83536720  0.49769668  1
  Sb  Sb54  1  0.32940314  0.49940613  0.16448195  1
  Sb  Sb55  1  0.16400555  0.83492345  0.00144007  1
  Sb  Sb56  1  0.67415939  0.49665613  0.16525911  1
  Sb  Sb57  1  0.50266250  0.83297916  0.66724025  1
  Sb  Sb58  1  0.33090489  0.67185373  0.33362613  1
  Sb  Sb59  1  -0.00291768  0.66304714  -0.00213028  1
  Sb  Sb60  1  0.16707723  -0.00304522  0.50000927  1
  Sb  Sb61  1  0.00004160  0.50046963  0.49812897  1
  Sb  Sb62  1  0.16400795  0.67241368  0.82659396  1
  Sb  Sb63  1  0.83466591  0.66945418  0.83651117  1
  Sb  Sb64  1  -0.00123931  0.16474882  0.49314688  1
  Sb  Sb65  1  0.33374752  0.16465717  0.16432399  1
  Sb  Sb66  1  0.50517963  0.67333624  0.17145286  1
  Sb  Sb67  1  0.16525223  0.33255983  0.17308560  1
  Sb  Sb68  1  -0.00470475  0.16969729  0.83853532  1
  Sb  Sb69  1  0.83235087  -0.00015245  0.49875785  1
  Sb  Sb70  1  0.33165161  0.16241741  0.50051371  1
  Sb  Sb71  1  0.33429123  -0.00322355  0.66713082  1
  Sb  Sb72  1  0.83572549  0.66861401  0.49626693  1
  Sb  Sb73  1  0.00000044  0.66876884  0.33744539  1
  Sb  Sb74  1  0.33245775  0.33382133  0.66773230  1
  Sb  Sb75  1  0.50424191  0.49770437  -0.00436011  1
  Sb  Sb76  1  0.49743315  0.49579786  0.33582679  1
  Sb  Sb77  1  0.33578066  0.00237700  0.00050243  1
  Sb  Sb78  1  0.83368876  0.16481757  0.66906290  1
  Sb  Sb79  1  0.16461703  0.32884259  0.82827087  1
  Sb  Sb80  1  0.16067728  0.49558625  0.00279526  1
  Sb  Sb81  1  0.67139886  0.67157964  0.66572125  1
  Sb  Sb82  1  0.33047862  0.66942134  0.66573898  1
  Sb  Sb83  1  0.66827931  0.00328645  -0.00481724  1
  Sb  Sb84  1  0.50050753  0.16479945  0.33082683  1
  Sb  Sb85  1  0.15809643  0.66961303  0.17436003  1
  Sb  Sb86  1  0.50008973  0.66866757  0.82853080  1
  Sb  Sb87  1  0.66934182  0.49477832  0.83255908  1
  Sb  Sb88  1  -0.00383145  0.83503581  0.83358714  1
  Sb  Sb89  1  0.83373929  0.49844042  0.66871142  1
  Sb  Sb90  1  0.50642324  0.16477215  -0.00102929  1
  Sb  Sb91  1  -0.00492106  0.00347439  0.00240078  1
  Sb  Sb92  1  0.66822899  0.50286546  0.50129513  1
  Sb  Sb93  1  0.50157431  0.16744336  0.67086006  1
  Sb  Sb94  1  0.83355289  0.32611126  0.16289086  1
  Sb  Sb95  1  0.67460116  0.33036431  0.33131158  1
  Sb  Sb96  1  0.67136859  -0.00095606  0.33332884  1
  Sb  Sb97  1  0.50156478  0.32972512  0.50225365  1
  Sb  Sb98  1  0.33521346  0.66587317  -0.00107894  1
  Sb  Sb99  1  0.66981330  0.16295021  0.50038377  1
  Sb  Sb100  1  0.16331860  0.16192294  0.66333143  1
  Sb  Sb101  1  0.16307827  -0.00157120  0.16772805  1
  Sb  Sb102  1  0.16182021  0.16756684  0.00319324  1
  Sb  Sb103  1  0.33109511  0.50260644  0.50173845  1
  Sb  Sb104  1  0.16607730  0.50300221  0.66351130  1
  Sb  Sb105  1  0.66982286  0.67063731  0.33370580  1
  Sb  Sb106  1  0.50068164  0.83705610  0.33362120  1
  Sb  Sb107  1  0.66902773  0.66749187  -0.00002439  1
  Te  Te108  1  0.16217906  0.16516165  0.17169950  1
  Te  Te109  1  0.16769796  0.17333433  0.49480513  1
  Te  Te110  1  0.16759478  0.15998798  0.83331674  1
  Te  Te111  1  0.16024089  0.50218042  0.17377078  1
  Te  Te112  1  0.16708028  0.49818186  0.49486681  1
  Te  Te113  1  0.16793283  0.50126116  0.83310831  1
  Te  Te114  1  0.17452268  0.83290412  0.17020244  1
  Te  Te115  1  0.16528422  0.83582099  0.49934802  1
  Te  Te116  1  0.16864966  0.83829785  0.83348252  1
  Te  Te117  1  0.50181770  0.16391106  0.16524409  1
  Te  Te118  1  0.50055729  0.15691418  0.49984877  1
  Te  Te119  1  0.50255063  0.16685246  0.83512392  1
  Te  Te120  1  0.50053643  0.50048283  0.16591580  1
  Te  Te121  1  0.49988818  0.49967817  0.50511751  1
  Te  Te122  1  0.49725064  0.50007563  0.83132857  1
  Te  Te123  1  0.49778004  0.83639266  0.16538034  1
  Te  Te124  1  0.49931387  0.83672374  0.50080921  1
  Te  Te125  1  0.49977470  0.83422663  0.83389824  1
  Te  Te126  1  0.83268335  0.16298135  0.16550205  1
  Te  Te127  1  0.83190387  0.17356864  0.49234947  1
  Te  Te128  1  0.83007815  0.16569870  0.83521407  1
  Te  Te129  1  0.83671353  0.49599996  0.16475293  1
  Te  Te130  1  0.83253740  0.49680367  0.49652822  1
  Te  Te131  1  0.83631076  0.49877324  0.83723244  1
  Te  Te132  1  0.83165505  0.83913929  0.16728642  1
  Te  Te133  1  0.83458066  0.83286245  0.50570177  1
  Te  Te134  1  0.83120234  0.83518390  0.82750969  1
  Te  Te135  1  0.16548642  0.00109039  -0.01186734  1
  Te  Te136  1  0.16466835  -0.00102889  0.33367305  1
  Te  Te137  1  0.16222100  -0.00400708  0.66918108  1
  Te  Te138  1  0.16927489  0.33260479  -0.00107782  1
  Te  Te139  1  0.16404504  0.33077672  0.33490137  1
  Te  Te140  1  0.16307877  0.33332416  0.65944127  1
  Te  Te141  1  0.16674110  0.66529690  0.00060812  1
  Te  Te142  1  0.16722951  0.67517752  0.34067295  1
  Te  Te143  1  0.16118375  0.67093704  0.65957887  1
  Te  Te144  1  0.49999621  -0.00519665  0.00140985  1
  Te  Te145  1  0.49515444  0.00089292  0.32936506  1
  Te  Te146  1  0.50457050  0.00044217  0.67114584  1
  Te  Te147  1  0.49769152  0.33383112  -0.00265048  1
  Te  Te148  1  0.49841034  0.33252477  0.33251648  1
  Te  Te149  1  0.50038894  0.33546964  0.67102444  1
  Te  Te150  1  0.50113540  0.67448471  0.00163705  1
  Te  Te151  1  0.49932804  0.66393276  0.34212592  1
  Te  Te152  1  0.50162783  0.66184435  0.66073542  1
  Te  Te153  1  0.83358114  -0.00197150  -0.00105164  1
  Te  Te154  1  0.83760968  -0.00024369  0.33317690  1
  Te  Te155  1  0.83318424  -0.00056660  0.66509312  1
  Te  Te156  1  0.83412591  0.32952613  -0.00191242  1
  Te  Te157  1  0.83702894  0.33293814  0.33397604  1
  Te  Te158  1  0.83308904  0.33303612  0.66860927  1
  Te  Te159  1  0.83333989  0.67524282  0.00486599  1
  Te  Te160  1  0.83357140  0.66803931  0.32920276  1
  Te  Te161  1  0.83868554  0.66812753  0.66552285  1
  Te  Te162  1  -0.00485641  0.17225595  0.00776833  1
  Te  Te163  1  0.00030408  0.16589389  0.33184868  1
  Te  Te164  1  0.00001183  0.17107867  0.66615376  1
  Te  Te165  1  -0.00368720  0.49618491  0.00070859  1
  Te  Te166  1  -0.00029989  0.50162506  0.33267590  1
  Te  Te167  1  0.00003798  0.48897091  0.66935823  1
  Te  Te168  1  -0.00498928  0.83260090  0.00466946  1
  Te  Te169  1  -0.00071547  0.83344998  0.33427350  1
  Te  Te170  1  -0.00006657  0.83705005  0.67258580  1
  Te  Te171  1  0.33079720  0.17269771  -0.00382694  1
  Te  Te172  1  0.33049332  0.16538599  0.33250322  1
  Te  Te173  1  0.33168765  0.16553727  0.67506846  1
  Te  Te174  1  0.33385230  0.49567826  -0.00448870  1
  Te  Te175  1  0.32846105  0.49428892  0.33279489  1
  Te  Te176  1  0.33642803  0.50132488  0.67301666  1
  Te  Te177  1  0.33191893  0.83327835  -0.00286218  1
  Te  Te178  1  0.33424297  0.83719925  0.33563489  1
  Te  Te179  1  0.32964754  0.83341732  0.66662002  1
  Te  Te180  1  0.67056681  0.17170055  -0.00044121  1
  Te  Te181  1  0.67225289  0.16605851  0.32776742  1
  Te  Te182  1  0.66756466  0.16571923  0.67046073  1
  Te  Te183  1  0.67345463  0.49398460  -0.00079037  1
  Te  Te184  1  0.67320322  0.49967853  0.33353254  1
  Te  Te185  1  0.66350326  0.49691319  0.66697784  1
  Te  Te186  1  0.66848986  0.83307908  0.00044416  1
  Te  Te187  1  0.67274694  0.83492937  0.33548803  1
  Te  Te188  1  0.66901819  0.83652502  0.66580542  1
  Te  Te189  1  -0.00214127  -0.00156634  0.16910081  1
  Te  Te190  1  -0.00030940  -0.00448826  0.50082779  1
  Te  Te191  1  -0.00654076  0.00233646  0.83090537  1
  Te  Te192  1  0.00160774  0.33318740  0.16816401  1
  Te  Te193  1  -0.00177937  0.33351323  0.49665148  1
  Te  Te194  1  -0.00080015  0.33380360  0.83567286  1
  Te  Te195  1  -0.00530491  0.66956006  0.16513457  1
  Te  Te196  1  0.00231329  0.67110330  0.50657800  1
  Te  Te197  1  0.00021557  0.65635019  0.82656630  1
  Te  Te198  1  0.33200349  -0.00215509  0.16947059  1
  Te  Te199  1  0.33672889  -0.00372925  0.49738502  1
  Te  Te200  1  0.34306276  0.00078590  0.83364994  1
  Te  Te201  1  0.33793712  0.33324467  0.16728231  1
  Te  Te202  1  0.33421808  0.33213591  0.49517318  1
  Te  Te203  1  0.33185373  0.33114872  0.83255706  1
  Te  Te204  1  0.33452357  0.67267213  0.16617298  1
  Te  Te205  1  0.33199336  0.67232251  0.49997925  1
  Te  Te206  1  0.33229871  0.67237622  0.83349771  1
  Te  Te207  1  0.66744108  0.00001618  0.16874292  1
  Te  Te208  1  0.66345283  -0.00382264  0.50377743  1
  Te  Te209  1  0.66772778  0.00143083  0.83269498  1
  Te  Te210  1  0.65895822  0.33078316  0.16514096  1
  Te  Te211  1  0.66770312  0.33263696  0.50487376  1
  Te  Te212  1  0.66734654  0.33354617  0.83363448  1
  Te  Te213  1  0.67205447  0.67378801  0.16705007  1
  Te  Te214  1  0.66292703  0.67388806  0.50068139  1
  Te  Te215  1  0.66666805  0.67837014  0.83226723  1
