# generated using pymatgen
data_AgSbTe2
_symmetry_space_group_name_H-M   'P 1'
_cell_length_a   18.35434598
_cell_length_b   18.35327814
_cell_length_c   18.34291213
_cell_angle_alpha   89.99796095
_cell_angle_beta   90.00234555
_cell_angle_gamma   90.00120105
_symmetry_Int_Tables_number   1
_chemical_formula_structural   AgSbTe2
_chemical_formula_sum   'Ag54 Sb54 Te108'
_cell_volume   6179.03770318
_cell_formula_units_Z   54
loop_
 _symmetry_equiv_pos_site_id
 _symmetry_equiv_pos_as_xyz
  1  'x, y, z'
loop_
 _atom_site_type_symbol
 _atom_site_label
 _atom_site_symmetry_multiplicity
 _atom_site_fract_x
 _atom_site_fract_y
 _atom_site_fract_z
 _atom_site_occupancy
  Ag  Ag0  1  0.16144473  0.00825740  0.50350784  1
  Ag  Ag1  1  0.66666877  0.00963387  0.66587692  1
  Ag  Ag2  1  0.66464961  0.33181531  0.65362174  1
  Ag  Ag3  1  -0.00720309  0.66434443  -0.00101999  1
  Ag  Ag4  1  0.32946966  0.00439037  0.66090098  1
  Ag  Ag5  1  0.67122215  0.33913157  0.00284668  1
  Ag  Ag6  1  0.83549879  0.82032643  -0.00202966  1
  Ag  Ag7  1  0.82922753  0.49870796  0.33043957  1
  Ag  Ag8  1  0.15505693  0.83265897  -0.00569314  1
  Ag  Ag9  1  -0.00984876  0.33643846  0.33783680  1
  Ag  Ag10  1  0.50092259  -0.00153921  0.82859510  1
  Ag  Ag11  1  -0.00166166  0.84069935  0.50300935  1
  Ag  Ag12  1  0.34590982  0.50039235  0.17133021  1
  Ag  Ag13  1  0.83427095  0.66380415  0.83348053  1
  Ag  Ag14  1  0.34325396  0.32958198  0.66258038  1
  Ag  Ag15  1  0.66939596  0.49646015  0.17207545  1
  Ag  Ag16  1  0.83146119  0.18247256  0.34212632  1
  Ag  Ag17  1  0.51224975  0.49859099  0.00569220  1
  Ag  Ag18  1  0.15818261  0.83507316  0.66636940  1
  Ag  Ag19  1  0.83838637  0.83459240  0.66481528  1
  Ag  Ag20  1  0.67553083  0.66188649  0.66512156  1
  Ag  Ag21  1  0.83805348  0.83010459  0.33979723  1
  Ag  Ag22  1  -0.00174781  0.17168712  0.50045352  1
  Ag  Ag23  1  -0.00209868  0.00315258  0.34368164  1
  Ag  Ag24  1  0.51383564  0.33118949  0.49867813  1
  Ag  Ag25  1  0.33127929  0.66626716  0.66427899  1
  Ag  Ag26  1  0.33278487  0.16967438  0.50366949  1
  Ag  Ag27  1  -0.00863969  0.50337039  0.17369182  1
  Ag  Ag28  1  -0.00415931  0.67068627  0.66536163  1
  Ag  Ag29  1  -0.00602930  0.48978253  0.49656795  1
  Ag  Ag30  1  0.83138817  0.50158284  0.00792168  1
  Ag  Ag31  1  0.16241762  0.32818545  0.50292719  1
  Ag  Ag32  1  0.83001888  0.16906939  0.65920115  1
  Ag  Ag33  1  0.50257643  0.17385076  0.66031307  1
  Ag  Ag34  1  0.33203879  -0.00094395  0.34130260  1
  Ag  Ag35  1  0.66662149  0.00175779  -0.00409334  1
  Ag  Ag36  1  0.82847932  0.33216634  0.50038282  1
  Ag  Ag37  1  0.67199278  0.33680226  0.34253892  1
  Ag  Ag38  1  0.83199596  0.33853614  0.82186975  1
  Ag  Ag39  1  0.00382163  -0.00716587  0.66049898  1
  Ag  Ag40  1  -0.00947454  0.34422881  0.00821251  1
  Ag  Ag41  1  0.16774804  0.16482196  0.65934805  1
  Ag  Ag42  1  0.66888042  0.17542780  0.50197992  1
  Ag  Ag43  1  0.33651680  0.66501795  0.33998184  1
  Ag  Ag44  1  0.67089237  0.48829633  0.49740613  1
  Ag  Ag45  1  0.33493999  0.83330228  0.82764818  1
  Ag  Ag46  1  0.50597469  0.17560106  0.34477755  1
  Ag  Ag47  1  0.50111616  0.49314148  0.65822995  1
  Ag  Ag48  1  0.50865986  0.49162293  0.33185216  1
  Ag  Ag49  1  -0.00391645  0.82526315  0.17140731  1
  Ag  Ag50  1  0.16883355  0.49790255  0.66243678  1
  Ag  Ag51  1  0.50543133  0.82806516  -0.00138939  1
  Ag  Ag52  1  0.83596419  0.66203465  0.16311693  1
  Ag  Ag53  1  0.50250569  0.33874920  0.18173351  1
  Sb  Sb54  1  0.50363674  0.83331003  0.32925300  1
  Sb  Sb55  1  0.16073512  0.83388955  0.33855539  1
  Sb  Sb56  1  0.50151755  0.83503469  0.66807962  1
  Sb  Sb57  1  0.82767146  0.34115008  0.17239604  1
  Sb  Sb58  1  0.83128458  0.49910544  0.66177175  1
  Sb  Sb59  1  0.33730732  -0.00313128  -0.00363087  1
  Sb  Sb60  1  0.32870633  0.82842885  0.16522432  1
  Sb  Sb61  1  0.33546860  0.16309082  0.82213057  1
  Sb  Sb62  1  0.50549631  0.65876574  0.16575541  1
  Sb  Sb63  1  0.33637158  0.50331389  0.83003201  1
  Sb  Sb64  1  -0.00047349  0.66483942  0.33560279  1
  Sb  Sb65  1  0.67513871  0.83620066  0.50205531  1
  Sb  Sb66  1  0.66633928  0.65767837  0.33845224  1
  Sb  Sb67  1  -0.00435619  0.33448184  0.65806795  1
  Sb  Sb68  1  0.16124034  0.50317132  -0.00374877  1
  Sb  Sb69  1  0.50285894  0.17021450  -0.00212195  1
  Sb  Sb70  1  0.66728372  0.16821025  0.82214134  1
  Sb  Sb71  1  0.50655786  0.33159835  0.82653193  1
  Sb  Sb72  1  0.16455443  -0.00167121  0.17283039  1
  Sb  Sb73  1  0.16499245  0.66503978  0.50399824  1
  Sb  Sb74  1  0.33781109  0.33374919  0.34291019  1
  Sb  Sb75  1  0.49441238  0.01095360  0.50655090  1
  Sb  Sb76  1  0.67001659  0.00751927  0.33862943  1
  Sb  Sb77  1  0.66772426  0.17530343  0.17284977  1
  Sb  Sb78  1  -0.00489503  0.50020367  0.82936711  1
  Sb  Sb79  1  0.83526287  0.66136981  0.50114658  1
  Sb  Sb80  1  0.67357311  0.66265655  -0.00432327  1
  Sb  Sb81  1  0.33575169  0.17251121  0.17891130  1
  Sb  Sb82  1  0.66609751  0.83398616  0.83293899  1
  Sb  Sb83  1  0.33040355  0.66711799  -0.00175281  1
  Sb  Sb84  1  0.16541800  0.49901123  0.33916386  1
  Sb  Sb85  1  0.16890259  0.33636065  0.17294824  1
  Sb  Sb86  1  -0.00361906  0.16900215  0.82119341  1
  Sb  Sb87  1  0.16358106  0.16208070  -0.00959258  1
  Sb  Sb88  1  0.83143965  0.17270083  0.00064989  1
  Sb  Sb89  1  0.66865565  0.49789768  0.82867015  1
  Sb  Sb90  1  0.67365726  0.82594302  0.16434381  1
  Sb  Sb91  1  -0.00266984  0.17131231  0.17644097  1
  Sb  Sb92  1  0.82981207  -0.00135725  0.82839107  1
  Sb  Sb93  1  0.15953517  0.33403115  0.82429882  1
  Sb  Sb94  1  0.17157741  -0.00418646  0.82227343  1
  Sb  Sb95  1  0.16464334  0.16702594  0.34254571  1
  Sb  Sb96  1  0.84147584  0.01106719  0.50243120  1
  Sb  Sb97  1  0.49992037  0.65839723  0.50208065  1
  Sb  Sb98  1  0.50081991  0.00478897  0.16455897  1
  Sb  Sb99  1  0.83340000  -0.00720668  0.16741437  1
  Sb  Sb100  1  0.16127174  0.66860580  0.82948663  1
  Sb  Sb101  1  -0.00002445  0.83284072  0.82882538  1
  Sb  Sb102  1  -0.00602371  -0.00563517  0.00004986  1
  Sb  Sb103  1  0.50489217  0.66907335  0.83117259  1
  Sb  Sb104  1  0.32774399  0.83911396  0.50640456  1
  Sb  Sb105  1  0.33469611  0.49424856  0.49958037  1
  Sb  Sb106  1  0.16058516  0.66573160  0.16646649  1
  Sb  Sb107  1  0.33676003  0.33579882  -0.00463571  1
  Te  Te108  1  0.16698020  0.16688104  0.16195933  1
  Te  Te109  1  0.16506697  0.16665462  0.50324632  1
  Te  Te110  1  0.16670004  0.16573501  0.82170227  1
  Te  Te111  1  0.16148415  0.50004354  0.16596411  1
  Te  Te112  1  0.16306192  0.49698701  0.50468041  1
  Te  Te113  1  0.16772786  0.50074098  0.82318671  1
  Te  Te114  1  0.15984771  0.83274002  0.16110531  1
  Te  Te115  1  0.16070051  0.83555901  0.50544397  1
  Te  Te116  1  0.17303862  0.83299992  0.83261107  1
  Te  Te117  1  0.49968330  0.17512079  0.17035678  1
  Te  Te118  1  0.50015701  0.17063349  0.50198157  1
  Te  Te119  1  0.50045837  0.16022733  0.82789507  1
  Te  Te120  1  0.50392833  0.49760179  0.16712120  1
  Te  Te121  1  0.50055233  0.49350489  0.49928397  1
  Te  Te122  1  0.50077795  0.50004995  0.83976452  1
  Te  Te123  1  0.49982724  0.83365653  0.15945163  1
  Te  Te124  1  0.50159972  0.83248016  0.49686031  1
  Te  Te125  1  0.49708969  0.83592848  0.83834938  1
  Te  Te126  1  0.83317034  0.16263446  0.17646646  1
  Te  Te127  1  0.83346187  0.17041899  0.49972531  1
  Te  Te128  1  0.83286405  0.17472933  0.82903059  1
  Te  Te129  1  0.83329748  0.50190263  0.16877517  1
  Te  Te130  1  0.83314490  0.49560953  0.49640940  1
  Te  Te131  1  0.83308807  0.49916813  0.84212321  1
  Te  Te132  1  0.83734230  0.82702195  0.16071248  1
  Te  Te133  1  0.83928194  0.82996621  0.50287578  1
  Te  Te134  1  0.83295356  0.83017937  0.83274535  1
  Te  Te135  1  0.16625190  -0.00610988  -0.00106203  1
  Te  Te136  1  0.16588184  -0.00000560  0.33968618  1
  Te  Te137  1  0.16690592  -0.00216564  0.66283936  1
  Te  Te138  1  0.16374601  0.33213145  -0.00191297  1
  Te  Te139  1  0.16069631  0.33231104  0.34009234  1
  Te  Te140  1  0.16285556  0.33361023  0.66299965  1
  Te  Te141  1  0.15900048  0.67289516  -0.00167796  1
  Te  Te142  1  0.17803724  0.66724540  0.33368443  1
  Te  Te143  1  0.16767921  0.66988400  0.66714091  1
  Te  Te144  1  0.50471716  0.00065348  -0.00321297  1
  Te  Te145  1  0.49898708  0.00239564  0.33269959  1
  Te  Te146  1  0.50190967  -0.00002040  0.66897257  1
  Te  Te147  1  0.50224066  0.33780378  -0.00529405  1
  Te  Te148  1  0.49821470  0.33451148  0.33848894  1
  Te  Te149  1  0.50262905  0.33342435  0.66550705  1
  Te  Te150  1  0.50051434  0.66515719  -0.00098405  1
  Te  Te151  1  0.49554612  0.66386855  0.33318630  1
  Te  Te152  1  0.49595520  0.66241294  0.66766871  1
  Te  Te153  1  0.82718120  0.00193443  -0.00291311  1
  Te  Te154  1  0.83691483  -0.01155163  0.33344158  1
  Te  Te155  1  0.83004567  -0.00224595  0.66757328  1
  Te  Te156  1  0.83289616  0.33437486  0.00583373  1
  Te  Te157  1  0.83227792  0.33782867  0.33469610  1
  Te  Te158  1  0.82996248  0.33360427  0.66497861  1
  Te  Te159  1  0.83501266  0.66394035  -0.00116416  1
  Te  Te160  1  0.83319990  0.66656783  0.33018881  1
  Te  Te161  1  0.83492335  0.66506810  0.66742060  1
  Te  Te162  1  -0.00015996  0.16597782  0.00148889  1
  Te  Te163  1  -0.00317628  0.16434755  0.33909163  1
  Te  Te164  1  -0.00375569  0.16634709  0.66041154  1
  Te  Te165  1  -0.00099706  0.50280665  -0.00014516  1
  Te  Te166  1  -0.00076376  0.49933558  0.33489314  1
  Te  Te167  1  0.00069466  0.50327899  0.66221599  1
  Te  Te168  1  -0.00426899  0.83216716  -0.00044998  1
  Te  Te169  1  -0.00220414  0.83206498  0.33366880  1
  Te  Te170  1  -0.00076444  0.83296319  0.66697418  1
  Te  Te171  1  0.33241779  0.16579696  0.00078718  1
  Te  Te172  1  0.33611695  0.16351949  0.34071620  1
  Te  Te173  1  0.33490029  0.16540034  0.66267773  1
  Te  Te174  1  0.33071865  0.50089088  0.00445236  1
  Te  Te175  1  0.33388417  0.50124521  0.33175971  1
  Te  Te176  1  0.33651265  0.50203700  0.66607877  1
  Te  Te177  1  0.33681841  0.83283873  -0.00290752  1
  Te  Te178  1  0.33381332  0.83497347  0.33309703  1
  Te  Te179  1  0.33475534  0.83321551  0.66828171  1
  Te  Te180  1  0.66633109  0.16386376  0.00262426  1
  Te  Te181  1  0.66787421  0.17149326  0.33870301  1
  Te  Te182  1  0.66820940  0.16938960  0.66199799  1
  Te  Te183  1  0.66948422  0.50031118  -0.00044058  1
  Te  Te184  1  0.66699847  0.49765024  0.33519479  1
  Te  Te185  1  0.66474239  0.49624527  0.66323866  1
  Te  Te186  1  0.66844622  0.83440485  -0.00028724  1
  Te  Te187  1  0.67365296  0.83339806  0.33302547  1
  Te  Te188  1  0.67082817  0.83104356  0.66600702  1
  Te  Te189  1  0.00044220  -0.00367011  0.17102407  1
  Te  Te190  1  0.00092382  -0.00090304  0.50145603  1
  Te  Te191  1  -0.00032539  0.00146206  0.82679848  1
  Te  Te192  1  0.00294070  0.33783842  0.16859477  1
  Te  Te193  1  -0.00218583  0.33227874  0.49791747  1
  Te  Te194  1  -0.00707579  0.33377270  0.84511242  1
  Te  Te195  1  -0.00388427  0.66507746  0.16776228  1
  Te  Te196  1  0.00097795  0.66740122  0.50415271  1
  Te  Te197  1  -0.00628899  0.66664731  0.83217513  1
  Te  Te198  1  0.33272257  0.00007526  0.17312532  1
  Te  Te199  1  0.32938284  0.00373851  0.50131292  1
  Te  Te200  1  0.33837851  -0.00430663  0.82859736  1
  Te  Te201  1  0.33803857  0.33971537  0.16584598  1
  Te  Te202  1  0.32456461  0.32957821  0.50562986  1
  Te  Te203  1  0.33175300  0.33321305  0.82429051  1
  Te  Te204  1  0.33340345  0.66141274  0.16704042  1
  Te  Te205  1  0.33247395  0.66766503  0.50278578  1
  Te  Te206  1  0.33342598  0.67120151  0.82882144  1
  Te  Te207  1  0.66538692  -0.00133674  0.16360780  1
  Te  Te208  1  0.66498860  0.00334621  0.50538409  1
  Te  Te209  1  0.66284331  0.00055834  0.83180772  1
  Te  Te210  1  0.66100430  0.33834534  0.16159538  1
  Te  Te211  1  0.66878046  0.33345833  0.49799153  1
  Te  Te212  1  0.67318207  0.33260133  0.84430547  1
  Te  Te213  1  0.67307415  0.65864590  0.16737808  1
  Te  Te214  1  0.66706693  0.66405716  0.50628251  1
  Te  Te215  1  0.67369686  0.66673225  0.82430860  1
