# generated using pymatgen
data_AgSbTe2
_symmetry_space_group_name_H-M   'P 1'
_cell_length_a   18.36944938
_cell_length_b   18.37359698
_cell_length_c   18.36717314
_cell_angle_alpha   90.00444436
_cell_angle_beta   89.99921866
_cell_angle_gamma   89.99745978
_symmetry_Int_Tables_number   1
_chemical_formula_structural   AgSbTe2
_chemical_formula_sum   'Ag54 Sb54 Te108'
_cell_volume   6199.15710327
_cell_formula_units_Z   54
loop_
 _symmetry_equiv_pos_site_id
 _symmetry_equiv_pos_as_xyz
  1  'x, y, z'
loop_
 _atom_site_type_symbol
 _atom_site_label
 _atom_site_symmetry_multiplicity
 _atom_site_fract_x
 _atom_site_fract_y
 _atom_site_fract_z
 _atom_site_occupancy
  Ag  Ag0  1  0.67084464  0.83333648  0.17582185  1
  Ag  Ag1  1  -0.00152313  0.16980093  0.17623817  1
  Ag  Ag2  1  0.67065137  0.50604348  0.82384836  1
  Ag  Ag3  1  0.34647266  0.33577058  0.65503877  1
  Ag  Ag4  1  0.51136769  0.33076733  0.49584866  1
  Ag  Ag5  1  0.66770336  0.33086256  0.33936391  1
  Ag  Ag6  1  0.83144234  0.01165113  0.49899133  1
  Ag  Ag7  1  0.66779344  0.33324647  0.65858620  1
  Ag  Ag8  1  0.82917166  0.00342235  0.82170521  1
  Ag  Ag9  1  0.51162614  0.85433965  0.33321133  1
  Ag  Ag10  1  0.34841032  0.65816740  0.66594915  1
  Ag  Ag11  1  0.50979559  0.16749839  0.33728122  1
  Ag  Ag12  1  -0.00919028  0.84066873  0.17147340  1
  Ag  Ag13  1  0.82835127  0.84794983  0.33026881  1
  Ag  Ag14  1  0.51102746  0.17324265  0.65516579  1
  Ag  Ag15  1  0.83482977  0.32800026  0.82296170  1
  Ag  Ag16  1  0.51169885  0.00429131  0.18126344  1
  Ag  Ag17  1  0.83048800  0.16894663  0.65575992  1
  Ag  Ag18  1  -0.00500703  0.33414586  0.33379030  1
  Ag  Ag19  1  0.50434894  0.65384000  0.49854530  1
  Ag  Ag20  1  0.82958120  0.48874426  0.66027480  1
  Ag  Ag21  1  0.66646720  -0.00033469  0.33810517  1
  Ag  Ag22  1  0.67242514  0.16627677  0.49807553  1
  Ag  Ag23  1  0.15672156  0.33452223  0.83614147  1
  Ag  Ag24  1  0.51051797  0.48078925  0.33956798  1
  Ag  Ag25  1  0.15538080  0.33323708  0.16943559  1
  Ag  Ag26  1  0.35012210  0.00598778  0.33398111  1
  Ag  Ag27  1  0.67035972  0.82952618  0.83343362  1
  Ag  Ag28  1  0.50143346  0.32675481  0.18015933  1
  Ag  Ag29  1  -0.00097682  0.49026507  0.17213256  1
  Ag  Ag30  1  0.66868850  0.66703195  -0.00574456  1
  Ag  Ag31  1  0.83031338  0.16799322  0.34172275  1
  Ag  Ag32  1  0.82954413  0.32543107  0.49958498  1
  Ag  Ag33  1  0.82888348  0.49093369  0.33848189  1
  Ag  Ag34  1  -0.01717020  0.00342926  0.66082817  1
  Ag  Ag35  1  0.15649823  0.66273223  0.17036020  1
  Ag  Ag36  1  0.83384950  0.67288106  0.17424312  1
  Ag  Ag37  1  0.66608686  0.65588818  0.66170244  1
  Ag  Ag38  1  0.51224070  0.49009149  0.65722767  1
  Ag  Ag39  1  -0.00520243  0.16956683  0.82449025  1
  Ag  Ag40  1  0.15435334  -0.00047922  0.17255959  1
  Ag  Ag41  1  0.16155939  0.00164891  0.49105917  1
  Ag  Ag42  1  -0.00603456  0.48931361  0.49291843  1
  Ag  Ag43  1  -0.00170752  0.33375749  0.01585469  1
  Ag  Ag44  1  0.51478087  0.00138024  0.81990890  1
  Ag  Ag45  1  0.16261289  0.49600670  0.00446994  1
  Ag  Ag46  1  0.35110840  0.33010616  0.33634881  1
  Ag  Ag47  1  0.51306136  0.01113651  0.49602172  1
  Ag  Ag48  1  0.66564090  0.67299107  0.33772817  1
  Ag  Ag49  1  0.66652979  0.00624556  0.65515091  1
  Ag  Ag50  1  0.82757663  0.66264030  0.83294425  1
  Ag  Ag51  1  0.15935067  0.84351346  0.33034679  1
  Ag  Ag52  1  0.83223470  -0.00441119  0.17991814  1
  Ag  Ag53  1  -0.01218671  0.16915636  0.49692365  1
  Sb  Sb54  1  -0.00822204  0.32846971  0.66073206  1
  Sb  Sb55  1  0.67308781  0.16419984  0.82349870  1
  Sb  Sb56  1  -0.00904806  0.83934022  0.83685775  1
  Sb  Sb57  1  0.33858645  0.16693013  0.49729000  1
  Sb  Sb58  1  0.50090785  0.16711998  0.00368892  1
  Sb  Sb59  1  -0.00244930  0.00633118  0.00336596  1
  Sb  Sb60  1  0.16254621  0.16435307  0.33416656  1
  Sb  Sb61  1  0.50514017  0.33041936  0.82680173  1
  Sb  Sb62  1  0.34332526  0.83438175  0.82775493  1
  Sb  Sb63  1  0.33727044  0.83609011  0.49716855  1
  Sb  Sb64  1  0.16264939  0.32826722  0.49854586  1
  Sb  Sb65  1  -0.00833280  0.66912968  0.66625715  1
  Sb  Sb66  1  0.33912573  0.49802810  0.82912234  1
  Sb  Sb67  1  0.16361652  0.49899693  0.33101288  1
  Sb  Sb68  1  0.32724378  0.33420089  0.00524072  1
  Sb  Sb69  1  0.33431939  -0.00065004  0.00955695  1
  Sb  Sb70  1  0.83363571  0.33179258  0.17490929  1
  Sb  Sb71  1  0.16601239  0.83486407  0.66259250  1
  Sb  Sb72  1  0.50490116  0.83365637  0.00652553  1
  Sb  Sb73  1  -0.00808577  0.49248954  0.83404184  1
  Sb  Sb74  1  0.33429071  0.49776071  0.49905212  1
  Sb  Sb75  1  0.16128508  0.16790413  0.66460312  1
  Sb  Sb76  1  0.82585870  0.66451174  0.49715305  1
  Sb  Sb77  1  0.16238542  0.17190476  0.00165278  1
  Sb  Sb78  1  0.67070859  0.49248663  0.50215534  1
  Sb  Sb79  1  0.50685440  0.83426469  0.65843637  1
  Sb  Sb80  1  0.16058690  0.66028914  0.83706659  1
  Sb  Sb81  1  -0.00976772  0.66255085  0.33129680  1
  Sb  Sb82  1  0.83118796  0.83215303  0.00833063  1
  Sb  Sb83  1  0.83603366  0.49953040  0.00157285  1
  Sb  Sb84  1  -0.00179549  0.83788185  0.49273295  1
  Sb  Sb85  1  0.33663663  0.66484412  -0.00248789  1
  Sb  Sb86  1  0.33543775  0.83444912  0.17184741  1
  Sb  Sb87  1  0.83488363  0.16814598  0.00022844  1
  Sb  Sb88  1  -0.00819263  0.00568634  0.33657537  1
  Sb  Sb89  1  0.67118652  0.50325703  0.17162337  1
  Sb  Sb90  1  0.67313218  0.33946516  0.00057854  1
  Sb  Sb91  1  0.33035894  0.49774914  0.17046806  1
  Sb  Sb92  1  0.34385933  0.00469510  0.65868590  1
  Sb  Sb93  1  0.66670230  0.83840004  0.49540146  1
  Sb  Sb94  1  0.50074075  0.49897690  0.00305555  1
  Sb  Sb95  1  0.33067288  0.16680443  0.17159929  1
  Sb  Sb96  1  0.16287557  0.49567160  0.66872571  1
  Sb  Sb97  1  0.16971702  0.66978180  0.49307267  1
  Sb  Sb98  1  0.33175014  0.16871298  0.82685574  1
  Sb  Sb99  1  0.16368319  0.82827367  0.00916593  1
  Sb  Sb100  1  0.34117319  0.66575402  0.33631079  1
  Sb  Sb101  1  -0.00652817  0.66074781  0.00553430  1
  Sb  Sb102  1  0.50741814  0.66750653  0.17598261  1
  Sb  Sb103  1  0.67216455  0.16232853  0.17547267  1
  Sb  Sb104  1  0.82874269  0.83832444  0.66180027  1
  Sb  Sb105  1  0.16100371  0.00413599  0.83342735  1
  Sb  Sb106  1  0.66837233  -0.00268166  0.00273450  1
  Sb  Sb107  1  0.51029847  0.66951353  0.82526053  1
  Te  Te108  1  0.16233168  0.16703907  0.16724331  1
  Te  Te109  1  0.15700544  0.16027421  0.50125524  1
  Te  Te110  1  0.16129747  0.17266134  0.83353655  1
  Te  Te111  1  0.16319777  0.49682488  0.16632668  1
  Te  Te112  1  0.15737115  0.50131091  0.50046804  1
  Te  Te113  1  0.16501370  0.49483018  0.83714893  1
  Te  Te114  1  0.16839707  0.83729851  0.17125681  1
  Te  Te115  1  0.16648963  0.83827174  0.49387349  1
  Te  Te116  1  0.16544568  0.83201441  0.83479613  1
  Te  Te117  1  0.50002708  0.16546212  0.17010914  1
  Te  Te118  1  0.50084382  0.16954885  0.49862770  1
  Te  Te119  1  0.49900915  0.16100168  0.83600073  1
  Te  Te120  1  0.50007226  0.49725748  0.17142412  1
  Te  Te121  1  0.49783558  0.49507795  0.50024888  1
  Te  Te122  1  0.50771614  0.50021567  0.83208226  1
  Te  Te123  1  0.50448328  0.83670585  0.17381781  1
  Te  Te124  1  0.49911062  0.84045664  0.49136421  1
  Te  Te125  1  0.50689892  0.83996050  0.83523577  1
  Te  Te126  1  0.83798818  0.16164883  0.16644131  1
  Te  Te127  1  0.83194759  0.16740630  0.50111037  1
  Te  Te128  1  0.83579490  0.16608766  0.83482203  1
  Te  Te129  1  0.83846858  0.50038050  0.17069305  1
  Te  Te130  1  0.83572364  0.50105910  0.50043038  1
  Te  Te131  1  0.82989721  0.50203551  0.83301753  1
  Te  Te132  1  0.83119912  0.83373123  0.17075388  1
  Te  Te133  1  0.83492311  0.83395081  0.49109881  1
  Te  Te134  1  0.83050595  0.83690424  0.83216772  1
  Te  Te135  1  0.16668424  -0.00201104  0.00716310  1
  Te  Te136  1  0.15704583  0.00035073  0.33069936  1
  Te  Te137  1  0.17336685  -0.00054318  0.66585271  1
  Te  Te138  1  0.16192782  0.33634874  0.00367073  1
  Te  Te139  1  0.15816445  0.33333002  0.32917435  1
  Te  Te140  1  0.17445522  0.33363637  0.66814100  1
  Te  Te141  1  0.16640183  0.66071473  0.00522748  1
  Te  Te142  1  0.17176415  0.66743904  0.32824152  1
  Te  Te143  1  0.16397540  0.66545260  0.66646578  1
  Te  Te144  1  0.49880536  -0.00052523  -0.00016589  1
  Te  Te145  1  0.50472858  0.00770262  0.33559805  1
  Te  Te146  1  0.50408799  0.00153015  0.66256139  1
  Te  Te147  1  0.49891013  0.33463161  0.00255779  1
  Te  Te148  1  0.50515634  0.32751546  0.33603366  1
  Te  Te149  1  0.50356171  0.33278570  0.66636082  1
  Te  Te150  1  0.50518604  0.66547997  0.00090694  1
  Te  Te151  1  0.50396898  0.66375560  0.33865611  1
  Te  Te152  1  0.50440910  0.66798212  0.66091864  1
  Te  Te153  1  0.83390121  -0.00053198  -0.00820852  1
  Te  Te154  1  0.83109942  0.00468653  0.33583357  1
  Te  Te155  1  0.82662726  0.00073493  0.66355806  1
  Te  Te156  1  0.83878439  0.33462988  -0.00942642  1
  Te  Te157  1  0.83118692  0.33065433  0.33520105  1
  Te  Te158  1  0.83155796  0.33010068  0.66300812  1
  Te  Te159  1  0.82719745  0.66620052  -0.00160292  1
  Te  Te160  1  0.82622733  0.66101481  0.33174617  1
  Te  Te161  1  0.82763979  0.66879517  0.66880752  1
  Te  Te162  1  0.00061717  0.17422701  0.00062463  1
  Te  Te163  1  -0.00257625  0.17160536  0.33522335  1
  Te  Te164  1  -0.00355595  0.16270461  0.66471644  1
  Te  Te165  1  0.00325736  0.49438555  0.00300720  1
  Te  Te166  1  -0.00259254  0.49757383  0.33255527  1
  Te  Te167  1  -0.00761964  0.50271695  0.66380866  1
  Te  Te168  1  -0.00050371  0.83275198  0.00994472  1
  Te  Te169  1  0.00214996  0.82815121  0.32760247  1
  Te  Te170  1  0.00077598  0.84316016  0.66815570  1
  Te  Te171  1  0.33210383  0.16577198  -0.00181254  1
  Te  Te172  1  0.33465365  0.16766191  0.33362128  1
  Te  Te173  1  0.33920329  0.17341024  0.66491983  1
  Te  Te174  1  0.32621622  0.50089283  -0.00199583  1
  Te  Te175  1  0.33960337  0.49396954  0.33391257  1
  Te  Te176  1  0.33510173  0.49751166  0.66611451  1
  Te  Te177  1  0.33279439  0.83151736  -0.00291175  1
  Te  Te178  1  0.33289588  0.83509902  0.33328407  1
  Te  Te179  1  0.33393085  0.82620786  0.66539505  1
  Te  Te180  1  0.66581119  0.16946529  0.00089216  1
  Te  Te181  1  0.66983353  0.16632313  0.33443766  1
  Te  Te182  1  0.66888579  0.16629879  0.66430787  1
  Te  Te183  1  0.66649959  0.50607187  -0.00325715  1
  Te  Te184  1  0.66775156  0.49569694  0.33433154  1
  Te  Te185  1  0.66850119  0.49701419  0.66462055  1
  Te  Te186  1  0.66683178  0.82620170  -0.00203447  1
  Te  Te187  1  0.66849725  0.83697617  0.33315727  1
  Te  Te188  1  0.66632251  0.83533898  0.67447564  1
  Te  Te189  1  -0.00483051  0.00122144  0.16565398  1
  Te  Te190  1  -0.00219564  0.00049588  0.50325664  1
  Te  Te191  1  -0.00253899  0.00643425  0.83212943  1
  Te  Te192  1  -0.00380634  0.33148303  0.17137869  1
  Te  Te193  1  -0.00149648  0.33149000  0.49591047  1
  Te  Te194  1  -0.00140955  0.33028755  0.82483210  1
  Te  Te195  1  -0.00245435  0.66685882  0.16649221  1
  Te  Te196  1  0.00134492  0.66630266  0.50006184  1
  Te  Te197  1  -0.00850914  0.66937529  0.83602971  1
  Te  Te198  1  0.33642828  0.00077062  0.17462294  1
  Te  Te199  1  0.32376193  0.00091003  0.49304878  1
  Te  Te200  1  0.33182902  -0.00015410  0.83395985  1
  Te  Te201  1  0.33768048  0.33282416  0.17268546  1
  Te  Te202  1  0.32990453  0.33279622  0.49680576  1
  Te  Te203  1  0.33098256  0.33441055  0.83539899  1
  Te  Te204  1  0.32885195  0.66592009  0.16463134  1
  Te  Te205  1  0.33709749  0.66607060  0.50617978  1
  Te  Te206  1  0.33068546  0.66643216  0.82738583  1
  Te  Te207  1  0.67000190  -0.00360391  0.16736005  1
  Te  Te208  1  0.66889932  0.00156664  0.49867202  1
  Te  Te209  1  0.66998354  -0.00011036  0.83811987  1
  Te  Te210  1  0.66193515  0.33389688  0.16801459  1
  Te  Te211  1  0.66828041  0.33093091  0.49929021  1
  Te  Te212  1  0.67205267  0.33515121  0.83334920  1
  Te  Te213  1  0.67081657  0.66981704  0.17500417  1
  Te  Te214  1  0.66159120  0.67047161  0.50020875  1
  Te  Te215  1  0.66901182  0.66703063  0.82751811  1
