# generated using pymatgen
data_AgSbTe2
_symmetry_space_group_name_H-M   'P 1'
_cell_length_a   18.34852828
_cell_length_b   18.35202896
_cell_length_c   18.34423177
_cell_angle_alpha   90.00303950
_cell_angle_beta   90.00076569
_cell_angle_gamma   89.99857428
_symmetry_Int_Tables_number   1
_chemical_formula_structural   AgSbTe2
_chemical_formula_sum   'Ag54 Sb54 Te108'
_cell_volume   6177.10309129
_cell_formula_units_Z   54
loop_
 _symmetry_equiv_pos_site_id
 _symmetry_equiv_pos_as_xyz
  1  'x, y, z'
loop_
 _atom_site_type_symbol
 _atom_site_label
 _atom_site_symmetry_multiplicity
 _atom_site_fract_x
 _atom_site_fract_y
 _atom_site_fract_z
 _atom_site_occupancy
  Ag  Ag0  1  0.34007141  0.16544998  0.17210802  1
  Ag  Ag1  1  0.83392562  0.51067492  0.01143178  1
  Ag  Ag2  1  -0.00982849  0.33743976  0.33266527  1
  Ag  Ag3  1  -0.00815632  0.50675805  0.48912774  1
  Ag  Ag4  1  0.67032532  0.83997661  0.16947072  1
  Ag  Ag5  1  0.15452381  -0.00314733  0.49667046  1
  Ag  Ag6  1  0.67174142  0.49541898  0.49390622  1
  Ag  Ag7  1  -0.00788831  -0.00336084  0.33446321  1
  Ag  Ag8  1  0.66278638  0.49790308  0.82520426  1
  Ag  Ag9  1  0.82278900  0.15619153  0.33576519  1
  Ag  Ag10  1  -0.01057704  -0.00174487  0.65265303  1
  Ag  Ag11  1  0.83386925  0.84122568  0.33330485  1
  Ag  Ag12  1  0.83480050  -0.00385850  0.49206176  1
  Ag  Ag13  1  0.50267230  0.16663688  0.65889407  1
  Ag  Ag14  1  0.67689760  0.00958023  0.33046716  1
  Ag  Ag15  1  0.66987169  -0.00425066  0.00997482  1
  Ag  Ag16  1  0.34177966  -0.00061147  0.01069364  1
  Ag  Ag17  1  -0.00840828  0.66939166  0.00878896  1
  Ag  Ag18  1  0.67285893  0.67651701  0.00108996  1
  Ag  Ag19  1  0.33281957  0.66365554  0.65552234  1
  Ag  Ag20  1  0.83152265  0.83349401  0.00567999  1
  Ag  Ag21  1  0.83614115  0.84106953  0.65172684  1
  Ag  Ag22  1  -0.00548028  0.34110406  0.01101033  1
  Ag  Ag23  1  0.50156109  0.33125544  0.49798763  1
  Ag  Ag24  1  0.49961350  0.00518542  0.83345668  1
  Ag  Ag25  1  0.51388113  0.83731591  0.00947808  1
  Ag  Ag26  1  0.00024874  0.83530320  0.49558721  1
  Ag  Ag27  1  0.83468117  0.49916082  0.33176309  1
  Ag  Ag28  1  0.32406551  0.83428400  0.49543964  1
  Ag  Ag29  1  0.33074872  0.49563836  0.17117409  1
  Ag  Ag30  1  0.82051743  0.15590509  0.65595042  1
  Ag  Ag31  1  0.66646641  0.16712585  0.49146350  1
  Ag  Ag32  1  0.16102836  0.83865632  0.33712707  1
  Ag  Ag33  1  0.50971839  0.49685967  0.33490314  1
  Ag  Ag34  1  0.83307646  0.32915733  0.17298872  1
  Ag  Ag35  1  -0.01118440  -0.00309321  0.00483484  1
  Ag  Ag36  1  0.83428130  0.67890890  0.49591083  1
  Ag  Ag37  1  0.33362704  -0.00244637  0.33154987  1
  Ag  Ag38  1  -0.00218598  0.66937736  0.33233158  1
  Ag  Ag39  1  0.50298291  0.84329614  0.33201121  1
  Ag  Ag40  1  0.16238440  0.83440735  0.65711712  1
  Ag  Ag41  1  0.33668216  0.33545944  0.66693845  1
  Ag  Ag42  1  0.49833591  0.32701481  0.82682120  1
  Ag  Ag43  1  0.67522534  0.00222244  0.65678516  1
  Ag  Ag44  1  0.83151705  0.00219438  0.17686199  1
  Ag  Ag45  1  0.33705463  0.16792899  0.83331459  1
  Ag  Ag46  1  0.66501014  0.15927841  0.17532828  1
  Ag  Ag47  1  0.33958212  0.49574056  0.83219509  1
  Ag  Ag48  1  0.33082573  0.67820501  0.33640671  1
  Ag  Ag49  1  0.50680278  0.16261224  0.33755508  1
  Ag  Ag50  1  0.16337316  0.15837559  0.33373790  1
  Ag  Ag51  1  0.16902221  0.50637070  0.66462161  1
  Ag  Ag52  1  -0.00500222  0.49709731  0.17206341  1
  Ag  Ag53  1  0.67295740  0.32307133  0.33415844  1
  Sb  Sb54  1  0.33431568  0.67038182  0.00399120  1
  Sb  Sb55  1  0.33698828  0.33043561  0.33575030  1
  Sb  Sb56  1  -0.00430838  0.16852257  0.17250304  1
  Sb  Sb57  1  0.83331113  0.66913038  0.17139418  1
  Sb  Sb58  1  0.33461376  0.00049414  0.66216908  1
  Sb  Sb59  1  0.66220132  0.16624108  0.83292434  1
  Sb  Sb60  1  -0.00120713  0.83571347  0.83046996  1
  Sb  Sb61  1  -0.00190725  0.49920783  0.83582636  1
  Sb  Sb62  1  0.66996236  0.83650650  0.49468905  1
  Sb  Sb63  1  0.82790299  0.33416472  0.83824859  1
  Sb  Sb64  1  0.17136828  0.33378071  0.83241841  1
  Sb  Sb65  1  0.33107070  0.33020502  -0.00210197  1
  Sb  Sb66  1  0.16316026  0.50021971  -0.00192016  1
  Sb  Sb67  1  0.66930902  0.33108632  0.00450579  1
  Sb  Sb68  1  0.50524045  0.00371379  0.49679985  1
  Sb  Sb69  1  0.16678194  0.66612419  0.83104371  1
  Sb  Sb70  1  0.00144968  0.33058501  0.66133551  1
  Sb  Sb71  1  0.83214151  0.66566969  0.83445851  1
  Sb  Sb72  1  0.16175070  0.33220878  0.16968115  1
  Sb  Sb73  1  0.66525383  0.67021781  0.66744068  1
  Sb  Sb74  1  0.16578451  0.66591243  0.16968687  1
  Sb  Sb75  1  0.50470108  0.33207735  0.17057785  1
  Sb  Sb76  1  0.49944584  0.16110905  0.00148081  1
  Sb  Sb77  1  0.83333917  0.16280204  0.00481627  1
  Sb  Sb78  1  0.66401481  0.32916401  0.66003156  1
  Sb  Sb79  1  0.33497062  0.83431466  0.82941371  1
  Sb  Sb80  1  0.16212544  0.67313905  0.49853383  1
  Sb  Sb81  1  0.16116720  0.83715731  0.00348267  1
  Sb  Sb82  1  0.16206130  0.50106465  0.33737054  1
  Sb  Sb83  1  0.16675951  0.16363882  0.00611560  1
  Sb  Sb84  1  0.50064619  0.66702060  0.83329461  1
  Sb  Sb85  1  0.83530464  0.50097316  0.66118209  1
  Sb  Sb86  1  0.16994006  0.16308604  0.66078605  1
  Sb  Sb87  1  0.00288259  0.16385781  0.83316080  1
  Sb  Sb88  1  -0.00542042  0.83180670  0.17450953  1
  Sb  Sb89  1  0.50243217  0.83961504  0.66314710  1
  Sb  Sb90  1  0.50362971  0.66391089  0.49681897  1
  Sb  Sb91  1  0.50716738  0.00050074  0.16758515  1
  Sb  Sb92  1  0.67098165  0.67054529  0.33172778  1
  Sb  Sb93  1  0.16202989  0.00150119  0.17737947  1
  Sb  Sb94  1  0.82915893  0.32938426  0.49074840  1
  Sb  Sb95  1  0.00223564  0.67119158  0.66184766  1
  Sb  Sb96  1  -0.00652755  0.16242916  0.49521753  1
  Sb  Sb97  1  0.33905198  0.16231337  0.49664842  1
  Sb  Sb98  1  0.82791718  -0.00036237  0.83158845  1
  Sb  Sb99  1  0.33852762  0.83697414  0.17496770  1
  Sb  Sb100  1  0.17065515  0.33079284  0.49800447  1
  Sb  Sb101  1  0.50443621  0.50472450  0.00326346  1
  Sb  Sb102  1  0.17168833  -0.00022297  0.82888993  1
  Sb  Sb103  1  0.49693957  0.49485667  0.66269415  1
  Sb  Sb104  1  0.67053648  0.49959323  0.17224810  1
  Sb  Sb105  1  0.66690085  0.83470359  0.83827343  1
  Sb  Sb106  1  0.50069216  0.66681828  0.17092590  1
  Sb  Sb107  1  0.33240657  0.50393722  0.49773201  1
  Te  Te108  1  0.17613768  0.16678950  0.17393683  1
  Te  Te109  1  0.16753137  0.16027897  0.49408801  1
  Te  Te110  1  0.17603947  0.16644534  0.83341537  1
  Te  Te111  1  0.16780930  0.49910470  0.16393707  1
  Te  Te112  1  0.16366728  0.49852052  0.50511923  1
  Te  Te113  1  0.17208330  0.49977790  0.82787846  1
  Te  Te114  1  0.16787688  0.83342318  0.17505165  1
  Te  Te115  1  0.16369467  0.83438210  0.49761492  1
  Te  Te116  1  0.16731744  0.83326968  0.82289200  1
  Te  Te117  1  0.50163830  0.16776028  0.17163544  1
  Te  Te118  1  0.50492537  0.16930560  0.49919233  1
  Te  Te119  1  0.49679238  0.16694347  0.83615655  1
  Te  Te120  1  0.49542139  0.49956524  0.17148146  1
  Te  Te121  1  0.50203082  0.49694249  0.49514415  1
  Te  Te122  1  0.50059062  0.49846077  0.83426176  1
  Te  Te123  1  0.50519704  0.83240091  0.16879368  1
  Te  Te124  1  0.50047740  0.83170974  0.49322800  1
  Te  Te125  1  0.49937680  0.83775765  0.83429488  1
  Te  Te126  1  0.83016256  0.16588616  0.17144953  1
  Te  Te127  1  0.82822942  0.16390393  0.49833776  1
  Te  Te128  1  0.83523364  0.16815076  0.82700427  1
  Te  Te129  1  0.83606508  0.50037884  0.16709646  1
  Te  Te130  1  0.83408923  0.49620462  0.49794406  1
  Te  Te131  1  0.82794389  0.49887437  0.83368462  1
  Te  Te132  1  0.83068662  0.83592176  0.16823167  1
  Te  Te133  1  0.83262462  0.83418303  0.49622997  1
  Te  Te134  1  0.83279069  0.83223756  0.83941300  1
  Te  Te135  1  0.16711975  -0.00083916  -0.00159134  1
  Te  Te136  1  0.17248642  -0.00172539  0.33688657  1
  Te  Te137  1  0.16551558  -0.00467068  0.66048475  1
  Te  Te138  1  0.15644140  0.33205816  0.00013398  1
  Te  Te139  1  0.16036596  0.32944720  0.33356182  1
  Te  Te140  1  0.17141163  0.33355321  0.66602473  1
  Te  Te141  1  0.16085209  0.66873928  -0.00047686  1
  Te  Te142  1  0.16726495  0.67184648  0.33335412  1
  Te  Te143  1  0.17097605  0.66838684  0.66529972  1
  Te  Te144  1  0.49961818  -0.00351621  0.00094746  1
  Te  Te145  1  0.49443140  0.00208807  0.33350841  1
  Te  Te146  1  0.50316844  0.00462504  0.66911625  1
  Te  Te147  1  0.49914771  0.33556607  -0.00400389  1
  Te  Te148  1  0.50291829  0.33480041  0.33545538  1
  Te  Te149  1  0.49855614  0.32963065  0.66544975  1
  Te  Te150  1  0.50342493  0.67420580  0.00031168  1
  Te  Te151  1  0.49488001  0.66165791  0.33377684  1
  Te  Te152  1  0.49422417  0.66902242  0.66637866  1
  Te  Te153  1  0.82989547  -0.00370589  -0.00216392  1
  Te  Te154  1  0.83321861  -0.00064603  0.33307756  1
  Te  Te155  1  0.83327497  0.00043420  0.67033290  1
  Te  Te156  1  0.83748408  0.33056788  0.00580376  1
  Te  Te157  1  0.83294523  0.34008691  0.33256925  1
  Te  Te158  1  0.83504816  0.32986949  0.66900534  1
  Te  Te159  1  0.83287535  0.66681413  -0.00131145  1
  Te  Te160  1  0.83610608  0.65848099  0.33600131  1
  Te  Te161  1  0.83334014  0.66964532  0.66194367  1
  Te  Te162  1  0.00040383  0.16090984  0.00131104  1
  Te  Te163  1  0.00223970  0.16215556  0.33257251  1
  Te  Te164  1  0.00003127  0.16078662  0.66601907  1
  Te  Te165  1  -0.00347151  0.49943167  0.00028484  1
  Te  Te166  1  0.00211453  0.50134360  0.33208112  1
  Te  Te167  1  0.00487027  0.49998699  0.66714642  1
  Te  Te168  1  -0.00314525  0.83252474  0.00056428  1
  Te  Te169  1  -0.00406035  0.83373706  0.33423329  1
  Te  Te170  1  -0.00294949  0.83663881  0.66390857  1
  Te  Te171  1  0.33239358  0.16237433  0.00172895  1
  Te  Te172  1  0.33620012  0.16604819  0.33123510  1
  Te  Te173  1  0.33775266  0.17070778  0.66700558  1
  Te  Te174  1  0.33326107  0.50090817  -0.00016228  1
  Te  Te175  1  0.32943737  0.49836407  0.32994965  1
  Te  Te176  1  0.33309715  0.50040607  0.66751356  1
  Te  Te177  1  0.32890670  0.83816017  0.00013280  1
  Te  Te178  1  0.33876203  0.83410535  0.33379954  1
  Te  Te179  1  0.33457024  0.82901788  0.66149509  1
  Te  Te180  1  0.66661377  0.16110125  0.00303850  1
  Te  Te181  1  0.66606005  0.16660038  0.33262445  1
  Te  Te182  1  0.66409259  0.16373686  0.66743883  1
  Te  Te183  1  0.67173076  0.49836946  0.00331645  1
  Te  Te184  1  0.66610709  0.50543586  0.33636767  1
  Te  Te185  1  0.66726586  0.50131164  0.66599319  1
  Te  Te186  1  0.66813413  0.83419017  0.00003039  1
  Te  Te187  1  0.66733100  0.83394426  0.32926499  1
  Te  Te188  1  0.67216008  0.83905431  0.66717354  1
  Te  Te189  1  -0.00616301  0.00123419  0.16775459  1
  Te  Te190  1  -0.00283627  -0.00015283  0.49735765  1
  Te  Te191  1  0.00304937  0.00040198  0.84311136  1
  Te  Te192  1  -0.00355893  0.33437070  0.16934151  1
  Te  Te193  1  0.00379450  0.33874204  0.49418908  1
  Te  Te194  1  -0.00051223  0.33213257  0.83439903  1
  Te  Te195  1  0.00010563  0.66131294  0.16877091  1
  Te  Te196  1  -0.00494947  0.66756884  0.49796015  1
  Te  Te197  1  0.00011015  0.66660448  0.84084996  1
  Te  Te198  1  0.32912567  0.00295168  0.16788479  1
  Te  Te199  1  0.33572205  -0.00560675  0.49450658  1
  Te  Te200  1  0.33834556  0.00245748  0.83220230  1
  Te  Te201  1  0.33316800  0.33292931  0.16553630  1
  Te  Te202  1  0.33897349  0.33425318  0.50522200  1
  Te  Te203  1  0.33701687  0.33275325  0.83235047  1
  Te  Te204  1  0.33253634  0.66227545  0.17156131  1
  Te  Te205  1  0.33500524  0.67139377  0.49772032  1
  Te  Te206  1  0.33327315  0.66190478  0.83457158  1
  Te  Te207  1  0.66984955  -0.00050216  0.16988997  1
  Te  Te208  1  0.67082115  0.00256630  0.49738861  1
  Te  Te209  1  0.65864071  0.00046037  0.83546796  1
  Te  Te210  1  0.67180534  0.33079356  0.17236874  1
  Te  Te211  1  0.66247351  0.33365556  0.49612325  1
  Te  Te212  1  0.66071649  0.33645606  0.83490693  1
  Te  Te213  1  0.66668015  0.67008204  0.15980219  1
  Te  Te214  1  0.67366931  0.66095614  0.50247092  1
  Te  Te215  1  0.66586624  0.65932967  0.83651320  1
