# generated using pymatgen
data_AgSbTe2
_symmetry_space_group_name_H-M   'P 1'
_cell_length_a   18.36138321
_cell_length_b   18.35981356
_cell_length_c   18.35931633
_cell_angle_alpha   89.99949619
_cell_angle_beta   89.99735054
_cell_angle_gamma   89.99802528
_symmetry_Int_Tables_number   1
_chemical_formula_structural   AgSbTe2
_chemical_formula_sum   'Ag54 Sb54 Te108'
_cell_volume   6189.13798560
_cell_formula_units_Z   54
loop_
 _symmetry_equiv_pos_site_id
 _symmetry_equiv_pos_as_xyz
  1  'x, y, z'
loop_
 _atom_site_type_symbol
 _atom_site_label
 _atom_site_symmetry_multiplicity
 _atom_site_fract_x
 _atom_site_fract_y
 _atom_site_fract_z
 _atom_site_occupancy
  Ag  Ag0  1  -0.00835788  0.84393035  0.18286010  1
  Ag  Ag1  1  0.32646160  0.66456722  0.66432830  1
  Ag  Ag2  1  0.83307827  0.66777723  0.83328126  1
  Ag  Ag3  1  0.83535450  -0.00104274  0.17512070  1
  Ag  Ag4  1  -0.00770076  0.00850798  0.33437174  1
  Ag  Ag5  1  -0.01235111  0.32092699  0.33712983  1
  Ag  Ag6  1  0.32772336  0.00470723  0.01455128  1
  Ag  Ag7  1  0.16655901  0.49487011  0.00814066  1
  Ag  Ag8  1  0.15342758  0.00699373  0.49793413  1
  Ag  Ag9  1  0.50769817  0.33249442  0.82402767  1
  Ag  Ag10  1  0.83111130  0.83946950  0.33337136  1
  Ag  Ag11  1  0.00056977  0.49249758  0.49770340  1
  Ag  Ag12  1  0.33402953  0.32465684  0.33843514  1
  Ag  Ag13  1  0.67307584  0.00614931  0.66392074  1
  Ag  Ag14  1  0.66761511  0.17181222  0.83081522  1
  Ag  Ag15  1  0.83075653  0.32725306  0.17827426  1
  Ag  Ag16  1  0.49724823  0.33187168  0.49600532  1
  Ag  Ag17  1  0.66935462  0.48997850  0.83438584  1
  Ag  Ag18  1  0.33507783  0.16565721  0.18060154  1
  Ag  Ag19  1  0.67896731  0.84321845  0.17699573  1
  Ag  Ag20  1  0.83871706  0.83596082  0.65948215  1
  Ag  Ag21  1  0.32547666  0.16558652  0.49437902  1
  Ag  Ag22  1  0.15922024  0.83101843  0.66188359  1
  Ag  Ag23  1  -0.00700507  -0.00341849  0.65051920  1
  Ag  Ag24  1  0.32854677  0.84246819  0.50061183  1
  Ag  Ag25  1  0.83573970  0.83629457  0.01607550  1
  Ag  Ag26  1  0.85125197  0.17171644  0.33171113  1
  Ag  Ag27  1  0.50377268  0.48452186  0.33366540  1
  Ag  Ag28  1  0.00322128  0.16186646  0.49342619  1
  Ag  Ag29  1  -0.00309277  0.84491896  0.49869222  1
  Ag  Ag30  1  0.67104349  0.16550696  0.17321731  1
  Ag  Ag31  1  0.16655777  0.17031028  0.33639853  1
  Ag  Ag32  1  0.33690312  0.33411587  0.65795966  1
  Ag  Ag33  1  0.48176129  0.16669453  0.33255032  1
  Ag  Ag34  1  0.33533224  0.83483969  0.81873511  1
  Ag  Ag35  1  0.51358065  0.00221038  0.17242794  1
  Ag  Ag36  1  0.51355094  0.84474523  0.33481302  1
  Ag  Ag37  1  0.67085122  0.48927993  0.17198182  1
  Ag  Ag38  1  0.83750269  0.32665149  0.49314925  1
  Ag  Ag39  1  -0.01098238  0.16274153  0.18052938  1
  Ag  Ag40  1  0.00148326  -0.00024734  0.01375574  1
  Ag  Ag41  1  0.66768861  0.33127880  0.65864495  1
  Ag  Ag42  1  0.67901393  0.83976886  0.49413557  1
  Ag  Ag43  1  0.16502132  0.50154943  0.66125679  1
  Ag  Ag44  1  0.33079395  0.00952148  0.33269941  1
  Ag  Ag45  1  0.33143237  0.32493342  0.00697300  1
  Ag  Ag46  1  0.83245958  0.68211331  0.16850229  1
  Ag  Ag47  1  0.82576684  0.33591516  0.83008361  1
  Ag  Ag48  1  0.67308515  0.32942069  0.33861063  1
  Ag  Ag49  1  0.16313626  0.32824845  0.49626821  1
  Ag  Ag50  1  0.15742621  0.48983919  0.33985470  1
  Ag  Ag51  1  0.83356688  0.48622217  0.33134452  1
  Ag  Ag52  1  0.83871635  -0.00144814  0.49320651  1
  Ag  Ag53  1  0.00179479  0.67812919  0.66354003  1
  Sb  Sb54  1  0.50087802  0.83435137  0.65762864  1
  Sb  Sb55  1  0.50199963  0.16806649  0.65940967  1
  Sb  Sb56  1  0.67169678  0.00574297  0.33451209  1
  Sb  Sb57  1  0.66972733  0.16622906  0.49306948  1
  Sb  Sb58  1  0.00226797  0.32982816  0.00817312  1
  Sb  Sb59  1  0.66728674  0.83501661  0.83170007  1
  Sb  Sb60  1  0.16668200  0.16669589  0.65801270  1
  Sb  Sb61  1  0.33317168  0.00181924  0.65841560  1
  Sb  Sb62  1  0.33056150  0.66848337  -0.00459175  1
  Sb  Sb63  1  0.50561572  0.67070295  0.16967849  1
  Sb  Sb64  1  -0.00090119  0.83442200  0.82637982  1
  Sb  Sb65  1  0.66998905  -0.00003085  0.00210909  1
  Sb  Sb66  1  0.16624945  0.33437099  0.82696303  1
  Sb  Sb67  1  0.83597811  0.50092107  0.00460515  1
  Sb  Sb68  1  0.67010700  0.66531779  0.33293980  1
  Sb  Sb69  1  0.66555979  0.33200916  0.00135637  1
  Sb  Sb70  1  0.50244604  0.00362625  0.49196670  1
  Sb  Sb71  1  0.32706274  0.49277008  0.49924883  1
  Sb  Sb72  1  0.50389752  0.66311137  0.83041892  1
  Sb  Sb73  1  0.16421482  0.33229171  0.17885491  1
  Sb  Sb74  1  0.16002244  0.00183872  0.17556365  1
  Sb  Sb75  1  0.66954274  0.66715756  0.00228000  1
  Sb  Sb76  1  0.16190292  0.83533397  -0.00384823  1
  Sb  Sb77  1  0.33363458  0.84133523  0.17332949  1
  Sb  Sb78  1  0.83663393  0.50081858  0.66101630  1
  Sb  Sb79  1  0.49814001  0.66313585  0.49796651  1
  Sb  Sb80  1  -0.00278889  0.67060141  -0.00333186  1
  Sb  Sb81  1  -0.00732356  0.16654251  0.83087661  1
  Sb  Sb82  1  0.33633771  0.49997840  0.83191105  1
  Sb  Sb83  1  0.33801703  0.16642185  0.83030074  1
  Sb  Sb84  1  0.50011839  0.16765025  0.00744586  1
  Sb  Sb85  1  0.16046856  0.66652682  0.16806588  1
  Sb  Sb86  1  0.49875264  0.49557928  0.66152093  1
  Sb  Sb87  1  -0.00201525  0.32972065  0.65616959  1
  Sb  Sb88  1  0.16299023  0.66688181  0.82916538  1
  Sb  Sb89  1  0.50224246  0.83763980  0.00565058  1
  Sb  Sb90  1  0.33676948  0.49242079  0.17036929  1
  Sb  Sb91  1  0.67136711  0.49755208  0.49588108  1
  Sb  Sb92  1  0.16228561  0.83785475  0.34029555  1
  Sb  Sb93  1  0.67052808  0.66515785  0.66561228  1
  Sb  Sb94  1  -0.00539491  0.49801183  0.17380631  1
  Sb  Sb95  1  -0.00404387  0.49976522  0.82873162  1
  Sb  Sb96  1  0.83369165  0.00120314  0.83143102  1
  Sb  Sb97  1  0.33165635  0.66704663  0.33829488  1
  Sb  Sb98  1  0.83369532  0.16283277  0.00866066  1
  Sb  Sb99  1  0.16786846  0.16873068  0.00751384  1
  Sb  Sb100  1  -0.00173682  0.66825319  0.33843903  1
  Sb  Sb101  1  0.16556914  0.66659895  0.50132932  1
  Sb  Sb102  1  0.83566945  0.67154271  0.49774617  1
  Sb  Sb103  1  0.49992992  0.00439924  0.83818158  1
  Sb  Sb104  1  0.49849141  0.49410360  0.00435370  1
  Sb  Sb105  1  0.50390867  0.32691006  0.17484589  1
  Sb  Sb106  1  0.16737927  -0.00079810  0.82570741  1
  Sb  Sb107  1  0.83187087  0.16412591  0.65774466  1
  Te  Te108  1  0.17291890  0.16752710  0.17254633  1
  Te  Te109  1  0.16540810  0.16659026  0.49889588  1
  Te  Te110  1  0.16642426  0.16754993  0.83393040  1
  Te  Te111  1  0.16714554  0.49997359  0.16635430  1
  Te  Te112  1  0.16371586  0.49856512  0.50010327  1
  Te  Te113  1  0.16678575  0.50021202  0.82425861  1
  Te  Te114  1  0.15928860  0.83037206  0.16409432  1
  Te  Te115  1  0.16560669  0.83321368  0.50330076  1
  Te  Te116  1  0.17402382  0.83262784  0.82707856  1
  Te  Te117  1  0.49883563  0.16162769  0.17224145  1
  Te  Te118  1  0.49811844  0.17182092  0.49347040  1
  Te  Te119  1  0.50537275  0.17242166  0.83320766  1
  Te  Te120  1  0.50715612  0.50213107  0.17245222  1
  Te  Te121  1  0.50213241  0.49416381  0.49300065  1
  Te  Te122  1  0.50646450  0.49504264  0.83420732  1
  Te  Te123  1  0.50121841  0.83894434  0.17314866  1
  Te  Te124  1  0.49632580  0.83211195  0.49260355  1
  Te  Te125  1  0.49569343  0.83236441  0.83616759  1
  Te  Te126  1  0.83305650  0.16560520  0.16945038  1
  Te  Te127  1  0.83576559  0.16488496  0.49427960  1
  Te  Te128  1  0.82719994  0.17028519  0.83393384  1
  Te  Te129  1  0.83091473  0.48855261  0.16888434  1
  Te  Te130  1  0.83675396  0.49921676  0.49390337  1
  Te  Te131  1  0.82972384  0.50071586  0.83488325  1
  Te  Te132  1  0.83555563  0.83806662  0.17131123  1
  Te  Te133  1  0.83597283  0.83406643  0.49956605  1
  Te  Te134  1  0.83108360  0.83019277  0.82276837  1
  Te  Te135  1  0.16656065  0.00044082  -0.00406494  1
  Te  Te136  1  0.16988451  0.00049858  0.34082688  1
  Te  Te137  1  0.16515442  -0.00403359  0.65927841  1
  Te  Te138  1  0.17023305  0.33611070  -0.00289945  1
  Te  Te139  1  0.17505295  0.33401252  0.33699215  1
  Te  Te140  1  0.16670359  0.33627754  0.65984694  1
  Te  Te141  1  0.16569636  0.65830529  -0.00090589  1
  Te  Te142  1  0.16613491  0.65045905  0.33152399  1
  Te  Te143  1  0.16586447  0.66713813  0.66650150  1
  Te  Te144  1  0.49201812  0.00024378  0.00852431  1
  Te  Te145  1  0.50024698  0.00246654  0.32985165  1
  Te  Te146  1  0.50732816  0.00027482  0.66963080  1
  Te  Te147  1  0.49101957  0.33354991  -0.00332772  1
  Te  Te148  1  0.49489486  0.32776829  0.33401571  1
  Te  Te149  1  0.50248704  0.33377282  0.66337022  1
  Te  Te150  1  0.49843769  0.66614976  -0.00032778  1
  Te  Te151  1  0.49945013  0.66959461  0.33253849  1
  Te  Te152  1  0.49108951  0.66534519  0.66654873  1
  Te  Te153  1  0.83723545  -0.00413007  0.00005829  1
  Te  Te154  1  0.83107448  0.00021158  0.33413211  1
  Te  Te155  1  0.83266236  -0.00167434  0.66622539  1
  Te  Te156  1  0.83506229  0.33332616  -0.00612863  1
  Te  Te157  1  0.83151192  0.33093054  0.33425751  1
  Te  Te158  1  0.82880515  0.33363539  0.66887896  1
  Te  Te159  1  0.83419893  0.67131866  0.00049458  1
  Te  Te160  1  0.83384758  0.67435356  0.32742403  1
  Te  Te161  1  0.83647145  0.66842104  0.66732620  1
  Te  Te162  1  0.00140960  0.16107217  0.00187209  1
  Te  Te163  1  0.00578061  0.16667442  0.33429748  1
  Te  Te164  1  -0.00071470  0.15802187  0.66324654  1
  Te  Te165  1  0.00617944  0.49944775  -0.00040567  1
  Te  Te166  1  -0.00281999  0.50216169  0.33687517  1
  Te  Te167  1  0.00359123  0.49668438  0.66225932  1
  Te  Te168  1  -0.00344325  0.83766614  -0.00443960  1
  Te  Te169  1  -0.00128456  0.83343839  0.33829232  1
  Te  Te170  1  0.00001914  0.83657279  0.66469444  1
  Te  Te171  1  0.33340060  0.16531955  -0.00244464  1
  Te  Te172  1  0.32689608  0.16676949  0.33607106  1
  Te  Te173  1  0.33455131  0.17319345  0.66258636  1
  Te  Te174  1  0.32879176  0.49872487  0.00066254  1
  Te  Te175  1  0.33959738  0.49990323  0.33262682  1
  Te  Te176  1  0.33042411  0.49892721  0.66615799  1
  Te  Te177  1  0.33221787  0.83889517  0.00318949  1
  Te  Te178  1  0.32929533  0.83413623  0.33993539  1
  Te  Te179  1  0.33548935  0.83666533  0.66162664  1
  Te  Te180  1  0.66642521  0.16484851  0.00356110  1
  Te  Te181  1  0.66821039  0.17061490  0.33178729  1
  Te  Te182  1  0.66659002  0.16954483  0.66762046  1
  Te  Te183  1  0.66665887  0.49994457  0.00340365  1
  Te  Te184  1  0.66947715  0.49720337  0.33178332  1
  Te  Te185  1  0.66677570  0.49493064  0.66957618  1
  Te  Te186  1  0.67284257  0.83484772  0.00273152  1
  Te  Te187  1  0.66824404  0.83225652  0.33338184  1
  Te  Te188  1  0.66901379  0.83363582  0.66487052  1
  Te  Te189  1  -0.00139274  0.00089421  0.17212280  1
  Te  Te190  1  -0.00227404  -0.00036496  0.49576370  1
  Te  Te191  1  0.00167843  0.00180976  0.83974168  1
  Te  Te192  1  -0.00352231  0.32892957  0.17392910  1
  Te  Te193  1  -0.00163658  0.33221252  0.49670437  1
  Te  Te194  1  -0.00432776  0.33283940  0.83540923  1
  Te  Te195  1  -0.00745954  0.66782878  0.16466366  1
  Te  Te196  1  -0.00045944  0.66252867  0.50607638  1
  Te  Te197  1  -0.00737388  0.66645663  0.82668299  1
  Te  Te198  1  0.32572432  0.00432279  0.17103730  1
  Te  Te199  1  0.33786159  0.00365222  0.49543043  1
  Te  Te200  1  0.33526379  -0.00345987  0.83018615  1
  Te  Te201  1  0.33462048  0.32765995  0.16503448  1
  Te  Te202  1  0.33292301  0.33358810  0.49926689  1
  Te  Te203  1  0.33472769  0.33373556  0.82788560  1
  Te  Te204  1  0.33287079  0.66653131  0.16474858  1
  Te  Te205  1  0.33321028  0.67370779  0.50573141  1
  Te  Te206  1  0.33419611  0.67148165  0.82833863  1
  Te  Te207  1  0.67083181  0.00082830  0.16515679  1
  Te  Te208  1  0.66905570  -0.00114340  0.50565302  1
  Te  Te209  1  0.66521050  0.00479751  0.83057332  1
  Te  Te210  1  0.66794952  0.33050077  0.16776342  1
  Te  Te211  1  0.67121689  0.33376765  0.49921480  1
  Te  Te212  1  0.66629084  0.33232842  0.83840592  1
  Te  Te213  1  0.67297064  0.67024424  0.16629732  1
  Te  Te214  1  0.66535740  0.67729442  0.50189646  1
  Te  Te215  1  0.67137359  0.66312234  0.83261492  1
