# generated using pymatgen
data_AgSbTe2
_symmetry_space_group_name_H-M   'P 1'
_cell_length_a   18.35241921
_cell_length_b   18.34226632
_cell_length_c   18.32632202
_cell_angle_alpha   90.00073171
_cell_angle_beta   89.99918993
_cell_angle_gamma   89.99899621
_symmetry_Int_Tables_number   1
_chemical_formula_structural   AgSbTe2
_chemical_formula_sum   'Ag54 Sb54 Te108'
_cell_volume   6169.09742857
_cell_formula_units_Z   54
loop_
 _symmetry_equiv_pos_site_id
 _symmetry_equiv_pos_as_xyz
  1  'x, y, z'
loop_
 _atom_site_type_symbol
 _atom_site_label
 _atom_site_symmetry_multiplicity
 _atom_site_fract_x
 _atom_site_fract_y
 _atom_site_fract_z
 _atom_site_occupancy
  Ag  Ag0  1  0.84061061  0.50235513  0.33703898  1
  Ag  Ag1  1  0.32682705  0.33485276  0.65968801  1
  Ag  Ag2  1  0.48920661  0.32947967  0.50509254  1
  Ag  Ag3  1  0.16616770  0.17037382  0.65898428  1
  Ag  Ag4  1  0.49799565  0.83325933  0.34224518  1
  Ag  Ag5  1  0.66846409  0.33635155  0.00004217  1
  Ag  Ag6  1  0.00850970  0.66471611  -0.00090359  1
  Ag  Ag7  1  0.17095654  0.00070687  0.50096675  1
  Ag  Ag8  1  0.82930598  0.82832248  0.34041805  1
  Ag  Ag9  1  0.32964322  0.00300213  0.00187777  1
  Ag  Ag10  1  0.32437829  0.16623262  0.15943675  1
  Ag  Ag11  1  0.33230131  0.83432431  0.16620940  1
  Ag  Ag12  1  0.84504969  0.17034440  -0.00259702  1
  Ag  Ag13  1  0.66235087  0.65912302  0.66793591  1
  Ag  Ag14  1  0.32773314  0.50117503  0.50227359  1
  Ag  Ag15  1  0.84320033  0.17518016  0.66528004  1
  Ag  Ag16  1  0.67438521  0.49760182  0.16404327  1
  Ag  Ag17  1  0.48922092  0.83133298  0.00130622  1
  Ag  Ag18  1  0.32670402  0.17023966  0.50006152  1
  Ag  Ag19  1  0.16409805  0.33373141  0.16075520  1
  Ag  Ag20  1  0.33048596  0.66224990  0.66307170  1
  Ag  Ag21  1  0.16866227  0.83116320  -0.00371992  1
  Ag  Ag22  1  0.00244898  0.33170588  0.66431750  1
  Ag  Ag23  1  0.66267778  0.16534519  0.50259866  1
  Ag  Ag24  1  0.84215718  0.83012070  0.65976629  1
  Ag  Ag25  1  0.33090651  0.16753272  0.84006459  1
  Ag  Ag26  1  0.66944299  0.33793572  0.66506496  1
  Ag  Ag27  1  0.49719904  0.50077609  -0.00297820  1
  Ag  Ag28  1  0.16385717  0.83183576  0.65886851  1
  Ag  Ag29  1  0.00983136  0.49625279  0.49831613  1
  Ag  Ag30  1  0.17000736  0.66994394  0.82886805  1
  Ag  Ag31  1  0.16890912  0.33370794  0.50212790  1
  Ag  Ag32  1  0.01209944  0.01119972  0.00232193  1
  Ag  Ag33  1  0.00014820  0.49414633  0.16510380  1
  Ag  Ag34  1  0.17032827  0.66647410  0.50573819  1
  Ag  Ag35  1  0.16318462  0.49615542  0.00455870  1
  Ag  Ag36  1  0.48705526  0.16828631  -0.00007179  1
  Ag  Ag37  1  0.00886834  0.17231650  0.50417056  1
  Ag  Ag38  1  0.16208279  0.50002243  0.34175679  1
  Ag  Ag39  1  0.84736548  0.33545532  0.16276877  1
  Ag  Ag40  1  0.66647662  -0.00356134  0.33855333  1
  Ag  Ag41  1  0.83195738  0.49494482  0.65834829  1
  Ag  Ag42  1  0.49132897  0.00222578  0.50008125  1
  Ag  Ag43  1  0.50128044  0.49974193  0.66665214  1
  Ag  Ag44  1  0.66410131  0.65948688  -0.00495159  1
  Ag  Ag45  1  0.33225812  0.66916732  0.34396448  1
  Ag  Ag46  1  0.49284768  0.66691303  0.83333031  1
  Ag  Ag47  1  0.16655764  0.16844666  -0.00186686  1
  Ag  Ag48  1  0.32922800  0.82976786  0.49923468  1
  Ag  Ag49  1  0.00541329  0.17620812  0.15326876  1
  Ag  Ag50  1  0.00399690  0.83110427  0.82579482  1
  Ag  Ag51  1  0.01029658  0.83336680  0.50394285  1
  Ag  Ag52  1  0.00308099  0.33147391  0.00842929  1
  Ag  Ag53  1  0.66333949  0.83571414  0.50005210  1
  Sb  Sb54  1  0.66808185  0.17277913  0.16752821  1
  Sb  Sb55  1  0.66952623  0.82994262  0.82728248  1
  Sb  Sb56  1  0.16661403  0.17229547  0.33605869  1
  Sb  Sb57  1  0.16668709  0.49952226  0.66290980  1
  Sb  Sb58  1  0.49465108  0.17404946  0.66647039  1
  Sb  Sb59  1  0.16689515  0.33616157  0.83205071  1
  Sb  Sb60  1  0.83639267  0.66610712  0.83228919  1
  Sb  Sb61  1  0.66279298  0.82778665  0.16996016  1
  Sb  Sb62  1  0.83538417  0.49517001  0.00102067  1
  Sb  Sb63  1  0.33180371  0.49788655  0.82788766  1
  Sb  Sb64  1  0.33122886  0.33039789  -0.00334423  1
  Sb  Sb65  1  0.66228470  0.16783354  0.83065265  1
  Sb  Sb66  1  0.16777014  0.00509468  0.16796190  1
  Sb  Sb67  1  0.83903086  0.66828554  0.50159926  1
  Sb  Sb68  1  0.49845617  0.50512033  0.33567490  1
  Sb  Sb69  1  0.49496310  0.33289222  0.16767668  1
  Sb  Sb70  1  0.83517415  0.33341229  0.83474717  1
  Sb  Sb71  1  0.00242227  0.66524088  0.66821742  1
  Sb  Sb72  1  0.66582359  0.50084229  0.83567369  1
  Sb  Sb73  1  0.32930170  0.49904708  0.16989929  1
  Sb  Sb74  1  0.49872808  0.66608219  0.16005243  1
  Sb  Sb75  1  -0.00152099  -0.00202049  0.33300963  1
  Sb  Sb76  1  0.49670944  0.82678680  0.66499676  1
  Sb  Sb77  1  0.49813074  0.33719920  0.83052066  1
  Sb  Sb78  1  0.66635783  0.00122343  0.65961441  1
  Sb  Sb79  1  0.16903693  0.82744648  0.33713311  1
  Sb  Sb80  1  0.00246855  0.00080927  0.66778516  1
  Sb  Sb81  1  0.83678721  0.00062592  0.83327367  1
  Sb  Sb82  1  0.83766790  0.83612488  0.00031287  1
  Sb  Sb83  1  0.49296056  0.66652221  0.50567724  1
  Sb  Sb84  1  0.66290431  0.00239247  0.00636238  1
  Sb  Sb85  1  0.00570043  0.16424578  0.83291584  1
  Sb  Sb86  1  0.49816148  -0.00070280  0.17039812  1
  Sb  Sb87  1  0.00422960  0.83250223  0.16736486  1
  Sb  Sb88  1  0.66286895  0.66911595  0.33806367  1
  Sb  Sb89  1  0.83430417  0.16946768  0.33550448  1
  Sb  Sb90  1  0.49678147  -0.00287958  0.83025898  1
  Sb  Sb91  1  0.16705101  -0.00239977  0.83393326  1
  Sb  Sb92  1  0.83554201  -0.00092098  0.49980222  1
  Sb  Sb93  1  0.32841850  0.83415570  0.83177207  1
  Sb  Sb94  1  0.83721708  0.33368605  0.50048238  1
  Sb  Sb95  1  0.00416706  0.66414627  0.33217990  1
  Sb  Sb96  1  0.33197117  0.33669584  0.34015183  1
  Sb  Sb97  1  0.16758746  0.66209054  0.16550474  1
  Sb  Sb98  1  0.33038911  0.00162624  0.66504781  1
  Sb  Sb99  1  0.83530164  0.00618780  0.16716536  1
  Sb  Sb100  1  0.33503230  -0.00479608  0.33405102  1
  Sb  Sb101  1  0.49882701  0.16236108  0.33415660  1
  Sb  Sb102  1  0.66751161  0.33286746  0.33587927  1
  Sb  Sb103  1  0.00089896  0.33498187  0.33289860  1
  Sb  Sb104  1  0.83364508  0.66094232  0.16595305  1
  Sb  Sb105  1  0.33211924  0.66824768  -0.00264811  1
  Sb  Sb106  1  0.00325853  0.50277390  0.83334403  1
  Sb  Sb107  1  0.66596272  0.50076381  0.50057580  1
  Te  Te108  1  0.16518244  0.17047778  0.16916851  1
  Te  Te109  1  0.16682889  0.17057824  0.49905077  1
  Te  Te110  1  0.17142916  0.16571456  0.83259137  1
  Te  Te111  1  0.16469011  0.49582252  0.16337617  1
  Te  Te112  1  0.16724830  0.49875652  0.50217296  1
  Te  Te113  1  0.16768049  0.50681863  0.84502763  1
  Te  Te114  1  0.17097660  0.83397108  0.16446176  1
  Te  Te115  1  0.16804579  0.82973963  0.49925680  1
  Te  Te116  1  0.16435998  0.83108112  0.83576810  1
  Te  Te117  1  0.49720046  0.16682677  0.16131758  1
  Te  Te118  1  0.50163755  0.16661240  0.49992883  1
  Te  Te119  1  0.49439896  0.16561981  0.83876850  1
  Te  Te120  1  0.49975098  0.49825353  0.16318108  1
  Te  Te121  1  0.49769526  0.49638625  0.50211726  1
  Te  Te122  1  0.49853832  0.50536775  0.83489432  1
  Te  Te123  1  0.49502123  0.83314847  0.16046424  1
  Te  Te124  1  0.49755495  0.83356635  0.50102120  1
  Te  Te125  1  0.50019797  0.82938014  0.83807937  1
  Te  Te126  1  0.83688429  0.17347343  0.16538384  1
  Te  Te127  1  0.83375477  0.16633646  0.50418567  1
  Te  Te128  1  0.83266823  0.16637648  0.82922366  1
  Te  Te129  1  0.83697583  0.49546802  0.16740801  1
  Te  Te130  1  0.83485835  0.50112259  0.49831668  1
  Te  Te131  1  0.83535292  0.50029566  0.81783383  1
  Te  Te132  1  0.83316615  0.83378936  0.17235286  1
  Te  Te133  1  0.83372408  0.83344718  0.50050763  1
  Te  Te134  1  0.84038508  0.83337684  0.82746818  1
  Te  Te135  1  0.16904299  0.00213828  0.00170309  1
  Te  Te136  1  0.16611907  -0.00172857  0.34035224  1
  Te  Te137  1  0.16645798  -0.00123216  0.66160055  1
  Te  Te138  1  0.16495812  0.33173656  -0.00148756  1
  Te  Te139  1  0.16722734  0.34119990  0.33790684  1
  Te  Te140  1  0.16478081  0.33260313  0.66617898  1
  Te  Te141  1  0.16685377  0.67007523  -0.00009619  1
  Te  Te142  1  0.17097149  0.66071350  0.33639669  1
  Te  Te143  1  0.16770206  0.66724756  0.66719199  1
  Te  Te144  1  0.49638555  -0.00060332  -0.00099350  1
  Te  Te145  1  0.50334314  -0.00589836  0.33926808  1
  Te  Te146  1  0.49905429  -0.00057633  0.66052261  1
  Te  Te147  1  0.50141392  0.33457624  -0.00055325  1
  Te  Te148  1  0.50076261  0.33443415  0.34242030  1
  Te  Te149  1  0.50386354  0.33837238  0.66446540  1
  Te  Te150  1  0.50012023  0.66548200  -0.00450638  1
  Te  Te151  1  0.49486633  0.67306609  0.33266141  1
  Te  Te152  1  0.50056807  0.66183781  0.67105648  1
  Te  Te153  1  0.83256335  0.00808526  0.00089196  1
  Te  Te154  1  0.82935139  -0.00499908  0.33270671  1
  Te  Te155  1  0.83397452  -0.00244643  0.66734029  1
  Te  Te156  1  0.83341743  0.33053889  0.00134574  1
  Te  Te157  1  0.83127940  0.33956790  0.32475113  1
  Te  Te158  1  0.83318601  0.33305733  0.66642843  1
  Te  Te159  1  0.82690499  0.66663456  -0.00186927  1
  Te  Te160  1  0.83121277  0.66510597  0.33349029  1
  Te  Te161  1  0.82911528  0.66982949  0.66706840  1
  Te  Te162  1  0.00384560  0.17027710  -0.00373192  1
  Te  Te163  1  -0.00172949  0.16388595  0.34301412  1
  Te  Te164  1  0.00230768  0.16694078  0.66629355  1
  Te  Te165  1  0.00047365  0.49697747  0.00023879  1
  Te  Te166  1  0.00044648  0.50117346  0.33551135  1
  Te  Te167  1  -0.00215039  0.49778408  0.66322192  1
  Te  Te168  1  0.00153600  0.82663484  0.00392089  1
  Te  Te169  1  -0.00469145  0.83162479  0.33715119  1
  Te  Te170  1  0.00275789  0.83290065  0.66466178  1
  Te  Te171  1  0.32897991  0.16874403  0.00171300  1
  Te  Te172  1  0.33455184  0.16487726  0.33557188  1
  Te  Te173  1  0.32990122  0.16792457  0.65953212  1
  Te  Te174  1  0.33573226  0.49900965  0.00066025  1
  Te  Te175  1  0.33100923  0.50625871  0.33806807  1
  Te  Te176  1  0.33389126  0.49880121  0.66284771  1
  Te  Te177  1  0.33076713  0.83374319  -0.00128126  1
  Te  Te178  1  0.33520214  0.83076038  0.33454662  1
  Te  Te179  1  0.32871455  0.83176347  0.66392546  1
  Te  Te180  1  0.66768683  0.17010808  0.00025656  1
  Te  Te181  1  0.66723043  0.16345582  0.33978534  1
  Te  Te182  1  0.66494254  0.16954650  0.66297133  1
  Te  Te183  1  0.66868390  0.49815365  0.00140639  1
  Te  Te184  1  0.66774043  0.50105974  0.32814894  1
  Te  Te185  1  0.66568708  0.49945776  0.66562864  1
  Te  Te186  1  0.66750699  0.83270387  0.00062081  1
  Te  Te187  1  0.66495141  0.83267444  0.33697730  1
  Te  Te188  1  0.66691079  0.83350696  0.66100492  1
  Te  Te189  1  0.00047345  0.00556387  0.16174425  1
  Te  Te190  1  0.00627812  -0.00167709  0.49997278  1
  Te  Te191  1  0.00092695  -0.00816960  0.84470886  1
  Te  Te192  1  0.00419732  0.33300774  0.16777784  1
  Te  Te193  1  0.00159965  0.33378894  0.50217208  1
  Te  Te194  1  0.00133321  0.33291691  0.82697790  1
  Te  Te195  1  0.00002861  0.66074290  0.16043403  1
  Te  Te196  1  0.00660201  0.66611908  0.50017019  1
  Te  Te197  1  0.00528367  0.67033304  0.83782242  1
  Te  Te198  1  0.33321479  0.00030290  0.16286023  1
  Te  Te199  1  0.33196160  -0.00073270  0.49995090  1
  Te  Te200  1  0.33393331  0.00600066  0.84018577  1
  Te  Te201  1  0.32731385  0.32939481  0.16839817  1
  Te  Te202  1  0.33127833  0.33254613  0.50175314  1
  Te  Te203  1  0.33328098  0.32752195  0.82135741  1
  Te  Te204  1  0.33288569  0.67096834  0.16903277  1
  Te  Te205  1  0.33182252  0.66706388  0.50357341  1
  Te  Te206  1  0.33159721  0.66677065  0.82714266  1
  Te  Te207  1  0.66687729  0.00024068  0.17566523  1
  Te  Te208  1  0.66680709  -0.00133100  0.49715566  1
  Te  Te209  1  0.66563671  -0.00102578  0.83482691  1
  Te  Te210  1  0.66198139  0.33758213  0.16379622  1
  Te  Te211  1  0.66931770  0.33227146  0.50382781  1
  Te  Te212  1  0.66611694  0.33297061  0.83361674  1
  Te  Te213  1  0.66628035  0.65966293  0.16129200  1
  Te  Te214  1  0.66591986  0.67003221  0.50551264  1
  Te  Te215  1  0.66300973  0.66721005  0.83262528  1
