# generated using pymatgen
data_AgSbTe2
_symmetry_space_group_name_H-M   'P 1'
_cell_length_a   18.31548382
_cell_length_b   18.30818736
_cell_length_c   18.30925285
_cell_angle_alpha   90.00417432
_cell_angle_beta   89.99796988
_cell_angle_gamma   90.00138157
_symmetry_Int_Tables_number   1
_chemical_formula_structural   AgSbTe2
_chemical_formula_sum   'Ag54 Sb54 Te108'
_cell_volume   6139.51923524
_cell_formula_units_Z   54
loop_
 _symmetry_equiv_pos_site_id
 _symmetry_equiv_pos_as_xyz
  1  'x, y, z'
loop_
 _atom_site_type_symbol
 _atom_site_label
 _atom_site_symmetry_multiplicity
 _atom_site_fract_x
 _atom_site_fract_y
 _atom_site_fract_z
 _atom_site_occupancy
  Ag  Ag0  1  -0.00316083  0.49771851  0.16480150  1
  Ag  Ag1  1  0.83387154  0.67385745  0.82403147  1
  Ag  Ag2  1  0.83838374  0.33419480  0.50752143  1
  Ag  Ag3  1  0.67369682  0.66962481  0.66377616  1
  Ag  Ag4  1  0.83499458  0.49763438  -0.00108808  1
  Ag  Ag5  1  0.49903268  0.16156829  0.65962173  1
  Ag  Ag6  1  0.50089320  0.83568285  0.33019923  1
  Ag  Ag7  1  0.50265231  0.67334269  0.17113376  1
  Ag  Ag8  1  0.34122528  0.83675778  0.17177452  1
  Ag  Ag9  1  -0.00541494  0.66505263  0.66062326  1
  Ag  Ag10  1  0.83127298  0.83197852  0.33918729  1
  Ag  Ag11  1  0.16689011  0.50677342  0.67004549  1
  Ag  Ag12  1  0.66026473  0.82950034  0.16650628  1
  Ag  Ag13  1  0.83565930  0.33433067  0.82903606  1
  Ag  Ag14  1  0.50128820  0.33589481  0.16622437  1
  Ag  Ag15  1  0.67351816  0.33728109  0.00108390  1
  Ag  Ag16  1  0.83422956  0.82940300  0.66789633  1
  Ag  Ag17  1  -0.00155319  0.50387972  0.50185135  1
  Ag  Ag18  1  0.16202655  0.49950659  -0.00525599  1
  Ag  Ag19  1  0.49558589  -0.00104500  0.49759766  1
  Ag  Ag20  1  0.49588407  -0.00485350  0.17034522  1
  Ag  Ag21  1  0.16408798  -0.00470270  0.83694494  1
  Ag  Ag22  1  0.50199425  0.49866501  0.00105262  1
  Ag  Ag23  1  0.83985220  0.66685608  0.50515370  1
  Ag  Ag24  1  0.66631459  0.50588852  0.16249490  1
  Ag  Ag25  1  0.15850185  0.66740429  0.50194787  1
  Ag  Ag26  1  0.17028484  0.83001126  0.66828307  1
  Ag  Ag27  1  -0.00039376  0.16565905  0.17483176  1
  Ag  Ag28  1  0.49322576  0.83478359  0.66233777  1
  Ag  Ag29  1  0.33247959  0.50772625  0.83048594  1
  Ag  Ag30  1  0.33309047  0.83337933  0.82449528  1
  Ag  Ag31  1  0.66850127  0.67101269  0.33411556  1
  Ag  Ag32  1  0.84171392  0.16071907  0.34081198  1
  Ag  Ag33  1  0.83867850  -0.00894545  0.83192827  1
  Ag  Ag34  1  0.33206883  0.15884695  0.50069170  1
  Ag  Ag35  1  -0.00374328  0.67214652  0.34237838  1
  Ag  Ag36  1  0.33251697  0.33157060  0.66682895  1
  Ag  Ag37  1  0.49351293  0.50342471  0.66951641  1
  Ag  Ag38  1  0.15749348  0.16156286  0.33519457  1
  Ag  Ag39  1  -0.00037957  0.16881284  0.49531395  1
  Ag  Ag40  1  -0.00110251  0.00059542  0.33029200  1
  Ag  Ag41  1  -0.00610799  0.33486719  -0.00331953  1
  Ag  Ag42  1  0.83463977  0.16523336  0.66193891  1
  Ag  Ag43  1  -0.00694015  0.83543479  0.82953940  1
  Ag  Ag44  1  -0.00276873  0.33821939  0.66687626  1
  Ag  Ag45  1  0.66636985  -0.00103497  0.00013722  1
  Ag  Ag46  1  0.16778375  -0.00197055  0.16251701  1
  Ag  Ag47  1  0.33633704  0.83723784  0.50536706  1
  Ag  Ag48  1  0.33241304  -0.00177500  -0.00352541  1
  Ag  Ag49  1  0.49971659  0.15489648  0.33752048  1
  Ag  Ag50  1  0.67220190  0.83305352  0.83286816  1
  Ag  Ag51  1  0.00188853  0.00335556  0.00193748  1
  Ag  Ag52  1  0.33765872  0.67161070  0.33467384  1
  Ag  Ag53  1  0.33555451  -0.00522986  0.66838648  1
  Sb  Sb54  1  0.67098945  0.50327269  0.49902782  1
  Sb  Sb55  1  0.16375642  0.49950336  0.33473620  1
  Sb  Sb56  1  0.16756737  0.33076161  0.16573469  1
  Sb  Sb57  1  0.00275863  0.83159936  0.50438356  1
  Sb  Sb58  1  0.66926018  0.16662730  0.49982812  1
  Sb  Sb59  1  0.16527119  0.16419358  0.66147808  1
  Sb  Sb60  1  0.16753483  0.83334965  -0.00537002  1
  Sb  Sb61  1  0.16778280  0.83602761  0.33805976  1
  Sb  Sb62  1  0.50406782  0.33573104  0.83555173  1
  Sb  Sb63  1  0.50314085  0.32815769  0.49908652  1
  Sb  Sb64  1  0.16063766  0.33587288  0.50281066  1
  Sb  Sb65  1  0.49998393  0.16713255  0.00188860  1
  Sb  Sb66  1  -0.00122357  0.66542856  -0.00134677  1
  Sb  Sb67  1  0.66349154  -0.00774553  0.67160089  1
  Sb  Sb68  1  0.33332419  0.16244783  0.82487807  1
  Sb  Sb69  1  0.49934495  0.67183349  0.49779341  1
  Sb  Sb70  1  -0.00242742  0.32986554  0.33502989  1
  Sb  Sb71  1  0.66911011  0.16480075  0.16783324  1
  Sb  Sb72  1  0.33550607  0.50474779  0.16113219  1
  Sb  Sb73  1  0.66295140  0.83199552  0.50091007  1
  Sb  Sb74  1  0.66802555  -0.00658482  0.32809837  1
  Sb  Sb75  1  0.33201036  0.15963012  0.17376328  1
  Sb  Sb76  1  0.66625330  0.50566322  0.83707729  1
  Sb  Sb77  1  0.33346105  -0.00467566  0.33497973  1
  Sb  Sb78  1  0.00215633  -0.00196283  0.66652607  1
  Sb  Sb79  1  0.33206426  0.67145167  0.66269814  1
  Sb  Sb80  1  0.83536942  0.16872447  -0.00169665  1
  Sb  Sb81  1  0.50025256  0.83200887  0.00391650  1
  Sb  Sb82  1  0.82972560  0.66772126  0.16959026  1
  Sb  Sb83  1  0.83527635  0.50386989  0.33121386  1
  Sb  Sb84  1  0.32840448  0.50238884  0.50701079  1
  Sb  Sb85  1  0.16421576  0.16496556  0.00442040  1
  Sb  Sb86  1  0.83467270  -0.00127375  0.16294381  1
  Sb  Sb87  1  -0.00218893  0.16211142  0.82991947  1
  Sb  Sb88  1  0.16289818  0.33171023  0.83160517  1
  Sb  Sb89  1  0.83611898  0.50360797  0.66998971  1
  Sb  Sb90  1  0.83169308  -0.00227060  0.50332860  1
  Sb  Sb91  1  0.00145609  0.50365875  0.83224622  1
  Sb  Sb92  1  0.83202115  0.83159703  -0.00483838  1
  Sb  Sb93  1  0.33409946  0.67122947  0.00262170  1
  Sb  Sb94  1  0.16887063  0.67079791  0.17116280  1
  Sb  Sb95  1  0.50360192  0.66838291  0.83331129  1
  Sb  Sb96  1  0.66770932  0.33677873  0.32830421  1
  Sb  Sb97  1  0.83251858  0.33392597  0.16551105  1
  Sb  Sb98  1  0.33288946  0.33178118  -0.00523022  1
  Sb  Sb99  1  0.50079215  0.50552880  0.33204944  1
  Sb  Sb100  1  0.33530679  0.33409719  0.33866084  1
  Sb  Sb101  1  0.66878913  0.16059486  0.83243168  1
  Sb  Sb102  1  0.66929711  0.33791346  0.67206707  1
  Sb  Sb103  1  -0.00061618  0.83466441  0.16593189  1
  Sb  Sb104  1  0.49812558  -0.00366386  0.83315003  1
  Sb  Sb105  1  0.66681350  0.66608688  0.00178174  1
  Sb  Sb106  1  0.16239606  0.67122585  0.82630209  1
  Sb  Sb107  1  0.16973676  -0.00353022  0.50046688  1
  Te  Te108  1  0.16261538  0.16239681  0.17203914  1
  Te  Te109  1  0.16609194  0.16707084  0.49540439  1
  Te  Te110  1  0.16601210  0.15682850  0.83344036  1
  Te  Te111  1  0.16374101  0.50051453  0.16408924  1
  Te  Te112  1  0.16064975  0.50446111  0.50373664  1
  Te  Te113  1  0.17064547  0.49966829  0.83152794  1
  Te  Te114  1  0.17034333  0.83863711  0.16550675  1
  Te  Te115  1  0.17223789  0.82916752  0.50577160  1
  Te  Te116  1  0.17071330  0.83624201  0.82914280  1
  Te  Te117  1  0.50038265  0.16296634  0.17036581  1
  Te  Te118  1  0.49909970  0.16398437  0.50040013  1
  Te  Te119  1  0.50092760  0.16698314  0.82410220  1
  Te  Te120  1  0.50085115  0.49937615  0.16596753  1
  Te  Te121  1  0.49981692  0.49866265  0.50526183  1
  Te  Te122  1  0.49577158  0.50148332  0.83195776  1
  Te  Te123  1  0.50026324  0.83375525  0.16653805  1
  Te  Te124  1  0.49624235  0.83607991  0.50084311  1
  Te  Te125  1  0.49771456  0.83273760  0.82923410  1
  Te  Te126  1  0.83859177  0.16639556  0.17341552  1
  Te  Te127  1  0.83587519  0.16470307  0.50184870  1
  Te  Te128  1  0.83352716  0.16930793  0.82689366  1
  Te  Te129  1  0.83444805  0.50029661  0.16196762  1
  Te  Te130  1  0.83844516  0.50138350  0.49972254  1
  Te  Te131  1  0.83392549  0.49764602  0.83855734  1
  Te  Te132  1  0.82818506  0.83335729  0.17275674  1
  Te  Te133  1  0.83319922  0.82997934  0.50051148  1
  Te  Te134  1  0.83273494  0.83272318  0.83244366  1
  Te  Te135  1  0.16450988  -0.00065604  0.00079409  1
  Te  Te136  1  0.16246866  0.00246436  0.33027368  1
  Te  Te137  1  0.17100479  -0.00388343  0.66920711  1
  Te  Te138  1  0.16133384  0.33890248  -0.00103874  1
  Te  Te139  1  0.16886316  0.32439958  0.33390753  1
  Te  Te140  1  0.16423539  0.33700393  0.66733382  1
  Te  Te141  1  0.16647234  0.65822476  0.00109141  1
  Te  Te142  1  0.16114915  0.66706685  0.33854160  1
  Te  Te143  1  0.16410391  0.66765460  0.66339147  1
  Te  Te144  1  0.49957835  0.00054024  0.00422723  1
  Te  Te145  1  0.50064325  -0.00426122  0.33225212  1
  Te  Te146  1  0.49726643  -0.00199954  0.66656379  1
  Te  Te147  1  0.50104531  0.33585535  0.00374594  1
  Te  Te148  1  0.50104487  0.33129171  0.32843464  1
  Te  Te149  1  0.50041045  0.33406161  0.66666478  1
  Te  Te150  1  0.49966586  0.65927342  0.00708283  1
  Te  Te151  1  0.50145488  0.67129672  0.33155652  1
  Te  Te152  1  0.50334108  0.66875830  0.66538034  1
  Te  Te153  1  0.83535299  0.00080779  -0.00613051  1
  Te  Te154  1  0.83595490  -0.00162333  0.33455715  1
  Te  Te155  1  0.83219782  -0.00127829  0.67088033  1
  Te  Te156  1  0.83447274  0.33472349  -0.00110345  1
  Te  Te157  1  0.83190641  0.32766325  0.33858509  1
  Te  Te158  1  0.83483000  0.33494887  0.66765262  1
  Te  Te159  1  0.83359562  0.66035179  -0.00602331  1
  Te  Te160  1  0.83492719  0.67009864  0.33584796  1
  Te  Te161  1  0.83455919  0.66638650  0.66604473  1
  Te  Te162  1  -0.00033472  0.16618700  0.00511468  1
  Te  Te163  1  -0.00179246  0.16667101  0.33369261  1
  Te  Te164  1  -0.00305886  0.16955048  0.66191746  1
  Te  Te165  1  -0.00036148  0.49858214  -0.00016521  1
  Te  Te166  1  0.00036568  0.50329436  0.33322535  1
  Te  Te167  1  0.00212949  0.49989019  0.66534426  1
  Te  Te168  1  0.00007180  0.83855959  -0.00462724  1
  Te  Te169  1  -0.00201395  0.83447054  0.33358817  1
  Te  Te170  1  -0.00222069  0.83152709  0.66919881  1
  Te  Te171  1  0.33262668  0.15987808  0.00001165  1
  Te  Te172  1  0.34048419  0.16770539  0.34092593  1
  Te  Te173  1  0.33429340  0.16655126  0.66056577  1
  Te  Te174  1  0.33529416  0.49838893  -0.00593570  1
  Te  Te175  1  0.33220360  0.50718008  0.33376650  1
  Te  Te176  1  0.33268568  0.50070329  0.66998316  1
  Te  Te177  1  0.33372288  0.83908903  -0.00111581  1
  Te  Te178  1  0.33444308  0.83066724  0.33283369  1
  Te  Te179  1  0.33424220  0.83354069  0.66541992  1
  Te  Te180  1  0.66692418  0.16619489  0.00045569  1
  Te  Te181  1  0.66147483  0.16681535  0.33274069  1
  Te  Te182  1  0.66765401  0.16799685  0.66659414  1
  Te  Te183  1  0.66459300  0.49897051  0.00266516  1
  Te  Te184  1  0.66708040  0.50717324  0.32574041  1
  Te  Te185  1  0.66019690  0.50611870  0.66771694  1
  Te  Te186  1  0.66657473  0.83676015  0.00012241  1
  Te  Te187  1  0.66605307  0.82988810  0.33199649  1
  Te  Te188  1  0.67074146  0.82921547  0.66837787  1
  Te  Te189  1  0.00157317  0.00035176  0.16616395  1
  Te  Te190  1  0.00008930  0.00474713  0.49475913  1
  Te  Te191  1  -0.00021397  -0.00344477  0.83371877  1
  Te  Te192  1  0.00099388  0.33603855  0.16371159  1
  Te  Te193  1  -0.00346726  0.33261177  0.50176083  1
  Te  Te194  1  -0.00392254  0.33163040  0.83332883  1
  Te  Te195  1  0.00022649  0.66348811  0.16943355  1
  Te  Te196  1  -0.00035451  0.66816706  0.50070065  1
  Te  Te197  1  -0.00436759  0.67294315  0.83014251  1
  Te  Te198  1  0.33315302  -0.00327413  0.16701969  1
  Te  Te199  1  0.33564755  -0.00109183  0.50161238  1
  Te  Te200  1  0.33135488  -0.00314201  0.83229009  1
  Te  Te201  1  0.33916240  0.33245554  0.16545703  1
  Te  Te202  1  0.33411092  0.33140487  0.50716796  1
  Te  Te203  1  0.33338572  0.33456446  0.82621712  1
  Te  Te204  1  0.33695506  0.67302865  0.17106736  1
  Te  Te205  1  0.33178105  0.66970909  0.49502659  1
  Te  Te206  1  0.33249991  0.66950726  0.83412375  1
  Te  Te207  1  0.66400525  -0.00381115  0.16089812  1
  Te  Te208  1  0.65641497  -0.00011885  0.50033333  1
  Te  Te209  1  0.67094015  -0.00622042  0.83910721  1
  Te  Te210  1  0.66306297  0.33664298  0.16144496  1
  Te  Te211  1  0.67650633  0.33580406  0.50008918  1
  Te  Te212  1  0.67314123  0.33389146  0.84039786  1
  Te  Te213  1  0.66414385  0.66778267  0.16866314  1
  Te  Te214  1  0.67285758  0.66586886  0.49873254  1
  Te  Te215  1  0.67107563  0.67285767  0.83001895  1
