# generated using pymatgen
data_AgSbTe2
_symmetry_space_group_name_H-M   'P 1'
_cell_length_a   18.30744259
_cell_length_b   18.31499886
_cell_length_c   18.31317325
_cell_angle_alpha   89.99985997
_cell_angle_beta   90.00058010
_cell_angle_gamma   90.00174091
_symmetry_Int_Tables_number   1
_chemical_formula_structural   AgSbTe2
_chemical_formula_sum   'Ag54 Sb54 Te108'
_cell_volume   6140.42145966
_cell_formula_units_Z   54
loop_
 _symmetry_equiv_pos_site_id
 _symmetry_equiv_pos_as_xyz
  1  'x, y, z'
loop_
 _atom_site_type_symbol
 _atom_site_label
 _atom_site_symmetry_multiplicity
 _atom_site_fract_x
 _atom_site_fract_y
 _atom_site_fract_z
 _atom_site_occupancy
  Ag  Ag0  1  0.67185611  0.33604980  0.33757879  1
  Ag  Ag1  1  0.67028474  0.00394669  0.67168216  1
  Ag  Ag2  1  0.16067359  0.16781873  0.32944800  1
  Ag  Ag3  1  0.32483939  0.66513137  0.67183025  1
  Ag  Ag4  1  0.83628405  0.50463405  0.66960411  1
  Ag  Ag5  1  0.00103120  0.32712006  0.33102474  1
  Ag  Ag6  1  0.83058742  0.16400522  0.66134976  1
  Ag  Ag7  1  0.66966061  0.16842498  0.50174863  1
  Ag  Ag8  1  0.50490834  0.50382241  0.00327838  1
  Ag  Ag9  1  0.66489404  0.66079731  0.00075122  1
  Ag  Ag10  1  -0.00075639  0.00922306  0.33128352  1
  Ag  Ag11  1  0.00510603  0.33894077  0.66641830  1
  Ag  Ag12  1  0.82980653  0.83235950  0.66467098  1
  Ag  Ag13  1  0.00222735  0.66174960  -0.00665080  1
  Ag  Ag14  1  0.16611597  0.49974992  0.66630136  1
  Ag  Ag15  1  0.00946013  0.16922186  0.17105412  1
  Ag  Ag16  1  0.67016235  0.33016091  0.66370997  1
  Ag  Ag17  1  0.83599851  0.66961788  0.50979488  1
  Ag  Ag18  1  0.49841020  0.83580474  -0.00413968  1
  Ag  Ag19  1  0.00186942  0.33784542  0.00026564  1
  Ag  Ag20  1  0.66032705  0.50087317  0.16143247  1
  Ag  Ag21  1  0.66779562  0.50111366  0.83734075  1
  Ag  Ag22  1  0.16788404  0.33963340  0.82357466  1
  Ag  Ag23  1  0.33513181  0.83322740  0.83355229  1
  Ag  Ag24  1  0.50208904  0.49971367  0.32426879  1
  Ag  Ag25  1  0.33300858  0.66660714  -0.00336411  1
  Ag  Ag26  1  0.16919608  0.66481054  0.16612909  1
  Ag  Ag27  1  0.32476975  0.33392058  0.66589470  1
  Ag  Ag28  1  0.50379272  -0.00136171  0.83760564  1
  Ag  Ag29  1  0.00164803  0.65978439  0.67168643  1
  Ag  Ag30  1  0.16614984  0.65971984  0.50790342  1
  Ag  Ag31  1  0.67027106  0.66010961  0.32898619  1
  Ag  Ag32  1  0.16660714  0.66166369  0.82914275  1
  Ag  Ag33  1  0.49412330  0.00120057  0.15811669  1
  Ag  Ag34  1  0.33290654  0.16237763  0.82944528  1
  Ag  Ag35  1  0.66166340  -0.00281941  -0.00635819  1
  Ag  Ag36  1  0.33680754  0.00134230  0.66944026  1
  Ag  Ag37  1  0.16866286  0.33670077  0.50342622  1
  Ag  Ag38  1  0.83157210  0.00055883  0.50661355  1
  Ag  Ag39  1  0.83706110  0.66786797  0.82718649  1
  Ag  Ag40  1  0.83743506  0.83659644  0.33923722  1
  Ag  Ag41  1  0.49989300  0.83619923  0.67411371  1
  Ag  Ag42  1  0.33205641  0.83351561  0.16143237  1
  Ag  Ag43  1  0.32778442  0.16518022  0.16617892  1
  Ag  Ag44  1  0.33342429  0.17104963  0.50665085  1
  Ag  Ag45  1  0.16393227  0.83532707  0.33021498  1
  Ag  Ag46  1  0.16600723  0.33053305  0.16998390  1
  Ag  Ag47  1  0.82510333  -0.00476928  0.82314547  1
  Ag  Ag48  1  0.84054841  0.16312459  0.33948118  1
  Ag  Ag49  1  0.33475458  0.50109209  0.16701365  1
  Ag  Ag50  1  0.17305480  0.00591721  0.17000359  1
  Ag  Ag51  1  0.33065498  0.49765680  0.50479084  1
  Ag  Ag52  1  0.49927965  0.15792271  0.00061735  1
  Ag  Ag53  1  0.82615913  0.50507446  -0.00631324  1
  Sb  Sb54  1  0.66166870  0.82926783  0.16533761  1
  Sb  Sb55  1  0.00435934  0.49649144  0.16464258  1
  Sb  Sb56  1  0.00721974  0.83561013  0.16838071  1
  Sb  Sb57  1  0.66444796  0.16701379  0.82869400  1
  Sb  Sb58  1  0.00449761  0.16858323  0.83588627  1
  Sb  Sb59  1  0.49964741  0.83045010  0.33001725  1
  Sb  Sb60  1  0.66961939  0.33809429  -0.00051126  1
  Sb  Sb61  1  -0.00101810  0.83204371  0.50031127  1
  Sb  Sb62  1  0.82814794  0.82798260  -0.00276017  1
  Sb  Sb63  1  0.66456259  0.17020559  0.16972293  1
  Sb  Sb64  1  0.83637207  0.66522254  0.16430411  1
  Sb  Sb65  1  0.49403093  0.66657505  0.16261640  1
  Sb  Sb66  1  -0.00355261  0.00166277  0.66309128  1
  Sb  Sb67  1  0.49435391  0.33371895  0.16618194  1
  Sb  Sb68  1  0.82845286  0.50015475  0.33607295  1
  Sb  Sb69  1  0.49919465  0.66515473  0.50054953  1
  Sb  Sb70  1  -0.00470187  0.50129790  0.83246649  1
  Sb  Sb71  1  0.32938142  0.33295288  0.33687715  1
  Sb  Sb72  1  -0.00048965  0.16869929  0.49454458  1
  Sb  Sb73  1  0.17040474  0.49836441  0.33629703  1
  Sb  Sb74  1  0.83769419  0.33300428  0.50264277  1
  Sb  Sb75  1  0.16767063  0.50134629  -0.00398039  1
  Sb  Sb76  1  0.17357248  0.82868874  0.00464467  1
  Sb  Sb77  1  0.49952777  0.16239961  0.67100170  1
  Sb  Sb78  1  0.66357310  0.49581824  0.50109898  1
  Sb  Sb79  1  0.00499385  0.49943984  0.50268632  1
  Sb  Sb80  1  0.49857566  0.67178309  0.83561495  1
  Sb  Sb81  1  0.83699524  0.33607380  0.82928922  1
  Sb  Sb82  1  0.67087021  0.66569172  0.66901856  1
  Sb  Sb83  1  0.83015526  0.16901108  -0.00134195  1
  Sb  Sb84  1  0.16667549  0.82566850  0.66376430  1
  Sb  Sb85  1  0.17122008  -0.00082690  0.83637463  1
  Sb  Sb86  1  0.49552199  0.32925712  0.83344852  1
  Sb  Sb87  1  0.16443776  0.00195163  0.49620784  1
  Sb  Sb88  1  0.49956585  0.16994720  0.32931828  1
  Sb  Sb89  1  0.83202177  -0.00027035  0.16814136  1
  Sb  Sb90  1  0.33684362  0.50220713  0.83338788  1
  Sb  Sb91  1  0.16589477  0.17329226  0.66151086  1
  Sb  Sb92  1  0.33370138  0.66467520  0.33247387  1
  Sb  Sb93  1  0.34057038  -0.00373338  -0.00129168  1
  Sb  Sb94  1  0.32896784  0.33674444  -0.00233078  1
  Sb  Sb95  1  0.67196646  0.00169346  0.33455620  1
  Sb  Sb96  1  0.33151209  0.83256968  0.50282564  1
  Sb  Sb97  1  0.66250851  0.83206103  0.83295448  1
  Sb  Sb98  1  0.83857957  0.33474808  0.16779987  1
  Sb  Sb99  1  0.50321697  0.00127190  0.50306003  1
  Sb  Sb100  1  0.49498389  0.33355821  0.50041753  1
  Sb  Sb101  1  0.49885883  0.50380620  0.66993340  1
  Sb  Sb102  1  0.00336638  0.83053161  0.83337061  1
  Sb  Sb103  1  -0.00178862  0.66511950  0.33453555  1
  Sb  Sb104  1  0.67045587  0.83564402  0.50119103  1
  Sb  Sb105  1  0.17183155  0.16795615  0.00628120  1
  Sb  Sb106  1  0.32900154  0.00159501  0.33249178  1
  Sb  Sb107  1  -0.00522467  0.00026908  0.00472808  1
  Te  Te108  1  0.16811724  0.16753876  0.16823683  1
  Te  Te109  1  0.17179298  0.16904261  0.49402751  1
  Te  Te110  1  0.17287390  0.16780740  0.83438601  1
  Te  Te111  1  0.17151782  0.50059787  0.16609023  1
  Te  Te112  1  0.17133604  0.50085586  0.50321451  1
  Te  Te113  1  0.16964598  0.50112530  0.82802492  1
  Te  Te114  1  0.17215419  0.83133732  0.17019182  1
  Te  Te115  1  0.16669075  0.82984923  0.49167560  1
  Te  Te116  1  0.17453819  0.82985998  0.83297836  1
  Te  Te117  1  0.49668363  0.16372803  0.16207443  1
  Te  Te118  1  0.49548725  0.16656281  0.49873644  1
  Te  Te119  1  0.49460360  0.16160662  0.83861369  1
  Te  Te120  1  0.49798990  0.50000146  0.16512142  1
  Te  Te121  1  0.49106719  0.50022603  0.49764243  1
  Te  Te122  1  0.50659116  0.49963856  0.83888598  1
  Te  Te123  1  0.49403516  0.83800839  0.16350162  1
  Te  Te124  1  0.50061103  0.83366484  0.50472580  1
  Te  Te125  1  0.49596537  0.83772696  0.83383136  1
  Te  Te126  1  0.83442881  0.16626701  0.17017093  1
  Te  Te127  1  0.83198050  0.16740534  0.50068721  1
  Te  Te128  1  0.83423861  0.16254988  0.82916834  1
  Te  Te129  1  0.82782081  0.50045213  0.16348346  1
  Te  Te130  1  0.83180803  0.50512893  0.50555098  1
  Te  Te131  1  0.82900829  0.50216775  0.83138871  1
  Te  Te132  1  0.83340613  0.83358466  0.17307086  1
  Te  Te133  1  0.83317756  0.83207606  0.50091599  1
  Te  Te134  1  0.83364581  0.83221102  0.82984935  1
  Te  Te135  1  0.16314788  -0.00113995  0.00685209  1
  Te  Te136  1  0.16282442  0.00038265  0.33076265  1
  Te  Te137  1  0.16795540  -0.00085734  0.66657518  1
  Te  Te138  1  0.16095494  0.33510475  0.00242843  1
  Te  Te139  1  0.16406154  0.33180288  0.33333036  1
  Te  Te140  1  0.16640527  0.33545926  0.66572573  1
  Te  Te141  1  0.16741100  0.66561393  -0.00179168  1
  Te  Te142  1  0.16488367  0.66807835  0.33234097  1
  Te  Te143  1  0.16519132  0.66439355  0.66674406  1
  Te  Te144  1  0.50172678  -0.00136358  -0.00106405  1
  Te  Te145  1  0.50166629  -0.00101951  0.32816482  1
  Te  Te146  1  0.49835738  -0.00348097  0.66898244  1
  Te  Te147  1  0.50009521  0.33751679  0.00008709  1
  Te  Te148  1  0.50792506  0.33818534  0.33298068  1
  Te  Te149  1  0.50324162  0.33336238  0.66764428  1
  Te  Te150  1  0.50132986  0.66580587  -0.00019724  1
  Te  Te151  1  0.50787714  0.66265979  0.33270287  1
  Te  Te152  1  0.49554020  0.67329403  0.66758810  1
  Te  Te153  1  0.82521554  -0.00123676  -0.00436189  1
  Te  Te154  1  0.83636713  0.00071163  0.33484248  1
  Te  Te155  1  0.83429558  0.00020558  0.66596410  1
  Te  Te156  1  0.84062217  0.33771700  -0.00175393  1
  Te  Te157  1  0.83370969  0.33021457  0.33543520  1
  Te  Te158  1  0.83293550  0.33461326  0.66617380  1
  Te  Te159  1  0.83171846  0.66427502  -0.00339158  1
  Te  Te160  1  0.83094595  0.66872292  0.33557322  1
  Te  Te161  1  0.83290545  0.66630638  0.66774817  1
  Te  Te162  1  -0.00195590  0.17021708  0.00632290  1
  Te  Te163  1  -0.00034869  0.16824652  0.33180111  1
  Te  Te164  1  -0.00481643  0.17090332  0.66724486  1
  Te  Te165  1  -0.00465011  0.50152683  0.00010297  1
  Te  Te166  1  -0.00178517  0.49045670  0.33254464  1
  Te  Te167  1  -0.00025794  0.50006593  0.66696917  1
  Te  Te168  1  -0.00207667  0.82569208  0.00108230  1
  Te  Te169  1  -0.00097714  0.83386786  0.33274559  1
  Te  Te170  1  -0.00608755  0.82893153  0.66751581  1
  Te  Te171  1  0.33814459  0.16764821  0.00142531  1
  Te  Te172  1  0.33111879  0.16736301  0.32969735  1
  Te  Te173  1  0.33288399  0.16820839  0.66687995  1
  Te  Te174  1  0.33686898  0.50499149  0.00349100  1
  Te  Te175  1  0.33945282  0.49895339  0.32933569  1
  Te  Te176  1  0.33309795  0.50017707  0.66619707  1
  Te  Te177  1  0.33780383  0.82918513  0.00046200  1
  Te  Te178  1  0.33015569  0.83342690  0.32849198  1
  Te  Te179  1  0.33278665  0.83235602  0.66787731  1
  Te  Te180  1  0.66151643  0.16559128  0.00034990  1
  Te  Te181  1  0.66829389  0.17084199  0.33812321  1
  Te  Te182  1  0.66754275  0.16627618  0.66391318  1
  Te  Te183  1  0.66694941  0.50036367  0.00072908  1
  Te  Te184  1  0.66328165  0.49871446  0.33349956  1
  Te  Te185  1  0.66758478  0.49695384  0.66886703  1
  Te  Te186  1  0.66031478  0.83161969  0.00002019  1
  Te  Te187  1  0.67031204  0.82818957  0.33309121  1
  Te  Te188  1  0.66793594  0.83768063  0.66665347  1
  Te  Te189  1  0.00313775  0.00486931  0.17040696  1
  Te  Te190  1  -0.00659525  0.00102550  0.49328374  1
  Te  Te191  1  -0.00400209  -0.00031222  0.83522177  1
  Te  Te192  1  0.00495066  0.33050533  0.16727085  1
  Te  Te193  1  0.00756118  0.33338623  0.50414515  1
  Te  Te194  1  0.00777052  0.33325099  0.83172381  1
  Te  Te195  1  0.00735453  0.66602548  0.16401470  1
  Te  Te196  1  0.00087677  0.66530635  0.50357111  1
  Te  Te197  1  0.00128557  0.66699246  0.83273972  1
  Te  Te198  1  0.33296340  0.00175705  0.16586715  1
  Te  Te199  1  0.33363597  0.00366017  0.50653179  1
  Te  Te200  1  0.33479792  0.00003657  0.83071550  1
  Te  Te201  1  0.32709548  0.33331489  0.16651504  1
  Te  Te202  1  0.32915008  0.33285833  0.50335400  1
  Te  Te203  1  0.32825478  0.33086034  0.82887317  1
  Te  Te204  1  0.32905079  0.66520981  0.16565583  1
  Te  Te205  1  0.33006932  0.66425606  0.50245069  1
  Te  Te206  1  0.33205211  0.66895047  0.83360833  1
  Te  Te207  1  0.66167124  0.00062088  0.16282952  1
  Te  Te208  1  0.67128752  0.00565083  0.50368303  1
  Te  Te209  1  0.66583059  0.00073597  0.83190865  1
  Te  Te210  1  0.66628290  0.33937579  0.16951306  1
  Te  Te211  1  0.66640130  0.32910113  0.50189256  1
  Te  Te212  1  0.66683449  0.33685157  0.82898875  1
  Te  Te213  1  0.66789442  0.66201317  0.16486521  1
  Te  Te214  1  0.67067024  0.66503702  0.49781116  1
  Te  Te215  1  0.67021054  0.66343548  0.83666732  1
