# generated using pymatgen
data_AgSbTe2
_symmetry_space_group_name_H-M   'P 1'
_cell_length_a   18.35296762
_cell_length_b   18.34341568
_cell_length_c   18.34136320
_cell_angle_alpha   90.00337557
_cell_angle_beta   90.00105467
_cell_angle_gamma   89.99882896
_symmetry_Int_Tables_number   1
_chemical_formula_structural   AgSbTe2
_chemical_formula_sum   'Ag54 Sb54 Te108'
_cell_volume   6174.73204614
_cell_formula_units_Z   54
loop_
 _symmetry_equiv_pos_site_id
 _symmetry_equiv_pos_as_xyz
  1  'x, y, z'
loop_
 _atom_site_type_symbol
 _atom_site_label
 _atom_site_symmetry_multiplicity
 _atom_site_fract_x
 _atom_site_fract_y
 _atom_site_fract_z
 _atom_site_occupancy
  Ag  Ag0  1  0.00089815  0.49586000  0.50003164  1
  Ag  Ag1  1  0.84535642  -0.00399425  0.16398514  1
  Ag  Ag2  1  0.83292567  0.65882808  0.50063933  1
  Ag  Ag3  1  0.16977364  0.01354147  0.49722024  1
  Ag  Ag4  1  0.32927446  0.00382907  0.66457893  1
  Ag  Ag5  1  0.16936301  0.16669494  0.65702695  1
  Ag  Ag6  1  0.66460883  0.66658830  -0.00768948  1
  Ag  Ag7  1  0.00929313  0.33309835  0.32909457  1
  Ag  Ag8  1  0.32480104  0.33580811  -0.00573831  1
  Ag  Ag9  1  0.67631496  0.83411274  0.16221137  1
  Ag  Ag10  1  0.48791134  0.65888101  0.83154750  1
  Ag  Ag11  1  0.83991252  0.49861342  -0.00657051  1
  Ag  Ag12  1  -0.00341365  0.84388196  0.16236292  1
  Ag  Ag13  1  0.16329857  0.00850070  0.16274846  1
  Ag  Ag14  1  0.83736672  0.83086856  0.00377769  1
  Ag  Ag15  1  0.16299385  0.48877577  0.33519038  1
  Ag  Ag16  1  0.49043089  0.33079355  0.16120990  1
  Ag  Ag17  1  0.83811462  0.33940400  0.83790229  1
  Ag  Ag18  1  0.16862785  0.66176065  0.50685828  1
  Ag  Ag19  1  0.83478041  0.83085339  0.32212737  1
  Ag  Ag20  1  0.66018368  0.17541583  0.83038341  1
  Ag  Ag21  1  0.01555978  0.17578695  0.49351594  1
  Ag  Ag22  1  0.16953965  0.17742906  0.34406217  1
  Ag  Ag23  1  0.32724042  0.16442598  0.49886480  1
  Ag  Ag24  1  0.17554360  0.65535374  0.83337692  1
  Ag  Ag25  1  0.00838789  0.33218908  0.00156932  1
  Ag  Ag26  1  0.84130113  0.50058842  0.34184362  1
  Ag  Ag27  1  0.00255687  0.16523545  0.16644537  1
  Ag  Ag28  1  0.16538975  0.32621852  0.48654563  1
  Ag  Ag29  1  0.16360077  0.49503423  -0.00839323  1
  Ag  Ag30  1  0.48695167  0.00792705  0.49770645  1
  Ag  Ag31  1  0.65978086  0.66238462  0.67085723  1
  Ag  Ag32  1  0.67051694  0.49724629  0.83099894  1
  Ag  Ag33  1  0.67751891  0.50168827  0.50572956  1
  Ag  Ag34  1  0.00255821  0.00729072  0.00429925  1
  Ag  Ag35  1  0.48829554  0.33879175  0.83916344  1
  Ag  Ag36  1  0.83616474  0.17342276  -0.00215588  1
  Ag  Ag37  1  0.33445244  0.66810301  0.67805362  1
  Ag  Ag38  1  0.48501854  0.16866338  0.33654683  1
  Ag  Ag39  1  0.33036445  0.81806317  0.83614021  1
  Ag  Ag40  1  0.16603882  0.82959724  -0.00166587  1
  Ag  Ag41  1  0.33221630  0.66091070  -0.00843461  1
  Ag  Ag42  1  0.16685795  0.32896392  0.17257417  1
  Ag  Ag43  1  0.32896353  0.01119810  0.34261924  1
  Ag  Ag44  1  0.49825056  0.66713498  0.50714394  1
  Ag  Ag45  1  0.66468974  0.17136792  0.50289339  1
  Ag  Ag46  1  0.32136579  0.32853960  0.33088474  1
  Ag  Ag47  1  0.32786911  0.17228816  0.83073293  1
  Ag  Ag48  1  0.83196271  0.50107096  0.66860103  1
  Ag  Ag49  1  0.49022063  0.83022139  -0.00061498  1
  Ag  Ag50  1  0.17015190  0.00651285  0.83866807  1
  Ag  Ag51  1  0.00277970  0.49700240  0.83683647  1
  Ag  Ag52  1  0.32265802  0.50282517  0.83496089  1
  Ag  Ag53  1  0.17086290  0.33543264  0.83909210  1
  Sb  Sb54  1  0.66228493  0.82732824  0.84025338  1
  Sb  Sb55  1  0.50273516  0.16504233  0.00098100  1
  Sb  Sb56  1  0.49637589  0.49425987  0.33626514  1
  Sb  Sb57  1  0.00120584  0.49604173  0.16589575  1
  Sb  Sb58  1  0.66461627  0.00132469  0.33410213  1
  Sb  Sb59  1  0.50304607  0.50151508  0.66906730  1
  Sb  Sb60  1  0.83170756  0.82625438  0.67051004  1
  Sb  Sb61  1  0.66813243  0.33350519  0.33415295  1
  Sb  Sb62  1  0.49541516  0.00389477  0.16960561  1
  Sb  Sb63  1  0.00692566  0.82848138  0.84142816  1
  Sb  Sb64  1  0.00706093  0.00694091  0.32662741  1
  Sb  Sb65  1  0.83846828  0.33026901  0.16180004  1
  Sb  Sb66  1  0.00366827  0.66419872  0.66700091  1
  Sb  Sb67  1  0.32520276  0.00328963  -0.00388433  1
  Sb  Sb68  1  0.33095064  0.66326730  0.33657492  1
  Sb  Sb69  1  0.66668592  0.82903165  0.49623950  1
  Sb  Sb70  1  0.16893763  0.83613001  0.67357233  1
  Sb  Sb71  1  0.66735847  0.33886725  0.66860835  1
  Sb  Sb72  1  0.66962099  0.50278045  0.16337007  1
  Sb  Sb73  1  0.32796605  0.49707486  0.50611029  1
  Sb  Sb74  1  0.66759927  0.66491735  0.33605383  1
  Sb  Sb75  1  0.33080002  0.49539661  0.16026707  1
  Sb  Sb76  1  0.83978488  0.00459756  0.84030317  1
  Sb  Sb77  1  0.49398561  0.33215730  0.50073830  1
  Sb  Sb78  1  0.33047649  0.33332523  0.67124745  1
  Sb  Sb79  1  0.83903592  0.16904501  0.33130262  1
  Sb  Sb80  1  0.33217008  0.83840756  0.50470021  1
  Sb  Sb81  1  -0.00004393  0.65963185  0.33452883  1
  Sb  Sb82  1  0.83781404  -0.00120798  0.49440114  1
  Sb  Sb83  1  0.66079682  -0.00246112  0.66667989  1
  Sb  Sb84  1  0.16680240  0.66398230  0.16223213  1
  Sb  Sb85  1  0.50187790  0.83691181  0.32939958  1
  Sb  Sb86  1  0.84024284  0.33824530  0.50218024  1
  Sb  Sb87  1  0.49750380  0.83077604  0.67200147  1
  Sb  Sb88  1  0.00545551  0.17414397  0.83607631  1
  Sb  Sb89  1  0.67282886  -0.00424831  -0.00129914  1
  Sb  Sb90  1  0.16327906  0.49638139  0.66889553  1
  Sb  Sb91  1  0.50091866  0.66451314  0.16210097  1
  Sb  Sb92  1  0.49751631  0.50264546  -0.00425874  1
  Sb  Sb93  1  0.83314804  0.65970793  0.83225522  1
  Sb  Sb94  1  0.16315599  0.83518750  0.32770884  1
  Sb  Sb95  1  0.66699944  0.33863695  -0.00317954  1
  Sb  Sb96  1  0.00201372  0.66298962  -0.00069379  1
  Sb  Sb97  1  0.49318986  0.16574385  0.66332391  1
  Sb  Sb98  1  0.83303278  0.67160121  0.16730732  1
  Sb  Sb99  1  0.32992375  0.83528001  0.15952698  1
  Sb  Sb100  1  0.00308637  0.33492103  0.66819001  1
  Sb  Sb101  1  0.00256418  0.83359230  0.49215006  1
  Sb  Sb102  1  0.16245953  0.17299923  0.00143150  1
  Sb  Sb103  1  0.83677987  0.17145765  0.67070323  1
  Sb  Sb104  1  0.32524678  0.16829739  0.16868536  1
  Sb  Sb105  1  0.49173198  0.00054321  0.83102863  1
  Sb  Sb106  1  0.67134513  0.16387398  0.16484966  1
  Sb  Sb107  1  0.00818731  0.00474636  0.67147974  1
  Te  Te108  1  0.16209523  0.16716509  0.16716581  1
  Te  Te109  1  0.17086762  0.16901813  0.50011761  1
  Te  Te110  1  0.16752784  0.16753651  0.83487830  1
  Te  Te111  1  0.16604266  0.49617307  0.17051468  1
  Te  Te112  1  0.16402904  0.50146164  0.50252636  1
  Te  Te113  1  0.16415395  0.49678561  0.83170824  1
  Te  Te114  1  0.16254164  0.83351515  0.16003844  1
  Te  Te115  1  0.16629791  0.82120391  0.49889934  1
  Te  Te116  1  0.17064825  0.83743089  0.83874583  1
  Te  Te117  1  0.50303844  0.16997913  0.17162073  1
  Te  Te118  1  0.50214230  0.16707045  0.49759539  1
  Te  Te119  1  0.50195774  0.16785732  0.83296850  1
  Te  Te120  1  0.50111052  0.49182630  0.16752209  1
  Te  Te121  1  0.50268850  0.50323458  0.50007707  1
  Te  Te122  1  0.50758356  0.50046616  0.83399017  1
  Te  Te123  1  0.50168242  0.83403904  0.16127649  1
  Te  Te124  1  0.50026439  0.82878705  0.49824648  1
  Te  Te125  1  0.49497471  0.83155389  0.83925269  1
  Te  Te126  1  0.83720516  0.16175217  0.16255799  1
  Te  Te127  1  0.82524562  0.16671396  0.50098092  1
  Te  Te128  1  0.83430891  0.17192136  0.83664843  1
  Te  Te129  1  0.83314307  0.50012821  0.16440236  1
  Te  Te130  1  0.83574235  0.49910451  0.49983693  1
  Te  Te131  1  0.83296916  0.49988823  0.83422809  1
  Te  Te132  1  0.83545869  0.83447153  0.16430047  1
  Te  Te133  1  0.83388555  0.82878974  0.49873828  1
  Te  Te134  1  0.83434337  0.83425893  0.83942733  1
  Te  Te135  1  0.16339691  0.00009777  0.00156848  1
  Te  Te136  1  0.16996086  -0.00117791  0.33493521  1
  Te  Te137  1  0.17101704  0.00253672  0.66435940  1
  Te  Te138  1  0.16723218  0.33529797  -0.00121657  1
  Te  Te139  1  0.16527301  0.33251934  0.33052538  1
  Te  Te140  1  0.16755260  0.32772136  0.67360671  1
  Te  Te141  1  0.16934657  0.66269528  -0.00228473  1
  Te  Te142  1  0.16753642  0.66411262  0.33554816  1
  Te  Te143  1  0.17039185  0.66751611  0.66920940  1
  Te  Te144  1  0.49958973  -0.00717948  0.00071690  1
  Te  Te145  1  0.49440737  0.00454474  0.33768534  1
  Te  Te146  1  0.49267061  -0.00231320  0.65838612  1
  Te  Te147  1  0.49815592  0.33267929  -0.00067017  1
  Te  Te148  1  0.49848604  0.32866004  0.33276018  1
  Te  Te149  1  0.49929103  0.33299522  0.67772497  1
  Te  Te150  1  0.49836354  0.66940997  -0.00270886  1
  Te  Te151  1  0.49886922  0.66618996  0.33691447  1
  Te  Te152  1  0.49825518  0.66676875  0.66869234  1
  Te  Te153  1  0.83939566  -0.00243799  0.00369453  1
  Te  Te154  1  0.83386966  -0.00398342  0.32763547  1
  Te  Te155  1  0.83228432  -0.00136591  0.66727843  1
  Te  Te156  1  0.83328010  0.33553902  -0.00200306  1
  Te  Te157  1  0.83684658  0.33863315  0.33187073  1
  Te  Te158  1  0.83439091  0.33963415  0.67527979  1
  Te  Te159  1  0.83183167  0.66470679  -0.00023707  1
  Te  Te160  1  0.83341630  0.66376989  0.33843037  1
  Te  Te161  1  0.83167163  0.66249797  0.66193178  1
  Te  Te162  1  -0.00410797  0.16888762  0.00047746  1
  Te  Te163  1  0.00339941  0.17200533  0.33381878  1
  Te  Te164  1  0.00450720  0.16756686  0.65603722  1
  Te  Te165  1  0.00155539  0.49659882  -0.00055783  1
  Te  Te166  1  0.00149571  0.49524396  0.33350249  1
  Te  Te167  1  -0.00634195  0.50072526  0.66433714  1
  Te  Te168  1  0.00129713  0.83155247  0.00285139  1
  Te  Te169  1  -0.00545743  0.83384539  0.32619268  1
  Te  Te170  1  -0.00111719  0.83533145  0.66601504  1
  Te  Te171  1  0.33728572  0.17239697  -0.00407846  1
  Te  Te172  1  0.32903571  0.16841925  0.33242229  1
  Te  Te173  1  0.32987971  0.16580638  0.66527360  1
  Te  Te174  1  0.33101960  0.49824457  -0.00489709  1
  Te  Te175  1  0.32779874  0.49408306  0.33451374  1
  Te  Te176  1  0.33275426  0.50632175  0.67338554  1
  Te  Te177  1  0.32900482  0.83615959  -0.00441415  1
  Te  Te178  1  0.33372248  0.83529107  0.33129361  1
  Te  Te179  1  0.33279125  0.83148615  0.67461905  1
  Te  Te180  1  0.67285637  0.16549016  -0.00402833  1
  Te  Te181  1  0.66906404  0.16685533  0.33704832  1
  Te  Te182  1  0.66799382  0.16599013  0.66822579  1
  Te  Te183  1  0.67053525  0.50566205  -0.00350966  1
  Te  Te184  1  0.66988868  0.49992828  0.33596694  1
  Te  Te185  1  0.66990909  0.50426937  0.66618492  1
  Te  Te186  1  0.67325441  0.82920577  0.00207778  1
  Te  Te187  1  0.67229553  0.83315353  0.32675135  1
  Te  Te188  1  0.66588296  0.82412949  0.66757153  1
  Te  Te189  1  0.00313209  0.00403209  0.16514115  1
  Te  Te190  1  0.00651663  0.00249830  0.50016100  1
  Te  Te191  1  0.00770776  0.00009953  0.83961881  1
  Te  Te192  1  0.00289069  0.33004971  0.16366750  1
  Te  Te193  1  0.00369555  0.33492634  0.49950793  1
  Te  Te194  1  0.00026219  0.33709690  0.83684186  1
  Te  Te195  1  0.00075279  0.67558417  0.16746768  1
  Te  Te196  1  0.00026567  0.66226303  0.50036030  1
  Te  Te197  1  0.00736489  0.65963052  0.83273578  1
  Te  Te198  1  0.32671062  0.00068708  0.16964500  1
  Te  Te199  1  0.32994790  0.00084338  0.50177354  1
  Te  Te200  1  0.32931002  0.01252751  0.82975713  1
  Te  Te201  1  0.33066243  0.33255152  0.16574269  1
  Te  Te202  1  0.32885148  0.32943016  0.49888721  1
  Te  Te203  1  0.33199014  0.33353608  0.83314129  1
  Te  Te204  1  0.33494734  0.66638655  0.15993184  1
  Te  Te205  1  0.33460527  0.66635286  0.50179104  1
  Te  Te206  1  0.33223663  0.66222929  0.83579576  1
  Te  Te207  1  0.66584817  -0.00444692  0.16624449  1
  Te  Te208  1  0.66566667  0.00165527  0.50119860  1
  Te  Te209  1  0.66585081  0.00535757  0.83135846  1
  Te  Te210  1  0.66094293  0.33278074  0.16621418  1
  Te  Te211  1  0.66483164  0.33553366  0.50125328  1
  Te  Te212  1  0.66857320  0.33507160  0.83345889  1
  Te  Te213  1  0.66552331  0.67143326  0.15970784  1
  Te  Te214  1  0.66620470  0.66389577  0.50215388  1
  Te  Te215  1  0.66725414  0.66388293  0.83250428  1
