# generated using pymatgen
data_AgSbTe2
_symmetry_space_group_name_H-M   'P 1'
_cell_length_a   18.33106987
_cell_length_b   18.33404626
_cell_length_c   18.33438351
_cell_angle_alpha   89.99906141
_cell_angle_beta   90.00108572
_cell_angle_gamma   90.00193415
_symmetry_Int_Tables_number   1
_chemical_formula_structural   AgSbTe2
_chemical_formula_sum   'Ag54 Sb54 Te108'
_cell_volume   6161.86879316
_cell_formula_units_Z   54
loop_
 _symmetry_equiv_pos_site_id
 _symmetry_equiv_pos_as_xyz
  1  'x, y, z'
loop_
 _atom_site_type_symbol
 _atom_site_label
 _atom_site_symmetry_multiplicity
 _atom_site_fract_x
 _atom_site_fract_y
 _atom_site_fract_z
 _atom_site_occupancy
  Ag  Ag0  1  0.83750969  0.84338588  0.65938189  1
  Ag  Ag1  1  0.17045706  0.33556095  0.82564807  1
  Ag  Ag2  1  0.83547232  -0.00054366  0.50401025  1
  Ag  Ag3  1  0.16727721  0.33285834  0.50853281  1
  Ag  Ag4  1  0.17048886  0.83168059  -0.00309925  1
  Ag  Ag5  1  0.17066689  0.66808566  0.49740189  1
  Ag  Ag6  1  -0.00142246  0.15786035  0.50318200  1
  Ag  Ag7  1  0.16859561  0.49218481  0.67023139  1
  Ag  Ag8  1  0.83417990  0.00033112  0.81635132  1
  Ag  Ag9  1  0.33056246  0.83390593  0.83660815  1
  Ag  Ag10  1  0.49671907  0.66898985  0.49718716  1
  Ag  Ag11  1  0.68176519  0.00915062  0.66234960  1
  Ag  Ag12  1  0.82785941  0.82965351  0.34147091  1
  Ag  Ag13  1  0.16991908  0.16845390  0.33979391  1
  Ag  Ag14  1  0.16572527  0.83440432  0.66408057  1
  Ag  Ag15  1  0.66551019  0.67217213  0.33712728  1
  Ag  Ag16  1  0.66678808  0.67016934  0.65471440  1
  Ag  Ag17  1  -0.00452027  0.83772348  0.50023989  1
  Ag  Ag18  1  0.33160868  0.33745414  0.33759392  1
  Ag  Ag19  1  0.67439262  0.83766200  0.50010866  1
  Ag  Ag20  1  0.65957099  0.66540811  0.00323805  1
  Ag  Ag21  1  0.32905667  0.00739197  0.66602635  1
  Ag  Ag22  1  0.32857843  0.49915020  0.50363970  1
  Ag  Ag23  1  0.66004054  0.33495541  -0.00722444  1
  Ag  Ag24  1  0.83205201  0.51019996  0.33693117  1
  Ag  Ag25  1  0.00776357  0.32632601  0.66279231  1
  Ag  Ag26  1  0.00317851  -0.00127686  -0.00891254  1
  Ag  Ag27  1  0.33046831  0.16769654  0.16074410  1
  Ag  Ag28  1  0.17096588  0.49889820  -0.00944066  1
  Ag  Ag29  1  0.82341601  0.15676758  0.66353718  1
  Ag  Ag30  1  0.33075808  0.66667132  0.33364746  1
  Ag  Ag31  1  -0.00620115  0.00391988  0.66394882  1
  Ag  Ag32  1  0.00934774  0.49851785  0.83115703  1
  Ag  Ag33  1  0.50258056  0.83007184  0.33261653  1
  Ag  Ag34  1  0.32496978  0.32938545  0.67097035  1
  Ag  Ag35  1  0.66736399  0.32140690  0.66648759  1
  Ag  Ag36  1  0.17065348  0.66887419  0.17269109  1
  Ag  Ag37  1  0.66702951  0.50198404  0.16623056  1
  Ag  Ag38  1  0.66241788  0.16766153  0.82008592  1
  Ag  Ag39  1  0.16004174  -0.00147003  0.50398608  1
  Ag  Ag40  1  0.67395847  0.15625878  0.50850362  1
  Ag  Ag41  1  0.33148310  0.67180999  0.00337624  1
  Ag  Ag42  1  0.32875324  0.83128182  0.16154708  1
  Ag  Ag43  1  0.33191081  0.16997219  0.82984779  1
  Ag  Ag44  1  0.66840645  -0.00955162  0.34583601  1
  Ag  Ag45  1  0.00764522  0.83296359  0.17662615  1
  Ag  Ag46  1  0.32691360  0.48993820  0.83028827  1
  Ag  Ag47  1  0.17078394  0.16626568  0.00071826  1
  Ag  Ag48  1  0.00508729  0.66999844  0.33585325  1
  Ag  Ag49  1  0.83735956  0.32548504  0.50378538  1
  Ag  Ag50  1  0.48806369  0.83057001  0.00534210  1
  Ag  Ag51  1  0.33164462  0.33753360  -0.00533610  1
  Ag  Ag52  1  0.51101395  0.16645494  0.66586947  1
  Ag  Ag53  1  0.49450393  0.33301728  0.16584165  1
  Sb  Sb54  1  0.66041776  0.17088779  0.16803011  1
  Sb  Sb55  1  0.49462592  0.49578547  0.66493451  1
  Sb  Sb56  1  0.83692978  0.16697807  -0.00884208  1
  Sb  Sb57  1  0.49592513  0.66585096  0.17043807  1
  Sb  Sb58  1  0.49618193  0.33545532  0.49948497  1
  Sb  Sb59  1  -0.00014464  0.66923590  0.66145789  1
  Sb  Sb60  1  0.82787800  0.33328310  0.17372334  1
  Sb  Sb61  1  0.49215475  0.33201836  0.83442029  1
  Sb  Sb62  1  0.00493183  0.50165368  0.50349070  1
  Sb  Sb63  1  0.83628725  0.32929278  0.82471125  1
  Sb  Sb64  1  0.33069139  0.17011333  0.50492804  1
  Sb  Sb65  1  0.50429031  -0.00432439  0.50199058  1
  Sb  Sb66  1  0.66525672  0.82895846  0.17311565  1
  Sb  Sb67  1  0.83721824  0.49831512  0.66134376  1
  Sb  Sb68  1  0.16605668  0.49997741  0.33635577  1
  Sb  Sb69  1  0.00771816  0.16107608  0.17170013  1
  Sb  Sb70  1  0.32718744  -0.00219248  -0.00581950  1
  Sb  Sb71  1  0.16690646  -0.00581656  0.16957817  1
  Sb  Sb72  1  0.49794492  0.00042274  0.16724212  1
  Sb  Sb73  1  0.33159274  0.83007562  0.50112054  1
  Sb  Sb74  1  0.66342398  0.83675354  0.82699292  1
  Sb  Sb75  1  0.00544115  0.83232408  0.82862165  1
  Sb  Sb76  1  0.16607548  0.16729154  0.66426441  1
  Sb  Sb77  1  0.66465106  0.49466446  0.83479221  1
  Sb  Sb78  1  0.50049100  0.00060475  0.83073357  1
  Sb  Sb79  1  0.33404608  0.66486039  0.66513712  1
  Sb  Sb80  1  0.16940061  0.66222104  0.83107537  1
  Sb  Sb81  1  0.49634736  0.16329805  0.33848616  1
  Sb  Sb82  1  0.66559991  0.50295117  0.49892440  1
  Sb  Sb83  1  0.49418936  0.16482376  -0.00399990  1
  Sb  Sb84  1  0.00775630  0.67115737  0.00405148  1
  Sb  Sb85  1  0.17252727  0.33676833  0.16654759  1
  Sb  Sb86  1  0.00755297  0.33012103  -0.00679644  1
  Sb  Sb87  1  0.83395383  0.67150386  0.49831893  1
  Sb  Sb88  1  0.50164306  0.50473270  0.33300326  1
  Sb  Sb89  1  0.16467662  0.00402862  0.82649013  1
  Sb  Sb90  1  0.16685646  0.83274949  0.33661854  1
  Sb  Sb91  1  0.83495505  0.66827014  0.17010199  1
  Sb  Sb92  1  0.83466267  -0.00147461  0.17377596  1
  Sb  Sb93  1  0.33404795  -0.00247233  0.33903651  1
  Sb  Sb94  1  0.00357897  0.16777396  0.82511547  1
  Sb  Sb95  1  0.66214324  0.33400672  0.33796954  1
  Sb  Sb96  1  0.49769473  0.66892890  0.82965374  1
  Sb  Sb97  1  0.83664553  0.16450873  0.34360646  1
  Sb  Sb98  1  0.67106225  -0.00002602  -0.00540011  1
  Sb  Sb99  1  0.00041140  0.50423657  0.16475476  1
  Sb  Sb100  1  0.49378751  0.50317106  0.00144534  1
  Sb  Sb101  1  0.83208018  0.67111074  0.83102395  1
  Sb  Sb102  1  0.49883670  0.83652859  0.66394285  1
  Sb  Sb103  1  -0.00198884  -0.00615541  0.34199314  1
  Sb  Sb104  1  0.00430714  0.33696765  0.34131017  1
  Sb  Sb105  1  0.83526404  0.49915796  0.00202081  1
  Sb  Sb106  1  0.83675244  0.83401818  -0.00115910  1
  Sb  Sb107  1  0.33462273  0.50091630  0.16625534  1
  Te  Te108  1  0.17158646  0.16627525  0.16444734  1
  Te  Te109  1  0.16544413  0.16925934  0.49831912  1
  Te  Te110  1  0.16909925  0.17055411  0.84023492  1
  Te  Te111  1  0.16630085  0.50789299  0.16184132  1
  Te  Te112  1  0.16909544  0.49932828  0.50248132  1
  Te  Te113  1  0.17028791  0.49901933  0.83153279  1
  Te  Te114  1  0.16791678  0.82975684  0.16874605  1
  Te  Te115  1  0.16570215  0.83307057  0.50188963  1
  Te  Te116  1  0.16993268  0.83441559  0.83179355  1
  Te  Te117  1  0.49216365  0.17042622  0.16685699  1
  Te  Te118  1  0.50588501  0.16697312  0.50445949  1
  Te  Te119  1  0.49894762  0.16607110  0.82862942  1
  Te  Te120  1  0.50586146  0.49406983  0.16677323  1
  Te  Te121  1  0.49235113  0.50669576  0.49917289  1
  Te  Te122  1  0.48972087  0.50104917  0.83331796  1
  Te  Te123  1  0.49555854  0.83355223  0.16746770  1
  Te  Te124  1  0.50220070  0.82894375  0.49656160  1
  Te  Te125  1  0.49383332  0.83443789  0.83917551  1
  Te  Te126  1  0.83436258  0.16650197  0.16685104  1
  Te  Te127  1  0.83438097  0.16561884  0.50354399  1
  Te  Te128  1  0.83185623  0.16208838  0.82594230  1
  Te  Te129  1  0.82900863  0.49952683  0.17308352  1
  Te  Te130  1  0.83415217  0.49513302  0.49568000  1
  Te  Te131  1  0.83779126  0.49989128  0.83299646  1
  Te  Te132  1  0.83966722  0.83375659  0.17028870  1
  Te  Te133  1  0.83337594  0.83278377  0.50126469  1
  Te  Te134  1  0.83357792  0.83904534  0.82863359  1
  Te  Te135  1  0.16247419  -0.00244083  -0.00002168  1
  Te  Te136  1  0.16628470  0.00601980  0.34050145  1
  Te  Te137  1  0.16845052  -0.00221670  0.66417116  1
  Te  Te138  1  0.17055657  0.33342930  -0.00017194  1
  Te  Te139  1  0.17176727  0.33193060  0.33418740  1
  Te  Te140  1  0.16754033  0.33290231  0.66577378  1
  Te  Te141  1  0.17075214  0.67017873  -0.00126785  1
  Te  Te142  1  0.16955909  0.66594209  0.33512620  1
  Te  Te143  1  0.16631503  0.67142476  0.66123571  1
  Te  Te144  1  0.50216361  -0.00818035  -0.00009065  1
  Te  Te145  1  0.50568142  -0.00597838  0.33419009  1
  Te  Te146  1  0.48991107  0.00427495  0.66651341  1
  Te  Te147  1  0.49851809  0.33260154  0.00305182  1
  Te  Te148  1  0.49295746  0.33239717  0.33019619  1
  Te  Te149  1  0.50463901  0.32883291  0.66691502  1
  Te  Te150  1  0.49817390  0.67006422  0.00101740  1
  Te  Te151  1  0.49881969  0.66986481  0.33596504  1
  Te  Te152  1  0.50494359  0.66732583  0.66039402  1
  Te  Te153  1  0.84048061  0.00042132  0.00151891  1
  Te  Te154  1  0.82939394  -0.00434495  0.34017711  1
  Te  Te155  1  0.83701600  -0.00129215  0.66032403  1
  Te  Te156  1  0.82784308  0.33334100  0.00067348  1
  Te  Te157  1  0.83326232  0.33373262  0.34150362  1
  Te  Te158  1  0.82986306  0.33374629  0.66157100  1
  Te  Te159  1  0.82595245  0.66606519  0.00021791  1
  Te  Te160  1  0.83034475  0.66925545  0.33304566  1
  Te  Te161  1  0.82814564  0.66912010  0.66653335  1
  Te  Te162  1  0.00548324  0.16177569  0.00174345  1
  Te  Te163  1  0.00634595  0.16717039  0.33960961  1
  Te  Te164  1  -0.00097676  0.16758362  0.66207812  1
  Te  Te165  1  0.00543068  0.49975918  -0.00403858  1
  Te  Te166  1  -0.00515924  0.50592490  0.33208513  1
  Te  Te167  1  0.00521917  0.50034683  0.67025167  1
  Te  Te168  1  0.00477107  0.83639926  -0.00143243  1
  Te  Te169  1  0.00007094  0.83035658  0.33608309  1
  Te  Te170  1  0.00141338  0.83488788  0.66357234  1
  Te  Te171  1  0.33143428  0.16481565  -0.00162357  1
  Te  Te172  1  0.33129306  0.16710645  0.33328305  1
  Te  Te173  1  0.33169476  0.17003496  0.66925326  1
  Te  Te174  1  0.32982776  0.49831645  -0.00082724  1
  Te  Te175  1  0.33355306  0.50169836  0.33569412  1
  Te  Te176  1  0.32947451  0.49771711  0.66723498  1
  Te  Te177  1  0.32977523  0.83527832  0.00080624  1
  Te  Te178  1  0.33627487  0.83052257  0.33069572  1
  Te  Te179  1  0.33137630  0.83275249  0.66997943  1
  Te  Te180  1  0.66556125  0.17025726  -0.00117813  1
  Te  Te181  1  0.66656094  0.16404452  0.33625381  1
  Te  Te182  1  0.66728973  0.16516345  0.66458681  1
  Te  Te183  1  0.66687932  0.49861270  0.00146874  1
  Te  Te184  1  0.66966978  0.50314183  0.33106493  1
  Te  Te185  1  0.66622521  0.50783195  0.66817090  1
  Te  Te186  1  0.66745193  0.83104385  -0.00009972  1
  Te  Te187  1  0.66735254  0.83163427  0.33427871  1
  Te  Te188  1  0.66486241  0.83076615  0.66396379  1
  Te  Te189  1  0.00055756  -0.00708586  0.16418384  1
  Te  Te190  1  -0.00039943  -0.00146313  0.50290127  1
  Te  Te191  1  -0.00345831  0.00025963  0.82862687  1
  Te  Te192  1  -0.00218546  0.33271072  0.16598576  1
  Te  Te193  1  0.00343498  0.33451157  0.50412909  1
  Te  Te194  1  0.00458244  0.33585814  0.82731743  1
  Te  Te195  1  0.00552173  0.67188757  0.17141691  1
  Te  Te196  1  0.00456204  0.67075837  0.49539747  1
  Te  Te197  1  -0.00120580  0.66033474  0.83447079  1
  Te  Te198  1  0.33293577  0.00029842  0.16935080  1
  Te  Te199  1  0.32864575  0.00020532  0.50529514  1
  Te  Te200  1  0.33266512  0.00227294  0.82749555  1
  Te  Te201  1  0.33433032  0.33278296  0.16516630  1
  Te  Te202  1  0.33115177  0.33647075  0.50034723  1
  Te  Te203  1  0.33041089  0.33127286  0.83367896  1
  Te  Te204  1  0.33123781  0.66769944  0.16574299  1
  Te  Te205  1  0.33146925  0.66468943  0.49879310  1
  Te  Te206  1  0.33403293  0.67251361  0.83862191  1
  Te  Te207  1  0.66659201  0.00097927  0.16822683  1
  Te  Te208  1  0.66640298  -0.00223135  0.50351112  1
  Te  Te209  1  0.67106214  0.00510517  0.82799942  1
  Te  Te210  1  0.66117481  0.33675654  0.16630122  1
  Te  Te211  1  0.66556796  0.33485310  0.50451063  1
  Te  Te212  1  0.66816805  0.32945404  0.83202220  1
  Te  Te213  1  0.66532890  0.66345683  0.16695690  1
  Te  Te214  1  0.66640417  0.66785343  0.49647340  1
  Te  Te215  1  0.66530162  0.66524841  0.84060266  1
