# generated using pymatgen
data_AgSbTe2
_symmetry_space_group_name_H-M   'P 1'
_cell_length_a   18.32254491
_cell_length_b   18.32275079
_cell_length_c   18.32525480
_cell_angle_alpha   89.99745773
_cell_angle_beta   89.99780670
_cell_angle_gamma   89.99785722
_symmetry_Int_Tables_number   1
_chemical_formula_structural   AgSbTe2
_chemical_formula_sum   'Ag54 Sb54 Te108'
_cell_volume   6152.14397431
_cell_formula_units_Z   54
loop_
 _symmetry_equiv_pos_site_id
 _symmetry_equiv_pos_as_xyz
  1  'x, y, z'
loop_
 _atom_site_type_symbol
 _atom_site_label
 _atom_site_symmetry_multiplicity
 _atom_site_fract_x
 _atom_site_fract_y
 _atom_site_fract_z
 _atom_site_occupancy
  Ag  Ag0  1  0.33022952  0.00045083  0.65895283  1
  Ag  Ag1  1  0.16943537  0.84354496  0.66124871  1
  Ag  Ag2  1  0.49897382  0.49842309  0.34104756  1
  Ag  Ag3  1  -0.00240509  0.50360928  0.17169457  1
  Ag  Ag4  1  0.50180256  0.49631570  0.65856772  1
  Ag  Ag5  1  0.01325531  0.00191719  0.65588185  1
  Ag  Ag6  1  0.83095975  0.17406453  0.00127028  1
  Ag  Ag7  1  0.83399307  0.16733745  0.65690919  1
  Ag  Ag8  1  0.33400554  0.66594475  0.00405484  1
  Ag  Ag9  1  0.16709917  0.66961682  0.16902669  1
  Ag  Ag10  1  -0.00145510  0.49759461  0.49770508  1
  Ag  Ag11  1  0.33502306  0.00574628  -0.00008859  1
  Ag  Ag12  1  0.00100921  0.83035708  0.17477245  1
  Ag  Ag13  1  0.83313793  0.65278058  0.83302531  1
  Ag  Ag14  1  0.32772956  0.66518076  0.33588755  1
  Ag  Ag15  1  0.16682782  -0.00046049  0.17918870  1
  Ag  Ag16  1  0.34275750  0.50239603  0.49571143  1
  Ag  Ag17  1  0.16834515  0.16117624  0.65629116  1
  Ag  Ag18  1  0.33481658  0.67019372  0.65977442  1
  Ag  Ag19  1  0.83819054  0.16859365  0.34072171  1
  Ag  Ag20  1  0.49756498  0.16490250  0.66541405  1
  Ag  Ag21  1  0.00548027  0.66924496  0.33303674  1
  Ag  Ag22  1  0.00131556  0.16052051  0.49964664  1
  Ag  Ag23  1  0.66983218  0.83220617  0.17075700  1
  Ag  Ag24  1  0.49796635  0.84339881  0.00193939  1
  Ag  Ag25  1  0.82900908  0.33279515  0.16241884  1
  Ag  Ag26  1  0.33884572  0.32428536  0.00134754  1
  Ag  Ag27  1  0.33201206  0.84059730  0.50146525  1
  Ag  Ag28  1  0.32693668  -0.00105484  0.34246521  1
  Ag  Ag29  1  0.66885469  0.33329342  0.00706024  1
  Ag  Ag30  1  0.83286126  0.32969027  0.49829584  1
  Ag  Ag31  1  0.66483925  0.83259241  0.49732294  1
  Ag  Ag32  1  -0.01102901  0.50003654  0.83347962  1
  Ag  Ag33  1  0.00272024  0.84763717  0.49484516  1
  Ag  Ag34  1  0.67003703  0.17739420  0.16516507  1
  Ag  Ag35  1  0.16643493  0.32565004  0.49913393  1
  Ag  Ag36  1  0.00810966  -0.00064025  0.34382815  1
  Ag  Ag37  1  0.67076671  0.49858674  0.83147480  1
  Ag  Ag38  1  0.50078934  0.33475135  0.50084678  1
  Ag  Ag39  1  0.49605070  0.00476437  0.82632284  1
  Ag  Ag40  1  0.17515749  0.16523953  0.00197633  1
  Ag  Ag41  1  0.66116941  0.49795006  0.50040226  1
  Ag  Ag42  1  0.66839597  0.49507430  0.16779456  1
  Ag  Ag43  1  0.83107809  0.33558368  0.84266279  1
  Ag  Ag44  1  0.33556123  0.16428063  0.83428377  1
  Ag  Ag45  1  0.66230032  0.66215634  0.66397499  1
  Ag  Ag46  1  0.16400853  0.00431510  0.49793649  1
  Ag  Ag47  1  0.49080462  0.00509581  0.50319535  1
  Ag  Ag48  1  0.49343758  0.16477099  -0.00532400  1
  Ag  Ag49  1  0.16347711  0.16226804  0.33955186  1
  Ag  Ag50  1  0.33421514  0.50257401  0.17124781  1
  Ag  Ag51  1  0.83050995  0.49293802  -0.00341860  1
  Ag  Ag52  1  0.66905803  0.33507544  0.33142580  1
  Ag  Ag53  1  0.84786587  0.01102902  0.50004455  1
  Sb  Sb54  1  0.00317493  0.66530994  0.00551288  1
  Sb  Sb55  1  0.66510673  0.82842268  0.83091820  1
  Sb  Sb56  1  0.16519792  0.49499356  0.00223382  1
  Sb  Sb57  1  0.49471385  0.00061137  0.16961561  1
  Sb  Sb58  1  0.82838014  0.00706850  0.82781748  1
  Sb  Sb59  1  0.83628204  0.83959417  0.33502384  1
  Sb  Sb60  1  0.66088889  0.00686227  0.00269605  1
  Sb  Sb61  1  0.33686971  0.33357534  0.33285199  1
  Sb  Sb62  1  0.49887790  0.83042446  0.33301295  1
  Sb  Sb63  1  0.16598228  0.84093310  0.33848963  1
  Sb  Sb64  1  0.66345754  0.17308128  0.83696352  1
  Sb  Sb65  1  0.16812349  0.67006256  0.49454112  1
  Sb  Sb66  1  0.33492443  0.16891183  0.16283803  1
  Sb  Sb67  1  0.50287223  0.49591942  0.00002614  1
  Sb  Sb68  1  0.00210644  0.66972987  0.66059792  1
  Sb  Sb69  1  0.16885144  0.49628170  0.33502266  1
  Sb  Sb70  1  -0.00110656  0.32901026  0.66177363  1
  Sb  Sb71  1  -0.00477759  0.33151415  0.33629696  1
  Sb  Sb72  1  0.66719386  0.33698181  0.66355646  1
  Sb  Sb73  1  0.33607278  0.49656044  0.83254471  1
  Sb  Sb74  1  0.82888848  0.83364423  0.00334977  1
  Sb  Sb75  1  0.83722855  0.00663926  0.17120644  1
  Sb  Sb76  1  0.82931059  0.49450335  0.66922501  1
  Sb  Sb77  1  0.16458510  0.66503333  0.83603919  1
  Sb  Sb78  1  0.66645035  0.66063898  0.33664883  1
  Sb  Sb79  1  0.49582445  0.83593610  0.66517517  1
  Sb  Sb80  1  0.50441625  0.32974457  0.83083840  1
  Sb  Sb81  1  0.67073419  0.17005065  0.49715040  1
  Sb  Sb82  1  0.83544946  0.83784511  0.66314810  1
  Sb  Sb83  1  -0.00249486  0.16756244  0.17283108  1
  Sb  Sb84  1  -0.00052170  0.83030802  0.83029833  1
  Sb  Sb85  1  0.33069121  0.83078369  0.17074227  1
  Sb  Sb86  1  0.33480972  0.32907546  0.66643363  1
  Sb  Sb87  1  0.17035401  0.49808825  0.66168218  1
  Sb  Sb88  1  0.49512096  0.66512989  0.16606294  1
  Sb  Sb89  1  0.33454054  0.83877485  0.82940619  1
  Sb  Sb90  1  0.16366300  0.33089967  0.83074716  1
  Sb  Sb91  1  0.50196196  0.66842338  0.83175081  1
  Sb  Sb92  1  0.83398357  0.66380370  0.50259120  1
  Sb  Sb93  1  0.50596993  0.33329594  0.16922278  1
  Sb  Sb94  1  0.66651893  0.00422696  0.33530827  1
  Sb  Sb95  1  0.49734000  0.66361967  0.50087278  1
  Sb  Sb96  1  0.66250475  -0.00195040  0.66184454  1
  Sb  Sb97  1  -0.00410826  0.33324087  0.00087972  1
  Sb  Sb98  1  0.16367896  0.33163260  0.17016866  1
  Sb  Sb99  1  0.17245994  0.83846361  -0.00014691  1
  Sb  Sb100  1  0.17249442  0.00386968  0.82702241  1
  Sb  Sb101  1  0.83117884  0.49325814  0.33213103  1
  Sb  Sb102  1  0.66377626  0.66130802  -0.00155108  1
  Sb  Sb103  1  0.00134380  0.16982560  0.82714893  1
  Sb  Sb104  1  0.83691286  0.65915935  0.16418573  1
  Sb  Sb105  1  0.32860990  0.16472894  0.50363601  1
  Sb  Sb106  1  0.49948549  0.16925309  0.33597515  1
  Sb  Sb107  1  0.00550219  0.00270675  0.00200205  1
  Te  Te108  1  0.16572787  0.16356855  0.16450429  1
  Te  Te109  1  0.16550348  0.16629254  0.49988792  1
  Te  Te110  1  0.17050889  0.16822919  0.83922664  1
  Te  Te111  1  0.16575792  0.50059175  0.16726395  1
  Te  Te112  1  0.16310446  0.49461941  0.49995996  1
  Te  Te113  1  0.15894612  0.49845459  0.83248850  1
  Te  Te114  1  0.16270327  0.83426317  0.16473571  1
  Te  Te115  1  0.16640071  0.83584185  0.50303343  1
  Te  Te116  1  0.16558708  0.83231918  0.82505127  1
  Te  Te117  1  0.50762618  0.16609778  0.16406154  1
  Te  Te118  1  0.50155750  0.16813974  0.50224617  1
  Te  Te119  1  0.49759628  0.16448733  0.83262306  1
  Te  Te120  1  0.50026184  0.49923035  0.16875422  1
  Te  Te121  1  0.50032771  0.49984464  0.50106789  1
  Te  Te122  1  0.50574700  0.49898501  0.82794725  1
  Te  Te123  1  0.50416226  0.83281321  0.16278739  1
  Te  Te124  1  0.49892524  0.83835672  0.49976563  1
  Te  Te125  1  0.50071466  0.84007232  0.84030079  1
  Te  Te126  1  0.83096827  0.17032542  0.16331008  1
  Te  Te127  1  0.83272648  0.16715445  0.50015745  1
  Te  Te128  1  0.83297114  0.17214053  0.83704227  1
  Te  Te129  1  0.83195677  0.49530655  0.16531529  1
  Te  Te130  1  0.83275967  0.49612891  0.50019813  1
  Te  Te131  1  0.83171010  0.49630779  0.83241222  1
  Te  Te132  1  0.83410166  0.83374081  0.16688125  1
  Te  Te133  1  0.83539933  0.83478601  0.49990504  1
  Te  Te134  1  0.83252165  0.83192628  0.83416199  1
  Te  Te135  1  0.17250627  0.00414769  -0.00209579  1
  Te  Te136  1  0.16693847  0.00255965  0.33550093  1
  Te  Te137  1  0.17042314  0.00330338  0.66522727  1
  Te  Te138  1  0.17135160  0.32710064  0.00057503  1
  Te  Te139  1  0.16730962  0.32428801  0.33811657  1
  Te  Te140  1  0.16672726  0.32518914  0.66086962  1
  Te  Te141  1  0.17296683  0.66734193  0.00480346  1
  Te  Te142  1  0.16768382  0.66432324  0.32850360  1
  Te  Te143  1  0.17241329  0.66742734  0.66707686  1
  Te  Te144  1  0.49569480  0.00382690  0.00310582  1
  Te  Te145  1  0.49400385  0.00019182  0.33923863  1
  Te  Te146  1  0.49587836  0.00205011  0.66540629  1
  Te  Te147  1  0.50076475  0.32799092  -0.00070293  1
  Te  Te148  1  0.50453057  0.33679215  0.33936990  1
  Te  Te149  1  0.50054356  0.33127365  0.66206445  1
  Te  Te150  1  0.49411802  0.66746676  -0.00165154  1
  Te  Te151  1  0.49412224  0.65959762  0.33320827  1
  Te  Te152  1  0.49756558  0.66481463  0.66754748  1
  Te  Te153  1  0.83402304  0.00460837  -0.00182379  1
  Te  Te154  1  0.83509194  0.00745037  0.33897687  1
  Te  Te155  1  0.83110983  0.00616834  0.66196697  1
  Te  Te156  1  0.83246622  0.33439296  0.00162479  1
  Te  Te157  1  0.82914520  0.32806737  0.33663916  1
  Te  Te158  1  0.83268239  0.32640801  0.66037964  1
  Te  Te159  1  0.83322661  0.66408615  -0.00558056  1
  Te  Te160  1  0.83977254  0.66713142  0.33326987  1
  Te  Te161  1  0.83308829  0.66725169  0.67130596  1
  Te  Te162  1  -0.00194749  0.16656583  -0.00065832  1
  Te  Te163  1  -0.00025234  0.16382868  0.33739332  1
  Te  Te164  1  0.00075818  0.16270036  0.66268284  1
  Te  Te165  1  -0.00397696  0.50042217  0.00233950  1
  Te  Te166  1  -0.00019691  0.50256612  0.33238069  1
  Te  Te167  1  0.00078858  0.50154718  0.66268487  1
  Te  Te168  1  -0.00029549  0.83388066  0.00542768  1
  Te  Te169  1  0.00072420  0.83440902  0.33482443  1
  Te  Te170  1  0.00415147  0.83794912  0.66135915  1
  Te  Te171  1  0.33541895  0.16650370  0.00094933  1
  Te  Te172  1  0.33083123  0.16186856  0.33092418  1
  Te  Te173  1  0.33518162  0.16383804  0.66989946  1
  Te  Te174  1  0.33377820  0.50393118  0.00059244  1
  Te  Te175  1  0.33507581  0.50054149  0.33383444  1
  Te  Te176  1  0.33846991  0.50131731  0.66466649  1
  Te  Te177  1  0.33745845  0.83169629  0.00056069  1
  Te  Te178  1  0.33323397  0.83229300  0.33901378  1
  Te  Te179  1  0.33148629  0.83357223  0.66264701  1
  Te  Te180  1  0.66961110  0.17133190  0.00321501  1
  Te  Te181  1  0.66784150  0.17103045  0.32736175  1
  Te  Te182  1  0.66377529  0.16686707  0.66809515  1
  Te  Te183  1  0.66879310  0.49684869  0.00434431  1
  Te  Te184  1  0.66390835  0.49752457  0.33433095  1
  Te  Te185  1  0.66360278  0.50249736  0.66238881  1
  Te  Te186  1  0.66078246  0.83282721  0.00279251  1
  Te  Te187  1  0.66676301  0.83062945  0.33490111  1
  Te  Te188  1  0.66620776  0.82583756  0.66122344  1
  Te  Te189  1  0.00505777  -0.00239638  0.16989288  1
  Te  Te190  1  0.00303021  0.00324145  0.50029875  1
  Te  Te191  1  -0.00227763  -0.00081646  0.82798050  1
  Te  Te192  1  -0.00542324  0.33941206  0.16856447  1
  Te  Te193  1  -0.00071657  0.33627449  0.49900929  1
  Te  Te194  1  -0.00676026  0.33953660  0.83195495  1
  Te  Te195  1  0.00351130  0.66638137  0.17084637  1
  Te  Te196  1  0.00129887  0.65949311  0.49422793  1
  Te  Te197  1  -0.00398262  0.66188167  0.83288693  1
  Te  Te198  1  0.32746311  -0.00099765  0.16463309  1
  Te  Te199  1  0.33186708  0.00102616  0.49986961  1
  Te  Te200  1  0.33773388  0.00398886  0.83697404  1
  Te  Te201  1  0.33241853  0.34058248  0.16244597  1
  Te  Te202  1  0.33516036  0.33861132  0.49902654  1
  Te  Te203  1  0.33256243  0.32850450  0.83953546  1
  Te  Te204  1  0.32911840  0.66427446  0.16926485  1
  Te  Te205  1  0.33139512  0.66286067  0.49963288  1
  Te  Te206  1  0.33269894  0.66597916  0.83206142  1
  Te  Te207  1  0.66778416  -0.00836298  0.16882202  1
  Te  Te208  1  0.66110393  -0.00551064  0.49840126  1
  Te  Te209  1  0.65905834  -0.00164596  0.83335827  1
  Te  Te210  1  0.66796604  0.33541092  0.16728780  1
  Te  Te211  1  0.66659523  0.33575477  0.49780804  1
  Te  Te212  1  0.67119585  0.33936962  0.83677476  1
  Te  Te213  1  0.66781541  0.66673038  0.16769373  1
  Te  Te214  1  0.66757410  0.66640405  0.50342612  1
  Te  Te215  1  0.67033208  0.66075376  0.82911064  1
