# generated using pymatgen
data_AgSbTe2
_symmetry_space_group_name_H-M   'P 1'
_cell_length_a   18.37861403
_cell_length_b   18.37321933
_cell_length_c   18.35530987
_cell_angle_alpha   90.00493330
_cell_angle_beta   90.00335788
_cell_angle_gamma   90.00265598
_symmetry_Int_Tables_number   1
_chemical_formula_structural   AgSbTe2
_chemical_formula_sum   'Ag54 Sb54 Te108'
_cell_volume   6198.11648818
_cell_formula_units_Z   54
loop_
 _symmetry_equiv_pos_site_id
 _symmetry_equiv_pos_as_xyz
  1  'x, y, z'
loop_
 _atom_site_type_symbol
 _atom_site_label
 _atom_site_symmetry_multiplicity
 _atom_site_fract_x
 _atom_site_fract_y
 _atom_site_fract_z
 _atom_site_occupancy
  Ag  Ag0  1  0.34259224  0.49849181  0.83876847  1
  Ag  Ag1  1  0.83761722  -0.01298810  0.17215661  1
  Ag  Ag2  1  0.67703219  0.17037689  0.82533813  1
  Ag  Ag3  1  0.49792235  0.49949747  -0.00642275  1
  Ag  Ag4  1  0.83110502  0.83699347  0.66496768  1
  Ag  Ag5  1  -0.00136365  0.15655681  0.17220649  1
  Ag  Ag6  1  0.67221931  0.15493981  0.50309786  1
  Ag  Ag7  1  0.34976535  0.16112291  0.49729510  1
  Ag  Ag8  1  0.16471070  0.49524991  0.32531613  1
  Ag  Ag9  1  0.67362532  -0.00130957  0.34153807  1
  Ag  Ag10  1  0.51521973  0.00074153  0.49724105  1
  Ag  Ag11  1  -0.00361801  0.48892459  0.84003448  1
  Ag  Ag12  1  0.83108889  0.32859945  0.50584721  1
  Ag  Ag13  1  -0.00339744  0.00205172  0.00830542  1
  Ag  Ag14  1  0.50090204  0.83765138  0.33941217  1
  Ag  Ag15  1  0.00097713  0.33364772  -0.00164426  1
  Ag  Ag16  1  0.15603581  0.00086228  0.49707408  1
  Ag  Ag17  1  0.83287490  0.67278706  0.83206358  1
  Ag  Ag18  1  0.83107397  0.16147524  0.66376306  1
  Ag  Ag19  1  0.34663537  0.83710476  0.49578817  1
  Ag  Ag20  1  0.16154255  0.34705234  0.16374728  1
  Ag  Ag21  1  0.16382926  0.16793707  0.33700908  1
  Ag  Ag22  1  -0.00962296  0.83779272  0.16787683  1
  Ag  Ag23  1  0.67096038  -0.00041036  0.65352701  1
  Ag  Ag24  1  0.50789281  0.34017251  0.82938141  1
  Ag  Ag25  1  0.32090679  0.50659834  0.16684064  1
  Ag  Ag26  1  0.66796617  0.49537168  0.83085219  1
  Ag  Ag27  1  -0.01293964  0.84240037  0.49292208  1
  Ag  Ag28  1  0.66930701  0.84385054  0.49707197  1
  Ag  Ag29  1  0.14821728  0.33745486  0.84060288  1
  Ag  Ag30  1  0.83355363  0.67054966  0.16626216  1
  Ag  Ag31  1  -0.00425794  0.00094954  0.33442199  1
  Ag  Ag32  1  0.66637977  0.50847909  0.17174247  1
  Ag  Ag33  1  0.50900020  0.33805801  0.50143423  1
  Ag  Ag34  1  0.15382183  0.65862909  0.16794593  1
  Ag  Ag35  1  -0.01011106  0.83459862  0.83868303  1
  Ag  Ag36  1  0.49823341  0.16092021  0.33972515  1
  Ag  Ag37  1  0.50239893  0.66398437  0.17338594  1
  Ag  Ag38  1  0.16461269  0.49670538  0.01193789  1
  Ag  Ag39  1  0.83015227  -0.00598584  0.49632764  1
  Ag  Ag40  1  0.33485760  0.82439018  0.17219577  1
  Ag  Ag41  1  0.83539629  0.83461087  -0.00413435  1
  Ag  Ag42  1  0.83163913  0.34052799  0.82866436  1
  Ag  Ag43  1  0.67393737  0.83276676  0.82872397  1
  Ag  Ag44  1  0.66220894  0.50043171  0.49984662  1
  Ag  Ag45  1  0.82936967  0.67533066  0.50005247  1
  Ag  Ag46  1  0.00950679  0.50209842  0.16643089  1
  Ag  Ag47  1  -0.00433485  0.49884787  0.49680264  1
  Ag  Ag48  1  -0.00771791  0.15967404  0.49534670  1
  Ag  Ag49  1  0.50321635  0.49845168  0.66363661  1
  Ag  Ag50  1  -0.00670380  0.17302959  0.83424910  1
  Ag  Ag51  1  0.34240161  0.50072697  0.49827685  1
  Ag  Ag52  1  0.67446547  0.82793932  0.17454521  1
  Ag  Ag53  1  0.51118146  0.66657591  0.49542447  1
  Sb  Sb54  1  0.66853769  0.66496583  0.00278731  1
  Sb  Sb55  1  0.15787949  0.83555872  0.66417785  1
  Sb  Sb56  1  0.49859416  0.50214916  0.33613010  1
  Sb  Sb57  1  0.33373379  0.66634222  0.33144088  1
  Sb  Sb58  1  -0.00290999  0.66730665  0.66574097  1
  Sb  Sb59  1  0.16845767  0.49828292  0.66591672  1
  Sb  Sb60  1  0.33613950  0.33487041  0.66403634  1
  Sb  Sb61  1  0.15911389  -0.00277310  0.17275843  1
  Sb  Sb62  1  0.34233518  -0.00097951  0.66011923  1
  Sb  Sb63  1  0.50750406  0.82789016  0.00603155  1
  Sb  Sb64  1  0.83492584  0.50429589  -0.00302894  1
  Sb  Sb65  1  0.00070890  0.32940902  0.32987618  1
  Sb  Sb66  1  0.83671981  0.50005916  0.33595914  1
  Sb  Sb67  1  0.49578645  0.34163772  0.16963667  1
  Sb  Sb68  1  -0.00088635  0.67286622  0.33156357  1
  Sb  Sb69  1  0.33353724  -0.00025754  0.33567956  1
  Sb  Sb70  1  0.67377443  0.16386107  0.17206556  1
  Sb  Sb71  1  -0.00199404  0.33345442  0.66895291  1
  Sb  Sb72  1  0.32730879  0.33667065  -0.00208781  1
  Sb  Sb73  1  0.33669876  0.66464447  0.66268798  1
  Sb  Sb74  1  0.66589812  0.32929444  0.33755587  1
  Sb  Sb75  1  0.16930911  0.83479806  0.33393270  1
  Sb  Sb76  1  0.33588259  0.82578057  0.83195352  1
  Sb  Sb77  1  0.66837574  0.32975539  0.66552883  1
  Sb  Sb78  1  0.33425635  0.66354914  0.00361274  1
  Sb  Sb79  1  0.50758851  0.17168252  0.65875779  1
  Sb  Sb80  1  0.82913139  0.50070298  0.66567243  1
  Sb  Sb81  1  0.16412106  0.66708381  0.49386142  1
  Sb  Sb82  1  0.83615483  0.16177679  -0.00539991  1
  Sb  Sb83  1  0.15751091  0.65709043  0.84115929  1
  Sb  Sb84  1  0.66587705  0.67233309  0.33424276  1
  Sb  Sb85  1  0.16107184  0.17222962  0.00617950  1
  Sb  Sb86  1  0.32507845  -0.00226732  0.00179807  1
  Sb  Sb87  1  0.33207796  0.17632895  0.82421081  1
  Sb  Sb88  1  0.15959049  0.00614553  0.82784500  1
  Sb  Sb89  1  0.15713682  0.82773555  0.00397509  1
  Sb  Sb90  1  0.67340931  -0.00239144  0.00187976  1
  Sb  Sb91  1  0.33280571  0.33487432  0.33477119  1
  Sb  Sb92  1  0.82763297  0.83519766  0.33421752  1
  Sb  Sb93  1  0.67336673  0.33589073  -0.00294935  1
  Sb  Sb94  1  0.15831046  0.16830369  0.65973437  1
  Sb  Sb95  1  0.83932111  0.33827513  0.16387609  1
  Sb  Sb96  1  0.32735851  0.16861409  0.17457816  1
  Sb  Sb97  1  0.50189550  0.17292469  0.00277046  1
  Sb  Sb98  1  -0.00282533  0.66384113  0.00254081  1
  Sb  Sb99  1  0.16412730  0.33144064  0.49802434  1
  Sb  Sb100  1  0.50505258  0.00510267  0.82816978  1
  Sb  Sb101  1  0.50836923  0.66055720  0.83202018  1
  Sb  Sb102  1  0.83358296  -0.00333808  0.82928770  1
  Sb  Sb103  1  -0.00848998  0.00040946  0.66034683  1
  Sb  Sb104  1  0.50839611  0.82918878  0.65890646  1
  Sb  Sb105  1  0.66934550  0.67010946  0.66324357  1
  Sb  Sb106  1  0.50758863  -0.00736928  0.17495884  1
  Sb  Sb107  1  0.83582588  0.16325228  0.34258208  1
  Te  Te108  1  0.16147256  0.16508032  0.17351270  1
  Te  Te109  1  0.15406745  0.16653617  0.49651903  1
  Te  Te110  1  0.16579839  0.17384965  0.83283832  1
  Te  Te111  1  0.16623472  0.50243304  0.16798916  1
  Te  Te112  1  0.16255990  0.49959145  0.49921741  1
  Te  Te113  1  0.15866494  0.49682690  0.83286104  1
  Te  Te114  1  0.17334329  0.82931704  0.16727996  1
  Te  Te115  1  0.16505151  0.83586305  0.49998516  1
  Te  Te116  1  0.16723102  0.83165954  0.83382090  1
  Te  Te117  1  0.49881544  0.16654103  0.17158023  1
  Te  Te118  1  0.50460805  0.16753809  0.49943478  1
  Te  Te119  1  0.49841092  0.17350682  0.83278074  1
  Te  Te120  1  0.50865412  0.50250590  0.17043751  1
  Te  Te121  1  0.50009717  0.49973313  0.49654521  1
  Te  Te122  1  0.50293506  0.50050534  0.83391972  1
  Te  Te123  1  0.49827118  0.82836666  0.16838028  1
  Te  Te124  1  0.50464878  0.83055100  0.49942539  1
  Te  Te125  1  0.50228020  0.83162752  0.83398677  1
  Te  Te126  1  0.83862661  0.17046051  0.16502824  1
  Te  Te127  1  0.83213065  0.16812720  0.50244479  1
  Te  Te128  1  0.83440194  0.16237512  0.83022448  1
  Te  Te129  1  0.82577239  0.50356964  0.16546261  1
  Te  Te130  1  0.83638775  0.49986935  0.50230309  1
  Te  Te131  1  0.83411419  0.50076720  0.83168105  1
  Te  Te132  1  0.83383685  0.83016095  0.17092564  1
  Te  Te133  1  0.83043897  0.83332101  0.49758011  1
  Te  Te134  1  0.83223542  0.83494252  0.83311027  1
  Te  Te135  1  0.15742560  -0.00008849  -0.00165054  1
  Te  Te136  1  0.16196512  0.00369570  0.33834694  1
  Te  Te137  1  0.17000673  0.00118627  0.65789532  1
  Te  Te138  1  0.16185981  0.33740527  0.00073852  1
  Te  Te139  1  0.16658106  0.33274666  0.32954256  1
  Te  Te140  1  0.16863699  0.33305038  0.68049372  1
  Te  Te141  1  0.16615264  0.65838641  0.00902244  1
  Te  Te142  1  0.16538971  0.65870185  0.32635496  1
  Te  Te143  1  0.16735938  0.66729968  0.66860928  1
  Te  Te144  1  0.49738862  0.00120550  -0.00028309  1
  Te  Te145  1  0.50051443  -0.00066751  0.33820074  1
  Te  Te146  1  0.50900627  -0.00014991  0.65980389  1
  Te  Te147  1  0.50153117  0.33901951  0.00003184  1
  Te  Te148  1  0.49946461  0.32475071  0.33897337  1
  Te  Te149  1  0.50137122  0.33865164  0.66386498  1
  Te  Te150  1  0.50087533  0.65966861  0.00477543  1
  Te  Te151  1  0.50014781  0.67193796  0.33513744  1
  Te  Te152  1  0.50169924  0.65925082  0.66044818  1
  Te  Te153  1  0.83866797  -0.00443425  0.00844495  1
  Te  Te154  1  0.83485787  0.00080597  0.33340261  1
  Te  Te155  1  0.82904078  -0.00097492  0.66169379  1
  Te  Te156  1  0.84028638  0.33294333  -0.00671551  1
  Te  Te157  1  0.83309654  0.33291308  0.34295311  1
  Te  Te158  1  0.83352243  0.32909521  0.66748266  1
  Te  Te159  1  0.83318654  0.67333768  -0.00049479  1
  Te  Te160  1  0.83311564  0.66477474  0.33681808  1
  Te  Te161  1  0.83386081  0.67381159  0.66566002  1
  Te  Te162  1  0.00049412  0.16718695  -0.00167779  1
  Te  Te163  1  0.00120095  0.16355850  0.33334928  1
  Te  Te164  1  -0.00669093  0.16608383  0.67044077  1
  Te  Te165  1  -0.00023980  0.49774814  -0.00044785  1
  Te  Te166  1  0.00278385  0.49924787  0.33030383  1
  Te  Te167  1  0.00008854  0.50084862  0.66509826  1
  Te  Te168  1  -0.00385510  0.83485668  0.00362107  1
  Te  Te169  1  0.00464001  0.83909158  0.33310762  1
  Te  Te170  1  -0.00704259  0.83398227  0.66631403  1
  Te  Te171  1  0.33235907  0.16553583  -0.00103711  1
  Te  Te172  1  0.33071772  0.16668512  0.33990442  1
  Te  Te173  1  0.33132339  0.16586221  0.65586021  1
  Te  Te174  1  0.33383814  0.49890179  0.00069354  1
  Te  Te175  1  0.32955214  0.49990085  0.33241707  1
  Te  Te176  1  0.33872977  0.50031627  0.66165049  1
  Te  Te177  1  0.33402537  0.83317696  0.00197732  1
  Te  Te178  1  0.33735837  0.83388393  0.33514291  1
  Te  Te179  1  0.33291021  0.83259372  0.66244970  1
  Te  Te180  1  0.66602400  0.16582665  -0.00845043  1
  Te  Te181  1  0.66263482  0.16118697  0.33676025  1
  Te  Te182  1  0.67021290  0.16208575  0.66547843  1
  Te  Te183  1  0.66419538  0.49893971  -0.00475182  1
  Te  Te184  1  0.66635111  0.49729763  0.33296629  1
  Te  Te185  1  0.66392014  0.50135288  0.66902509  1
  Te  Te186  1  0.67251417  0.83422772  -0.00182357  1
  Te  Te187  1  0.66129128  0.83792542  0.33377716  1
  Te  Te188  1  0.67046117  0.83707584  0.66580688  1
  Te  Te189  1  -0.00179057  -0.00187481  0.16879512  1
  Te  Te190  1  -0.00457173  0.00004677  0.49930185  1
  Te  Te191  1  0.00098563  -0.00398832  0.83490491  1
  Te  Te192  1  0.00142944  0.34112442  0.16348479  1
  Te  Te193  1  -0.00135980  0.33693942  0.49967254  1
  Te  Te194  1  -0.00765051  0.33236327  0.83306805  1
  Te  Te195  1  -0.00503710  0.66460004  0.16738566  1
  Te  Te196  1  -0.00336625  0.66344728  0.49901582  1
  Te  Te197  1  -0.00663431  0.67505991  0.83377153  1
  Te  Te198  1  0.33389292  -0.00273055  0.16618252  1
  Te  Te199  1  0.33192917  -0.00154140  0.49967441  1
  Te  Te200  1  0.33196249  -0.00058213  0.83201744  1
  Te  Te201  1  0.32641134  0.33759889  0.16549640  1
  Te  Te202  1  0.33246395  0.33738388  0.50032950  1
  Te  Te203  1  0.34671790  0.33995539  0.83239077  1
  Te  Te204  1  0.34230997  0.66480485  0.16684306  1
  Te  Te205  1  0.33233663  0.66493689  0.49865942  1
  Te  Te206  1  0.33250793  0.65866468  0.83271000  1
  Te  Te207  1  0.67347392  -0.00300288  0.16997148  1
  Te  Te208  1  0.67043798  -0.00059299  0.49729485  1
  Te  Te209  1  0.66560477  -0.00052710  0.83446053  1
  Te  Te210  1  0.66779220  0.33348872  0.16605573  1
  Te  Te211  1  0.66753384  0.34286048  0.50055503  1
  Te  Te212  1  0.66927543  0.33340746  0.83261664  1
  Te  Te213  1  0.66968711  0.66898852  0.16812021  1
  Te  Te214  1  0.66900607  0.65813073  0.49885317  1
  Te  Te215  1  0.67236756  0.66926468  0.83339226  1
