# generated using pymatgen
data_AgSbTe2
_symmetry_space_group_name_H-M   'P 1'
_cell_length_a   18.31376503
_cell_length_b   18.31225264
_cell_length_c   18.31199990
_cell_angle_alpha   90.00257422
_cell_angle_beta   89.99863074
_cell_angle_gamma   89.99785681
_symmetry_Int_Tables_number   1
_chemical_formula_structural   AgSbTe2
_chemical_formula_sum   'Ag54 Sb54 Te108'
_cell_volume   6141.22749467
_cell_formula_units_Z   54
loop_
 _symmetry_equiv_pos_site_id
 _symmetry_equiv_pos_as_xyz
  1  'x, y, z'
loop_
 _atom_site_type_symbol
 _atom_site_label
 _atom_site_symmetry_multiplicity
 _atom_site_fract_x
 _atom_site_fract_y
 _atom_site_fract_z
 _atom_site_occupancy
  Ag  Ag0  1  0.16935711  0.67196356  0.82507906  1
  Ag  Ag1  1  -0.00161467  0.33065075  0.33701443  1
  Ag  Ag2  1  0.83108630  0.16876997  0.34280049  1
  Ag  Ag3  1  0.82655059  0.65908932  0.17394644  1
  Ag  Ag4  1  0.32693482  0.83000436  0.83003592  1
  Ag  Ag5  1  0.66905220  0.17202690  0.17932323  1
  Ag  Ag6  1  0.67536686  0.16524701  0.50127167  1
  Ag  Ag7  1  -0.00262668  0.49677502  0.16713170  1
  Ag  Ag8  1  0.00360604  0.00403450  -0.00240971  1
  Ag  Ag9  1  0.83247388  0.33778918  0.17231309  1
  Ag  Ag10  1  0.66901970  0.83654700  0.50502332  1
  Ag  Ag11  1  0.50064435  -0.00163489  0.83051360  1
  Ag  Ag12  1  0.16274432  0.33588880  0.83188381  1
  Ag  Ag13  1  0.15756055  0.16644405  0.66259187  1
  Ag  Ag14  1  0.83413543  0.66432085  0.50103916  1
  Ag  Ag15  1  0.33155227  0.50535851  0.16801145  1
  Ag  Ag16  1  0.66877716  0.33121176  -0.00370283  1
  Ag  Ag17  1  0.33402265  0.00031913  0.33409759  1
  Ag  Ag18  1  0.33195270  0.66523460  0.00012062  1
  Ag  Ag19  1  0.83174574  0.17006568  0.66105925  1
  Ag  Ag20  1  0.00450399  0.83272443  0.50608390  1
  Ag  Ag21  1  0.66820221  0.32935276  0.66568424  1
  Ag  Ag22  1  0.00898220  0.83256090  0.82403688  1
  Ag  Ag23  1  0.66952520  0.17091992  0.82175295  1
  Ag  Ag24  1  0.16671644  -0.00355068  0.49938751  1
  Ag  Ag25  1  0.66788446  0.67053701  0.34146759  1
  Ag  Ag26  1  -0.00058532  0.16957391  0.82534076  1
  Ag  Ag27  1  0.66884595  0.67117522  0.66034603  1
  Ag  Ag28  1  0.66274219  0.00696017  0.34207163  1
  Ag  Ag29  1  0.67585386  0.49593560  0.16807386  1
  Ag  Ag30  1  0.32577951  0.82903782  0.50587448  1
  Ag  Ag31  1  -0.00090475  0.33167112  -0.00209145  1
  Ag  Ag32  1  0.33099030  0.33930781  -0.00181822  1
  Ag  Ag33  1  0.00357431  0.49619770  0.82525285  1
  Ag  Ag34  1  0.16239245  0.16483732  0.34226580  1
  Ag  Ag35  1  0.50090985  0.33238136  0.83000666  1
  Ag  Ag36  1  0.32449798  0.50455046  0.49955128  1
  Ag  Ag37  1  0.16782742  0.83264761  -0.01165843  1
  Ag  Ag38  1  0.49479148  0.66885976  0.83260838  1
  Ag  Ag39  1  0.51248793  0.16621471  0.33621394  1
  Ag  Ag40  1  0.50291242  0.83209172  0.66700899  1
  Ag  Ag41  1  0.66592432  0.00183115  0.65885186  1
  Ag  Ag42  1  0.83276100  0.32849113  0.50012407  1
  Ag  Ag43  1  0.83123947  0.83170660  0.66242682  1
  Ag  Ag44  1  0.16503209  0.83129202  0.66652173  1
  Ag  Ag45  1  0.16289560  0.67316552  0.50655979  1
  Ag  Ag46  1  0.50190297  0.66581025  0.16500730  1
  Ag  Ag47  1  0.16745553  -0.00055476  0.17384513  1
  Ag  Ag48  1  0.50916109  0.33190904  0.50454455  1
  Ag  Ag49  1  0.33107888  0.82768629  0.16504388  1
  Ag  Ag50  1  -0.00594530  0.17004867  0.50463523  1
  Ag  Ag51  1  0.00067001  0.49737554  0.50612514  1
  Ag  Ag52  1  0.83741975  0.49877961  0.66149627  1
  Ag  Ag53  1  0.15972736  0.50190676  0.66617104  1
  Sb  Sb54  1  0.83679935  0.00144372  0.16958105  1
  Sb  Sb55  1  0.16233900  0.33121884  0.16204262  1
  Sb  Sb56  1  0.16256142  0.33268378  0.50690686  1
  Sb  Sb57  1  0.16514251  0.49615736  0.33946991  1
  Sb  Sb58  1  -0.00556181  0.33306153  0.66661703  1
  Sb  Sb59  1  0.32820469  0.50363198  0.83167240  1
  Sb  Sb60  1  0.50022690  0.00253965  0.50290894  1
  Sb  Sb61  1  0.16361474  0.16398921  -0.00287932  1
  Sb  Sb62  1  0.49414270  0.83188484  -0.00773898  1
  Sb  Sb63  1  0.67009811  0.00585415  -0.00204573  1
  Sb  Sb64  1  -0.00393659  0.17207351  0.16960426  1
  Sb  Sb65  1  0.50522473  0.33677281  0.16623624  1
  Sb  Sb66  1  0.00496556  0.66410800  -0.00135228  1
  Sb  Sb67  1  -0.00236138  -0.00014086  0.66797510  1
  Sb  Sb68  1  0.66323784  0.83095483  0.17306633  1
  Sb  Sb69  1  0.33347162  0.66851657  0.66966940  1
  Sb  Sb70  1  0.16829742  0.66865396  0.16739126  1
  Sb  Sb71  1  0.33165774  0.16640215  0.49967114  1
  Sb  Sb72  1  0.66434162  0.83659832  0.82387942  1
  Sb  Sb73  1  0.16794273  -0.00334400  0.82833967  1
  Sb  Sb74  1  0.32743612  -0.00308817  0.00276944  1
  Sb  Sb75  1  0.49657779  -0.00367108  0.16539189  1
  Sb  Sb76  1  0.50147953  0.16850144  0.00094698  1
  Sb  Sb77  1  0.16603520  0.50288284  -0.00524150  1
  Sb  Sb78  1  0.33707866  0.67088739  0.33111307  1
  Sb  Sb79  1  0.83237952  0.00087088  0.82964293  1
  Sb  Sb80  1  0.83511531  0.33297601  0.82841452  1
  Sb  Sb81  1  0.49827457  0.49913725  0.00041437  1
  Sb  Sb82  1  0.32954314  0.32968815  0.33125127  1
  Sb  Sb83  1  0.33579035  -0.00332492  0.66238688  1
  Sb  Sb84  1  0.67187007  0.32896289  0.33531228  1
  Sb  Sb85  1  0.83966438  0.83158019  -0.00577032  1
  Sb  Sb86  1  0.00160497  0.00662657  0.33457551  1
  Sb  Sb87  1  0.50178200  0.49639005  0.33403105  1
  Sb  Sb88  1  0.50213089  0.50307744  0.66593975  1
  Sb  Sb89  1  0.50099655  0.66489143  0.50179939  1
  Sb  Sb90  1  0.33676674  0.33431050  0.66927636  1
  Sb  Sb91  1  0.66216758  0.66252554  0.00092676  1
  Sb  Sb92  1  0.33235982  0.16504661  0.83210742  1
  Sb  Sb93  1  0.16790092  0.83815348  0.34155904  1
  Sb  Sb94  1  0.83456631  0.66643109  0.82685358  1
  Sb  Sb95  1  0.83529274  0.00272177  0.50101442  1
  Sb  Sb96  1  0.83250380  0.83575271  0.34192318  1
  Sb  Sb97  1  0.49935072  0.83691737  0.33959310  1
  Sb  Sb98  1  0.67048444  0.49590344  0.83352293  1
  Sb  Sb99  1  0.33549217  0.16757472  0.16871562  1
  Sb  Sb100  1  0.50627309  0.16454214  0.66407897  1
  Sb  Sb101  1  -0.00233624  0.66716145  0.66431655  1
  Sb  Sb102  1  0.83408905  0.17016821  -0.00181262  1
  Sb  Sb103  1  0.67172161  0.49828555  0.49841649  1
  Sb  Sb104  1  -0.00467942  0.66159126  0.33716204  1
  Sb  Sb105  1  0.83517457  0.49817259  0.00048284  1
  Sb  Sb106  1  0.00478847  0.83002298  0.16740143  1
  Sb  Sb107  1  0.83324082  0.49469932  0.33700866  1
  Te  Te108  1  0.16584037  0.16181237  0.16958276  1
  Te  Te109  1  0.16471967  0.16641613  0.50177387  1
  Te  Te110  1  0.16383093  0.16699322  0.82916445  1
  Te  Te111  1  0.16654736  0.50029308  0.16738315  1
  Te  Te112  1  0.16360068  0.49995172  0.50475601  1
  Te  Te113  1  0.16316750  0.50003687  0.82860300  1
  Te  Te114  1  0.17013221  0.83590972  0.16764724  1
  Te  Te115  1  0.16633570  0.83246871  0.50310192  1
  Te  Te116  1  0.16647239  0.83390504  0.82966884  1
  Te  Te117  1  0.50609503  0.16571603  0.17250463  1
  Te  Te118  1  0.50101923  0.17077349  0.49704497  1
  Te  Te119  1  0.50204054  0.17076621  0.83280119  1
  Te  Te120  1  0.49538510  0.50487087  0.16713413  1
  Te  Te121  1  0.49383596  0.49337609  0.50058241  1
  Te  Te122  1  0.49975878  0.49911571  0.83224697  1
  Te  Te123  1  0.49440559  0.82796843  0.16543173  1
  Te  Te124  1  0.50131054  0.83340795  0.50700478  1
  Te  Te125  1  0.49828376  0.82978660  0.82768866  1
  Te  Te126  1  0.82840467  0.16923312  0.16791310  1
  Te  Te127  1  0.83444924  0.16679980  0.50258171  1
  Te  Te128  1  0.83394476  0.16647118  0.82782712  1
  Te  Te129  1  0.83468360  0.49941584  0.16742112  1
  Te  Te130  1  0.83775112  0.50238534  0.50245558  1
  Te  Te131  1  0.84140031  0.50078919  0.82560731  1
  Te  Te132  1  0.83393261  0.82869135  0.16692199  1
  Te  Te133  1  0.83230541  0.83071514  0.50418104  1
  Te  Te134  1  0.84134630  0.83274580  0.82587024  1
  Te  Te135  1  0.16310583  -0.00468674  0.00246721  1
  Te  Te136  1  0.16758280  0.00382057  0.33558534  1
  Te  Te137  1  0.16745756  -0.00072339  0.66069269  1
  Te  Te138  1  0.16521718  0.33336414  -0.00565690  1
  Te  Te139  1  0.16131695  0.32673235  0.33225331  1
  Te  Te140  1  0.16906400  0.33309310  0.67317869  1
  Te  Te141  1  0.17183525  0.67188484  -0.00211178  1
  Te  Te142  1  0.16753824  0.66558700  0.34143254  1
  Te  Te143  1  0.16774317  0.66757220  0.66607276  1
  Te  Te144  1  0.50023111  0.00018864  -0.00766641  1
  Te  Te145  1  0.50122719  0.00487870  0.33221760  1
  Te  Te146  1  0.50472254  -0.00304776  0.67096577  1
  Te  Te147  1  0.50258179  0.33326964  -0.00434001  1
  Te  Te148  1  0.49828495  0.32677682  0.33734770  1
  Te  Te149  1  0.50526620  0.33335965  0.66747752  1
  Te  Te150  1  0.49408267  0.66628183  -0.00185329  1
  Te  Te151  1  0.50623949  0.66763944  0.32912140  1
  Te  Te152  1  0.50663855  0.66977106  0.66950854  1
  Te  Te153  1  0.84285623  -0.00095300  0.00098265  1
  Te  Te154  1  0.82597027  0.00724968  0.33306395  1
  Te  Te155  1  0.82509937  -0.00101254  0.66633494  1
  Te  Te156  1  0.83336753  0.33380455  0.00577475  1
  Te  Te157  1  0.83720919  0.32901671  0.33488980  1
  Te  Te158  1  0.82815995  0.33225623  0.66307314  1
  Te  Te159  1  0.83203471  0.66603853  0.00707875  1
  Te  Te160  1  0.82847734  0.66804989  0.33488278  1
  Te  Te161  1  0.82885889  0.66709997  0.66253416  1
  Te  Te162  1  -0.00067347  0.16893016  -0.00482567  1
  Te  Te163  1  -0.00126744  0.17013930  0.33652592  1
  Te  Te164  1  -0.00222048  0.16553731  0.66565271  1
  Te  Te165  1  0.00085051  0.49440849  0.00123317  1
  Te  Te166  1  0.00000667  0.49295312  0.33270043  1
  Te  Te167  1  -0.00045221  0.49980902  0.66558221  1
  Te  Te168  1  0.00603852  0.83475655  -0.00142653  1
  Te  Te169  1  -0.00036718  0.83478202  0.34104631  1
  Te  Te170  1  0.00117706  0.83465717  0.66505357  1
  Te  Te171  1  0.33242681  0.17445633  0.00108831  1
  Te  Te172  1  0.32742578  0.16156286  0.33283072  1
  Te  Te173  1  0.32271454  0.16549985  0.66640307  1
  Te  Te174  1  0.33156175  0.49999448  0.00338758  1
  Te  Te175  1  0.33320219  0.49942443  0.33317477  1
  Te  Te176  1  0.32767468  0.50077959  0.66052216  1
  Te  Te177  1  0.32900758  0.83192307  -0.00030746  1
  Te  Te178  1  0.33445524  0.83867254  0.33321731  1
  Te  Te179  1  0.33083722  0.83333241  0.66560101  1
  Te  Te180  1  0.66822992  0.17207045  -0.00331418  1
  Te  Te181  1  0.66926475  0.16716506  0.33767921  1
  Te  Te182  1  0.66731126  0.16742380  0.66369197  1
  Te  Te183  1  0.66777732  0.49320058  0.00595700  1
  Te  Te184  1  0.66687779  0.50750692  0.32693860  1
  Te  Te185  1  0.67123432  0.49817772  0.66681414  1
  Te  Te186  1  0.66874240  0.83477831  -0.00079611  1
  Te  Te187  1  0.66582499  0.83421730  0.34060082  1
  Te  Te188  1  0.66847184  0.83320537  0.66465750  1
  Te  Te189  1  0.00517914  0.00010072  0.16274557  1
  Te  Te190  1  0.00548998  0.00104282  0.50010508  1
  Te  Te191  1  0.00064621  0.00181782  0.83621542  1
  Te  Te192  1  -0.00359087  0.33642569  0.16289339  1
  Te  Te193  1  -0.00304026  0.33236142  0.49948514  1
  Te  Te194  1  0.00095484  0.33250351  0.83428471  1
  Te  Te195  1  -0.00294061  0.66048463  0.16777814  1
  Te  Te196  1  -0.00085172  0.66549787  0.49842235  1
  Te  Te197  1  0.00356509  0.66622183  0.83504682  1
  Te  Te198  1  0.32948051  -0.00275813  0.17045810  1
  Te  Te199  1  0.33099001  -0.00369598  0.49533070  1
  Te  Te200  1  0.33962817  -0.00560700  0.83443790  1
  Te  Te201  1  0.33487380  0.33791365  0.16165698  1
  Te  Te202  1  0.33523886  0.33775719  0.49939100  1
  Te  Te203  1  0.33505415  0.33402201  0.83748112  1
  Te  Te204  1  0.33416279  0.66660465  0.16458407  1
  Te  Te205  1  0.33204952  0.66728937  0.49838379  1
  Te  Te206  1  0.33255107  0.66882062  0.83642414  1
  Te  Te207  1  0.66625002  0.00267502  0.16809146  1
  Te  Te208  1  0.66585477  0.00071940  0.50045821  1
  Te  Te209  1  0.66257478  0.00533765  0.83308366  1
  Te  Te210  1  0.66975713  0.33329130  0.16807636  1
  Te  Te211  1  0.66915621  0.33336659  0.50143513  1
  Te  Te212  1  0.66713121  0.33119962  0.83374061  1
  Te  Te213  1  0.66579423  0.66530186  0.16587368  1
  Te  Te214  1  0.66792486  0.66553698  0.50051033  1
  Te  Te215  1  0.66389610  0.66530766  0.83121387  1
