# generated using pymatgen
data_AgSbTe2
_symmetry_space_group_name_H-M   'P 1'
_cell_length_a   18.33533008
_cell_length_b   18.33994055
_cell_length_c   18.33899161
_cell_angle_alpha   89.99952651
_cell_angle_beta   90.00265524
_cell_angle_gamma   90.00140077
_symmetry_Int_Tables_number   1
_chemical_formula_structural   AgSbTe2
_chemical_formula_sum   'Ag54 Sb54 Te108'
_cell_volume   6166.83186105
_cell_formula_units_Z   54
loop_
 _symmetry_equiv_pos_site_id
 _symmetry_equiv_pos_as_xyz
  1  'x, y, z'
loop_
 _atom_site_type_symbol
 _atom_site_label
 _atom_site_symmetry_multiplicity
 _atom_site_fract_x
 _atom_site_fract_y
 _atom_site_fract_z
 _atom_site_occupancy
  Ag  Ag0  1  0.33013271  0.18140413  0.83330777  1
  Ag  Ag1  1  0.48918267  0.50006758  -0.01015946  1
  Ag  Ag2  1  0.16746558  0.50370355  0.33114476  1
  Ag  Ag3  1  0.32597195  0.65980056  0.66603709  1
  Ag  Ag4  1  0.66835528  -0.00137382  0.66260397  1
  Ag  Ag5  1  0.00918143  0.16325524  0.16358505  1
  Ag  Ag6  1  0.32516925  0.66102808  0.33627518  1
  Ag  Ag7  1  0.00314696  0.00234073  0.00249962  1
  Ag  Ag8  1  0.16489446  0.66886036  0.50301757  1
  Ag  Ag9  1  0.17051640  0.49640269  -0.00760912  1
  Ag  Ag10  1  0.32274152  0.83338591  0.16013240  1
  Ag  Ag11  1  0.83744828  0.66778376  0.82267395  1
  Ag  Ag12  1  0.66744396  0.50138186  0.17067368  1
  Ag  Ag13  1  0.17304839  0.33888009  0.83898817  1
  Ag  Ag14  1  0.32711520  0.83086306  0.83335897  1
  Ag  Ag15  1  0.83174650  0.50401343  0.66321413  1
  Ag  Ag16  1  0.16896765  0.33169017  0.15787463  1
  Ag  Ag17  1  0.65290356  0.33654657  0.66520899  1
  Ag  Ag18  1  0.32826167  0.33753461  0.33317257  1
  Ag  Ag19  1  0.32885121  0.33593757  -0.01164668  1
  Ag  Ag20  1  0.16959100  0.82894574  0.00748018  1
  Ag  Ag21  1  0.32528663  0.17050196  0.16386647  1
  Ag  Ag22  1  0.17124224  0.50278251  0.67381744  1
  Ag  Ag23  1  0.16265186  -0.00746055  0.49738609  1
  Ag  Ag24  1  0.67208939  0.49797422  0.50219524  1
  Ag  Ag25  1  0.49663856  0.83051089  0.67309803  1
  Ag  Ag26  1  0.83902671  0.16785799  0.00387530  1
  Ag  Ag27  1  0.16482489  -0.00739589  0.17029657  1
  Ag  Ag28  1  0.48889682  0.82915647  -0.00799222  1
  Ag  Ag29  1  0.83711381  0.49680360  0.34513206  1
  Ag  Ag30  1  0.83490531  0.82065154  0.66905792  1
  Ag  Ag31  1  0.67112833  -0.00111445  0.33829394  1
  Ag  Ag32  1  0.01239988  0.33134754  0.00007243  1
  Ag  Ag33  1  0.16619648  0.16805277  0.32551626  1
  Ag  Ag34  1  0.66299167  0.83227099  0.83061647  1
  Ag  Ag35  1  0.01261274  0.83753904  0.15854372  1
  Ag  Ag36  1  0.16786019  0.67892599  0.17376952  1
  Ag  Ag37  1  0.50095760  0.33572436  0.51229070  1
  Ag  Ag38  1  0.01123375  0.50368977  0.83142194  1
  Ag  Ag39  1  0.33848922  0.34054187  0.67714284  1
  Ag  Ag40  1  0.00512676  0.66670143  0.66864299  1
  Ag  Ag41  1  0.16872891  0.82340036  0.66910575  1
  Ag  Ag42  1  0.16812872  0.82676749  0.32059318  1
  Ag  Ag43  1  0.49248189  0.49270025  0.67126362  1
  Ag  Ag44  1  0.32822485  0.49398319  0.83037063  1
  Ag  Ag45  1  0.83584568  -0.00159481  0.50051256  1
  Ag  Ag46  1  0.83802453  0.66135107  0.50599236  1
  Ag  Ag47  1  0.00934349  0.82703112  0.83444487  1
  Ag  Ag48  1  0.48928597  0.18164082  0.66854027  1
  Ag  Ag49  1  0.82860995  0.34505245  0.50152397  1
  Ag  Ag50  1  0.84064484  0.17273521  0.33284425  1
  Ag  Ag51  1  0.17125533  0.17098415  0.66499445  1
  Ag  Ag52  1  0.66568549  0.83197763  0.16271967  1
  Ag  Ag53  1  0.48482615  0.33800437  0.82415447  1
  Sb  Sb54  1  0.66421509  0.66789375  0.33404548  1
  Sb  Sb55  1  0.49895245  0.66164979  0.50512621  1
  Sb  Sb56  1  0.16457866  0.66373319  0.82750960  1
  Sb  Sb57  1  0.66639929  0.66718849  0.00000269  1
  Sb  Sb58  1  0.83842419  0.33383253  0.17042590  1
  Sb  Sb59  1  0.00623770  0.33959116  0.67222275  1
  Sb  Sb60  1  0.32841987  0.66468185  -0.00482292  1
  Sb  Sb61  1  0.00259457  0.83239929  0.50325160  1
  Sb  Sb62  1  0.49530735  -0.00226423  0.16656317  1
  Sb  Sb63  1  0.49420798  0.83393358  0.33297305  1
  Sb  Sb64  1  0.00490634  0.66722159  -0.00617748  1
  Sb  Sb65  1  0.66518576  0.33249291  0.33879752  1
  Sb  Sb66  1  0.33298697  0.49909854  0.50793309  1
  Sb  Sb67  1  0.83955058  0.66673090  0.16987349  1
  Sb  Sb68  1  0.16764210  0.33666976  0.50237961  1
  Sb  Sb69  1  0.33054827  0.50047180  0.16271503  1
  Sb  Sb70  1  0.49193696  0.33576407  0.16259032  1
  Sb  Sb71  1  0.67001556  0.66531105  0.66637207  1
  Sb  Sb72  1  0.32638729  0.00006134  0.00086389  1
  Sb  Sb73  1  0.50038729  0.00344186  0.50432657  1
  Sb  Sb74  1  0.33045202  0.16990848  0.50370389  1
  Sb  Sb75  1  0.83837079  0.83125314  0.33774440  1
  Sb  Sb76  1  0.83602322  0.17025363  0.66337932  1
  Sb  Sb77  1  0.66312806  0.33529083  -0.00509593  1
  Sb  Sb78  1  0.00673913  0.33364794  0.32866897  1
  Sb  Sb79  1  0.83417860  -0.00480474  0.82825332  1
  Sb  Sb80  1  0.66845260  0.17079023  0.50111333  1
  Sb  Sb81  1  -0.00074055  -0.00597877  0.67117408  1
  Sb  Sb82  1  0.16478381  0.17024250  0.00477589  1
  Sb  Sb83  1  0.83491480  0.33773318  0.82884217  1
  Sb  Sb84  1  0.66311240  0.16399018  0.83034629  1
  Sb  Sb85  1  0.32924091  0.83114627  0.50337658  1
  Sb  Sb86  1  0.33005168  0.00074346  0.33240738  1
  Sb  Sb87  1  0.83659943  0.49655083  -0.00304486  1
  Sb  Sb88  1  0.33319297  0.00064726  0.66770219  1
  Sb  Sb89  1  -0.00151260  0.50033233  0.50683857  1
  Sb  Sb90  1  0.49276601  0.66622428  0.16628220  1
  Sb  Sb91  1  0.00146246  0.16687991  0.49608250  1
  Sb  Sb92  1  0.49793914  0.16839791  -0.00562757  1
  Sb  Sb93  1  0.00090193  0.00007172  0.32890325  1
  Sb  Sb94  1  0.00689347  0.66637021  0.33822634  1
  Sb  Sb95  1  0.49525825  0.16877615  0.33798190  1
  Sb  Sb96  1  0.83872491  -0.00065304  0.17093848  1
  Sb  Sb97  1  0.16623158  -0.00059502  0.83464103  1
  Sb  Sb98  1  0.66853986  0.83078670  0.50465994  1
  Sb  Sb99  1  0.49923645  -0.00159089  0.83143153  1
  Sb  Sb100  1  0.66444657  0.50343922  0.82913417  1
  Sb  Sb101  1  0.83910579  0.83631774  -0.00596767  1
  Sb  Sb102  1  0.00610302  0.16872923  0.83783292  1
  Sb  Sb103  1  0.50016312  0.66507942  0.83019684  1
  Sb  Sb104  1  0.67130731  -0.00336833  0.00026626  1
  Sb  Sb105  1  0.49615067  0.49807123  0.33699546  1
  Sb  Sb106  1  0.00374551  0.50091496  0.16169470  1
  Sb  Sb107  1  0.66693473  0.16690362  0.16867289  1
  Te  Te108  1  0.16777562  0.17134011  0.16549451  1
  Te  Te109  1  0.16586882  0.16515237  0.49996354  1
  Te  Te110  1  0.17083867  0.16747406  0.82996182  1
  Te  Te111  1  0.16647599  0.49059472  0.17102616  1
  Te  Te112  1  0.16541100  0.50433136  0.49531904  1
  Te  Te113  1  0.16849349  0.50085708  0.83355496  1
  Te  Te114  1  0.16730538  0.83591624  0.16532243  1
  Te  Te115  1  0.16626972  0.83197394  0.50836556  1
  Te  Te116  1  0.16637713  0.83324055  0.82911952  1
  Te  Te117  1  0.49235469  0.16630912  0.16573084  1
  Te  Te118  1  0.49975108  0.17242431  0.50762413  1
  Te  Te119  1  0.49515056  0.17005566  0.82841422  1
  Te  Te120  1  0.50570171  0.50111546  0.16476573  1
  Te  Te121  1  0.50612700  0.49579103  0.50444282  1
  Te  Te122  1  0.49930132  0.49924367  0.83193239  1
  Te  Te123  1  0.50514233  0.83302027  0.16422960  1
  Te  Te124  1  0.49951640  0.83342775  0.50595750  1
  Te  Te125  1  0.50078592  0.83193712  0.83424650  1
  Te  Te126  1  0.83515988  0.16677647  0.17064728  1
  Te  Te127  1  0.83478553  0.15923704  0.49396727  1
  Te  Te128  1  0.83463811  0.16731795  0.83685994  1
  Te  Te129  1  0.83021189  0.50108901  0.16731363  1
  Te  Te130  1  0.83472659  0.50197061  0.50164118  1
  Te  Te131  1  0.83300880  0.50451163  0.82960835  1
  Te  Te132  1  0.82606660  0.83170641  0.16681749  1
  Te  Te133  1  0.83550655  0.83520816  0.50484750  1
  Te  Te134  1  0.83393441  0.83045305  0.82902479  1
  Te  Te135  1  0.16255851  -0.00663918  0.00395318  1
  Te  Te136  1  0.16633015  0.00325644  0.33361331  1
  Te  Te137  1  0.16556254  0.00380192  0.66356002  1
  Te  Te138  1  0.16945343  0.33351656  -0.00209210  1
  Te  Te139  1  0.16907093  0.33149826  0.33736082  1
  Te  Te140  1  0.17072163  0.33533062  0.66680629  1
  Te  Te141  1  0.16658175  0.66591832  0.00961420  1
  Te  Te142  1  0.16782977  0.66664952  0.33559764  1
  Te  Te143  1  0.16615404  0.66327139  0.66590493  1
  Te  Te144  1  0.50176749  -0.00737263  -0.00042909  1
  Te  Te145  1  0.50909906  0.00145233  0.33590752  1
  Te  Te146  1  0.50669173  -0.01010056  0.66531147  1
  Te  Te147  1  0.49497734  0.33738406  -0.00520099  1
  Te  Te148  1  0.49407550  0.33230545  0.33518078  1
  Te  Te149  1  0.49790214  0.33689196  0.66814470  1
  Te  Te150  1  0.49806676  0.66604543  -0.00075521  1
  Te  Te151  1  0.48913158  0.66697538  0.33595467  1
  Te  Te152  1  0.49189059  0.67088084  0.66578275  1
  Te  Te153  1  0.83948515  0.00512474  0.00085596  1
  Te  Te154  1  0.83161295  -0.00022083  0.33785816  1
  Te  Te155  1  0.83051675  0.00250649  0.66148614  1
  Te  Te156  1  0.83236001  0.32870519  0.00059611  1
  Te  Te157  1  0.83320192  0.33448170  0.33754076  1
  Te  Te158  1  0.83642135  0.33732162  0.66224168  1
  Te  Te159  1  0.83528452  0.66594859  -0.00224110  1
  Te  Te160  1  0.83350687  0.66102434  0.33896471  1
  Te  Te161  1  0.83209770  0.66484137  0.66469411  1
  Te  Te162  1  -0.00080239  0.16798865  0.00322347  1
  Te  Te163  1  0.00105821  0.16694867  0.32624684  1
  Te  Te164  1  0.00742296  0.16631002  0.66849858  1
  Te  Te165  1  0.00437193  0.49578651  -0.00548404  1
  Te  Te166  1  -0.00085982  0.49995223  0.32981236  1
  Te  Te167  1  0.00160605  0.50372086  0.67246157  1
  Te  Te168  1  0.00327537  0.83303851  -0.00185731  1
  Te  Te169  1  0.00664098  0.83286909  0.32450359  1
  Te  Te170  1  -0.00005290  0.82996007  0.67046444  1
  Te  Te171  1  0.33520572  0.17036542  -0.00232155  1
  Te  Te172  1  0.32917692  0.16837598  0.32924662  1
  Te  Te173  1  0.33213224  0.16684431  0.66988971  1
  Te  Te174  1  0.33149371  0.49872127  -0.00343720  1
  Te  Te175  1  0.33008067  0.50062751  0.33185123  1
  Te  Te176  1  0.33280754  0.49984826  0.66886357  1
  Te  Te177  1  0.33123334  0.83263898  0.00043559  1
  Te  Te178  1  0.32856244  0.83268582  0.32941048  1
  Te  Te179  1  0.33039869  0.83473555  0.66871648  1
  Te  Te180  1  0.67200765  0.16562212  0.00004887  1
  Te  Te181  1  0.66955874  0.16209351  0.33247940  1
  Te  Te182  1  0.66627839  0.16593504  0.66758575  1
  Te  Te183  1  0.66446852  0.49978306  0.00410400  1
  Te  Te184  1  0.66753802  0.50033702  0.33408117  1
  Te  Te185  1  0.66821415  0.49810353  0.66536276  1
  Te  Te186  1  0.66699259  0.83398580  -0.00154361  1
  Te  Te187  1  0.66596979  0.83592102  0.33147693  1
  Te  Te188  1  0.67007411  0.83296627  0.66801675  1
  Te  Te189  1  0.00415111  -0.00004180  0.16312887  1
  Te  Te190  1  0.00116229  -0.00027046  0.50074377  1
  Te  Te191  1  -0.00049051  -0.00522262  0.84106314  1
  Te  Te192  1  0.00475799  0.33060133  0.16075110  1
  Te  Te193  1  -0.01005998  0.33271393  0.49964944  1
  Te  Te194  1  0.00269772  0.33670513  0.83961005  1
  Te  Te195  1  0.00633302  0.67162603  0.16654360  1
  Te  Te196  1  -0.00003691  0.66678305  0.50675423  1
  Te  Te197  1  -0.00268493  0.66672593  0.82933206  1
  Te  Te198  1  0.32783099  -0.00090677  0.16654411  1
  Te  Te199  1  0.32560398  0.00083092  0.49945923  1
  Te  Te200  1  0.33314893  -0.01036233  0.83457122  1
  Te  Te201  1  0.32953523  0.33301497  0.17165964  1
  Te  Te202  1  0.33612981  0.33398590  0.49507276  1
  Te  Te203  1  0.32942504  0.33686557  0.83246722  1
  Te  Te204  1  0.32738381  0.66975434  0.16975587  1
  Te  Te205  1  0.32887585  0.66534693  0.50088217  1
  Te  Te206  1  0.33387010  0.67106282  0.82720031  1
  Te  Te207  1  0.66610851  -0.00288331  0.16915741  1
  Te  Te208  1  0.66826852  -0.00069525  0.50139820  1
  Te  Te209  1  0.66681665  -0.00646707  0.82766475  1
  Te  Te210  1  0.66538993  0.33667678  0.16639517  1
  Te  Te211  1  0.66712885  0.33684527  0.50393267  1
  Te  Te212  1  0.66610103  0.33315366  0.82627411  1
  Te  Te213  1  0.66665575  0.66723230  0.16761769  1
  Te  Te214  1  0.67098543  0.66008683  0.49861987  1
  Te  Te215  1  0.67434433  0.67344617  0.83376526  1
