# generated using pymatgen
data_AgSbTe2
_symmetry_space_group_name_H-M   'P 1'
_cell_length_a   18.32947560
_cell_length_b   18.32936020
_cell_length_c   18.34299286
_cell_angle_alpha   89.99721442
_cell_angle_beta   90.00083243
_cell_angle_gamma   90.00313281
_symmetry_Int_Tables_number   1
_chemical_formula_structural   AgSbTe2
_chemical_formula_sum   'Ag54 Sb54 Te108'
_cell_volume   6162.65054605
_cell_formula_units_Z   54
loop_
 _symmetry_equiv_pos_site_id
 _symmetry_equiv_pos_as_xyz
  1  'x, y, z'
loop_
 _atom_site_type_symbol
 _atom_site_label
 _atom_site_symmetry_multiplicity
 _atom_site_fract_x
 _atom_site_fract_y
 _atom_site_fract_z
 _atom_site_occupancy
  Ag  Ag0  1  0.65891581  0.67299012  0.66378510  1
  Ag  Ag1  1  0.66069492  0.83046336  0.49826325  1
  Ag  Ag2  1  0.83722297  0.33135096  0.17352802  1
  Ag  Ag3  1  0.83470058  0.33301825  0.49785090  1
  Ag  Ag4  1  0.49559111  0.15546031  -0.00123668  1
  Ag  Ag5  1  0.66295263  -0.00693421  -0.00118892  1
  Ag  Ag6  1  0.33617625  0.00020193  0.00191995  1
  Ag  Ag7  1  0.33958792  0.67367242  0.33650761  1
  Ag  Ag8  1  0.00128696  0.00285028  0.32916641  1
  Ag  Ag9  1  0.83113111  0.83945143  0.33370957  1
  Ag  Ag10  1  -0.00204802  0.66787451  -0.00208253  1
  Ag  Ag11  1  0.83591867  0.49710442  0.66739210  1
  Ag  Ag12  1  0.16829263  0.00348019  0.16667632  1
  Ag  Ag13  1  0.33819394  0.83409942  0.49699944  1
  Ag  Ag14  1  0.33691756  0.31953378  0.65652478  1
  Ag  Ag15  1  0.17043544  0.32891809  0.16815861  1
  Ag  Ag16  1  -0.00079786  0.32925290  0.33159985  1
  Ag  Ag17  1  -0.00073670  0.83066562  0.49962046  1
  Ag  Ag18  1  0.33514694  0.15930924  0.50645382  1
  Ag  Ag19  1  0.65945610  0.83132155  0.16929262  1
  Ag  Ag20  1  0.83724832  0.00265592  0.83755447  1
  Ag  Ag21  1  0.65834738  0.67230513  0.33469581  1
  Ag  Ag22  1  0.83057989  0.16314804  0.33700118  1
  Ag  Ag23  1  0.32924744  -0.00027473  0.34026488  1
  Ag  Ag24  1  0.65748127  0.67474599  0.00284154  1
  Ag  Ag25  1  0.66495816  0.32591959  0.66344074  1
  Ag  Ag26  1  0.34233646  0.67129399  0.00455849  1
  Ag  Ag27  1  -0.00222668  0.50253901  0.83419035  1
  Ag  Ag28  1  0.32956016  0.50285838  0.49789441  1
  Ag  Ag29  1  0.49622424  0.66927274  0.50189812  1
  Ag  Ag30  1  0.49377040  0.16584768  0.33887116  1
  Ag  Ag31  1  0.49769429  0.66861205  0.83110462  1
  Ag  Ag32  1  0.83735505  0.50111530  -0.00083314  1
  Ag  Ag33  1  0.49261519  0.15928239  0.66579086  1
  Ag  Ag34  1  0.33724643  0.00665680  0.66023215  1
  Ag  Ag35  1  0.17148849  0.00028911  0.50007673  1
  Ag  Ag36  1  0.33917932  0.83011860  0.17166088  1
  Ag  Ag37  1  0.16844773  0.00356317  0.83226164  1
  Ag  Ag38  1  0.83000131  0.16831559  0.66143796  1
  Ag  Ag39  1  -0.00063171  -0.00525973  0.00690603  1
  Ag  Ag40  1  0.00226454  0.49996695  0.16763952  1
  Ag  Ag41  1  0.33491691  0.33018113  0.00864419  1
  Ag  Ag42  1  0.49583799  0.66982309  0.16687983  1
  Ag  Ag43  1  0.33426497  0.16389304  0.82003998  1
  Ag  Ag44  1  -0.00137992  0.66431056  0.66593279  1
  Ag  Ag45  1  0.33021847  0.32935220  0.33467258  1
  Ag  Ag46  1  0.17979966  0.16356884  0.66535978  1
  Ag  Ag47  1  0.49919679  0.83261969  -0.00009496  1
  Ag  Ag48  1  0.00200131  0.50480092  0.49930956  1
  Ag  Ag49  1  0.65908014  -0.00164027  0.66852536  1
  Ag  Ag50  1  0.32910030  0.50527606  0.17013897  1
  Ag  Ag51  1  0.83818092  0.00106961  0.16643162  1
  Ag  Ag52  1  0.34257223  0.66891952  0.65803563  1
  Ag  Ag53  1  0.49959984  0.83205657  0.66608345  1
  Sb  Sb54  1  0.49765639  0.33550979  0.83148220  1
  Sb  Sb55  1  0.66598553  -0.00557779  0.33335700  1
  Sb  Sb56  1  0.66796562  0.50653843  0.16585835  1
  Sb  Sb57  1  0.00081270  0.83243756  0.16920743  1
  Sb  Sb58  1  0.17358270  0.67136655  0.50131328  1
  Sb  Sb59  1  0.17415587  0.83609893  0.00178288  1
  Sb  Sb60  1  0.00016817  0.33680561  0.65975761  1
  Sb  Sb61  1  0.16417399  0.49991247  0.00130604  1
  Sb  Sb62  1  0.49403864  -0.00566531  0.50219676  1
  Sb  Sb63  1  0.00070983  0.66795642  0.33441478  1
  Sb  Sb64  1  0.67178649  0.50263188  0.83161735  1
  Sb  Sb65  1  0.17332864  0.66826205  0.16559228  1
  Sb  Sb66  1  0.16499716  0.49641215  0.66556929  1
  Sb  Sb67  1  0.83014889  0.66405875  0.50110773  1
  Sb  Sb68  1  0.32862499  0.49868288  0.83280029  1
  Sb  Sb69  1  0.50157301  0.50450733  0.66573081  1
  Sb  Sb70  1  0.33427889  0.16279834  0.16975149  1
  Sb  Sb71  1  0.17033214  0.16385966  0.33754097  1
  Sb  Sb72  1  0.83482865  0.33023089  0.83024482  1
  Sb  Sb73  1  0.00256125  0.16535177  0.49877629  1
  Sb  Sb74  1  0.16840468  0.49799218  0.33257457  1
  Sb  Sb75  1  0.49731022  -0.00263347  0.83307185  1
  Sb  Sb76  1  0.49546706  0.50207559  0.33392540  1
  Sb  Sb77  1  0.66069890  0.16337106  0.83025417  1
  Sb  Sb78  1  0.83512275  0.49872199  0.33394782  1
  Sb  Sb79  1  0.83077634  0.66766789  0.16580765  1
  Sb  Sb80  1  0.83024653  0.66990765  0.83306713  1
  Sb  Sb81  1  0.66644741  0.15925219  0.16741892  1
  Sb  Sb82  1  0.33599042  0.83897123  0.83191157  1
  Sb  Sb83  1  0.49617571  0.33733760  0.16700445  1
  Sb  Sb84  1  0.00259347  0.33329838  0.00779392  1
  Sb  Sb85  1  0.16755779  0.32887056  0.49600181  1
  Sb  Sb86  1  0.82969235  0.16517764  0.00056373  1
  Sb  Sb87  1  -0.00047726  0.16707248  0.16852268  1
  Sb  Sb88  1  0.66695838  0.50520826  0.50275053  1
  Sb  Sb89  1  0.17600441  0.83899835  0.66406230  1
  Sb  Sb90  1  0.00198218  -0.00414215  0.66433781  1
  Sb  Sb91  1  0.50004870  0.83427900  0.33457389  1
  Sb  Sb92  1  0.66341186  0.33286993  -0.00194800  1
  Sb  Sb93  1  0.82761343  0.83277512  0.00576917  1
  Sb  Sb94  1  0.50060491  0.50705947  0.00101326  1
  Sb  Sb95  1  0.16826151  0.32866100  0.83610101  1
  Sb  Sb96  1  0.66189674  0.15977799  0.50224560  1
  Sb  Sb97  1  0.83646718  0.00277399  0.49764625  1
  Sb  Sb98  1  0.00337315  0.16716808  0.83162185  1
  Sb  Sb99  1  0.49885019  0.33589684  0.50165927  1
  Sb  Sb100  1  0.17098007  0.67214893  0.83261890  1
  Sb  Sb101  1  0.49734120  -0.00605210  0.16468573  1
  Sb  Sb102  1  0.66693370  0.33630834  0.33719197  1
  Sb  Sb103  1  0.16778682  0.83743901  0.33410772  1
  Sb  Sb104  1  -0.00149474  0.83093279  0.82923248  1
  Sb  Sb105  1  0.17413943  0.16270033  -0.00346524  1
  Sb  Sb106  1  0.66562129  0.83414382  0.83242560  1
  Sb  Sb107  1  0.82708830  0.83420013  0.66061784  1
  Te  Te108  1  0.16613859  0.16584769  0.16689929  1
  Te  Te109  1  0.17145223  0.16167962  0.50486495  1
  Te  Te110  1  0.17052202  0.16180266  0.82734813  1
  Te  Te111  1  0.16822402  0.49538347  0.16682204  1
  Te  Te112  1  0.16695434  0.49936750  0.49993780  1
  Te  Te113  1  0.15662744  0.50029397  0.83332999  1
  Te  Te114  1  0.17373975  0.84099121  0.16729341  1
  Te  Te115  1  0.16569066  0.84016071  0.49992259  1
  Te  Te116  1  0.16538684  0.84456719  0.83259099  1
  Te  Te117  1  0.50215307  0.16854022  0.16411317  1
  Te  Te118  1  0.49560543  0.16864841  0.50219938  1
  Te  Te119  1  0.49453895  0.16755596  0.83177193  1
  Te  Te120  1  0.49412548  0.50696983  0.16694314  1
  Te  Te121  1  0.49232405  0.50721154  0.49993939  1
  Te  Te122  1  0.49900081  0.50861709  0.83385004  1
  Te  Te123  1  0.49961407  0.82965984  0.16465197  1
  Te  Te124  1  0.49909319  0.82952956  0.50256791  1
  Te  Te125  1  0.50015194  0.82714539  0.83234966  1
  Te  Te126  1  0.83233164  0.16665275  0.16933596  1
  Te  Te127  1  0.83175387  0.17060660  0.49895289  1
  Te  Te128  1  0.83337108  0.16224034  0.83092394  1
  Te  Te129  1  0.83549803  0.49787342  0.16557675  1
  Te  Te130  1  0.83668153  0.49583097  0.50257530  1
  Te  Te131  1  0.83876857  0.49991996  0.83289670  1
  Te  Te132  1  0.83240210  0.83715062  0.17224329  1
  Te  Te133  1  0.83550050  0.83270713  0.49478459  1
  Te  Te134  1  0.83353681  0.84336827  0.83294182  1
  Te  Te135  1  0.16701696  0.00035929  0.00418426  1
  Te  Te136  1  0.16712236  0.00189564  0.33071087  1
  Te  Te137  1  0.16944604  0.00302200  0.66573615  1
  Te  Te138  1  0.17393665  0.33098032  0.00641403  1
  Te  Te139  1  0.16680246  0.33035775  0.32787214  1
  Te  Te140  1  0.17206853  0.32677646  0.66665562  1
  Te  Te141  1  0.16032818  0.66869013  -0.00173528  1
  Te  Te142  1  0.17802721  0.66739406  0.33309195  1
  Te  Te143  1  0.16084135  0.66740482  0.66846046  1
  Te  Te144  1  0.50068511  -0.00391586  -0.00105840  1
  Te  Te145  1  0.49584321  0.00707314  0.33284089  1
  Te  Te146  1  0.49889729  -0.00121232  0.66777659  1
  Te  Te147  1  0.49543790  0.33165630  -0.00081225  1
  Te  Te148  1  0.49776120  0.32616904  0.33399890  1
  Te  Te149  1  0.49854637  0.33077849  0.66662622  1
  Te  Te150  1  0.50040044  0.66843055  0.00223500  1
  Te  Te151  1  0.49828757  0.66723872  0.33232111  1
  Te  Te152  1  0.50071061  0.66676336  0.66532621  1
  Te  Te153  1  0.83221045  0.00032083  0.00387309  1
  Te  Te154  1  0.83271902  0.00153961  0.33119697  1
  Te  Te155  1  0.83339425  0.00197782  0.66633217  1
  Te  Te156  1  0.83207429  0.33529411  0.00278832  1
  Te  Te157  1  0.83229325  0.33176532  0.33363559  1
  Te  Te158  1  0.83278591  0.33454988  0.66521971  1
  Te  Te159  1  0.83860388  0.66410720  -0.00106755  1
  Te  Te160  1  0.83097414  0.67124660  0.33313375  1
  Te  Te161  1  0.83609429  0.66385413  0.66814674  1
  Te  Te162  1  -0.00002013  0.15840506  -0.00198179  1
  Te  Te163  1  -0.00636089  0.16490423  0.33467671  1
  Te  Te164  1  -0.01036581  0.16768714  0.66633572  1
  Te  Te165  1  -0.00202491  0.49857280  0.00672443  1
  Te  Te166  1  0.00041866  0.49850905  0.33321114  1
  Te  Te167  1  -0.00157025  0.50180899  0.66009334  1
  Te  Te168  1  -0.00146905  0.83418729  0.00042649  1
  Te  Te169  1  -0.00374151  0.83619692  0.33683719  1
  Te  Te170  1  -0.00192564  0.82714460  0.66094947  1
  Te  Te171  1  0.33728331  0.16393903  0.00341449  1
  Te  Te172  1  0.33507686  0.16470702  0.33596095  1
  Te  Te173  1  0.33630995  0.16413541  0.66407509  1
  Te  Te174  1  0.33260098  0.50128661  0.00180132  1
  Te  Te175  1  0.33397190  0.49605979  0.33392769  1
  Te  Te176  1  0.33245249  0.50914975  0.66462781  1
  Te  Te177  1  0.33821590  0.83287814  -0.00054338  1
  Te  Te178  1  0.33373736  0.83694508  0.33481612  1
  Te  Te179  1  0.33870511  0.82895579  0.66466518  1
  Te  Te180  1  0.65860621  0.16331094  -0.00095076  1
  Te  Te181  1  0.66900089  0.16658841  0.33487559  1
  Te  Te182  1  0.66962980  0.16402148  0.66571788  1
  Te  Te183  1  0.67398584  0.50211815  -0.00059021  1
  Te  Te184  1  0.66610472  0.50998210  0.33401601  1
  Te  Te185  1  0.67267511  0.50230496  0.66631207  1
  Te  Te186  1  0.66353412  0.83339503  0.00191114  1
  Te  Te187  1  0.66745300  0.83089787  0.33415814  1
  Te  Te188  1  0.66282664  0.83393841  0.66411795  1
  Te  Te189  1  -0.00046695  -0.00148875  0.16823044  1
  Te  Te190  1  0.00461738  -0.00311716  0.49544975  1
  Te  Te191  1  0.00143462  -0.00067512  0.83576328  1
  Te  Te192  1  -0.00167647  0.33526533  0.17097369  1
  Te  Te193  1  -0.00146598  0.33477983  0.49307286  1
  Te  Te194  1  0.00090057  0.34032516  0.83537005  1
  Te  Te195  1  0.00241163  0.66298808  0.16457994  1
  Te  Te196  1  0.00144333  0.66650974  0.50016393  1
  Te  Te197  1  0.00016730  0.66368013  0.83459266  1
  Te  Te198  1  0.33305041  -0.00393484  0.16309050  1
  Te  Te199  1  0.33316427  -0.00235290  0.50085264  1
  Te  Te200  1  0.33210540  0.00361759  0.83610782  1
  Te  Te201  1  0.33337657  0.33614325  0.16942814  1
  Te  Te202  1  0.33279969  0.33754601  0.49834712  1
  Te  Te203  1  0.33193625  0.32936114  0.83330587  1
  Te  Te204  1  0.33331115  0.66780678  0.16504545  1
  Te  Te205  1  0.33396307  0.66850116  0.49830889  1
  Te  Te206  1  0.33529408  0.66626019  0.83774258  1
  Te  Te207  1  0.66899645  -0.00728981  0.16435274  1
  Te  Te208  1  0.66750378  -0.00808926  0.50512888  1
  Te  Te209  1  0.67103012  0.00015883  0.83320336  1
  Te  Te210  1  0.67167463  0.33536286  0.16686682  1
  Te  Te211  1  0.67093001  0.33526172  0.50479802  1
  Te  Te212  1  0.66634213  0.33420782  0.82424106  1
  Te  Te213  1  0.66386686  0.67091943  0.16336407  1
  Te  Te214  1  0.66374233  0.67042699  0.50213930  1
  Te  Te215  1  0.66273994  0.66726047  0.83345505  1
