# generated using pymatgen
data_AgSbTe2
_symmetry_space_group_name_H-M   'P 1'
_cell_length_a   18.32419518
_cell_length_b   18.32530375
_cell_length_c   18.32248886
_cell_angle_alpha   90.00036650
_cell_angle_beta   89.99747218
_cell_angle_gamma   90.00135374
_symmetry_Int_Tables_number   1
_chemical_formula_structural   AgSbTe2
_chemical_formula_sum   'Ag54 Sb54 Te108'
_cell_volume   6152.62656951
_cell_formula_units_Z   54
loop_
 _symmetry_equiv_pos_site_id
 _symmetry_equiv_pos_as_xyz
  1  'x, y, z'
loop_
 _atom_site_type_symbol
 _atom_site_label
 _atom_site_symmetry_multiplicity
 _atom_site_fract_x
 _atom_site_fract_y
 _atom_site_fract_z
 _atom_site_occupancy
  Ag  Ag0  1  0.49128027  0.67255628  0.84313907  1
  Ag  Ag1  1  0.00267032  0.83098223  0.16867661  1
  Ag  Ag2  1  0.16772608  0.16343376  0.66400115  1
  Ag  Ag3  1  0.66040580  0.49882279  0.49022421  1
  Ag  Ag4  1  0.16550176  0.66869799  0.50132076  1
  Ag  Ag5  1  0.83360595  0.83378310  0.32823590  1
  Ag  Ag6  1  0.66384706  -0.00070082  0.32922254  1
  Ag  Ag7  1  0.00596076  0.33623099  0.32464985  1
  Ag  Ag8  1  0.49892337  0.17142122  0.33296639  1
  Ag  Ag9  1  0.33231824  0.83296433  0.49274494  1
  Ag  Ag10  1  0.16946341  0.83471093  0.66169493  1
  Ag  Ag11  1  0.17242694  -0.00494057  0.83855917  1
  Ag  Ag12  1  0.33710082  0.17232326  0.49088436  1
  Ag  Ag13  1  0.65668854  0.16537599  0.49233590  1
  Ag  Ag14  1  0.16670087  0.00219268  0.16403929  1
  Ag  Ag15  1  -0.00114426  0.49126552  0.17135920  1
  Ag  Ag16  1  0.83849677  0.66986511  0.49567717  1
  Ag  Ag17  1  0.50144126  0.00680261  0.49308318  1
  Ag  Ag18  1  0.33417865  0.33053957  0.65471897  1
  Ag  Ag19  1  0.49456270  -0.00195614  0.83425970  1
  Ag  Ag20  1  0.82953658  0.83626264  0.01060113  1
  Ag  Ag21  1  0.33727453  0.83451227  0.16898262  1
  Ag  Ag22  1  0.66353673  0.49701456  0.17138435  1
  Ag  Ag23  1  0.16134700  0.32866558  0.16595583  1
  Ag  Ag24  1  0.33113897  0.33605855  0.01254699  1
  Ag  Ag25  1  0.49513018  0.33090854  0.83875985  1
  Ag  Ag26  1  0.00752122  0.66405729  0.01004794  1
  Ag  Ag27  1  0.33314817  0.83055397  0.84009652  1
  Ag  Ag28  1  0.66508685  -0.00188535  0.01195939  1
  Ag  Ag29  1  0.33497122  0.49321657  0.49666381  1
  Ag  Ag30  1  0.66028921  0.83563367  0.16843495  1
  Ag  Ag31  1  0.49577561  0.33380434  0.17048760  1
  Ag  Ag32  1  0.82707951  -0.00123346  0.49578540  1
  Ag  Ag33  1  0.66222466  0.16535514  0.17256608  1
  Ag  Ag34  1  0.49422155  0.32751126  0.48804401  1
  Ag  Ag35  1  0.66388803  0.66739829  0.66276680  1
  Ag  Ag36  1  0.17217285  0.83210295  0.33046453  1
  Ag  Ag37  1  0.83580950  0.16274154  0.00685312  1
  Ag  Ag38  1  0.49726766  0.83385589  0.32754648  1
  Ag  Ag39  1  0.00658184  0.33458301  0.01252484  1
  Ag  Ag40  1  0.49848772  0.67354881  0.16511292  1
  Ag  Ag41  1  0.00180873  0.17835859  0.16850392  1
  Ag  Ag42  1  0.00448856  0.16727835  0.84610419  1
  Ag  Ag43  1  0.00251255  0.17166020  0.49094962  1
  Ag  Ag44  1  0.84782428  0.32888152  0.16733822  1
  Ag  Ag45  1  0.33577477  0.33137122  0.32972866  1
  Ag  Ag46  1  0.33409302  0.17556074  0.17069625  1
  Ag  Ag47  1  0.49869987  0.83176902  0.01106289  1
  Ag  Ag48  1  0.16689086  0.50152949  0.00347854  1
  Ag  Ag49  1  0.17210985  0.67400369  0.83473824  1
  Ag  Ag50  1  0.00212613  0.66379996  0.32761480  1
  Ag  Ag51  1  0.00370211  0.49834443  0.49026286  1
  Ag  Ag52  1  0.32996936  0.66659587  0.00108951  1
  Ag  Ag53  1  0.49954534  0.49032807  0.33199323  1
  Sb  Sb54  1  0.65922885  0.33595463  0.66198704  1
  Sb  Sb55  1  0.33067690  0.16501873  0.83593004  1
  Sb  Sb56  1  0.17130880  0.33128899  0.83913031  1
  Sb  Sb57  1  0.66206287  0.50164948  0.83622178  1
  Sb  Sb58  1  0.33076386  0.66688985  0.32956474  1
  Sb  Sb59  1  -0.00337331  0.00027643  0.33133403  1
  Sb  Sb60  1  0.83246884  0.50313238  0.33157809  1
  Sb  Sb61  1  0.33415872  0.50182353  0.83278741  1
  Sb  Sb62  1  0.16364041  0.16993253  0.00207255  1
  Sb  Sb63  1  0.50232610  0.16345006  0.00693352  1
  Sb  Sb64  1  0.00351987  0.49672987  0.83904256  1
  Sb  Sb65  1  0.49949378  -0.00144294  0.17003424  1
  Sb  Sb66  1  0.16904236  -0.00238991  0.49622753  1
  Sb  Sb67  1  0.83141225  0.33034710  0.84397570  1
  Sb  Sb68  1  0.83151523  0.33255358  0.49224888  1
  Sb  Sb69  1  0.49768175  0.66667341  0.49451841  1
  Sb  Sb70  1  0.33590377  0.66558630  0.66853909  1
  Sb  Sb71  1  0.49426653  0.16811914  0.65838897  1
  Sb  Sb72  1  0.82970419  0.16330946  0.32860464  1
  Sb  Sb73  1  0.17129480  0.82919454  0.00554584  1
  Sb  Sb74  1  0.33807249  -0.00263188  0.00224471  1
  Sb  Sb75  1  0.33238736  0.00234004  0.66580379  1
  Sb  Sb76  1  0.83834373  0.16640944  0.66501045  1
  Sb  Sb77  1  0.00844922  0.83584552  0.84234569  1
  Sb  Sb78  1  0.66655018  0.16511603  0.83506987  1
  Sb  Sb79  1  0.16706077  0.50290058  0.32987268  1
  Sb  Sb80  1  0.33921136  0.00092850  0.33231850  1
  Sb  Sb81  1  0.83297707  0.00118031  0.17024496  1
  Sb  Sb82  1  0.49823974  0.50004252  0.65817306  1
  Sb  Sb83  1  -0.00244937  0.00157571  0.00357360  1
  Sb  Sb84  1  0.16784588  0.66670917  0.16604186  1
  Sb  Sb85  1  0.66200784  0.83471913  0.49264766  1
  Sb  Sb86  1  0.49537742  0.50274544  0.00911552  1
  Sb  Sb87  1  0.00782128  0.33119802  0.66390726  1
  Sb  Sb88  1  0.49449058  0.83203403  0.66513202  1
  Sb  Sb89  1  0.00477288  0.83196685  0.49080199  1
  Sb  Sb90  1  0.00008063  0.66633224  0.66230870  1
  Sb  Sb91  1  0.66274047  0.32933566  0.33053378  1
  Sb  Sb92  1  0.66781876  0.66949331  0.33447670  1
  Sb  Sb93  1  0.16898145  0.50028171  0.66692469  1
  Sb  Sb94  1  0.83257883  0.50073418  0.66080694  1
  Sb  Sb95  1  0.66425685  0.67159424  0.00179041  1
  Sb  Sb96  1  0.66385817  0.32925428  0.00654085  1
  Sb  Sb97  1  0.00338533  0.00065295  0.66594743  1
  Sb  Sb98  1  0.17285453  0.33514605  0.49361711  1
  Sb  Sb99  1  0.83417699  -0.00072142  0.83354578  1
  Sb  Sb100  1  0.17031047  0.16342377  0.33321482  1
  Sb  Sb101  1  0.65656775  0.83426080  0.84029303  1
  Sb  Sb102  1  0.83821073  0.83256058  0.66113378  1
  Sb  Sb103  1  0.33306944  0.49623476  0.17076147  1
  Sb  Sb104  1  0.83364630  0.66865759  0.17081122  1
  Sb  Sb105  1  0.83830491  0.50149803  0.00528053  1
  Sb  Sb106  1  0.83508896  0.67015125  0.83346912  1
  Sb  Sb107  1  0.66391381  -0.00351801  0.66173487  1
  Te  Te108  1  0.16782070  0.16673550  0.16812793  1
  Te  Te109  1  0.16717960  0.16576779  0.50163347  1
  Te  Te110  1  0.16425175  0.16369685  0.83013043  1
  Te  Te111  1  0.16247741  0.49751011  0.16438712  1
  Te  Te112  1  0.16616297  0.50447480  0.49950140  1
  Te  Te113  1  0.16628199  0.50721664  0.83797156  1
  Te  Te114  1  0.16915427  0.83311292  0.16953744  1
  Te  Te115  1  0.17006804  0.83224426  0.49830568  1
  Te  Te116  1  0.17180056  0.83409938  0.83512924  1
  Te  Te117  1  0.49995689  0.16508433  0.17125355  1
  Te  Te118  1  0.49792174  0.16737530  0.49719092  1
  Te  Te119  1  0.49995449  0.16627480  0.83383818  1
  Te  Te120  1  0.50063139  0.49869643  0.17206982  1
  Te  Te121  1  0.49983640  0.49988647  0.49290241  1
  Te  Te122  1  0.50002091  0.49975935  0.83517128  1
  Te  Te123  1  0.49918718  0.83570006  0.16708653  1
  Te  Te124  1  0.49436828  0.83533545  0.49772083  1
  Te  Te125  1  0.49286544  0.83234652  0.83114495  1
  Te  Te126  1  0.83359967  0.16721689  0.16504340  1
  Te  Te127  1  0.83680617  0.16425671  0.49890955  1
  Te  Te128  1  0.83940463  0.16552533  0.83872859  1
  Te  Te129  1  0.83259183  0.49500337  0.16666001  1
  Te  Te130  1  0.83194569  0.50296925  0.49739045  1
  Te  Te131  1  0.83266542  0.49973761  0.83229173  1
  Te  Te132  1  0.83195483  0.83450581  0.16812191  1
  Te  Te133  1  0.83339168  0.83299399  0.49565487  1
  Te  Te134  1  0.83382558  0.83469360  0.83563059  1
  Te  Te135  1  0.16676965  -0.00001058  -0.00027630  1
  Te  Te136  1  0.16533656  -0.00753947  0.32838821  1
  Te  Te137  1  0.16724829  -0.00093986  0.67085996  1
  Te  Te138  1  0.16745705  0.33615011  0.00353897  1
  Te  Te139  1  0.16766114  0.33329429  0.32730641  1
  Te  Te140  1  0.17430044  0.33018364  0.66921607  1
  Te  Te141  1  0.16757215  0.66461386  -0.00085021  1
  Te  Te142  1  0.16284956  0.67052011  0.33797608  1
  Te  Te143  1  0.16763543  0.66935060  0.66653928  1
  Te  Te144  1  0.50433304  -0.00435611  -0.00428306  1
  Te  Te145  1  0.50445005  -0.00300396  0.33547023  1
  Te  Te146  1  0.49971300  0.00018486  0.67142948  1
  Te  Te147  1  0.49640691  0.33373014  0.00285088  1
  Te  Te148  1  0.49932363  0.33188087  0.33212262  1
  Te  Te149  1  0.49297965  0.33386388  0.67138126  1
  Te  Te150  1  0.49805563  0.66915141  0.00223783  1
  Te  Te151  1  0.49994623  0.67275737  0.32718909  1
  Te  Te152  1  0.50405671  0.66609968  0.67302408  1
  Te  Te153  1  0.82769880  -0.00236308  -0.00134492  1
  Te  Te154  1  0.82749377  -0.00493529  0.33738399  1
  Te  Te155  1  0.83263139  -0.00094525  0.65710905  1
  Te  Te156  1  0.83640937  0.32986374  0.00707126  1
  Te  Te157  1  0.84142339  0.33308185  0.32686793  1
  Te  Te158  1  0.83283577  0.33301174  0.66970271  1
  Te  Te159  1  0.83780372  0.67275703  -0.00017442  1
  Te  Te160  1  0.83843411  0.67194684  0.33732074  1
  Te  Te161  1  0.82829415  0.66782431  0.66067967  1
  Te  Te162  1  -0.00200097  0.16896980  0.00652763  1
  Te  Te163  1  0.00062219  0.16937033  0.33023357  1
  Te  Te164  1  0.00599160  0.16769600  0.65987172  1
  Te  Te165  1  0.00352482  0.50014376  0.00390028  1
  Te  Te166  1  0.00007271  0.50168858  0.33212026  1
  Te  Te167  1  0.00063294  0.49854179  0.65728040  1
  Te  Te168  1  -0.00308381  0.83052582  0.00552902  1
  Te  Te169  1  -0.00180961  0.83255936  0.32900919  1
  Te  Te170  1  0.00825292  0.83259247  0.66932818  1
  Te  Te171  1  0.33380105  0.17226742  0.00674856  1
  Te  Te172  1  0.33625290  0.16799534  0.33118990  1
  Te  Te173  1  0.32821954  0.17097276  0.66593918  1
  Te  Te174  1  0.32876125  0.50123776  0.00065328  1
  Te  Te175  1  0.33588394  0.49834092  0.33777455  1
  Te  Te176  1  0.33263688  0.49263817  0.65752132  1
  Te  Te177  1  0.33743565  0.83073326  0.00207358  1
  Te  Te178  1  0.33459074  0.83309790  0.33104576  1
  Te  Te179  1  0.32775831  0.83314923  0.66392985  1
  Te  Te180  1  0.67121719  0.16175749  0.00376151  1
  Te  Te181  1  0.66367784  0.16358619  0.33345053  1
  Te  Te182  1  0.66845956  0.16639977  0.65967423  1
  Te  Te183  1  0.66836048  0.50015164  0.00842665  1
  Te  Te184  1  0.66329828  0.50160418  0.33159869  1
  Te  Te185  1  0.66577776  0.50458476  0.66233313  1
  Te  Te186  1  0.66502116  0.83670290  0.00552653  1
  Te  Te187  1  0.66450234  0.83583801  0.32890432  1
  Te  Te188  1  0.66856837  0.82825809  0.66702378  1
  Te  Te189  1  0.00514927  -0.00718952  0.16657421  1
  Te  Te190  1  -0.00136253  0.00474599  0.49898653  1
  Te  Te191  1  0.00382479  0.00682097  0.83371152  1
  Te  Te192  1  0.00352242  0.33514516  0.16746757  1
  Te  Te193  1  0.00022947  0.33372891  0.49647676  1
  Te  Te194  1  0.00030185  0.32748845  0.83535099  1
  Te  Te195  1  0.00057471  0.67019328  0.16753624  1
  Te  Te196  1  0.00114763  0.66490269  0.49797067  1
  Te  Te197  1  0.00488394  0.66617590  0.83598239  1
  Te  Te198  1  0.32750078  -0.00174037  0.16567377  1
  Te  Te199  1  0.33751631  -0.00045568  0.49964794  1
  Te  Te200  1  0.33297619  -0.00337273  0.83439821  1
  Te  Te201  1  0.33541964  0.33446819  0.16917867  1
  Te  Te202  1  0.33427518  0.33206198  0.49448098  1
  Te  Te203  1  0.33712993  0.33356479  0.83894335  1
  Te  Te204  1  0.33570648  0.66824649  0.16223146  1
  Te  Te205  1  0.32961273  0.67012305  0.50013029  1
  Te  Te206  1  0.33315418  0.66845308  0.83542202  1
  Te  Te207  1  0.66693322  0.00157066  0.16865281  1
  Te  Te208  1  0.66312740  0.00234811  0.49704666  1
  Te  Te209  1  0.66227610  0.00060651  0.83351506  1
  Te  Te210  1  0.65695396  0.33149472  0.16718277  1
  Te  Te211  1  0.66238912  0.33452208  0.49895182  1
  Te  Te212  1  0.65836468  0.33345658  0.83300415  1
  Te  Te213  1  0.66361728  0.66720736  0.16691758  1
  Te  Te214  1  0.66659483  0.66413104  0.50075894  1
  Te  Te215  1  0.66421961  0.66643980  0.82906064  1
