# generated using pymatgen
data_AgSbTe2
_symmetry_space_group_name_H-M   'P 1'
_cell_length_a   18.34714868
_cell_length_b   18.35259744
_cell_length_c   18.33843724
_cell_angle_alpha   89.99491163
_cell_angle_beta   90.00061043
_cell_angle_gamma   90.00128722
_symmetry_Int_Tables_number   1
_chemical_formula_structural   AgSbTe2
_chemical_formula_sum   'Ag54 Sb54 Te108'
_cell_volume   6174.87883846
_cell_formula_units_Z   54
loop_
 _symmetry_equiv_pos_site_id
 _symmetry_equiv_pos_as_xyz
  1  'x, y, z'
loop_
 _atom_site_type_symbol
 _atom_site_label
 _atom_site_symmetry_multiplicity
 _atom_site_fract_x
 _atom_site_fract_y
 _atom_site_fract_z
 _atom_site_occupancy
  Ag  Ag0  1  -0.00783379  0.16494139  0.50869953  1
  Ag  Ag1  1  0.50257917  0.65810722  0.49879946  1
  Ag  Ag2  1  0.49581140  0.00081449  0.82863571  1
  Ag  Ag3  1  -0.00932957  0.16487680  0.16613704  1
  Ag  Ag4  1  0.34340587  0.50658473  0.49681584  1
  Ag  Ag5  1  0.33713364  -0.00657217  0.33359182  1
  Ag  Ag6  1  0.34231318  0.67350023  0.33601862  1
  Ag  Ag7  1  0.50044052  -0.00134209  0.50114756  1
  Ag  Ag8  1  0.16275021  0.15610942  -0.00778232  1
  Ag  Ag9  1  0.83949923  0.00028837  0.82799075  1
  Ag  Ag10  1  0.33217010  0.33390582  0.66728220  1
  Ag  Ag11  1  -0.00394724  0.00400667  0.67140572  1
  Ag  Ag12  1  0.65969632  0.66433177  0.33517938  1
  Ag  Ag13  1  0.00398671  0.67179963  -0.00363700  1
  Ag  Ag14  1  0.82297920  0.50497753  0.33819129  1
  Ag  Ag15  1  0.50202563  0.66960072  0.82801913  1
  Ag  Ag16  1  0.49490836  0.82657119  0.34098748  1
  Ag  Ag17  1  0.16618722  0.00125708  0.83531940  1
  Ag  Ag18  1  0.16792730  0.83979093  -0.00600192  1
  Ag  Ag19  1  0.82918616  0.32717314  0.50625908  1
  Ag  Ag20  1  0.50119459  0.32858674  0.82592601  1
  Ag  Ag21  1  0.49504905  0.49617445  0.65560859  1
  Ag  Ag22  1  0.83052071  0.31670321  0.82631213  1
  Ag  Ag23  1  0.00589198  0.00086269  -0.01061403  1
  Ag  Ag24  1  -0.00641407  0.83837699  0.83424870  1
  Ag  Ag25  1  0.33840609  0.49840360  0.17054549  1
  Ag  Ag26  1  0.66370404  0.49724982  0.17621182  1
  Ag  Ag27  1  0.33522217  0.83945942  0.83081998  1
  Ag  Ag28  1  0.50332779  0.16483007  0.33677322  1
  Ag  Ag29  1  0.83859143  0.16147410  0.66867656  1
  Ag  Ag30  1  0.33818314  0.15895329  0.83628929  1
  Ag  Ag31  1  0.33441093  0.16701793  0.16085574  1
  Ag  Ag32  1  0.32959811  0.66940357  -0.00044875  1
  Ag  Ag33  1  0.83080032  0.00623113  0.50601717  1
  Ag  Ag34  1  0.67034064  0.16120308  0.83612574  1
  Ag  Ag35  1  0.67142548  0.83763830  0.83428728  1
  Ag  Ag36  1  0.83633686  0.49789784  -0.00218973  1
  Ag  Ag37  1  -0.00069694  0.32202688  0.66767259  1
  Ag  Ag38  1  0.16611503  0.50295924  -0.00536946  1
  Ag  Ag39  1  0.83946951  0.16612642  -0.01226351  1
  Ag  Ag40  1  0.82790494  0.67347127  0.83113907  1
  Ag  Ag41  1  0.65788287  0.50290833  0.49480143  1
  Ag  Ag42  1  0.50641163  0.50829649  0.34328822  1
  Ag  Ag43  1  0.83109672  0.83472831  0.34337070  1
  Ag  Ag44  1  0.33898474  0.83045332  0.49512014  1
  Ag  Ag45  1  0.32799487  -0.00123189  -0.00926672  1
  Ag  Ag46  1  0.66933872  0.17011770  0.16632430  1
  Ag  Ag47  1  0.82846373  0.16417683  0.33922411  1
  Ag  Ag48  1  0.17296891  0.49306946  0.67124169  1
  Ag  Ag49  1  0.82820063  0.66533373  0.49907915  1
  Ag  Ag50  1  0.50276039  0.34709862  0.50506020  1
  Ag  Ag51  1  0.15858056  0.16840287  0.67354852  1
  Ag  Ag52  1  0.17836178  0.83491640  0.33291286  1
  Ag  Ag53  1  0.83498997  0.84408875  0.66780798  1
  Sb  Sb54  1  0.16835131  0.00133119  0.15784303  1
  Sb  Sb55  1  -0.00456308  0.33019876  0.34014179  1
  Sb  Sb56  1  0.66624567  0.33843364  0.33554022  1
  Sb  Sb57  1  -0.00271659  0.49612415  0.50142666  1
  Sb  Sb58  1  -0.00282957  0.66791435  0.67118723  1
  Sb  Sb59  1  0.16779991  0.33147117  0.16445633  1
  Sb  Sb60  1  0.66329366  -0.00245431  0.33412358  1
  Sb  Sb61  1  0.66686442  0.33287843  0.66638737  1
  Sb  Sb62  1  -0.00283357  0.15876068  0.83051247  1
  Sb  Sb63  1  0.66777747  0.33330429  -0.00235572  1
  Sb  Sb64  1  0.67220717  0.00054492  0.66785330  1
  Sb  Sb65  1  0.50227206  0.83180021  0.66497174  1
  Sb  Sb66  1  0.49811417  0.66498057  0.17222484  1
  Sb  Sb67  1  0.33385336  0.16586772  0.50187436  1
  Sb  Sb68  1  0.16468689  0.83617601  0.67056398  1
  Sb  Sb69  1  0.66885881  0.00185518  -0.00498928  1
  Sb  Sb70  1  0.66615059  0.66513475  0.00128746  1
  Sb  Sb71  1  0.66677139  0.66605988  0.66235347  1
  Sb  Sb72  1  -0.00145759  0.50418405  0.83427279  1
  Sb  Sb73  1  0.33352766  0.83431721  0.16803179  1
  Sb  Sb74  1  0.83918581  0.83582996  -0.00694657  1
  Sb  Sb75  1  -0.00202821  0.32685094  -0.00842241  1
  Sb  Sb76  1  0.83284276  0.33103698  0.16727675  1
  Sb  Sb77  1  0.83320018  0.00359814  0.16598650  1
  Sb  Sb78  1  0.33483212  0.50096222  0.83225623  1
  Sb  Sb79  1  0.83245508  0.66465675  0.16725349  1
  Sb  Sb80  1  0.17266540  0.50600866  0.33376021  1
  Sb  Sb81  1  0.67016786  0.16966776  0.49982742  1
  Sb  Sb82  1  0.33492113  0.66353089  0.66626520  1
  Sb  Sb83  1  0.16487549  0.32525620  0.83054695  1
  Sb  Sb84  1  0.50115792  0.16962690  0.66520939  1
  Sb  Sb85  1  0.49700571  0.00201873  0.16740610  1
  Sb  Sb86  1  0.66552643  0.82946162  0.50227409  1
  Sb  Sb87  1  0.66670351  0.50046128  0.83182776  1
  Sb  Sb88  1  0.33026279  0.00396714  0.66986291  1
  Sb  Sb89  1  0.16853579  0.15992383  0.33213150  1
  Sb  Sb90  1  0.49881212  0.16519073  -0.00154552  1
  Sb  Sb91  1  -0.00101540  0.49457096  0.16392189  1
  Sb  Sb92  1  0.16835181  0.33267897  0.50388767  1
  Sb  Sb93  1  0.83196246  0.49736960  0.66596006  1
  Sb  Sb94  1  0.49943604  0.33211550  0.16904415  1
  Sb  Sb95  1  0.33224104  0.33173093  -0.00606674  1
  Sb  Sb96  1  0.66735986  0.83363964  0.16630645  1
  Sb  Sb97  1  0.16963073  0.66757266  0.50094153  1
  Sb  Sb98  1  0.00152903  -0.00011755  0.33516402  1
  Sb  Sb99  1  -0.00238693  0.83731157  0.50424048  1
  Sb  Sb100  1  0.16900940  0.66619264  0.16368491  1
  Sb  Sb101  1  0.16900440  0.67166016  0.83578725  1
  Sb  Sb102  1  0.49226617  0.83389339  -0.00218294  1
  Sb  Sb103  1  -0.00175282  0.66858324  0.32977081  1
  Sb  Sb104  1  0.49902821  0.50165184  0.00032775  1
  Sb  Sb105  1  -0.00053578  0.83866613  0.16086781  1
  Sb  Sb106  1  0.33687534  0.33350795  0.33919334  1
  Sb  Sb107  1  0.16703890  0.00066801  0.50513336  1
  Te  Te108  1  0.17454769  0.16730236  0.16239250  1
  Te  Te109  1  0.15967022  0.16702894  0.50349484  1
  Te  Te110  1  0.17156642  0.16426659  0.83364373  1
  Te  Te111  1  0.17163795  0.49879670  0.16348944  1
  Te  Te112  1  0.17083444  0.50020923  0.50300263  1
  Te  Te113  1  0.16699540  0.49969260  0.83338139  1
  Te  Te114  1  0.16506248  0.83392308  0.16929323  1
  Te  Te115  1  0.17063581  0.83294517  0.49902854  1
  Te  Te116  1  0.17234365  0.83756533  0.83425559  1
  Te  Te117  1  0.49981029  0.16854933  0.17014888  1
  Te  Te118  1  0.50225535  0.15801004  0.49817834  1
  Te  Te119  1  0.49984590  0.16629899  0.83218667  1
  Te  Te120  1  0.50039140  0.49799288  0.16903933  1
  Te  Te121  1  0.49883547  0.50213063  0.49826669  1
  Te  Te122  1  0.50184217  0.50201529  0.83243804  1
  Te  Te123  1  0.50256639  0.83409330  0.17751883  1
  Te  Te124  1  0.49920277  0.83877747  0.49957652  1
  Te  Te125  1  0.49593604  0.83275319  0.83227940  1
  Te  Te126  1  0.83105005  0.16790181  0.17250122  1
  Te  Te127  1  0.83123622  0.16708331  0.50065002  1
  Te  Te128  1  0.83316536  0.16112616  0.83095244  1
  Te  Te129  1  0.83065179  0.49723947  0.16701822  1
  Te  Te130  1  0.83366586  0.50251527  0.49901806  1
  Te  Te131  1  0.83113854  0.51126001  0.83597806  1
  Te  Te132  1  0.83213282  0.83438039  0.17663172  1
  Te  Te133  1  0.83268614  0.83187990  0.50384116  1
  Te  Te134  1  0.83296276  0.83501075  0.83286359  1
  Te  Te135  1  0.16803241  -0.00000401  -0.00508317  1
  Te  Te136  1  0.17197078  -0.00586677  0.33574878  1
  Te  Te137  1  0.16053673  0.00328629  0.67219643  1
  Te  Te138  1  0.16512369  0.34192025  -0.00210893  1
  Te  Te139  1  0.16499821  0.33392615  0.33434849  1
  Te  Te140  1  0.16597220  0.33107648  0.66755749  1
  Te  Te141  1  0.16766486  0.66401521  -0.00152629  1
  Te  Te142  1  0.16965871  0.67423918  0.33323529  1
  Te  Te143  1  0.16571378  0.65913870  0.66731946  1
  Te  Te144  1  0.49107493  -0.00048653  -0.00628969  1
  Te  Te145  1  0.49756833  0.00277752  0.33413941  1
  Te  Te146  1  0.49872486  0.00030632  0.66676914  1
  Te  Te147  1  0.49965211  0.33381786  -0.01223485  1
  Te  Te148  1  0.50007307  0.32823432  0.33934215  1
  Te  Te149  1  0.49815011  0.33432391  0.66572666  1
  Te  Te150  1  0.49494154  0.66738104  -0.00603775  1
  Te  Te151  1  0.49910415  0.66611738  0.33642437  1
  Te  Te152  1  0.50008053  0.66291991  0.66499925  1
  Te  Te153  1  0.83663231  0.00358259  -0.00327951  1
  Te  Te154  1  0.83357069  0.00133252  0.33656111  1
  Te  Te155  1  0.83585279  0.00107682  0.66627593  1
  Te  Te156  1  0.83428560  0.33261203  -0.00646128  1
  Te  Te157  1  0.83286300  0.32994808  0.33975089  1
  Te  Te158  1  0.83559282  0.33466186  0.66657906  1
  Te  Te159  1  0.83368904  0.66698992  -0.00202121  1
  Te  Te160  1  0.83475818  0.66382069  0.33475531  1
  Te  Te161  1  0.83386733  0.66528897  0.66769768  1
  Te  Te162  1  0.00108433  0.16419466  0.00147247  1
  Te  Te163  1  -0.00144472  0.16527152  0.32930176  1
  Te  Te164  1  -0.00092031  0.16491988  0.66735193  1
  Te  Te165  1  -0.00166650  0.50229324  0.00119197  1
  Te  Te166  1  -0.00196365  0.49920239  0.33115874  1
  Te  Te167  1  0.00580457  0.49932571  0.66662198  1
  Te  Te168  1  0.00538271  0.83511738  -0.00331155  1
  Te  Te169  1  -0.00656575  0.83333567  0.33241427  1
  Te  Te170  1  -0.00299553  0.83631732  0.67186814  1
  Te  Te171  1  0.33180844  0.16542959  -0.00167545  1
  Te  Te172  1  0.33498702  0.16492830  0.33328865  1
  Te  Te173  1  0.33168333  0.17123348  0.67006304  1
  Te  Te174  1  0.33174832  0.50205632  0.00302461  1
  Te  Te175  1  0.33439926  0.50056277  0.33404339  1
  Te  Te176  1  0.33442253  0.49746324  0.66553052  1
  Te  Te177  1  0.32857503  0.83346447  0.00192221  1
  Te  Te178  1  0.33566802  0.83323857  0.33190162  1
  Te  Te179  1  0.33208555  0.83288310  0.66786668  1
  Te  Te180  1  0.67234173  0.16682553  -0.00034229  1
  Te  Te181  1  0.66686502  0.16484099  0.33262720  1
  Te  Te182  1  0.67440930  0.16643409  0.67401849  1
  Te  Te183  1  0.67241810  0.50061128  0.00569432  1
  Te  Te184  1  0.66620291  0.50178685  0.33376070  1
  Te  Te185  1  0.65941501  0.50034804  0.66072836  1
  Te  Te186  1  0.66602256  0.83312199  -0.00306375  1
  Te  Te187  1  0.67082735  0.82899705  0.33221355  1
  Te  Te188  1  0.67355415  0.83225222  0.67491897  1
  Te  Te189  1  0.00057304  0.00658747  0.16209927  1
  Te  Te190  1  -0.00463584  0.00406278  0.50272946  1
  Te  Te191  1  -0.00122435  -0.00285837  0.83279359  1
  Te  Te192  1  0.00036449  0.32418564  0.16613201  1
  Te  Te193  1  -0.00473890  0.32833473  0.50675164  1
  Te  Te194  1  -0.00752731  0.33719640  0.82614927  1
  Te  Te195  1  0.00039837  0.66578136  0.15664535  1
  Te  Te196  1  -0.00685024  0.66751954  0.49927862  1
  Te  Te197  1  -0.00285661  0.67411696  0.83790236  1
  Te  Te198  1  0.33384308  0.00483734  0.16963990  1
  Te  Te199  1  0.33475094  -0.00294173  0.49841348  1
  Te  Te200  1  0.33427972  -0.00016235  0.83132301  1
  Te  Te201  1  0.33484330  0.33264402  0.16604469  1
  Te  Te202  1  0.33829892  0.33497074  0.50602156  1
  Te  Te203  1  0.33578831  0.33180100  0.82798993  1
  Te  Te204  1  0.33479222  0.66163383  0.16547509  1
  Te  Te205  1  0.33575316  0.66863418  0.49796539  1
  Te  Te206  1  0.33651852  0.66955988  0.83651762  1
  Te  Te207  1  0.66510545  0.00796578  0.16366576  1
  Te  Te208  1  0.66768165  -0.00122429  0.49976026  1
  Te  Te209  1  0.66186529  -0.00045447  0.83386908  1
  Te  Te210  1  0.66577379  0.33212209  0.16584021  1
  Te  Te211  1  0.66613098  0.33853799  0.50088980  1
  Te  Te212  1  0.66863060  0.33062376  0.83252485  1
  Te  Te213  1  0.66551136  0.66260006  0.17233754  1
  Te  Te214  1  0.66634966  0.66442327  0.49585792  1
  Te  Te215  1  0.66476404  0.66910282  0.83448405  1
