# generated using pymatgen
data_AgSbTe2
_symmetry_space_group_name_H-M   'P 1'
_cell_length_a   18.32776155
_cell_length_b   18.32544439
_cell_length_c   18.32645471
_cell_angle_alpha   89.99690778
_cell_angle_beta   90.00017283
_cell_angle_gamma   90.00374277
_symmetry_Int_Tables_number   1
_chemical_formula_structural   AgSbTe2
_chemical_formula_sum   'Ag54 Sb54 Te108'
_cell_volume   6155.20323737
_cell_formula_units_Z   54
loop_
 _symmetry_equiv_pos_site_id
 _symmetry_equiv_pos_as_xyz
  1  'x, y, z'
loop_
 _atom_site_type_symbol
 _atom_site_label
 _atom_site_symmetry_multiplicity
 _atom_site_fract_x
 _atom_site_fract_y
 _atom_site_fract_z
 _atom_site_occupancy
  Ag  Ag0  1  0.00357724  0.15788837  0.16307437  1
  Ag  Ag1  1  0.33549732  0.32955321  0.67072514  1
  Ag  Ag2  1  0.84516713  0.83973217  0.67701849  1
  Ag  Ag3  1  0.00568066  0.83608103  0.83419787  1
  Ag  Ag4  1  0.48802017  0.16164916  0.66753814  1
  Ag  Ag5  1  -0.00372063  0.50596933  0.16601395  1
  Ag  Ag6  1  0.83741124  0.49951361  0.66424647  1
  Ag  Ag7  1  0.49810375  0.33146514  0.82949656  1
  Ag  Ag8  1  0.33261548  0.16782411  0.51307410  1
  Ag  Ag9  1  0.33306323  0.32916289  -0.00812046  1
  Ag  Ag10  1  0.33145928  0.16347161  0.82922372  1
  Ag  Ag11  1  0.49878903  0.83419950  -0.00126059  1
  Ag  Ag12  1  0.50037559  0.83600917  0.32306144  1
  Ag  Ag13  1  0.67104208  0.00006296  0.32744371  1
  Ag  Ag14  1  0.16962155  0.15550028  0.67200335  1
  Ag  Ag15  1  0.33012988  0.16392617  0.16138307  1
  Ag  Ag16  1  0.16362361  0.83576749  0.67709214  1
  Ag  Ag17  1  0.83916922  -0.00369040  0.82939171  1
  Ag  Ag18  1  0.83490446  0.67264506  0.16203651  1
  Ag  Ag19  1  0.82967401  0.32588479  0.82756500  1
  Ag  Ag20  1  0.67322306  -0.00661086  0.00388654  1
  Ag  Ag21  1  0.67110121  0.67735060  0.00263290  1
  Ag  Ag22  1  0.83847036  0.15693395  0.66785027  1
  Ag  Ag23  1  0.83163149  0.32850445  0.51020287  1
  Ag  Ag24  1  0.16528037  0.66902829  0.16083367  1
  Ag  Ag25  1  0.49523368  0.67466703  0.50407716  1
  Ag  Ag26  1  0.33383540  0.50837746  0.16849616  1
  Ag  Ag27  1  0.16053074  -0.00846270  0.82849925  1
  Ag  Ag28  1  0.83608129  0.00021692  0.50834574  1
  Ag  Ag29  1  0.33723336  0.83349551  0.15779360  1
  Ag  Ag30  1  0.66911260  0.83494237  0.83670810  1
  Ag  Ag31  1  0.00002864  0.67601437  -0.00153896  1
  Ag  Ag32  1  0.17041718  0.67257091  0.51131023  1
  Ag  Ag33  1  0.16534473  -0.00443806  0.50967443  1
  Ag  Ag34  1  -0.00378645  -0.00741041  -0.00422839  1
  Ag  Ag35  1  0.33366946  0.49770822  0.50702417  1
  Ag  Ag36  1  0.49614184  0.83514013  0.67073591  1
  Ag  Ag37  1  0.16464262  0.67943345  0.82773873  1
  Ag  Ag38  1  0.83335677  0.83617882  -0.00514187  1
  Ag  Ag39  1  0.00014090  -0.00407917  0.67104906  1
  Ag  Ag40  1  0.83287120  -0.00589369  0.16081592  1
  Ag  Ag41  1  0.49663692  0.67385363  0.16590366  1
  Ag  Ag42  1  0.83219460  0.49956742  0.33310910  1
  Ag  Ag43  1  0.16932159  0.15575539  -0.00659215  1
  Ag  Ag44  1  0.66892033  0.33211231  0.33233912  1
  Ag  Ag45  1  0.00400697  0.67578194  0.67299937  1
  Ag  Ag46  1  0.67025688  0.50427065  0.16739327  1
  Ag  Ag47  1  -0.00662389  -0.00014163  0.32791561  1
  Ag  Ag48  1  0.32229450  0.83855085  0.83639932  1
  Ag  Ag49  1  0.50370072  -0.00827075  0.16768735  1
  Ag  Ag50  1  0.49287239  0.50427824  0.66494598  1
  Ag  Ag51  1  0.49968428  -0.00586586  0.50323268  1
  Ag  Ag52  1  0.16628697  0.51092455  0.66588452  1
  Ag  Ag53  1  0.16276972  0.83643008  -0.01065328  1
  Sb  Sb54  1  0.33386361  0.66796666  0.33263256  1
  Sb  Sb55  1  0.33024802  0.66954147  0.00241113  1
  Sb  Sb56  1  0.66617617  0.67112976  0.32577086  1
  Sb  Sb57  1  0.66458062  0.50071103  0.49697989  1
  Sb  Sb58  1  0.83406577  0.50632444  -0.00005310  1
  Sb  Sb59  1  0.66828915  0.50485574  0.83633563  1
  Sb  Sb60  1  -0.00577754  0.33042667  0.33283230  1
  Sb  Sb61  1  0.00006429  0.33103217  0.66829872  1
  Sb  Sb62  1  0.16816559  0.33051780  0.83167975  1
  Sb  Sb63  1  0.33059595  0.00001886  -0.00082955  1
  Sb  Sb64  1  0.49474764  0.66995373  0.83270350  1
  Sb  Sb65  1  0.33455117  -0.00082529  0.33353407  1
  Sb  Sb66  1  0.16923846  0.83558776  0.33328943  1
  Sb  Sb67  1  -0.00087017  0.50670663  0.83440172  1
  Sb  Sb68  1  0.32700948  0.66437292  0.66667604  1
  Sb  Sb69  1  0.82891137  0.83500824  0.32987114  1
  Sb  Sb70  1  0.00280824  0.33131814  -0.00149815  1
  Sb  Sb71  1  0.66339542  0.33312936  0.00150013  1
  Sb  Sb72  1  0.00433480  0.16155489  0.50028524  1
  Sb  Sb73  1  0.66635507  0.16379133  0.16644574  1
  Sb  Sb74  1  0.33983802  0.33305421  0.33539811  1
  Sb  Sb75  1  -0.00157989  0.67273430  0.33016690  1
  Sb  Sb76  1  0.33238433  0.49892847  0.83105438  1
  Sb  Sb77  1  0.66540813  0.33421375  0.66508801  1
  Sb  Sb78  1  0.00380459  0.83343732  0.15701928  1
  Sb  Sb79  1  0.65952959  0.83034045  0.15655075  1
  Sb  Sb80  1  0.50266881  0.33200455  0.50613219  1
  Sb  Sb81  1  0.84043225  0.15688114  -0.00492115  1
  Sb  Sb82  1  0.00581536  0.15747645  0.83509238  1
  Sb  Sb83  1  0.50361969  0.50520625  0.33552809  1
  Sb  Sb84  1  0.16313996  0.50231573  0.33581601  1
  Sb  Sb85  1  0.16917310  0.33649708  0.16422319  1
  Sb  Sb86  1  0.49945584  0.15921968  0.33749603  1
  Sb  Sb87  1  0.16721703  0.50558298  -0.00285353  1
  Sb  Sb88  1  0.33538365  0.83440717  0.50482059  1
  Sb  Sb89  1  0.00210276  0.83599857  0.50865017  1
  Sb  Sb90  1  0.83385644  0.16579095  0.33772994  1
  Sb  Sb91  1  0.49787358  0.50584943  -0.00188877  1
  Sb  Sb92  1  0.83296707  0.33301064  0.16455154  1
  Sb  Sb93  1  0.49247694  0.15925317  -0.00375948  1
  Sb  Sb94  1  0.67114017  -0.00239664  0.66899119  1
  Sb  Sb95  1  0.66968920  0.66928719  0.67198213  1
  Sb  Sb96  1  0.83850612  0.67573413  0.83680659  1
  Sb  Sb97  1  0.16548350  -0.00366340  0.16259118  1
  Sb  Sb98  1  0.16627538  0.16254270  0.33364415  1
  Sb  Sb99  1  0.83354337  0.67013578  0.50101316  1
  Sb  Sb100  1  0.66405038  0.83534244  0.50529360  1
  Sb  Sb101  1  0.49806753  0.33381798  0.16159496  1
  Sb  Sb102  1  0.00240130  0.50125436  0.49911942  1
  Sb  Sb103  1  0.16577042  0.33140889  0.50512080  1
  Sb  Sb104  1  0.66386207  0.16398539  0.50191953  1
  Sb  Sb105  1  0.32712066  0.00385867  0.66705139  1
  Sb  Sb106  1  0.66477551  0.16062374  0.83290428  1
  Sb  Sb107  1  0.49895451  -0.00167865  0.83174244  1
  Te  Te108  1  0.16744925  0.16580728  0.16468861  1
  Te  Te109  1  0.17149365  0.16328080  0.50436415  1
  Te  Te110  1  0.17105558  0.16595438  0.83257916  1
  Te  Te111  1  0.16957327  0.50543344  0.16684575  1
  Te  Te112  1  0.17128736  0.50217131  0.50370510  1
  Te  Te113  1  0.16575754  0.50115888  0.82641535  1
  Te  Te114  1  0.17351616  0.82888233  0.16674995  1
  Te  Te115  1  0.16980196  0.83301664  0.50096702  1
  Te  Te116  1  0.16572043  0.83512225  0.83354690  1
  Te  Te117  1  0.49668251  0.16260389  0.16612500  1
  Te  Te118  1  0.49452716  0.16324307  0.50496038  1
  Te  Te119  1  0.49552999  0.16788500  0.82865920  1
  Te  Te120  1  0.49587417  0.50297528  0.16708911  1
  Te  Te121  1  0.49555506  0.50127912  0.50343717  1
  Te  Te122  1  0.50077483  0.49742866  0.82686954  1
  Te  Te123  1  0.49845018  0.83374081  0.16285514  1
  Te  Te124  1  0.49817570  0.83393344  0.50818602  1
  Te  Te125  1  0.50040163  0.83329297  0.83316898  1
  Te  Te126  1  0.83664954  0.16337146  0.16574299  1
  Te  Te127  1  0.83447713  0.16336973  0.50533766  1
  Te  Te128  1  0.83323516  0.16294950  0.82865833  1
  Te  Te129  1  0.83400316  0.49916674  0.16594427  1
  Te  Te130  1  0.83332063  0.50204877  0.50137680  1
  Te  Te131  1  0.83267249  0.49717219  0.82796522  1
  Te  Te132  1  0.83472030  0.83370454  0.16389445  1
  Te  Te133  1  0.83184585  0.83896053  0.50327697  1
  Te  Te134  1  0.83399122  0.83553084  0.83407559  1
  Te  Te135  1  0.16341820  -0.00258616  -0.00178209  1
  Te  Te136  1  0.15918141  -0.00050081  0.34284884  1
  Te  Te137  1  0.16400964  -0.00287880  0.66734772  1
  Te  Te138  1  0.17216722  0.32925218  -0.00148408  1
  Te  Te139  1  0.16592673  0.33258331  0.33518605  1
  Te  Te140  1  0.17074365  0.33334593  0.66655004  1
  Te  Te141  1  0.16377427  0.67004319  0.00253470  1
  Te  Te142  1  0.16489258  0.66754870  0.33288356  1
  Te  Te143  1  0.16413606  0.66898218  0.66752837  1
  Te  Te144  1  0.50374324  -0.00570932  0.00151118  1
  Te  Te145  1  0.50150506  -0.00440201  0.33211326  1
  Te  Te146  1  0.50411635  -0.00018341  0.66456306  1
  Te  Te147  1  0.49515844  0.33292011  -0.00727056  1
  Te  Te148  1  0.50805777  0.33319685  0.33338530  1
  Te  Te149  1  0.49860566  0.33198793  0.66944150  1
  Te  Te150  1  0.50198059  0.67200337  0.00302567  1
  Te  Te151  1  0.50064210  0.67328781  0.33174414  1
  Te  Te152  1  0.50174059  0.66645378  0.66514800  1
  Te  Te153  1  0.83552577  -0.00319625  0.00139927  1
  Te  Te154  1  0.83300512  -0.00019283  0.33171342  1
  Te  Te155  1  0.83397216  -0.00183447  0.66751745  1
  Te  Te156  1  0.83254621  0.33144558  -0.00760529  1
  Te  Te157  1  0.82866119  0.33681925  0.33352929  1
  Te  Te158  1  0.83271103  0.33637387  0.66767272  1
  Te  Te159  1  0.83598586  0.67084210  0.00267977  1
  Te  Te160  1  0.83323551  0.66262381  0.32898711  1
  Te  Te161  1  0.83798464  0.66700006  0.66623777  1
  Te  Te162  1  0.00742515  0.16415210  0.00407277  1
  Te  Te163  1  -0.00043834  0.16048920  0.32467669  1
  Te  Te164  1  0.00104068  0.16293201  0.66776540  1
  Te  Te165  1  0.00128926  0.50260226  0.00636262  1
  Te  Te166  1  -0.00555358  0.50018689  0.32758217  1
  Te  Te167  1  0.00109908  0.50131960  0.66661857  1
  Te  Te168  1  0.00144147  0.83310880  -0.00286938  1
  Te  Te169  1  -0.00118266  0.84066182  0.33498920  1
  Te  Te170  1  0.00221638  0.83445648  0.67018485  1
  Te  Te171  1  0.32944151  0.16807477  -0.00025556  1
  Te  Te172  1  0.33337526  0.16765654  0.32628770  1
  Te  Te173  1  0.33165081  0.16767975  0.66873131  1
  Te  Te174  1  0.33319134  0.49241724  0.00421011  1
  Te  Te175  1  0.33330780  0.49767314  0.33039602  1
  Te  Te176  1  0.33375291  0.49697997  0.66601829  1
  Te  Te177  1  0.33319258  0.83339932  -0.00248522  1
  Te  Te178  1  0.34004030  0.83449221  0.32621659  1
  Te  Te179  1  0.33417074  0.83274798  0.67168611  1
  Te  Te180  1  0.66552205  0.16135693  0.00010528  1
  Te  Te181  1  0.66663744  0.16472935  0.33375906  1
  Te  Te182  1  0.67051192  0.16666041  0.66741378  1
  Te  Te183  1  0.66597114  0.50216834  0.00654477  1
  Te  Te184  1  0.67074320  0.50059785  0.32875458  1
  Te  Te185  1  0.66956335  0.50166331  0.66691543  1
  Te  Te186  1  0.66848420  0.83509082  -0.00261022  1
  Te  Te187  1  0.66116190  0.83951276  0.33574504  1
  Te  Te188  1  0.66169078  0.83261102  0.67417287  1
  Te  Te189  1  -0.00021782  -0.00063207  0.16381388  1
  Te  Te190  1  -0.00153227  0.00090318  0.50487199  1
  Te  Te191  1  0.00000657  -0.00236707  0.83357456  1
  Te  Te192  1  0.00090082  0.33544350  0.16625569  1
  Te  Te193  1  -0.01008582  0.33222606  0.49909770  1
  Te  Te194  1  -0.00863135  0.33407769  0.83403784  1
  Te  Te195  1  -0.00046828  0.66623764  0.16531315  1
  Te  Te196  1  0.00517825  0.66680224  0.50265357  1
  Te  Te197  1  0.00407379  0.67136492  0.83432033  1
  Te  Te198  1  0.33551637  -0.00019455  0.16645631  1
  Te  Te199  1  0.33491660  0.00316589  0.49887025  1
  Te  Te200  1  0.32949251  0.00027388  0.83347525  1
  Te  Te201  1  0.33427523  0.32880992  0.16611194  1
  Te  Te202  1  0.33414157  0.33274671  0.50323799  1
  Te  Te203  1  0.33463768  0.33232423  0.83161593  1
  Te  Te204  1  0.33555860  0.66695868  0.16681198  1
  Te  Te205  1  0.33345874  0.66358155  0.49933514  1
  Te  Te206  1  0.32621466  0.67031395  0.83514467  1
  Te  Te207  1  0.66711959  0.00084236  0.16603200  1
  Te  Te208  1  0.66521166  0.00050814  0.49380296  1
  Te  Te209  1  0.67025089  -0.00506381  0.83903938  1
  Te  Te210  1  0.66575392  0.33843685  0.16987572  1
  Te  Te211  1  0.67320763  0.33295849  0.49404641  1
  Te  Te212  1  0.66655517  0.33383750  0.83514590  1
  Te  Te213  1  0.66849124  0.66371385  0.16227630  1
  Te  Te214  1  0.65948688  0.66725033  0.49909666  1
  Te  Te215  1  0.66572432  0.67224200  0.84233542  1
