# generated using pymatgen
data_AgSbTe2
_symmetry_space_group_name_H-M   'P 1'
_cell_length_a   18.39839108
_cell_length_b   18.41566773
_cell_length_c   18.38388261
_cell_angle_alpha   89.99994639
_cell_angle_beta   89.99537854
_cell_angle_gamma   89.99750961
_symmetry_Int_Tables_number   1
_chemical_formula_structural   AgSbTe2
_chemical_formula_sum   'Ag54 Sb54 Te108'
_cell_volume   6228.80238787
_cell_formula_units_Z   54
loop_
 _symmetry_equiv_pos_site_id
 _symmetry_equiv_pos_as_xyz
  1  'x, y, z'
loop_
 _atom_site_type_symbol
 _atom_site_label
 _atom_site_symmetry_multiplicity
 _atom_site_fract_x
 _atom_site_fract_y
 _atom_site_fract_z
 _atom_site_occupancy
  Ag  Ag0  1  0.33326571  0.67154849  0.00168773  1
  Ag  Ag1  1  0.33303576  0.51399839  0.16633610  1
  Ag  Ag2  1  0.82565062  0.68438297  0.83139632  1
  Ag  Ag3  1  0.16932192  -0.00331032  0.82603022  1
  Ag  Ag4  1  0.50752046  0.67889237  0.50693813  1
  Ag  Ag5  1  -0.01703840  -0.00118119  0.32974831  1
  Ag  Ag6  1  0.17291990  0.50640060  0.66994688  1
  Ag  Ag7  1  0.83263837  0.51539669  0.00109313  1
  Ag  Ag8  1  0.83243060  0.68400865  0.16366735  1
  Ag  Ag9  1  0.50150266  0.16026924  0.66120034  1
  Ag  Ag10  1  0.82012991  -0.00350473  0.50330658  1
  Ag  Ag11  1  0.82524420  0.83918479  0.32298119  1
  Ag  Ag12  1  0.66663058  0.51813738  0.83012831  1
  Ag  Ag13  1  0.49816392  0.31499642  0.17515383  1
  Ag  Ag14  1  0.17008554  0.31383093  0.82869260  1
  Ag  Ag15  1  0.81985083  0.83691786  0.66688943  1
  Ag  Ag16  1  0.01506095  0.16262219  0.82949435  1
  Ag  Ag17  1  0.82135607  -0.00864157  0.17824964  1
  Ag  Ag18  1  0.50898259  0.83743588  0.66992600  1
  Ag  Ag19  1  0.33826569  0.31967820  0.33464317  1
  Ag  Ag20  1  0.16713390  -0.00372547  0.16957388  1
  Ag  Ag21  1  0.66302308  -0.01107972  0.65659511  1
  Ag  Ag22  1  0.33285458  0.15003658  0.82756957  1
  Ag  Ag23  1  0.33538096  0.32971342  0.66570824  1
  Ag  Ag24  1  0.66366915  0.67982443  0.66419453  1
  Ag  Ag25  1  0.16786828  0.83360185  0.00343480  1
  Ag  Ag26  1  0.17144145  0.84415744  0.67730715  1
  Ag  Ag27  1  0.00675526  0.51275106  0.16577278  1
  Ag  Ag28  1  0.82330600  0.32281334  0.50158720  1
  Ag  Ag29  1  0.34895434  0.83420437  0.83401674  1
  Ag  Ag30  1  0.50005736  0.51322168  0.66664602  1
  Ag  Ag31  1  0.81814512  0.15139481  0.66384262  1
  Ag  Ag32  1  0.66545365  -0.00419016  0.34447926  1
  Ag  Ag33  1  0.66921118  0.83386452  0.82255827  1
  Ag  Ag34  1  0.50945788  0.68076845  0.82527918  1
  Ag  Ag35  1  0.49924525  0.15966507  0.34342844  1
  Ag  Ag36  1  0.50312262  0.32412569  0.50203615  1
  Ag  Ag37  1  0.50045712  -0.00430512  0.82396802  1
  Ag  Ag38  1  0.66887406  0.83980614  0.51037732  1
  Ag  Ag39  1  0.34200579  0.00042744  0.32854646  1
  Ag  Ag40  1  0.16018071  0.68357962  0.16660043  1
  Ag  Ag41  1  0.50815972  0.00008957  0.17735744  1
  Ag  Ag42  1  0.50882169  0.00132096  0.50166191  1
  Ag  Ag43  1  0.82262907  0.68031465  0.50157996  1
  Ag  Ag44  1  0.66886895  0.68156677  0.34948594  1
  Ag  Ag45  1  0.17971413  0.16131162  0.34205187  1
  Ag  Ag46  1  0.83362277  0.83336718  0.01211069  1
  Ag  Ag47  1  -0.01237721  0.83573803  0.16761098  1
  Ag  Ag48  1  0.66195536  0.15137321  0.49811314  1
  Ag  Ag49  1  0.66346466  0.14733594  0.17511706  1
  Ag  Ag50  1  0.81960703  -0.00282691  0.82600970  1
  Ag  Ag51  1  0.67580660  0.83431626  0.17152766  1
  Ag  Ag52  1  0.17155967  0.16386168  0.66972809  1
  Ag  Ag53  1  0.33212516  0.83502457  0.15771144  1
  Sb  Sb54  1  -0.00533446  0.15805230  0.16424727  1
  Sb  Sb55  1  0.83643297  0.32622287  0.82684414  1
  Sb  Sb56  1  0.34237095  0.16559517  0.50388689  1
  Sb  Sb57  1  0.33719445  0.50661192  0.83452251  1
  Sb  Sb58  1  0.66166982  0.15867701  0.82846385  1
  Sb  Sb59  1  0.66564785  0.50788642  0.16224172  1
  Sb  Sb60  1  0.00613735  0.33202793  0.66617749  1
  Sb  Sb61  1  0.00050320  0.33370174  0.00088682  1
  Sb  Sb62  1  0.66041612  0.33080336  0.66522492  1
  Sb  Sb63  1  0.16530823  0.67572556  0.83655664  1
  Sb  Sb64  1  0.50801802  0.84154451  0.33743116  1
  Sb  Sb65  1  -0.00367407  0.49998218  0.49647833  1
  Sb  Sb66  1  0.66559691  0.50656356  0.50554842  1
  Sb  Sb67  1  0.83210396  0.50928837  0.32965885  1
  Sb  Sb68  1  0.16826020  0.66908158  0.49644727  1
  Sb  Sb69  1  0.33795032  0.15964226  0.16589604  1
  Sb  Sb70  1  -0.00408376  0.49759069  0.83648944  1
  Sb  Sb71  1  0.66719015  -0.00347753  -0.00051328  1
  Sb  Sb72  1  0.16905121  -0.00058589  0.50002677  1
  Sb  Sb73  1  -0.00606181  0.67499117  0.32933293  1
  Sb  Sb74  1  0.00002581  -0.00345852  0.00254102  1
  Sb  Sb75  1  -0.00649524  -0.00078436  0.66553884  1
  Sb  Sb76  1  -0.01170833  0.83624184  0.49746027  1
  Sb  Sb77  1  0.49937823  0.16423513  -0.00115052  1
  Sb  Sb78  1  0.16363592  0.84184650  0.32872052  1
  Sb  Sb79  1  0.17359390  0.32933263  0.16383642  1
  Sb  Sb80  1  0.50311518  0.50368301  -0.00391585  1
  Sb  Sb81  1  0.33735131  0.49856343  0.49961188  1
  Sb  Sb82  1  -0.00819381  0.83941979  0.83554155  1
  Sb  Sb83  1  0.34126462  0.00243157  0.66588709  1
  Sb  Sb84  1  0.00439389  0.32426690  0.33163812  1
  Sb  Sb85  1  0.17128743  0.33041782  0.50558689  1
  Sb  Sb86  1  0.50324480  0.67634158  0.16795426  1
  Sb  Sb87  1  0.33980673  0.67237292  0.32846488  1
  Sb  Sb88  1  0.49363150  0.32942243  0.82783807  1
  Sb  Sb89  1  -0.00170848  0.67023589  0.00052021  1
  Sb  Sb90  1  0.83109519  0.15797155  -0.00607949  1
  Sb  Sb91  1  0.82857984  0.50298330  0.67011108  1
  Sb  Sb92  1  0.66171096  0.32858859  0.33668362  1
  Sb  Sb93  1  0.66624220  0.33432021  0.00089323  1
  Sb  Sb94  1  0.16823760  0.15854428  -0.00206057  1
  Sb  Sb95  1  0.50070332  0.49682697  0.33707168  1
  Sb  Sb96  1  0.66727650  0.67208705  -0.00623295  1
  Sb  Sb97  1  0.16867304  0.49415193  0.33394357  1
  Sb  Sb98  1  0.82687672  0.33160645  0.17262897  1
  Sb  Sb99  1  -0.00673354  0.16371600  0.50389451  1
  Sb  Sb100  1  0.50113883  0.83382723  -0.00381542  1
  Sb  Sb101  1  0.34109602  0.83541670  0.50337990  1
  Sb  Sb102  1  0.82818599  0.15892655  0.33859524  1
  Sb  Sb103  1  0.34089589  0.66698393  0.67081767  1
  Sb  Sb104  1  0.33394099  0.33786273  -0.00026771  1
  Sb  Sb105  1  0.33274096  -0.00698537  -0.00096943  1
  Sb  Sb106  1  -0.00525158  0.66986300  0.66685836  1
  Sb  Sb107  1  0.16411979  0.50679324  -0.00200092  1
  Te  Te108  1  0.16525342  0.16258784  0.16651159  1
  Te  Te109  1  0.16438339  0.16721996  0.50041454  1
  Te  Te110  1  0.17307434  0.15665028  0.83491392  1
  Te  Te111  1  0.16808029  0.49532830  0.16578753  1
  Te  Te112  1  0.16553197  0.49992967  0.50739092  1
  Te  Te113  1  0.16457526  0.50665079  0.82973239  1
  Te  Te114  1  0.17663233  0.83647990  0.16866383  1
  Te  Te115  1  0.16664036  0.83043905  0.50310513  1
  Te  Te116  1  0.15791537  0.83636583  0.83758327  1
  Te  Te117  1  0.50395528  0.15858583  0.16463868  1
  Te  Te118  1  0.50234376  0.16448244  0.50128743  1
  Te  Te119  1  0.49444352  0.16226047  0.83015808  1
  Te  Te120  1  0.49620359  0.50779830  0.16506268  1
  Te  Te121  1  0.49992778  0.49399848  0.50609220  1
  Te  Te122  1  0.50511657  0.49652599  0.82858456  1
  Te  Te123  1  0.49040009  0.83955755  0.16454701  1
  Te  Te124  1  0.50466563  0.83611176  0.50308864  1
  Te  Te125  1  0.50490962  0.83676218  0.83364432  1
  Te  Te126  1  0.82619335  0.16158159  0.16553539  1
  Te  Te127  1  0.82871570  0.16434581  0.50470771  1
  Te  Te128  1  0.83001481  0.15992809  0.82518703  1
  Te  Te129  1  0.83502744  0.49739669  0.16170873  1
  Te  Te130  1  0.83328811  0.50086892  0.49937588  1
  Te  Te131  1  0.82921621  0.49238053  0.83846134  1
  Te  Te132  1  0.83346489  0.83778661  0.16752009  1
  Te  Te133  1  0.83030298  0.83583165  0.50991648  1
  Te  Te134  1  0.83370980  0.83894438  0.82325837  1
  Te  Te135  1  0.16653180  -0.00657337  0.00549631  1
  Te  Te136  1  0.17727422  0.00377663  0.33347898  1
  Te  Te137  1  0.16768328  0.00259574  0.66537237  1
  Te  Te138  1  0.16796108  0.33536839  -0.00914970  1
  Te  Te139  1  0.17353789  0.32536424  0.33523207  1
  Te  Te140  1  0.17219214  0.32594445  0.66973452  1
  Te  Te141  1  0.17033817  0.67214379  0.00688441  1
  Te  Te142  1  0.16638354  0.66291990  0.32828933  1
  Te  Te143  1  0.16640107  0.66412230  0.66538665  1
  Te  Te144  1  0.49916566  0.00050502  -0.00391022  1
  Te  Te145  1  0.50456489  0.00125703  0.33381457  1
  Te  Te146  1  0.50049678  -0.00194184  0.66423441  1
  Te  Te147  1  0.49890003  0.33506442  0.00957100  1
  Te  Te148  1  0.49609769  0.33089169  0.33472708  1
  Te  Te149  1  0.49542273  0.32133881  0.66433542  1
  Te  Te150  1  0.49473729  0.66690929  -0.00623786  1
  Te  Te151  1  0.50767816  0.66472421  0.33682928  1
  Te  Te152  1  0.50144975  0.66888086  0.66746444  1
  Te  Te153  1  0.83512802  -0.00640778  -0.01187850  1
  Te  Te154  1  0.82692497  -0.00121257  0.33430313  1
  Te  Te155  1  0.83387417  -0.00260804  0.66597630  1
  Te  Te156  1  0.83367682  0.32947565  0.00076507  1
  Te  Te157  1  0.83449369  0.33313601  0.33958589  1
  Te  Te158  1  0.83492658  0.33419466  0.66149320  1
  Te  Te159  1  0.83296897  0.67303503  0.00008086  1
  Te  Te160  1  0.82868899  0.67268700  0.33241187  1
  Te  Te161  1  0.82958475  0.66649593  0.66687574  1
  Te  Te162  1  0.00001476  0.16649001  -0.00959233  1
  Te  Te163  1  0.00274164  0.15977790  0.33290308  1
  Te  Te164  1  0.00914114  0.16588341  0.67028412  1
  Te  Te165  1  -0.00590254  0.50009469  0.00643630  1
  Te  Te166  1  0.00077184  0.49727939  0.32566201  1
  Te  Te167  1  0.00663748  0.50062168  0.66696214  1
  Te  Te168  1  0.00074480  0.83263368  0.00740540  1
  Te  Te169  1  -0.00507358  0.83964152  0.32918971  1
  Te  Te170  1  0.01343805  0.83320849  0.66500277  1
  Te  Te171  1  0.33286481  0.17044158  -0.01228598  1
  Te  Te172  1  0.33845799  0.16265388  0.33124334  1
  Te  Te173  1  0.33291909  0.16812697  0.66874569  1
  Te  Te174  1  0.33258000  0.50601257  0.00565141  1
  Te  Te175  1  0.33337460  0.50081509  0.32693098  1
  Te  Te176  1  0.33555793  0.49712318  0.66700267  1
  Te  Te177  1  0.33238274  0.83077855  -0.00479283  1
  Te  Te178  1  0.33244887  0.83714492  0.33549804  1
  Te  Te179  1  0.32777368  0.83357737  0.67060152  1
  Te  Te180  1  0.66605211  0.16837560  0.01070252  1
  Te  Te181  1  0.66360062  0.16392193  0.33536289  1
  Te  Te182  1  0.66246695  0.16550296  0.66341895  1
  Te  Te183  1  0.67259605  0.50116682  -0.00807911  1
  Te  Te184  1  0.66711208  0.50256933  0.33193634  1
  Te  Te185  1  0.66148443  0.49786003  0.67341021  1
  Te  Te186  1  0.67265210  0.83266778  0.01103659  1
  Te  Te187  1  0.66748748  0.83595724  0.33137545  1
  Te  Te188  1  0.66381027  0.83458677  0.66844690  1
  Te  Te189  1  0.00574889  -0.00317210  0.16863897  1
  Te  Te190  1  0.00047566  0.00014865  0.49065546  1
  Te  Te191  1  0.01030352  0.00355500  0.83316838  1
  Te  Te192  1  0.00020287  0.33056583  0.16658841  1
  Te  Te193  1  -0.00627042  0.33306489  0.49803553  1
  Te  Te194  1  0.00751203  0.32853849  0.83407848  1
  Te  Te195  1  -0.00005113  0.67082360  0.16626668  1
  Te  Te196  1  -0.00605239  0.66668663  0.49810795  1
  Te  Te197  1  -0.01258116  0.66424917  0.83310943  1
  Te  Te198  1  0.32933020  -0.00201687  0.16581881  1
  Te  Te199  1  0.33600166  -0.00005183  0.49159734  1
  Te  Te200  1  0.33239133  -0.00787433  0.83197119  1
  Te  Te201  1  0.33826434  0.32825471  0.16942688  1
  Te  Te202  1  0.33756159  0.33249263  0.49857605  1
  Te  Te203  1  0.32811236  0.34122536  0.83004010  1
  Te  Te204  1  0.33527195  0.67222652  0.16490296  1
  Te  Te205  1  0.34005531  0.66656564  0.49866494  1
  Te  Te206  1  0.33393541  0.67368819  0.83766639  1
  Te  Te207  1  0.66646596  -0.00655715  0.15986226  1
  Te  Te208  1  0.66587849  -0.00275238  0.50154377  1
  Te  Te209  1  0.66196979  -0.00209990  0.83134568  1
  Te  Te210  1  0.65865824  0.33927963  0.16856075  1
  Te  Te211  1  0.66415795  0.33742323  0.50034256  1
  Te  Te212  1  0.66527717  0.32732558  0.83456838  1
  Te  Te213  1  0.67169198  0.67117583  0.16557924  1
  Te  Te214  1  0.66660629  0.66730910  0.50433598  1
  Te  Te215  1  0.66745475  0.67363595  0.83157340  1
