# generated using pymatgen
data_AgSbTe2
_symmetry_space_group_name_H-M   'P 1'
_cell_length_a   18.32243701
_cell_length_b   18.32844344
_cell_length_c   18.32684544
_cell_angle_alpha   89.99796197
_cell_angle_beta   90.00156121
_cell_angle_gamma   90.00018208
_symmetry_Int_Tables_number   1
_chemical_formula_structural   AgSbTe2
_chemical_formula_sum   'Ag54 Sb54 Te108'
_cell_volume   6154.55330995
_cell_formula_units_Z   54
loop_
 _symmetry_equiv_pos_site_id
 _symmetry_equiv_pos_as_xyz
  1  'x, y, z'
loop_
 _atom_site_type_symbol
 _atom_site_label
 _atom_site_symmetry_multiplicity
 _atom_site_fract_x
 _atom_site_fract_y
 _atom_site_fract_z
 _atom_site_occupancy
  Ag  Ag0  1  0.67380980  0.34186263  0.34019408  1
  Ag  Ag1  1  -0.00343841  0.50715281  0.49259983  1
  Ag  Ag2  1  0.32803545  0.00364077  -0.00597656  1
  Ag  Ag3  1  0.33250718  0.50780863  0.49405462  1
  Ag  Ag4  1  0.50314743  0.16755564  0.33641794  1
  Ag  Ag5  1  -0.00714973  0.34128140  0.33498212  1
  Ag  Ag6  1  0.00517737  0.17096519  0.16526574  1
  Ag  Ag7  1  0.67090722  0.82928729  0.82228408  1
  Ag  Ag8  1  0.00508170  -0.00462843  -0.00132571  1
  Ag  Ag9  1  0.67316911  0.82678053  0.50405382  1
  Ag  Ag10  1  0.67036162  0.67369677  0.65988004  1
  Ag  Ag11  1  0.00803745  0.15860410  0.83841406  1
  Ag  Ag12  1  0.16718896  0.83177865  -0.00487516  1
  Ag  Ag13  1  0.66455948  -0.00575757  0.65981668  1
  Ag  Ag14  1  0.32985855  0.16017952  0.83829927  1
  Ag  Ag15  1  0.50299972  0.16791927  0.66615318  1
  Ag  Ag16  1  0.67321680  0.00008404  0.34342574  1
  Ag  Ag17  1  0.00550250  0.82887763  0.83157013  1
  Ag  Ag18  1  0.67132948  0.65982099  0.34159290  1
  Ag  Ag19  1  0.00218423  0.67044865  -0.00318659  1
  Ag  Ag20  1  -0.00521096  -0.00031697  0.33260897  1
  Ag  Ag21  1  0.49473692  0.17146199  -0.00107349  1
  Ag  Ag22  1  0.16166180  0.34245716  0.50112602  1
  Ag  Ag23  1  0.51258779  0.66565539  0.49722209  1
  Ag  Ag24  1  0.66477041  0.16845340  0.49922021  1
  Ag  Ag25  1  0.33740747  -0.00189811  0.67451981  1
  Ag  Ag26  1  0.33160148  0.82742695  0.50385362  1
  Ag  Ag27  1  0.84214887  0.66943973  0.83147133  1
  Ag  Ag28  1  0.15962735  0.66375327  0.49967028  1
  Ag  Ag29  1  0.83601449  0.33664935  0.17644946  1
  Ag  Ag30  1  -0.00297898  0.50166408  0.17333049  1
  Ag  Ag31  1  -0.00489140  0.66007467  0.34110117  1
  Ag  Ag32  1  0.33477530  0.32520122  -0.00169256  1
  Ag  Ag33  1  0.33171626  0.82806996  0.16018081  1
  Ag  Ag34  1  0.16673324  0.66633924  0.16694581  1
  Ag  Ag35  1  -0.00171787  0.82434235  0.50389163  1
  Ag  Ag36  1  0.33324741  0.16838604  0.15677490  1
  Ag  Ag37  1  0.49409054  0.32982793  0.83629418  1
  Ag  Ag38  1  0.83024382  0.83108787  0.66490357  1
  Ag  Ag39  1  0.66873239  0.50295995  0.17446475  1
  Ag  Ag40  1  0.82919854  -0.00003308  0.49965095  1
  Ag  Ag41  1  0.49638389  0.66242430  0.16890459  1
  Ag  Ag42  1  0.16730125  -0.00678837  0.83521659  1
  Ag  Ag43  1  0.17054687  0.32991364  0.83284036  1
  Ag  Ag44  1  0.32551587  0.83961770  0.83431785  1
  Ag  Ag45  1  0.83285655  0.49947198  0.33509703  1
  Ag  Ag46  1  0.66923714  0.50599627  0.49494479  1
  Ag  Ag47  1  0.33610892  0.50341168  0.16851883  1
  Ag  Ag48  1  0.16196401  0.67559403  0.83585923  1
  Ag  Ag49  1  0.66683148  0.33359042  0.65675188  1
  Ag  Ag50  1  0.49904291  0.49989917  0.00387593  1
  Ag  Ag51  1  0.66724200  0.66690890  -0.00057978  1
  Ag  Ag52  1  -0.00426718  0.66994083  0.66100920  1
  Ag  Ag53  1  0.82899545  0.33361698  0.49494135  1
  Sb  Sb54  1  0.50782032  0.49841911  0.32977738  1
  Sb  Sb55  1  0.49889577  -0.00145135  0.16705252  1
  Sb  Sb56  1  0.50517150  0.83621999  0.66606013  1
  Sb  Sb57  1  0.50707692  -0.00482466  0.50040296  1
  Sb  Sb58  1  0.16480410  0.83106572  0.33211254  1
  Sb  Sb59  1  -0.00399437  0.33762970  0.66198234  1
  Sb  Sb60  1  0.83936178  0.83093306  -0.00621576  1
  Sb  Sb61  1  0.33945732  0.16651920  0.50243337  1
  Sb  Sb62  1  0.83528288  0.66253876  0.16482391  1
  Sb  Sb63  1  0.82887296  0.16182219  0.66530063  1
  Sb  Sb64  1  0.00531377  0.33374341  0.00295076  1
  Sb  Sb65  1  0.50161406  0.83358256  0.33571031  1
  Sb  Sb66  1  0.33349011  0.50030252  0.83488782  1
  Sb  Sb67  1  0.66212140  0.16191827  0.82798918  1
  Sb  Sb68  1  0.83818496  -0.00651663  0.82847954  1
  Sb  Sb69  1  0.66544633  -0.00616940  -0.00265334  1
  Sb  Sb70  1  0.33781185  0.32959276  0.67034230  1
  Sb  Sb71  1  0.17053517  0.16626833  0.66949794  1
  Sb  Sb72  1  0.49159917  0.00488129  0.83225494  1
  Sb  Sb73  1  0.82990630  0.17449362  0.33462004  1
  Sb  Sb74  1  0.49430989  0.83127519  -0.00103842  1
  Sb  Sb75  1  0.50447000  0.33834858  0.50102800  1
  Sb  Sb76  1  0.33335863  -0.00009034  0.33341002  1
  Sb  Sb77  1  -0.00165528  -0.00592179  0.66743494  1
  Sb  Sb78  1  0.66055477  0.33842267  0.00131057  1
  Sb  Sb79  1  0.15827222  0.50160502  0.33445989  1
  Sb  Sb80  1  0.33142469  0.66895585  0.00219264  1
  Sb  Sb81  1  0.83398997  0.66720870  0.50455713  1
  Sb  Sb82  1  0.16754782  0.16730737  0.33277202  1
  Sb  Sb83  1  0.83378551  0.82843190  0.33969051  1
  Sb  Sb84  1  0.33430975  0.66540610  0.33401072  1
  Sb  Sb85  1  0.33435274  0.33485290  0.33122774  1
  Sb  Sb86  1  -0.00413253  0.16794544  0.49817170  1
  Sb  Sb87  1  0.83412259  0.33734174  0.83083812  1
  Sb  Sb88  1  0.66376066  0.17250375  0.17360923  1
  Sb  Sb89  1  0.83198982  0.50563574  0.65839314  1
  Sb  Sb90  1  0.49898748  0.66478045  0.83321337  1
  Sb  Sb91  1  0.83135533  0.16596375  0.00022613  1
  Sb  Sb92  1  0.33394912  0.67267304  0.66266438  1
  Sb  Sb93  1  0.16648623  0.50180037  0.66332351  1
  Sb  Sb94  1  0.83643032  0.00574401  0.17452627  1
  Sb  Sb95  1  0.66171187  0.82451260  0.17007227  1
  Sb  Sb96  1  0.50231533  0.49695962  0.66740135  1
  Sb  Sb97  1  0.17166891  0.16211137  -0.00178064  1
  Sb  Sb98  1  0.00413494  0.82827981  0.16594382  1
  Sb  Sb99  1  0.16307284  -0.00420811  0.50457788  1
  Sb  Sb100  1  0.66609247  0.50565376  0.83208720  1
  Sb  Sb101  1  0.16678467  -0.00506388  0.16146167  1
  Sb  Sb102  1  0.16956621  0.50583752  0.00148014  1
  Sb  Sb103  1  0.16282738  0.83204213  0.67240416  1
  Sb  Sb104  1  0.00202023  0.50682621  0.83381856  1
  Sb  Sb105  1  0.83042735  0.50167711  0.00627485  1
  Sb  Sb106  1  0.16421436  0.33825837  0.16709615  1
  Sb  Sb107  1  0.50115533  0.33787581  0.16405387  1
  Te  Te108  1  0.16656901  0.16755876  0.16673426  1
  Te  Te109  1  0.16830620  0.17000307  0.50118076  1
  Te  Te110  1  0.16757448  0.16979469  0.83380355  1
  Te  Te111  1  0.16938580  0.50572143  0.16740919  1
  Te  Te112  1  0.16657448  0.50162443  0.49941691  1
  Te  Te113  1  0.16803973  0.49724106  0.83317228  1
  Te  Te114  1  0.17222242  0.82771086  0.16190468  1
  Te  Te115  1  0.16494518  0.82972591  0.50028616  1
  Te  Te116  1  0.16592209  0.83322458  0.83428644  1
  Te  Te117  1  0.49616311  0.16708670  0.16319596  1
  Te  Te118  1  0.50444779  0.16714585  0.50067546  1
  Te  Te119  1  0.49754822  0.16997806  0.83419027  1
  Te  Te120  1  0.49843864  0.50339932  0.16438498  1
  Te  Te121  1  0.50043276  0.50531313  0.49981634  1
  Te  Te122  1  0.49954035  0.49281995  0.84056817  1
  Te  Te123  1  0.49211683  0.82584757  0.16748513  1
  Te  Te124  1  0.49553802  0.82556549  0.50012343  1
  Te  Te125  1  0.49759307  0.83322812  0.83355810  1
  Te  Te126  1  0.83880703  0.17426509  0.16613510  1
  Te  Te127  1  0.82689287  0.16728414  0.50052672  1
  Te  Te128  1  0.84095586  0.16728058  0.83366517  1
  Te  Te129  1  0.83392327  0.49703243  0.17175402  1
  Te  Te130  1  0.83270746  0.49490710  0.49632864  1
  Te  Te131  1  0.83331947  0.50718684  0.83330914  1
  Te  Te132  1  0.83178434  0.83597714  0.16585688  1
  Te  Te133  1  0.83407381  0.83653969  0.50309070  1
  Te  Te134  1  0.83391871  0.82900880  0.82802050  1
  Te  Te135  1  0.16558821  -0.00458186  -0.00404512  1
  Te  Te136  1  0.15840177  -0.00046283  0.33451194  1
  Te  Te137  1  0.17271132  0.00014972  0.67272085  1
  Te  Te138  1  0.17341598  0.33556683  -0.00348537  1
  Te  Te139  1  0.16209021  0.33285038  0.33911548  1
  Te  Te140  1  0.16598173  0.33374171  0.66625281  1
  Te  Te141  1  0.16472724  0.67025905  -0.00108728  1
  Te  Te142  1  0.16040021  0.66755285  0.33383302  1
  Te  Te143  1  0.16284364  0.66667190  0.66512831  1
  Te  Te144  1  0.49610525  0.00421073  0.00005292  1
  Te  Te145  1  0.50436846  0.00625150  0.33333737  1
  Te  Te146  1  0.50194077  0.00641857  0.66620876  1
  Te  Te147  1  0.49634683  0.33347611  -0.00230188  1
  Te  Te148  1  0.50469713  0.32684235  0.33235150  1
  Te  Te149  1  0.50518845  0.32912447  0.67144389  1
  Te  Te150  1  0.50208784  0.66384703  0.00192477  1
  Te  Te151  1  0.50522352  0.66635584  0.33375817  1
  Te  Te152  1  0.50614177  0.66523228  0.66288662  1
  Te  Te153  1  0.84056572  -0.00083789  0.00138054  1
  Te  Te154  1  0.83360861  -0.00112011  0.33938645  1
  Te  Te155  1  0.82897811  -0.00522028  0.66145886  1
  Te  Te156  1  0.83330960  0.33348932  0.00156271  1
  Te  Te157  1  0.83318967  0.33616864  0.33517563  1
  Te  Te158  1  0.82718294  0.33304615  0.66258405  1
  Te  Te159  1  0.83327454  0.66632204  -0.00597943  1
  Te  Te160  1  0.83309086  0.66187619  0.33104564  1
  Te  Te161  1  0.83187500  0.67010039  0.67049216  1
  Te  Te162  1  -0.00110244  0.16561197  0.00015551  1
  Te  Te163  1  0.00012105  0.16320864  0.32949537  1
  Te  Te164  1  -0.00036460  0.16685113  0.67325358  1
  Te  Te165  1  -0.00057199  0.50378778  0.00600386  1
  Te  Te166  1  -0.00410034  0.50039839  0.33360826  1
  Te  Te167  1  -0.00095955  0.50744468  0.66028557  1
  Te  Te168  1  0.00426887  0.83213376  -0.00168615  1
  Te  Te169  1  -0.00094305  0.83476600  0.33650551  1
  Te  Te170  1  -0.00421591  0.83025712  0.66586628  1
  Te  Te171  1  0.33465997  0.16535987  -0.00102175  1
  Te  Te172  1  0.33939051  0.16627977  0.32929396  1
  Te  Te173  1  0.33937726  0.16216331  0.67131213  1
  Te  Te174  1  0.33700629  0.49897546  0.00284392  1
  Te  Te175  1  0.33638047  0.49885289  0.33341626  1
  Te  Te176  1  0.33460515  0.50030252  0.65781865  1
  Te  Te177  1  0.32969267  0.83627054  -0.00117191  1
  Te  Te178  1  0.33324023  0.83446389  0.33630989  1
  Te  Te179  1  0.33546455  0.83806115  0.66665750  1
  Te  Te180  1  0.66008159  0.16433899  0.00005732  1
  Te  Te181  1  0.66372302  0.16286445  0.33581888  1
  Te  Te182  1  0.66340794  0.16535259  0.66382863  1
  Te  Te183  1  0.66287959  0.50540598  0.00250091  1
  Te  Te184  1  0.66866909  0.50066528  0.33379417  1
  Te  Te185  1  0.66669293  0.49843259  0.66213487  1
  Te  Te186  1  0.66645189  0.82786494  -0.00090032  1
  Te  Te187  1  0.66709355  0.83554151  0.33852497  1
  Te  Te188  1  0.66717357  0.83294171  0.66487998  1
  Te  Te189  1  0.00085697  0.00183658  0.16605971  1
  Te  Te190  1  -0.00361073  -0.00026189  0.49851216  1
  Te  Te191  1  0.00355926  -0.00230299  0.83504649  1
  Te  Te192  1  -0.00016410  0.33468462  0.16961185  1
  Te  Te193  1  0.00045138  0.33313231  0.49674221  1
  Te  Te194  1  0.00313298  0.33419022  0.83232193  1
  Te  Te195  1  0.00228076  0.66418981  0.16549651  1
  Te  Te196  1  -0.00186279  0.66675355  0.49983791  1
  Te  Te197  1  0.00254247  0.66788781  0.83526713  1
  Te  Te198  1  0.33239690  0.00080276  0.16425855  1
  Te  Te199  1  0.33244312  -0.00451206  0.50213317  1
  Te  Te200  1  0.33022408  0.00001642  0.83432000  1
  Te  Te201  1  0.33204735  0.33382043  0.16348349  1
  Te  Te202  1  0.32960783  0.33605575  0.50051169  1
  Te  Te203  1  0.33283880  0.33344491  0.83515117  1
  Te  Te204  1  0.33287011  0.66565037  0.16852558  1
  Te  Te205  1  0.32620741  0.66740777  0.49869936  1
  Te  Te206  1  0.32802993  0.66969921  0.83140473  1
  Te  Te207  1  0.66785170  -0.00087585  0.16791025  1
  Te  Te208  1  0.66674147  -0.00208208  0.50003780  1
  Te  Te209  1  0.66864751  -0.00768639  0.83094714  1
  Te  Te210  1  0.67094653  0.33931797  0.16893768  1
  Te  Te211  1  0.66527478  0.33358604  0.49898886  1
  Te  Te212  1  0.66694311  0.33238967  0.83191239  1
  Te  Te213  1  0.66629116  0.66287283  0.16453822  1
  Te  Te214  1  0.67025198  0.66713252  0.49928399  1
  Te  Te215  1  0.66282750  0.67057127  0.83490742  1
