# generated using pymatgen
data_AgSbTe2
_symmetry_space_group_name_H-M   'P 1'
_cell_length_a   18.32455812
_cell_length_b   18.33073126
_cell_length_c   18.32230959
_cell_angle_alpha   90.00143172
_cell_angle_beta   90.00191176
_cell_angle_gamma   90.00080787
_symmetry_Int_Tables_number   1
_chemical_formula_structural   AgSbTe2
_chemical_formula_sum   'Ag54 Sb54 Te108'
_cell_volume   6154.51051253
_cell_formula_units_Z   54
loop_
 _symmetry_equiv_pos_site_id
 _symmetry_equiv_pos_as_xyz
  1  'x, y, z'
loop_
 _atom_site_type_symbol
 _atom_site_label
 _atom_site_symmetry_multiplicity
 _atom_site_fract_x
 _atom_site_fract_y
 _atom_site_fract_z
 _atom_site_occupancy
  Ag  Ag0  1  0.33300677  0.00741855  0.33096407  1
  Ag  Ag1  1  0.33189447  0.66134183  -0.00593956  1
  Ag  Ag2  1  0.17241029  0.33448780  0.83040989  1
  Ag  Ag3  1  0.83078787  0.82726836  0.67311232  1
  Ag  Ag4  1  0.33248120  0.49621782  0.15357182  1
  Ag  Ag5  1  0.16567212  0.82826315  -0.00375847  1
  Ag  Ag6  1  0.16744723  0.16679067  -0.00959832  1
  Ag  Ag7  1  0.49868612  0.00230347  0.83748515  1
  Ag  Ag8  1  0.83112191  0.50701218  0.67898310  1
  Ag  Ag9  1  0.83010308  0.83802170  0.33217382  1
  Ag  Ag10  1  0.00045979  0.83547459  0.84004034  1
  Ag  Ag11  1  0.82940958  0.16372829  -0.00056122  1
  Ag  Ag12  1  0.66982612  0.67703335  0.33439135  1
  Ag  Ag13  1  0.66860676  0.83447491  0.49235684  1
  Ag  Ag14  1  0.66410943  0.33050312  0.00112046  1
  Ag  Ag15  1  0.17081871  0.33118010  0.50964021  1
  Ag  Ag16  1  0.17217172  0.66212777  0.83424373  1
  Ag  Ag17  1  0.48983394  0.49817597  0.67617630  1
  Ag  Ag18  1  0.17746096  0.50633718  -0.00881384  1
  Ag  Ag19  1  0.17553807  0.49602342  0.67432809  1
  Ag  Ag20  1  0.67275432  -0.00297594  0.32810657  1
  Ag  Ag21  1  -0.00545435  0.83548113  0.16001819  1
  Ag  Ag22  1  0.33247065  0.16920996  0.16781723  1
  Ag  Ag23  1  -0.00890460  -0.00159308  0.33205099  1
  Ag  Ag24  1  0.17368091  0.17555575  0.67289426  1
  Ag  Ag25  1  0.49501779  0.50569419  -0.00671770  1
  Ag  Ag26  1  0.16497742  0.00696538  0.83603699  1
  Ag  Ag27  1  0.83484479  -0.00486318  0.83926842  1
  Ag  Ag28  1  0.00537782  0.67007749  -0.00518822  1
  Ag  Ag29  1  0.66800147  -0.00087832  0.00218725  1
  Ag  Ag30  1  0.00756720  0.16007797  0.83318748  1
  Ag  Ag31  1  0.82993775  0.50243375  0.32927286  1
  Ag  Ag32  1  0.82910068  0.15633266  0.32992340  1
  Ag  Ag33  1  0.00434194  0.16575857  0.50423616  1
  Ag  Ag34  1  0.16877445  0.66460817  0.51121049  1
  Ag  Ag35  1  0.66672533  0.16454175  0.49625238  1
  Ag  Ag36  1  0.50111766  0.16717038  -0.00690235  1
  Ag  Ag37  1  0.16031609  0.83477395  0.32884569  1
  Ag  Ag38  1  0.33311140  0.50262399  0.83470719  1
  Ag  Ag39  1  0.67440092  0.83495968  0.16715433  1
  Ag  Ag40  1  0.82938014  0.50504973  -0.00316172  1
  Ag  Ag41  1  0.50337403  0.82692378  -0.00272862  1
  Ag  Ag42  1  0.49417722  0.66064596  0.83478269  1
  Ag  Ag43  1  0.33530867  0.32838141  0.33860077  1
  Ag  Ag44  1  0.66634858  0.66630639  0.67455930  1
  Ag  Ag45  1  0.83325735  0.66819300  0.83511084  1
  Ag  Ag46  1  0.66468079  0.66829633  -0.00792836  1
  Ag  Ag47  1  0.33028959  0.16962504  0.49857653  1
  Ag  Ag48  1  0.66579875  0.32882108  0.33120470  1
  Ag  Ag49  1  0.83095184  -0.00211978  0.16528389  1
  Ag  Ag50  1  0.49280237  0.17263385  0.67461093  1
  Ag  Ag51  1  0.33338520  0.65778198  0.67699715  1
  Ag  Ag52  1  0.49359356  0.33750816  0.83412180  1
  Ag  Ag53  1  0.33126597  0.33744130  0.66738856  1
  Sb  Sb54  1  0.33332418  0.00284340  0.66710033  1
  Sb  Sb55  1  0.65919998  0.50313531  0.83552112  1
  Sb  Sb56  1  0.49585197  0.33119821  0.50597117  1
  Sb  Sb57  1  0.67240947  0.83148331  0.83748526  1
  Sb  Sb58  1  0.50169263  0.66647227  0.15481440  1
  Sb  Sb59  1  0.49854407  0.66661085  0.50951102  1
  Sb  Sb60  1  0.83113209  0.67219778  0.16034959  1
  Sb  Sb61  1  0.16365250  -0.00094175  0.16247112  1
  Sb  Sb62  1  0.33194018  0.49506752  0.50574023  1
  Sb  Sb63  1  0.17117222  0.33217749  0.16213209  1
  Sb  Sb64  1  0.50480437  0.83348353  0.32676961  1
  Sb  Sb65  1  0.16633731  0.16288761  0.33513895  1
  Sb  Sb66  1  0.00067027  0.66688468  0.67431756  1
  Sb  Sb67  1  0.33610114  0.00024123  0.00078312  1
  Sb  Sb68  1  0.33724916  0.33711082  -0.00457919  1
  Sb  Sb69  1  0.50484824  0.00081246  0.16055026  1
  Sb  Sb70  1  0.50173054  0.00174330  0.50442648  1
  Sb  Sb71  1  0.49913183  0.33244075  0.15841735  1
  Sb  Sb72  1  0.33045595  0.17244804  0.83333277  1
  Sb  Sb73  1  0.83218807  0.83321183  -0.00028500  1
  Sb  Sb74  1  0.00257415  0.50739313  0.16282920  1
  Sb  Sb75  1  0.83224940  -0.00018959  0.49697805  1
  Sb  Sb76  1  0.00109075  0.49776094  0.50046963  1
  Sb  Sb77  1  0.83307321  0.16640682  0.66879759  1
  Sb  Sb78  1  0.66783349  0.49989911  0.49932929  1
  Sb  Sb79  1  0.33279008  0.83419086  0.16439250  1
  Sb  Sb80  1  0.83475575  0.33173716  0.50013445  1
  Sb  Sb81  1  0.50489586  0.83128221  0.67640518  1
  Sb  Sb82  1  0.16744674  0.66798055  0.15760217  1
  Sb  Sb83  1  0.00567334  0.50275633  0.83434659  1
  Sb  Sb84  1  0.66426253  0.16211115  0.16674512  1
  Sb  Sb85  1  0.32824727  0.82590267  0.83577100  1
  Sb  Sb86  1  -0.00092637  0.32690925  0.33604264  1
  Sb  Sb87  1  0.33579181  0.66544163  0.33278730  1
  Sb  Sb88  1  0.16522033  0.50293963  0.33365790  1
  Sb  Sb89  1  -0.00435757  0.67357060  0.32970724  1
  Sb  Sb90  1  0.66780743  -0.00378405  0.66884616  1
  Sb  Sb91  1  0.83140122  0.32894186  0.16601765  1
  Sb  Sb92  1  -0.00301649  0.83670985  0.49937752  1
  Sb  Sb93  1  -0.00030438  0.00084348  0.66841905  1
  Sb  Sb94  1  0.66069528  0.33710152  0.66885606  1
  Sb  Sb95  1  -0.00433592  -0.00405080  -0.00052183  1
  Sb  Sb96  1  0.16341825  0.83066073  0.67181706  1
  Sb  Sb97  1  0.50332893  0.49920673  0.33034335  1
  Sb  Sb98  1  0.83372926  0.33543287  0.83513078  1
  Sb  Sb99  1  0.50204915  0.16642279  0.33302382  1
  Sb  Sb100  1  -0.00172968  0.33463984  -0.00259247  1
  Sb  Sb101  1  0.00777140  0.33294379  0.66921779  1
  Sb  Sb102  1  0.33578528  0.83688312  0.49866051  1
  Sb  Sb103  1  0.83499231  0.66804679  0.50457270  1
  Sb  Sb104  1  0.66565832  0.16532048  0.83362965  1
  Sb  Sb105  1  0.66436500  0.50476589  0.16258395  1
  Sb  Sb106  1  0.16658097  0.00221153  0.50182759  1
  Sb  Sb107  1  0.00213131  0.15992542  0.16413579  1
  Te  Te108  1  0.17125209  0.16607024  0.15955190  1
  Te  Te109  1  0.16772402  0.16810562  0.50205262  1
  Te  Te110  1  0.16820575  0.16620674  0.83276741  1
  Te  Te111  1  0.17137836  0.49991346  0.16163883  1
  Te  Te112  1  0.16532843  0.49976518  0.50320189  1
  Te  Te113  1  0.16637828  0.50067473  0.83380463  1
  Te  Te114  1  0.16407183  0.83412194  0.16696476  1
  Te  Te115  1  0.16668816  0.83103658  0.49874932  1
  Te  Te116  1  0.16151663  0.83095911  0.83552322  1
  Te  Te117  1  0.49305734  0.16668857  0.15870061  1
  Te  Te118  1  0.50039112  0.16640229  0.50443555  1
  Te  Te119  1  0.49904113  0.16603151  0.83391807  1
  Te  Te120  1  0.49287342  0.49939773  0.16010165  1
  Te  Te121  1  0.50037426  0.49957805  0.50966738  1
  Te  Te122  1  0.49745687  0.50087612  0.83321110  1
  Te  Te123  1  0.50380320  0.83357678  0.15773411  1
  Te  Te124  1  0.50784855  0.83375021  0.50106471  1
  Te  Te125  1  0.49962313  0.83517029  0.83933152  1
  Te  Te126  1  0.83392310  0.16132841  0.16511314  1
  Te  Te127  1  0.83278666  0.16690437  0.49915860  1
  Te  Te128  1  0.83619553  0.16682365  0.83623096  1
  Te  Te129  1  0.83385365  0.49937994  0.16548982  1
  Te  Te130  1  0.83465348  0.50001216  0.49337673  1
  Te  Te131  1  0.83705736  0.50236947  0.83688973  1
  Te  Te132  1  0.83407121  0.83686108  0.16952203  1
  Te  Te133  1  0.82913300  0.83329678  0.49702898  1
  Te  Te134  1  0.83780752  0.83296839  0.83359370  1
  Te  Te135  1  0.16778629  0.00035518  -0.00453084  1
  Te  Te136  1  0.16999015  -0.00420572  0.33371865  1
  Te  Te137  1  0.16721520  0.00248620  0.67379367  1
  Te  Te138  1  0.16680779  0.33243173  -0.00523554  1
  Te  Te139  1  0.16984590  0.33397660  0.33563965  1
  Te  Te140  1  0.17035254  0.33495493  0.66833844  1
  Te  Te141  1  0.16880542  0.66625586  -0.00396294  1
  Te  Te142  1  0.16595052  0.67127769  0.33436523  1
  Te  Te143  1  0.16753105  0.66488729  0.67064847  1
  Te  Te144  1  0.50321162  0.00308074  -0.00398262  1
  Te  Te145  1  0.49974760  -0.00026217  0.33283257  1
  Te  Te146  1  0.50019886  0.00361379  0.67591667  1
  Te  Te147  1  0.50355627  0.33184715  -0.00581299  1
  Te  Te148  1  0.50117012  0.33445104  0.33428922  1
  Te  Te149  1  0.49596462  0.33388212  0.67212791  1
  Te  Te150  1  0.50304186  0.66544809  -0.00571398  1
  Te  Te151  1  0.50681313  0.66525367  0.33621600  1
  Te  Te152  1  0.50173710  0.66412922  0.67359535  1
  Te  Te153  1  0.83039558  0.00114076  -0.00047873  1
  Te  Te154  1  0.83085373  -0.00059610  0.33397492  1
  Te  Te155  1  0.83275042  -0.00335805  0.67652197  1
  Te  Te156  1  0.82725611  0.33065309  -0.00014916  1
  Te  Te157  1  0.83033070  0.33254544  0.33299504  1
  Te  Te158  1  0.83100704  0.34046270  0.66758823  1
  Te  Te159  1  0.82634351  0.66653525  -0.00382964  1
  Te  Te160  1  0.83032096  0.66836894  0.33423503  1
  Te  Te161  1  0.83184122  0.66714400  0.66983234  1
  Te  Te162  1  0.00059393  0.16646439  -0.00307965  1
  Te  Te163  1  -0.00410719  0.16096389  0.33273135  1
  Te  Te164  1  0.00266759  0.16605426  0.66669734  1
  Te  Te165  1  -0.00643613  0.50516018  0.00080433  1
  Te  Te166  1  -0.00739517  0.49995579  0.33125113  1
  Te  Te167  1  -0.00814676  0.49958100  0.66611235  1
  Te  Te168  1  0.00280804  0.83120463  -0.00038860  1
  Te  Te169  1  -0.00066879  0.83765132  0.33391360  1
  Te  Te170  1  -0.00784477  0.83402134  0.66821122  1
  Te  Te171  1  0.33303343  0.16776959  0.00250681  1
  Te  Te172  1  0.33410528  0.16770545  0.33449611  1
  Te  Te173  1  0.33320198  0.16762621  0.66445203  1
  Te  Te174  1  0.33447724  0.49986345  -0.00316466  1
  Te  Te175  1  0.33342003  0.49588764  0.33230119  1
  Te  Te176  1  0.33173335  0.50059361  0.66809932  1
  Te  Te177  1  0.33121608  0.82818425  0.00200468  1
  Te  Te178  1  0.33187513  0.83565953  0.33228313  1
  Te  Te179  1  0.33443753  0.82778472  0.66465807  1
  Te  Te180  1  0.66753944  0.16513002  0.00050391  1
  Te  Te181  1  0.66784996  0.16612852  0.33318229  1
  Te  Te182  1  0.66353110  0.16738479  0.66024567  1
  Te  Te183  1  0.66877237  0.50250713  0.00143722  1
  Te  Te184  1  0.66976445  0.49596256  0.33122546  1
  Te  Te185  1  0.67260025  0.50456512  0.66571910  1
  Te  Te186  1  0.66546393  0.83314117  0.00261859  1
  Te  Te187  1  0.66687596  0.83589516  0.33189134  1
  Te  Te188  1  0.67065586  0.82916490  0.66271580  1
  Te  Te189  1  -0.00502975  -0.00527887  0.17161417  1
  Te  Te190  1  0.00012194  0.00635777  0.49404757  1
  Te  Te191  1  0.00022208  -0.00062125  0.83380709  1
  Te  Te192  1  0.00128664  0.33411156  0.16701784  1
  Te  Te193  1  0.00784337  0.32553505  0.50028792  1
  Te  Te194  1  0.00601068  0.32280854  0.83445613  1
  Te  Te195  1  -0.00080974  0.67547822  0.15842170  1
  Te  Te196  1  0.00833373  0.66729583  0.49941162  1
  Te  Te197  1  -0.00308879  0.66923668  0.83753518  1
  Te  Te198  1  0.33384185  0.00341982  0.17157213  1
  Te  Te199  1  0.33428741  0.00622579  0.49508852  1
  Te  Te200  1  0.33342395  -0.00322633  0.83343332  1
  Te  Te201  1  0.33391772  0.33295067  0.17358987  1
  Te  Te202  1  0.33037342  0.32958062  0.50068982  1
  Te  Te203  1  0.33273418  0.33837614  0.82992592  1
  Te  Te204  1  0.33495528  0.66153469  0.16384177  1
  Te  Te205  1  0.32863107  0.66805312  0.50150100  1
  Te  Te206  1  0.33285120  0.66430212  0.83387976  1
  Te  Te207  1  0.67037279  -0.00312599  0.16544434  1
  Te  Te208  1  0.66632726  0.00145238  0.49645660  1
  Te  Te209  1  0.66818013  -0.00121971  0.83779655  1
  Te  Te210  1  0.66555574  0.33332598  0.16766541  1
  Te  Te211  1  0.66645177  0.32838931  0.49568190  1
  Te  Te212  1  0.66189715  0.33290387  0.83833959  1
  Te  Te213  1  0.66663868  0.67292624  0.17131495  1
  Te  Te214  1  0.66653804  0.66891205  0.49782483  1
  Te  Te215  1  0.67078426  0.66780655  0.83275411  1
