# generated using pymatgen
data_AgSbTe2
_symmetry_space_group_name_H-M   'P 1'
_cell_length_a   18.34750529
_cell_length_b   18.35183481
_cell_length_c   18.34105589
_cell_angle_alpha   90.00163175
_cell_angle_beta   89.99744495
_cell_angle_gamma   89.99935794
_symmetry_Int_Tables_number   1
_chemical_formula_structural   AgSbTe2
_chemical_formula_sum   'Ag54 Sb54 Te108'
_cell_volume   6175.62400689
_cell_formula_units_Z   54
loop_
 _symmetry_equiv_pos_site_id
 _symmetry_equiv_pos_as_xyz
  1  'x, y, z'
loop_
 _atom_site_type_symbol
 _atom_site_label
 _atom_site_symmetry_multiplicity
 _atom_site_fract_x
 _atom_site_fract_y
 _atom_site_fract_z
 _atom_site_occupancy
  Ag  Ag0  1  0.83272298  0.66422509  0.49901001  1
  Ag  Ag1  1  0.83570406  0.66606027  0.15877166  1
  Ag  Ag2  1  0.48902558  0.33122593  0.16977696  1
  Ag  Ag3  1  0.83136267  0.33608092  0.50130791  1
  Ag  Ag4  1  0.83313010  0.83424858  0.00068749  1
  Ag  Ag5  1  0.67431254  -0.00838195  -0.00063166  1
  Ag  Ag6  1  0.49492657  0.16854487  0.33331642  1
  Ag  Ag7  1  0.50027937  0.16988608  0.65401669  1
  Ag  Ag8  1  0.33502168  0.32550561  0.32816992  1
  Ag  Ag9  1  0.00348253  0.16797190  0.16496014  1
  Ag  Ag10  1  0.83156343  0.83175119  0.32334308  1
  Ag  Ag11  1  0.16670612  0.67415839  0.49672697  1
  Ag  Ag12  1  -0.00036709  -0.00815824  -0.00095217  1
  Ag  Ag13  1  0.67153883  0.66536605  0.67039139  1
  Ag  Ag14  1  0.49489945  0.51306874  0.00320257  1
  Ag  Ag15  1  0.33230478  0.15830875  0.17052946  1
  Ag  Ag16  1  0.67229615  0.33566198  0.66461813  1
  Ag  Ag17  1  0.33431367  0.50133823  0.16223287  1
  Ag  Ag18  1  0.83346986  0.15927940  0.00368500  1
  Ag  Ag19  1  0.33130190  0.83207610  0.84957503  1
  Ag  Ag20  1  0.16215895  0.33292744  0.83706274  1
  Ag  Ag21  1  0.83867146  -0.01213385  0.84086985  1
  Ag  Ag22  1  0.33320494  0.84505287  0.16039611  1
  Ag  Ag23  1  0.17680198  0.83557076  0.00012311  1
  Ag  Ag24  1  0.32841959  0.50580712  0.84310790  1
  Ag  Ag25  1  0.83299185  0.49770938  0.66707863  1
  Ag  Ag26  1  0.83391753  0.67109794  0.84198171  1
  Ag  Ag27  1  0.65898589  0.16658185  0.50102464  1
  Ag  Ag28  1  0.66636769  0.83545508  0.50392953  1
  Ag  Ag29  1  0.67557700  0.83176491  0.84137038  1
  Ag  Ag30  1  0.83338302  0.49504975  0.33350790  1
  Ag  Ag31  1  0.16359992  -0.00542495  0.84516167  1
  Ag  Ag32  1  -0.00112155  0.50043615  0.83469143  1
  Ag  Ag33  1  0.17480318  -0.00234316  0.16162190  1
  Ag  Ag34  1  0.48799608  0.66820182  0.16008028  1
  Ag  Ag35  1  -0.00754509  0.83083156  0.84050268  1
  Ag  Ag36  1  0.82802235  0.17072096  0.32717939  1
  Ag  Ag37  1  0.67099956  0.67429106  -0.00284739  1
  Ag  Ag38  1  0.17188510  -0.00147698  0.49753397  1
  Ag  Ag39  1  0.83941321  0.33711577  0.82731123  1
  Ag  Ag40  1  0.33736752  0.16417214  0.48900912  1
  Ag  Ag41  1  -0.00734045  0.33390115  0.66905906  1
  Ag  Ag42  1  0.83493727  0.33340136  0.16852945  1
  Ag  Ag43  1  0.17433084  0.33061095  0.16506646  1
  Ag  Ag44  1  0.32780133  -0.00910384  0.00935944  1
  Ag  Ag45  1  0.33511807  0.67782119  0.00428597  1
  Ag  Ag46  1  -0.00785807  0.67448922  -0.00155381  1
  Ag  Ag47  1  0.17114158  0.33043779  0.49750450  1
  Ag  Ag48  1  0.33289685  0.00640360  0.32160643  1
  Ag  Ag49  1  0.17322883  0.67174391  0.15973719  1
  Ag  Ag50  1  0.48770261  -0.00166627  0.16361234  1
  Ag  Ag51  1  0.48956163  0.83106546  0.00253654  1
  Ag  Ag52  1  0.33403581  0.84128443  0.49562770  1
  Ag  Ag53  1  0.49882934  0.32686301  0.49477729  1
  Sb  Sb54  1  0.16312623  0.66911313  0.83798893  1
  Sb  Sb55  1  0.33680556  0.66684544  0.67239590  1
  Sb  Sb56  1  0.33201211  0.16400540  0.83848608  1
  Sb  Sb57  1  0.83147146  0.82618342  0.67184057  1
  Sb  Sb58  1  0.33415260  0.00054911  0.66870217  1
  Sb  Sb59  1  0.50295908  0.16233077  0.00620586  1
  Sb  Sb60  1  0.49500526  0.00510879  0.49299549  1
  Sb  Sb61  1  0.50560345  0.66742756  0.84187914  1
  Sb  Sb62  1  0.16783341  0.83303828  0.67287032  1
  Sb  Sb63  1  0.33405357  0.33329224  0.66323375  1
  Sb  Sb64  1  0.83114051  0.50315224  -0.00008944  1
  Sb  Sb65  1  0.66929520  0.33359061  -0.00325632  1
  Sb  Sb66  1  0.33262167  0.66908922  0.32491249  1
  Sb  Sb67  1  0.17099545  0.16876971  0.66547152  1
  Sb  Sb68  1  0.33284142  0.33094469  0.00772221  1
  Sb  Sb69  1  0.67208813  0.50529555  0.83395207  1
  Sb  Sb70  1  0.50215627  0.66462307  0.49395899  1
  Sb  Sb71  1  0.17135389  0.16675563  0.33060202  1
  Sb  Sb72  1  0.49876677  -0.00196039  0.84163258  1
  Sb  Sb73  1  -0.00256951  0.49926238  0.50471953  1
  Sb  Sb74  1  0.49924458  0.33431987  0.83534036  1
  Sb  Sb75  1  0.83503467  -0.00058287  0.16044647  1
  Sb  Sb76  1  -0.00063517  0.33365768  -0.00266592  1
  Sb  Sb77  1  0.50126179  0.83719430  0.32774273  1
  Sb  Sb78  1  0.00120634  0.16823979  0.49356181  1
  Sb  Sb79  1  0.16570665  0.83457801  0.32846278  1
  Sb  Sb80  1  0.66539416  0.16709639  0.17061048  1
  Sb  Sb81  1  0.33260973  0.49747640  0.49592994  1
  Sb  Sb82  1  0.00381616  0.00162158  0.32519837  1
  Sb  Sb83  1  0.83004531  0.17457370  0.66582068  1
  Sb  Sb84  1  0.66384381  0.50120298  0.16375651  1
  Sb  Sb85  1  0.66820485  -0.00016584  0.67031434  1
  Sb  Sb86  1  0.00010910  0.83181774  0.50535180  1
  Sb  Sb87  1  0.66341994  0.83250567  0.15903757  1
  Sb  Sb88  1  0.66880495  0.16256047  0.83015038  1
  Sb  Sb89  1  0.67049751  0.66961813  0.33025037  1
  Sb  Sb90  1  -0.00318440  0.66808462  0.32588124  1
  Sb  Sb91  1  0.17129596  0.50582186  0.00045194  1
  Sb  Sb92  1  -0.00208502  0.16663505  0.83928748  1
  Sb  Sb93  1  0.50156519  0.83607690  0.67167142  1
  Sb  Sb94  1  0.00005112  0.33233239  0.33423405  1
  Sb  Sb95  1  0.00368890  0.83603406  0.15765772  1
  Sb  Sb96  1  0.50451221  0.49642851  0.67156002  1
  Sb  Sb97  1  0.16258423  0.15890623  0.00401133  1
  Sb  Sb98  1  0.66863446  0.49809807  0.50081270  1
  Sb  Sb99  1  0.00182387  0.49837444  0.16061593  1
  Sb  Sb100  1  0.16238903  0.49928793  0.66875946  1
  Sb  Sb101  1  -0.00011227  0.00526253  0.67385023  1
  Sb  Sb102  1  0.83627117  0.00043339  0.50239367  1
  Sb  Sb103  1  0.66421790  -0.00024160  0.32841492  1
  Sb  Sb104  1  0.16392447  0.49865953  0.33128943  1
  Sb  Sb105  1  -0.00560976  0.66225162  0.67266624  1
  Sb  Sb106  1  0.50172516  0.49390722  0.32758066  1
  Sb  Sb107  1  0.66651062  0.33070223  0.33783643  1
  Te  Te108  1  0.16740746  0.16990587  0.16641928  1
  Te  Te109  1  0.17029114  0.16992359  0.49828636  1
  Te  Te110  1  0.16667178  0.16896991  0.83380044  1
  Te  Te111  1  0.16955036  0.49756650  0.16682323  1
  Te  Te112  1  0.16558999  0.49400377  0.49978145  1
  Te  Te113  1  0.16627109  0.49682633  0.83418858  1
  Te  Te114  1  0.16965487  0.83177506  0.16366271  1
  Te  Te115  1  0.16721126  0.83375466  0.49964816  1
  Te  Te116  1  0.17218915  0.83505260  0.83758811  1
  Te  Te117  1  0.49906241  0.17095209  0.16984553  1
  Te  Te118  1  0.49842514  0.16762411  0.49476955  1
  Te  Te119  1  0.49913447  0.16673747  0.82897125  1
  Te  Te120  1  0.49752789  0.49790233  0.16411627  1
  Te  Te121  1  0.49942139  0.49189956  0.50012646  1
  Te  Te122  1  0.49179474  0.50015562  0.83916576  1
  Te  Te123  1  0.49709963  0.83138493  0.16402720  1
  Te  Te124  1  0.50067680  0.83283651  0.49889489  1
  Te  Te125  1  0.49182797  0.83354918  0.83860136  1
  Te  Te126  1  0.83100698  0.16532440  0.16629019  1
  Te  Te127  1  0.83330981  0.16819518  0.49755823  1
  Te  Te128  1  0.83256868  0.17555021  0.83692974  1
  Te  Te129  1  0.83445173  0.50122624  0.16847415  1
  Te  Te130  1  0.83340818  0.49862263  0.49997062  1
  Te  Te131  1  0.83589412  0.49716418  0.83280603  1
  Te  Te132  1  0.83394750  0.83194281  0.16575641  1
  Te  Te133  1  0.83182561  0.83255622  0.50419540  1
  Te  Te134  1  0.83233581  0.83045340  0.83480137  1
  Te  Te135  1  0.16613912  -0.00189585  0.00186875  1
  Te  Te136  1  0.17115441  -0.00022798  0.33527057  1
  Te  Te137  1  0.16592760  0.00093922  0.66165186  1
  Te  Te138  1  0.16560516  0.33302275  0.00050684  1
  Te  Te139  1  0.16939547  0.33354373  0.33214429  1
  Te  Te140  1  0.16443193  0.33403054  0.66728242  1
  Te  Te141  1  0.17132059  0.67160698  0.00156338  1
  Te  Te142  1  0.16456835  0.66638269  0.33647883  1
  Te  Te143  1  0.16681257  0.66579830  0.65750780  1
  Te  Te144  1  0.49874566  -0.00308810  0.00447047  1
  Te  Te145  1  0.49554496  0.00451448  0.32593361  1
  Te  Te146  1  0.50245105  0.00690478  0.66723324  1
  Te  Te147  1  0.50216362  0.33117329  0.00618804  1
  Te  Te148  1  0.49921584  0.33027988  0.33245700  1
  Te  Te149  1  0.50463667  0.33156920  0.66375857  1
  Te  Te150  1  0.49774511  0.67052177  0.00309338  1
  Te  Te151  1  0.50172393  0.66468451  0.32316711  1
  Te  Te152  1  0.50826898  0.66529831  0.66408769  1
  Te  Te153  1  0.83435790  -0.00033272  -0.00155294  1
  Te  Te154  1  0.83377713  -0.00224036  0.33353237  1
  Te  Te155  1  0.83439611  0.00275667  0.67701860  1
  Te  Te156  1  0.83278067  0.33419207  0.00403848  1
  Te  Te157  1  0.83335872  0.33188887  0.33360552  1
  Te  Te158  1  0.83244614  0.33553142  0.66565551  1
  Te  Te159  1  0.83195796  0.66428756  -0.00059603  1
  Te  Te160  1  0.83431910  0.67090091  0.33916761  1
  Te  Te161  1  0.83091766  0.66090564  0.66056910  1
  Te  Te162  1  -0.00628327  0.16466471  0.00597576  1
  Te  Te163  1  -0.01169965  0.16628342  0.32610800  1
  Te  Te164  1  0.00083711  0.17323918  0.66487798  1
  Te  Te165  1  0.00097546  0.50578852  -0.00627381  1
  Te  Te166  1  -0.00816603  0.50045355  0.33265276  1
  Te  Te167  1  -0.00573635  0.49502279  0.67409444  1
  Te  Te168  1  -0.00768521  0.83263729  -0.00255223  1
  Te  Te169  1  -0.00901269  0.83545545  0.33557371  1
  Te  Te170  1  0.00051448  0.83451168  0.67825396  1
  Te  Te171  1  0.33476270  0.15929264  0.00662473  1
  Te  Te172  1  0.33409005  0.16635675  0.33133713  1
  Te  Te173  1  0.33961699  0.16770624  0.66323763  1
  Te  Te174  1  0.33578112  0.49645546  0.00106535  1
  Te  Te175  1  0.33323847  0.49616110  0.32798778  1
  Te  Te176  1  0.33497843  0.50126149  0.67502909  1
  Te  Te177  1  0.33303625  0.83333896  0.00558908  1
  Te  Te178  1  0.33332725  0.83624008  0.33598235  1
  Te  Te179  1  0.33528027  0.83273058  0.65400652  1
  Te  Te180  1  0.67185972  0.16407603  -0.00149216  1
  Te  Te181  1  0.66767522  0.16471195  0.34029352  1
  Te  Te182  1  0.66306140  0.16931230  0.66173916  1
  Te  Te183  1  0.65747253  0.50485175  -0.00181454  1
  Te  Te184  1  0.67485380  0.50144326  0.33261295  1
  Te  Te185  1  0.67150502  0.50098490  0.66751151  1
  Te  Te186  1  0.67384710  0.83210721  -0.00137258  1
  Te  Te187  1  0.67072649  0.83525006  0.34177576  1
  Te  Te188  1  0.66506565  0.83006593  0.66642167  1
  Te  Te189  1  0.00723135  0.00381431  0.16050607  1
  Te  Te190  1  0.00801163  0.00007497  0.50079561  1
  Te  Te191  1  0.00186163  -0.00044276  0.83817915  1
  Te  Te192  1  -0.00416608  0.33053389  0.16619931  1
  Te  Te193  1  -0.00140344  0.33293132  0.50392788  1
  Te  Te194  1  0.00017474  0.33348005  0.83181866  1
  Te  Te195  1  -0.00132169  0.66664045  0.15949379  1
  Te  Te196  1  -0.00073007  0.66669000  0.50139589  1
  Te  Te197  1  -0.00326763  0.66714285  0.83673221  1
  Te  Te198  1  0.33132714  0.00068485  0.16658001  1
  Te  Te199  1  0.33149682  0.00277750  0.50172479  1
  Te  Te200  1  0.32794448  -0.00376052  0.83579609  1
  Te  Te201  1  0.33202348  0.33571725  0.16860311  1
  Te  Te202  1  0.33304361  0.33239856  0.49670951  1
  Te  Te203  1  0.32962547  0.33295982  0.83291321  1
  Te  Te204  1  0.33047230  0.66199276  0.16485851  1
  Te  Te205  1  0.33247760  0.66566829  0.49912822  1
  Te  Te206  1  0.33164021  0.66803663  0.83746938  1
  Te  Te207  1  0.66209381  -0.00037511  0.16008551  1
  Te  Te208  1  0.66739792  -0.00031097  0.50133483  1
  Te  Te209  1  0.66887831  -0.00619372  0.83801527  1
  Te  Te210  1  0.67660244  0.33405753  0.16593124  1
  Te  Te211  1  0.66989126  0.33151315  0.50316395  1
  Te  Te212  1  0.66937322  0.33404880  0.82770829  1
  Te  Te213  1  0.67669438  0.66733675  0.16124603  1
  Te  Te214  1  0.66786766  0.66941026  0.50115669  1
  Te  Te215  1  0.67135805  0.67090262  0.83358991  1
