# generated using pymatgen
data_AgSbTe2
_symmetry_space_group_name_H-M   'P 1'
_cell_length_a   18.33649347
_cell_length_b   18.34793340
_cell_length_c   18.34698849
_cell_angle_alpha   90.00149294
_cell_angle_beta   89.99697916
_cell_angle_gamma   89.99592064
_symmetry_Int_Tables_number   1
_chemical_formula_structural   AgSbTe2
_chemical_formula_sum   'Ag54 Sb54 Te108'
_cell_volume   6172.60135475
_cell_formula_units_Z   54
loop_
 _symmetry_equiv_pos_site_id
 _symmetry_equiv_pos_as_xyz
  1  'x, y, z'
loop_
 _atom_site_type_symbol
 _atom_site_label
 _atom_site_symmetry_multiplicity
 _atom_site_fract_x
 _atom_site_fract_y
 _atom_site_fract_z
 _atom_site_occupancy
  Ag  Ag0  1  0.82601470  0.83327509  0.33988875  1
  Ag  Ag1  1  0.16238904  0.49618041  0.00059300  1
  Ag  Ag2  1  0.67099169  0.17388721  0.82787547  1
  Ag  Ag3  1  0.50584586  0.16917786  0.33306803  1
  Ag  Ag4  1  0.67412888  0.48613361  0.83811421  1
  Ag  Ag5  1  0.83715777  0.49733449  0.66688351  1
  Ag  Ag6  1  -0.00304602  0.00075971  -0.00600282  1
  Ag  Ag7  1  -0.00453790  0.48969415  0.82595000  1
  Ag  Ag8  1  0.66317708  0.33021864  -0.00725814  1
  Ag  Ag9  1  -0.00575757  0.83346117  0.82193512  1
  Ag  Ag10  1  0.15919363  0.00892515  0.83137024  1
  Ag  Ag11  1  0.15458932  0.17281207  0.34039983  1
  Ag  Ag12  1  0.67041308  0.83686229  0.50025208  1
  Ag  Ag13  1  0.83390383  0.67156482  0.49921257  1
  Ag  Ag14  1  -0.00093722  0.49364877  0.50543941  1
  Ag  Ag15  1  0.51568660  0.33154605  0.84347941  1
  Ag  Ag16  1  0.15428723  0.32946570  0.82467404  1
  Ag  Ag17  1  -0.00192340  0.17332213  0.49774506  1
  Ag  Ag18  1  0.66789453  0.00859574  -0.00560066  1
  Ag  Ag19  1  0.67497005  0.83684663  0.82735701  1
  Ag  Ag20  1  -0.00009216  0.33012378  0.34245921  1
  Ag  Ag21  1  -0.00338970  0.66747138  0.66130518  1
  Ag  Ag22  1  0.15882833  0.16697001  0.66270364  1
  Ag  Ag23  1  0.82841760  0.33295106  0.16998473  1
  Ag  Ag24  1  0.51012969  0.33551272  0.16570370  1
  Ag  Ag25  1  0.50362576  -0.00602846  0.49573079  1
  Ag  Ag26  1  0.83588191  0.82909714  0.65855586  1
  Ag  Ag27  1  0.34493633  0.83335870  0.18000113  1
  Ag  Ag28  1  0.34542963  0.83437390  0.49632164  1
  Ag  Ag29  1  0.66506607  0.83030808  0.18230789  1
  Ag  Ag30  1  -0.00243400  0.17364783  0.82908580  1
  Ag  Ag31  1  0.51118889  0.67351159  0.49155199  1
  Ag  Ag32  1  0.66940367  0.67320185  0.33458741  1
  Ag  Ag33  1  0.67023042  0.16568557  0.49858685  1
  Ag  Ag34  1  0.33592951  0.00265292  0.33460085  1
  Ag  Ag35  1  0.00006826  0.66695245  -0.00421852  1
  Ag  Ag36  1  0.15845574  0.33031755  0.49794111  1
  Ag  Ag37  1  0.67834647  0.32865944  0.67910046  1
  Ag  Ag38  1  0.83244951  0.17090153  0.33586616  1
  Ag  Ag39  1  0.15351953  0.83970137  0.66570817  1
  Ag  Ag40  1  0.66964323  0.33236214  0.33172517  1
  Ag  Ag41  1  -0.00639006  0.82912734  0.50458481  1
  Ag  Ag42  1  0.50712001  0.17367168  0.00746147  1
  Ag  Ag43  1  0.83136139  0.33403368  0.83237030  1
  Ag  Ag44  1  -0.00671009  0.66343181  0.34243220  1
  Ag  Ag45  1  0.66626691  0.00653493  0.66887471  1
  Ag  Ag46  1  0.66468807  0.48903199  0.16550832  1
  Ag  Ag47  1  -0.00133864  0.17038768  0.17976072  1
  Ag  Ag48  1  -0.00388563  0.33489321  0.66371943  1
  Ag  Ag49  1  0.16003822  0.49074855  0.33198815  1
  Ag  Ag50  1  0.32778229  0.32780678  0.33319863  1
  Ag  Ag51  1  0.50577135  0.66466674  0.17257165  1
  Ag  Ag52  1  0.50816665  0.49398186  0.00292221  1
  Ag  Ag53  1  0.50765255  0.83488624  0.33597179  1
  Sb  Sb54  1  0.33233824  0.66681027  0.00206463  1
  Sb  Sb55  1  0.16000579  0.66246337  0.83252668  1
  Sb  Sb56  1  0.33588977  -0.00010517  0.00450300  1
  Sb  Sb57  1  0.83738818  0.33471018  0.50012724  1
  Sb  Sb58  1  0.15781209  0.66480243  0.49900886  1
  Sb  Sb59  1  0.33928618  0.50170240  0.16876390  1
  Sb  Sb60  1  0.16767510  0.66612414  0.16841904  1
  Sb  Sb61  1  0.16534382  0.83452776  0.34007301  1
  Sb  Sb62  1  0.33172910  0.16528219  0.17131904  1
  Sb  Sb63  1  0.33334606  0.16389681  0.49590115  1
  Sb  Sb64  1  0.83643642  0.49765523  0.33877062  1
  Sb  Sb65  1  -0.00422033  0.00087523  0.66897175  1
  Sb  Sb66  1  0.33046351  0.83574135  0.82851237  1
  Sb  Sb67  1  0.00356452  0.00370598  0.33369619  1
  Sb  Sb68  1  0.33616162  -0.00037971  0.66102492  1
  Sb  Sb69  1  0.83273078  0.49798804  -0.00450400  1
  Sb  Sb70  1  -0.00436698  0.33318856  -0.00300928  1
  Sb  Sb71  1  0.67082773  0.66417874  0.00550525  1
  Sb  Sb72  1  0.33156347  0.49640982  0.83388937  1
  Sb  Sb73  1  0.83250812  0.83351217  -0.00047980  1
  Sb  Sb74  1  0.83033152  0.00433436  0.16804891  1
  Sb  Sb75  1  0.82888990  0.66182391  0.17479539  1
  Sb  Sb76  1  0.83542554  0.16798317  0.66265837  1
  Sb  Sb77  1  0.83551059  0.66299832  0.82748732  1
  Sb  Sb78  1  0.50743584  0.66250956  0.83503153  1
  Sb  Sb79  1  0.50749044  0.83270113  0.65823184  1
  Sb  Sb80  1  0.50071324  0.33357253  0.49624441  1
  Sb  Sb81  1  0.83514039  0.00492970  0.83213678  1
  Sb  Sb82  1  0.33952731  0.33335311  0.00602960  1
  Sb  Sb83  1  0.50519726  0.83339394  0.00760287  1
  Sb  Sb84  1  0.51173902  0.49794236  0.67094722  1
  Sb  Sb85  1  0.16491675  0.17122902  -0.00130304  1
  Sb  Sb86  1  0.66928089  0.16973041  0.16876299  1
  Sb  Sb87  1  0.16368539  0.83196059  -0.00486490  1
  Sb  Sb88  1  0.83093919  0.16933259  0.00178004  1
  Sb  Sb89  1  0.33378537  0.16877696  0.83338200  1
  Sb  Sb90  1  0.50349676  0.00426073  0.83024138  1
  Sb  Sb91  1  -0.00577546  0.49597831  0.16713963  1
  Sb  Sb92  1  0.50286019  0.16874520  0.66339089  1
  Sb  Sb93  1  0.16410584  0.33364112  0.17017408  1
  Sb  Sb94  1  0.82909680  -0.00496129  0.50111144  1
  Sb  Sb95  1  0.32727793  0.50345997  0.49578782  1
  Sb  Sb96  1  0.16825133  0.00306577  0.50418263  1
  Sb  Sb97  1  0.16513198  0.00006718  0.16417941  1
  Sb  Sb98  1  0.67345930  0.66638114  0.66018434  1
  Sb  Sb99  1  0.66329462  0.00011825  0.33582667  1
  Sb  Sb100  1  0.15707341  0.49611884  0.66596330  1
  Sb  Sb101  1  -0.00471204  0.83567273  0.17024624  1
  Sb  Sb102  1  0.50388615  0.00159551  0.17204232  1
  Sb  Sb103  1  0.32477452  0.66991684  0.66182372  1
  Sb  Sb104  1  0.67195368  0.49740054  0.49944804  1
  Sb  Sb105  1  0.32913653  0.33286892  0.66133309  1
  Sb  Sb106  1  0.33547923  0.66800705  0.33409159  1
  Sb  Sb107  1  0.50217877  0.49909524  0.33077951  1
  Te  Te108  1  0.16064373  0.16624554  0.16980477  1
  Te  Te109  1  0.16612766  0.16897251  0.49957151  1
  Te  Te110  1  0.16632191  0.16915368  0.83392689  1
  Te  Te111  1  0.16738883  0.50038139  0.16559108  1
  Te  Te112  1  0.16013740  0.49524681  0.49689779  1
  Te  Te113  1  0.16242306  0.49481298  0.83457609  1
  Te  Te114  1  0.16873535  0.83307521  0.16644951  1
  Te  Te115  1  0.15676907  0.83455787  0.50476116  1
  Te  Te116  1  0.16386385  0.83381918  0.82816944  1
  Te  Te117  1  0.49951575  0.17037908  0.16994300  1
  Te  Te118  1  0.50360856  0.16593878  0.49609440  1
  Te  Te119  1  0.50448643  0.17118590  0.83151953  1
  Te  Te120  1  0.50470820  0.49855874  0.16421592  1
  Te  Te121  1  0.49878224  0.50635879  0.50125279  1
  Te  Te122  1  0.50364779  0.49486286  0.83890178  1
  Te  Te123  1  0.50330924  0.83319434  0.17200031  1
  Te  Te124  1  0.50527306  0.83287989  0.49641193  1
  Te  Te125  1  0.49992598  0.83336053  0.83282141  1
  Te  Te126  1  0.83860533  0.17135065  0.17226501  1
  Te  Te127  1  0.83269288  0.16568739  0.49613636  1
  Te  Te128  1  0.83188261  0.17166927  0.83190050  1
  Te  Te129  1  0.82569159  0.49377477  0.16648992  1
  Te  Te130  1  0.83883208  0.50763616  0.50524659  1
  Te  Te131  1  0.83417658  0.49720869  0.82981208  1
  Te  Te132  1  0.82688396  0.83243262  0.17129492  1
  Te  Te133  1  0.83250449  0.83249921  0.49828683  1
  Te  Te134  1  0.83563183  0.83309252  0.83327236  1
  Te  Te135  1  0.16484319  0.00109873  -0.00639362  1
  Te  Te136  1  0.17257142  0.00585150  0.33299424  1
  Te  Te137  1  0.16863467  0.00218597  0.67088283  1
  Te  Te138  1  0.16923341  0.33617831  -0.00093655  1
  Te  Te139  1  0.16142076  0.33023475  0.33245552  1
  Te  Te140  1  0.16304143  0.33040110  0.66489515  1
  Te  Te141  1  0.16120476  0.66076376  0.00077517  1
  Te  Te142  1  0.16104669  0.66380758  0.33316677  1
  Te  Te143  1  0.15741697  0.67176344  0.66608610  1
  Te  Te144  1  0.50429152  0.00404434  -0.00109670  1
  Te  Te145  1  0.49708191  -0.00061075  0.33585530  1
  Te  Te146  1  0.50587871  0.00073990  0.66011488  1
  Te  Te147  1  0.50189737  0.33362515  0.00218175  1
  Te  Te148  1  0.50577179  0.33270636  0.33249666  1
  Te  Te149  1  0.49986596  0.33350941  0.66866452  1
  Te  Te150  1  0.50061396  0.66096844  0.00481619  1
  Te  Te151  1  0.50177681  0.66648117  0.33251049  1
  Te  Te152  1  0.49800203  0.66561389  0.66326482  1
  Te  Te153  1  0.83232758  0.00085552  -0.00010954  1
  Te  Te154  1  0.83464615  -0.00094475  0.33306121  1
  Te  Te155  1  0.82386039  -0.00876737  0.66744888  1
  Te  Te156  1  0.82585527  0.33321772  0.00017488  1
  Te  Te157  1  0.83549652  0.33184228  0.33360677  1
  Te  Te158  1  0.83502970  0.33362083  0.66751297  1
  Te  Te159  1  0.84085383  0.66599864  0.00209106  1
  Te  Te160  1  0.83226757  0.66786375  0.33751769  1
  Te  Te161  1  0.83849687  0.66871950  0.66225427  1
  Te  Te162  1  0.00001939  0.16339231  -0.01084262  1
  Te  Te163  1  -0.00260385  0.16619605  0.33689362  1
  Te  Te164  1  -0.00016966  0.16777526  0.66786334  1
  Te  Te165  1  0.00095372  0.50143418  -0.00192881  1
  Te  Te166  1  0.00058996  0.50007582  0.33249052  1
  Te  Te167  1  -0.00190093  0.49639749  0.66703659  1
  Te  Te168  1  -0.00009971  0.83396088  0.00108836  1
  Te  Te169  1  -0.00222589  0.83253652  0.33610548  1
  Te  Te170  1  -0.00345043  0.83807005  0.66527320  1
  Te  Te171  1  0.34494126  0.16523916  0.00205459  1
  Te  Te172  1  0.34138921  0.16740398  0.33263686  1
  Te  Te173  1  0.32343513  0.16617262  0.66518200  1
  Te  Te174  1  0.32929328  0.50098068  0.00060984  1
  Te  Te175  1  0.32354597  0.49470282  0.33279482  1
  Te  Te176  1  0.33382074  0.50127153  0.66538037  1
  Te  Te177  1  0.33367669  0.83383587  0.00366765  1
  Te  Te178  1  0.33189798  0.83342585  0.33714620  1
  Te  Te179  1  0.32921628  0.83470651  0.65933452  1
  Te  Te180  1  0.66617421  0.16828894  0.00135361  1
  Te  Te181  1  0.66801011  0.16558165  0.33418913  1
  Te  Te182  1  0.66767438  0.16891216  0.66547606  1
  Te  Te183  1  0.66697763  0.49876233  -0.00102996  1
  Te  Te184  1  0.66812646  0.49824715  0.33095422  1
  Te  Te185  1  0.67487515  0.49540523  0.67099884  1
  Te  Te186  1  0.66700688  0.83270774  -0.01214696  1
  Te  Te187  1  0.66578358  0.83550272  0.33886436  1
  Te  Te188  1  0.67119346  0.83144103  0.66366588  1
  Te  Te189  1  -0.00119914  0.00548341  0.15864115  1
  Te  Te190  1  0.00113979  0.00289257  0.50039005  1
  Te  Te191  1  0.00077288  -0.00230194  0.83457564  1
  Te  Te192  1  -0.00432991  0.32948631  0.16512847  1
  Te  Te193  1  -0.00038487  0.33278034  0.50150830  1
  Te  Te194  1  -0.00273828  0.33288476  0.83551765  1
  Te  Te195  1  -0.00074417  0.66583620  0.16783049  1
  Te  Te196  1  -0.00204950  0.66857644  0.50062325  1
  Te  Te197  1  -0.00090709  0.67232137  0.83317170  1
  Te  Te198  1  0.33315128  -0.00596197  0.17211210  1
  Te  Te199  1  0.33869191  -0.00492476  0.49517994  1
  Te  Te200  1  0.32713283  0.00009492  0.83402705  1
  Te  Te201  1  0.33845943  0.33360396  0.17383562  1
  Te  Te202  1  0.32882521  0.33480158  0.49290925  1
  Te  Te203  1  0.32768770  0.33306049  0.83220955  1
  Te  Te204  1  0.34079748  0.67297874  0.16684674  1
  Te  Te205  1  0.33728686  0.67353141  0.49908212  1
  Te  Te206  1  0.33395112  0.66690340  0.83225218  1
  Te  Te207  1  0.66674547  -0.00787401  0.15657777  1
  Te  Te208  1  0.66362160  0.00257598  0.50144923  1
  Te  Te209  1  0.66636864  -0.00126850  0.83278959  1
  Te  Te210  1  0.66720158  0.33062539  0.17181504  1
  Te  Te211  1  0.66656193  0.33085982  0.49254935  1
  Te  Te212  1  0.67063599  0.33070566  0.83432446  1
  Te  Te213  1  0.66392013  0.67063535  0.17090704  1
  Te  Te214  1  0.66899695  0.66437259  0.49572736  1
  Te  Te215  1  0.66819618  0.67504920  0.83265054  1
