# generated using pymatgen
data_AgSbTe2
_symmetry_space_group_name_H-M   'P 1'
_cell_length_a   18.32920255
_cell_length_b   18.32173079
_cell_length_c   18.32870251
_cell_angle_alpha   89.99927847
_cell_angle_beta   90.00000782
_cell_angle_gamma   90.00074568
_symmetry_Int_Tables_number   1
_chemical_formula_structural   AgSbTe2
_chemical_formula_sum   'Ag54 Sb54 Te108'
_cell_volume   6155.19463455
_cell_formula_units_Z   54
loop_
 _symmetry_equiv_pos_site_id
 _symmetry_equiv_pos_as_xyz
  1  'x, y, z'
loop_
 _atom_site_type_symbol
 _atom_site_label
 _atom_site_symmetry_multiplicity
 _atom_site_fract_x
 _atom_site_fract_y
 _atom_site_fract_z
 _atom_site_occupancy
  Ag  Ag0  1  0.50296897  0.83585755  -0.00335822  1
  Ag  Ag1  1  0.49801817  0.00409642  0.16912867  1
  Ag  Ag2  1  0.67074966  0.32841819  0.67067259  1
  Ag  Ag3  1  0.32340301  0.00261706  0.33562978  1
  Ag  Ag4  1  0.83502611  0.00456620  0.83524349  1
  Ag  Ag5  1  -0.00439642  0.32584752  0.33627309  1
  Ag  Ag6  1  0.15705499  0.00496297  0.50208098  1
  Ag  Ag7  1  0.83985513  0.33188447  0.16549561  1
  Ag  Ag8  1  0.32945209  0.84334785  0.50408029  1
  Ag  Ag9  1  0.32449847  0.16449002  0.50203651  1
  Ag  Ag10  1  0.66411765  0.16587725  0.83218494  1
  Ag  Ag11  1  0.67271617  0.00005098  -0.00167450  1
  Ag  Ag12  1  0.16175852  0.00023106  0.82636096  1
  Ag  Ag13  1  0.50396755  0.16607598  0.33664465  1
  Ag  Ag14  1  0.50014212  0.32781257  0.49893775  1
  Ag  Ag15  1  0.67357589  0.32662347  -0.00666640  1
  Ag  Ag16  1  0.33149177  0.48648805  0.49374931  1
  Ag  Ag17  1  0.16125602  0.49539399  0.33416181  1
  Ag  Ag18  1  0.50333776  0.67239560  0.83400288  1
  Ag  Ag19  1  0.15888470  0.32358975  0.49585511  1
  Ag  Ag20  1  -0.00499121  0.66566958  0.33842319  1
  Ag  Ag21  1  -0.00226423  0.67276025  0.65989171  1
  Ag  Ag22  1  0.00346190  0.00308693  0.65417290  1
  Ag  Ag23  1  0.33689008  0.84255002  0.83070139  1
  Ag  Ag24  1  0.15510908  0.32408383  0.17392269  1
  Ag  Ag25  1  -0.00078293  0.00898760  0.34235478  1
  Ag  Ag26  1  -0.00356239  0.00322705  0.00135706  1
  Ag  Ag27  1  0.82871391  0.32552279  0.83845106  1
  Ag  Ag28  1  0.83819311  0.16867745  0.33654209  1
  Ag  Ag29  1  0.49687963  0.16880882  0.66335440  1
  Ag  Ag30  1  0.66858393  0.83672782  0.50412256  1
  Ag  Ag31  1  0.16467974  0.00608293  0.17161322  1
  Ag  Ag32  1  0.84351887  0.00486531  0.49882299  1
  Ag  Ag33  1  -0.00768173  0.32411369  0.00668246  1
  Ag  Ag34  1  0.00112375  0.16733700  0.17745869  1
  Ag  Ag35  1  0.83351583  0.48639950  0.00422250  1
  Ag  Ag36  1  0.66777889  0.66920882  0.66524655  1
  Ag  Ag37  1  0.00452156  0.16283608  0.49627595  1
  Ag  Ag38  1  0.50180712  0.32773906  0.16804288  1
  Ag  Ag39  1  0.16334560  0.84005565  -0.00534057  1
  Ag  Ag40  1  0.33348753  0.49537340  0.17474247  1
  Ag  Ag41  1  0.00100052  0.84731548  0.50151463  1
  Ag  Ag42  1  0.83920684  0.48725211  0.33197583  1
  Ag  Ag43  1  0.16604300  0.16219231  0.66198263  1
  Ag  Ag44  1  0.83235035  0.84329001  -0.00278690  1
  Ag  Ag45  1  0.84183546  0.32591066  0.49370682  1
  Ag  Ag46  1  0.67012424  0.00002690  0.33310084  1
  Ag  Ag47  1  0.66270517  0.84035632  0.83310197  1
  Ag  Ag48  1  -0.00505633  0.32226419  0.65453094  1
  Ag  Ag49  1  0.16303712  0.84414188  0.66473747  1
  Ag  Ag50  1  0.50876849  0.32662327  0.83311890  1
  Ag  Ag51  1  0.50106028  0.67084668  0.16578700  1
  Ag  Ag52  1  0.33936435  0.15988440  0.82487460  1
  Ag  Ag53  1  0.67063736  0.67293144  0.33791534  1
  Sb  Sb54  1  -0.00243616  0.67137655  0.00152184  1
  Sb  Sb55  1  0.16418939  0.67022327  0.49985543  1
  Sb  Sb56  1  0.33378360  0.32901042  0.66303997  1
  Sb  Sb57  1  0.66765008  0.49530947  0.83378296  1
  Sb  Sb58  1  0.67229425  0.32903412  0.33463500  1
  Sb  Sb59  1  0.33515912  0.66989565  0.66597033  1
  Sb  Sb60  1  0.50055240  0.49282318  0.66621827  1
  Sb  Sb61  1  0.00121158  0.84251834  0.17086572  1
  Sb  Sb62  1  0.83425244  0.49478811  0.66393939  1
  Sb  Sb63  1  0.50145414  0.83953566  0.33170009  1
  Sb  Sb64  1  0.50035549  0.49388276  0.33212876  1
  Sb  Sb65  1  0.16503813  0.83646661  0.33691253  1
  Sb  Sb66  1  0.16103061  0.49903334  0.00691726  1
  Sb  Sb67  1  0.66624168  0.83597693  0.16406027  1
  Sb  Sb68  1  0.33514137  0.49806667  0.83253593  1
  Sb  Sb69  1  0.16813324  0.66717996  0.16920658  1
  Sb  Sb70  1  0.16937428  0.67799945  0.83070562  1
  Sb  Sb71  1  0.16536220  0.49574895  0.65942179  1
  Sb  Sb72  1  0.49850966  0.84001425  0.66984421  1
  Sb  Sb73  1  0.83585744  0.16740232  0.66181510  1
  Sb  Sb74  1  0.66451883  0.49724675  0.16805217  1
  Sb  Sb75  1  0.00292739  0.49276535  0.49636918  1
  Sb  Sb76  1  0.83381057  0.16746555  0.00235150  1
  Sb  Sb77  1  -0.00073546  0.49640670  0.83358003  1
  Sb  Sb78  1  0.50226352  0.00231813  0.83778833  1
  Sb  Sb79  1  0.83388435  0.83832527  0.33173547  1
  Sb  Sb80  1  0.82975314  0.66050057  0.16936615  1
  Sb  Sb81  1  0.33484059  0.66883172  0.00052280  1
  Sb  Sb82  1  -0.00107176  0.83883590  0.82850008  1
  Sb  Sb83  1  0.50158051  0.16304720  0.00063441  1
  Sb  Sb84  1  0.33408501  0.83378649  0.16694538  1
  Sb  Sb85  1  0.67229725  0.00276778  0.66758182  1
  Sb  Sb86  1  0.83599007  0.00644307  0.16698918  1
  Sb  Sb87  1  0.16386098  0.16029589  -0.00355250  1
  Sb  Sb88  1  0.66613725  0.67067384  -0.00141424  1
  Sb  Sb89  1  0.82903080  0.66850717  0.83233116  1
  Sb  Sb90  1  0.66992933  0.16702671  0.16520216  1
  Sb  Sb91  1  0.83463277  0.66749954  0.49882757  1
  Sb  Sb92  1  0.66837050  0.16359541  0.50276883  1
  Sb  Sb93  1  0.32998644  0.16838627  0.17209353  1
  Sb  Sb94  1  0.33168700  -0.00080674  0.00211530  1
  Sb  Sb95  1  0.33419496  0.33159567  0.00211107  1
  Sb  Sb96  1  0.50191487  0.66440305  0.49997998  1
  Sb  Sb97  1  0.00220584  0.49015802  0.17136070  1
  Sb  Sb98  1  0.66532509  0.49930373  0.49807343  1
  Sb  Sb99  1  0.32522915  0.00162167  0.66051935  1
  Sb  Sb100  1  0.16400800  0.32414057  0.83121283  1
  Sb  Sb101  1  0.50542418  0.50043098  0.00245348  1
  Sb  Sb102  1  0.33495141  0.66878968  0.33441025  1
  Sb  Sb103  1  0.32820389  0.32728228  0.33578845  1
  Sb  Sb104  1  0.16299298  0.16779282  0.34066591  1
  Sb  Sb105  1  -0.00349309  0.16386163  0.82887315  1
  Sb  Sb106  1  0.83651795  0.83553237  0.66731258  1
  Sb  Sb107  1  0.49844362  0.00597354  0.49501912  1
  Te  Te108  1  0.16423124  0.16680780  0.16403240  1
  Te  Te109  1  0.16638626  0.16569666  0.50157630  1
  Te  Te110  1  0.16987697  0.16054957  0.82639959  1
  Te  Te111  1  0.17268207  0.49916398  0.17133450  1
  Te  Te112  1  0.17174125  0.49629523  0.49484237  1
  Te  Te113  1  0.16937297  0.50112709  0.83533876  1
  Te  Te114  1  0.16875478  0.83834537  0.16173559  1
  Te  Te115  1  0.16693634  0.83683309  0.50255138  1
  Te  Te116  1  0.16858577  0.84001532  0.83194412  1
  Te  Te117  1  0.49797942  0.16558473  0.16975751  1
  Te  Te118  1  0.50201736  0.16949392  0.50010344  1
  Te  Te119  1  0.50110855  0.16828122  0.83392959  1
  Te  Te120  1  0.49446306  0.49653732  0.16608319  1
  Te  Te121  1  0.49316568  0.49364201  0.49935026  1
  Te  Te122  1  0.49866664  0.50017558  0.83437347  1
  Te  Te123  1  0.49928150  0.83427720  0.16186434  1
  Te  Te124  1  0.49983547  0.83309405  0.50102257  1
  Te  Te125  1  0.50010374  0.83408785  0.83476702  1
  Te  Te126  1  0.83708114  0.17308689  0.17552504  1
  Te  Te127  1  0.83392702  0.16544088  0.49640669  1
  Te  Te128  1  0.82914592  0.16560930  0.83060919  1
  Te  Te129  1  0.83288916  0.49316681  0.16874072  1
  Te  Te130  1  0.83302009  0.49276974  0.49376561  1
  Te  Te131  1  0.83350836  0.49531821  0.83787082  1
  Te  Te132  1  0.83386523  0.83184948  0.15799904  1
  Te  Te133  1  0.83289178  0.83767031  0.49987510  1
  Te  Te134  1  0.82879958  0.83578450  0.83677821  1
  Te  Te135  1  0.16521132  -0.00300552  0.00204175  1
  Te  Te136  1  0.16272330  0.00051901  0.33310219  1
  Te  Te137  1  0.16335910  0.00096786  0.66512327  1
  Te  Te138  1  0.16158452  0.33423625  0.00330931  1
  Te  Te139  1  0.16341351  0.33497662  0.33301550  1
  Te  Te140  1  0.16027849  0.32890906  0.66339364  1
  Te  Te141  1  0.16493597  0.67548817  -0.00014657  1
  Te  Te142  1  0.16277377  0.66112839  0.33244454  1
  Te  Te143  1  0.16124800  0.66794094  0.66733506  1
  Te  Te144  1  0.50226150  -0.00386322  0.00604945  1
  Te  Te145  1  0.50805726  0.00361712  0.32910585  1
  Te  Te146  1  0.50143241  0.00821881  0.66706761  1
  Te  Te147  1  0.50261437  0.33339008  -0.00046694  1
  Te  Te148  1  0.50278067  0.32902922  0.33337009  1
  Te  Te149  1  0.50213754  0.32931996  0.66836728  1
  Te  Te150  1  0.50183271  0.67067013  0.00050945  1
  Te  Te151  1  0.50438561  0.66608866  0.33009735  1
  Te  Te152  1  0.50518113  0.66753448  0.66988421  1
  Te  Te153  1  0.83224093  0.00078702  0.00034748  1
  Te  Te154  1  0.83469249  0.00280034  0.33416968  1
  Te  Te155  1  0.84095655  0.00041655  0.66767575  1
  Te  Te156  1  0.83305776  0.32983753  0.00064275  1
  Te  Te157  1  0.83373328  0.33100533  0.33418386  1
  Te  Te158  1  0.83395907  0.33347435  0.66693640  1
  Te  Te159  1  0.83344554  0.66608729  0.00073904  1
  Te  Te160  1  0.83239101  0.66656015  0.33314862  1
  Te  Te161  1  0.83279174  0.66514414  0.66634061  1
  Te  Te162  1  0.00006372  0.16662341  0.00156492  1
  Te  Te163  1  0.00002298  0.16634886  0.33510099  1
  Te  Te164  1  0.00278549  0.16515144  0.66342850  1
  Te  Te165  1  -0.00622910  0.49890199  0.00181298  1
  Te  Te166  1  -0.00074623  0.50255242  0.33326465  1
  Te  Te167  1  0.00080470  0.50505463  0.66553309  1
  Te  Te168  1  -0.00151002  0.83725588  -0.00008275  1
  Te  Te169  1  -0.00028139  0.83163029  0.33885490  1
  Te  Te170  1  0.00249327  0.83593275  0.66275641  1
  Te  Te171  1  0.33265447  0.16629673  -0.00973661  1
  Te  Te172  1  0.34104355  0.16155451  0.33738485  1
  Te  Te173  1  0.33424204  0.16652574  0.66451364  1
  Te  Te174  1  0.33142383  0.50030424  0.00391197  1
  Te  Te175  1  0.33181888  0.50091949  0.33555243  1
  Te  Te176  1  0.33214791  0.50093135  0.65807659  1
  Te  Te177  1  0.33565134  0.83376429  -0.00480423  1
  Te  Te178  1  0.33323445  0.83947087  0.33816951  1
  Te  Te179  1  0.32866752  0.83390997  0.66750610  1
  Te  Te180  1  0.66688990  0.16477970  -0.00495154  1
  Te  Te181  1  0.66479064  0.16179753  0.33292953  1
  Te  Te182  1  0.66251023  0.16978459  0.67144067  1
  Te  Te183  1  0.67327420  0.49498250  0.00103673  1
  Te  Te184  1  0.67133942  0.50680973  0.33394075  1
  Te  Te185  1  0.66693021  0.50499943  0.66589967  1
  Te  Te186  1  0.66687550  0.83634972  -0.00363661  1
  Te  Te187  1  0.66763635  0.83484311  0.33692559  1
  Te  Te188  1  0.66665758  0.83207914  0.66740654  1
  Te  Te189  1  0.00296848  0.00599968  0.16261258  1
  Te  Te190  1  -0.00006419  0.00246891  0.49830219  1
  Te  Te191  1  -0.00197198  0.00074705  0.84237475  1
  Te  Te192  1  -0.00037809  0.32971066  0.16853957  1
  Te  Te193  1  0.00007872  0.33074787  0.49807725  1
  Te  Te194  1  -0.00452169  0.33108994  0.83525948  1
  Te  Te195  1  -0.00043814  0.66826432  0.17330740  1
  Te  Te196  1  -0.00108818  0.66795663  0.49957712  1
  Te  Te197  1  -0.00008900  0.66688047  0.82755189  1
  Te  Te198  1  0.33232617  0.00070341  0.17272368  1
  Te  Te199  1  0.33277092  0.00235470  0.49531293  1
  Te  Te200  1  0.33126903  0.00022731  0.83445824  1
  Te  Te201  1  0.33849040  0.33528041  0.16820619  1
  Te  Te202  1  0.33562608  0.32787362  0.49944275  1
  Te  Te203  1  0.33681263  0.33019796  0.83311886  1
  Te  Te204  1  0.33989493  0.66196530  0.16824920  1
  Te  Te205  1  0.33346229  0.67346896  0.49975965  1
  Te  Te206  1  0.34112071  0.66944447  0.83270481  1
  Te  Te207  1  0.66433316  0.00106882  0.16656891  1
  Te  Te208  1  0.66811420  -0.00365069  0.49921731  1
  Te  Te209  1  0.66944371  0.00022711  0.83478738  1
  Te  Te210  1  0.66205499  0.33203232  0.16337699  1
  Te  Te211  1  0.66336409  0.33320546  0.50469393  1
  Te  Te212  1  0.66817636  0.33281671  0.83218358  1
  Te  Te213  1  0.66057050  0.66676103  0.17072771  1
  Te  Te214  1  0.66745071  0.67135709  0.50049145  1
  Te  Te215  1  0.66309878  0.67039652  0.83110489  1
