# generated using pymatgen
data_AgSbTe2
_symmetry_space_group_name_H-M   'P 1'
_cell_length_a   18.33076530
_cell_length_b   18.34419295
_cell_length_c   18.33964296
_cell_angle_alpha   90.00119277
_cell_angle_beta   90.00244146
_cell_angle_gamma   90.00000043
_symmetry_Int_Tables_number   1
_chemical_formula_structural   AgSbTe2
_chemical_formula_sum   'Ag54 Sb54 Te108'
_cell_volume   6166.94510729
_cell_formula_units_Z   54
loop_
 _symmetry_equiv_pos_site_id
 _symmetry_equiv_pos_as_xyz
  1  'x, y, z'
loop_
 _atom_site_type_symbol
 _atom_site_label
 _atom_site_symmetry_multiplicity
 _atom_site_fract_x
 _atom_site_fract_y
 _atom_site_fract_z
 _atom_site_occupancy
  Ag  Ag0  1  0.66473775  -0.00246674  0.32899917  1
  Ag  Ag1  1  0.82718478  0.83380643  0.00479373  1
  Ag  Ag2  1  -0.00721515  0.49979609  0.16367085  1
  Ag  Ag3  1  0.50559665  0.82169803  0.66392082  1
  Ag  Ag4  1  0.16652983  0.16785737  0.33513292  1
  Ag  Ag5  1  0.50634025  0.82744071  -0.00219357  1
  Ag  Ag6  1  0.49660059  0.66827732  0.50550819  1
  Ag  Ag7  1  0.50222700  0.16209186  0.33663747  1
  Ag  Ag8  1  0.33716121  0.82304426  0.49738759  1
  Ag  Ag9  1  0.82718199  0.82937603  0.66294881  1
  Ag  Ag10  1  0.34723769  -0.00631427  0.00757811  1
  Ag  Ag11  1  0.50689450  0.34005049  0.83356956  1
  Ag  Ag12  1  -0.00398786  0.66571811  0.33140198  1
  Ag  Ag13  1  0.83476839  0.83732266  0.33516266  1
  Ag  Ag14  1  0.17492828  0.34020624  0.49825228  1
  Ag  Ag15  1  0.66732527  0.50202179  0.16121424  1
  Ag  Ag16  1  0.82506348  -0.00224311  0.48993264  1
  Ag  Ag17  1  0.83112729  0.50480315  0.67182285  1
  Ag  Ag18  1  -0.00574588  0.16865731  0.17045555  1
  Ag  Ag19  1  0.66411839  0.66816204  0.33405046  1
  Ag  Ag20  1  0.83160721  0.15770912  0.33230504  1
  Ag  Ag21  1  0.34921541  0.66930294  0.00100520  1
  Ag  Ag22  1  0.50193577  0.32947771  0.16751450  1
  Ag  Ag23  1  0.82769134  0.34279150  0.83200424  1
  Ag  Ag24  1  0.66417085  0.66279879  0.67415877  1
  Ag  Ag25  1  -0.01302088  0.50092069  0.83950025  1
  Ag  Ag26  1  0.50527445  0.16762864  0.65543217  1
  Ag  Ag27  1  0.16393713  0.50185291  0.66304875  1
  Ag  Ag28  1  0.49641323  0.33108969  0.49718413  1
  Ag  Ag29  1  0.34561278  0.67017138  0.34347166  1
  Ag  Ag30  1  0.82743122  0.00041751  0.17230399  1
  Ag  Ag31  1  0.82658756  0.16115761  0.00622874  1
  Ag  Ag32  1  0.50088309  0.00224747  0.49211209  1
  Ag  Ag33  1  0.66605497  0.34303904  0.66912873  1
  Ag  Ag34  1  -0.00304706  0.33657425  0.32975000  1
  Ag  Ag35  1  0.34759526  0.66539997  0.65277415  1
  Ag  Ag36  1  0.33689237  0.51045551  0.50057490  1
  Ag  Ag37  1  0.34491728  -0.00212491  0.33459965  1
  Ag  Ag38  1  -0.00799715  0.66262234  0.00593289  1
  Ag  Ag39  1  0.82363885  0.66090581  0.83249272  1
  Ag  Ag40  1  0.50169827  0.50112391  0.33257814  1
  Ag  Ag41  1  0.50459077  0.66118968  0.83039771  1
  Ag  Ag42  1  -0.00478950  0.34351859  0.00861871  1
  Ag  Ag43  1  0.66842436  0.50244805  0.83448793  1
  Ag  Ag44  1  0.50700950  0.00464379  0.17249407  1
  Ag  Ag45  1  -0.00783102  0.82840563  0.17140076  1
  Ag  Ag46  1  -0.00548456  0.83028027  0.49384002  1
  Ag  Ag47  1  0.50379208  0.50858215  0.00425003  1
  Ag  Ag48  1  0.18309897  0.66177325  0.49908145  1
  Ag  Ag49  1  0.66667217  0.66672201  -0.00721015  1
  Ag  Ag50  1  0.50515953  0.16361394  0.00545273  1
  Ag  Ag51  1  0.33959555  0.16558790  0.49636089  1
  Ag  Ag52  1  0.66285119  -0.00523688  0.00780755  1
  Ag  Ag53  1  0.82677668  0.16720963  0.66400671  1
  Sb  Sb54  1  0.33810360  0.50223679  0.17157757  1
  Sb  Sb55  1  0.16318725  0.66519587  0.17271624  1
  Sb  Sb56  1  0.83087880  -0.00073485  0.83507085  1
  Sb  Sb57  1  -0.00477398  0.66478862  0.66475143  1
  Sb  Sb58  1  0.50324047  0.66767894  0.16681657  1
  Sb  Sb59  1  0.16875401  0.00220005  0.83545910  1
  Sb  Sb60  1  0.66495262  -0.00237526  0.66606102  1
  Sb  Sb61  1  0.00018206  0.16423772  0.49348616  1
  Sb  Sb62  1  0.34403742  0.33970558  0.66205391  1
  Sb  Sb63  1  0.66422245  0.83284323  0.49905515  1
  Sb  Sb64  1  -0.00652828  0.82403568  0.83599550  1
  Sb  Sb65  1  0.34065104  0.50335405  0.82872282  1
  Sb  Sb66  1  0.50416244  0.50186012  0.66439714  1
  Sb  Sb67  1  0.66773685  0.16782213  0.16616666  1
  Sb  Sb68  1  0.66621046  0.17378487  0.83388575  1
  Sb  Sb69  1  0.66832963  0.33621546  -0.00337351  1
  Sb  Sb70  1  0.82842696  0.67224505  0.50281770  1
  Sb  Sb71  1  0.82994514  0.32782354  0.50320599  1
  Sb  Sb72  1  0.66588163  0.82478433  0.83587900  1
  Sb  Sb73  1  0.16387297  0.33700334  0.82731252  1
  Sb  Sb74  1  0.33810081  0.33466827  -0.00002672  1
  Sb  Sb75  1  0.33523351  0.33304279  0.33741579  1
  Sb  Sb76  1  0.33422937  0.83336422  0.17013014  1
  Sb  Sb77  1  0.16782795  0.82645854  0.66120969  1
  Sb  Sb78  1  -0.00580675  0.17580287  0.84047758  1
  Sb  Sb79  1  0.33963006  -0.00604247  0.65991157  1
  Sb  Sb80  1  0.82909938  0.50267604  -0.00411612  1
  Sb  Sb81  1  0.00347549  0.50419687  0.49756776  1
  Sb  Sb82  1  0.50264193  -0.00069739  0.83666539  1
  Sb  Sb83  1  0.16598287  0.33324130  0.17291549  1
  Sb  Sb84  1  -0.00670072  -0.00145831  0.33192555  1
  Sb  Sb85  1  -0.00623389  -0.00334843  0.00376772  1
  Sb  Sb86  1  0.50487155  0.83404074  0.33491527  1
  Sb  Sb87  1  0.16797365  0.66386595  0.82855903  1
  Sb  Sb88  1  0.33647974  0.16509719  0.17271619  1
  Sb  Sb89  1  0.16597304  0.00119026  0.17062696  1
  Sb  Sb90  1  -0.00734030  0.33571357  0.66448382  1
  Sb  Sb91  1  0.17035047  0.49861152  0.33828395  1
  Sb  Sb92  1  0.83079005  0.32979692  0.16223054  1
  Sb  Sb93  1  0.16926571  0.17435002  0.65620118  1
  Sb  Sb94  1  -0.00467155  -0.00116705  0.66405929  1
  Sb  Sb95  1  0.16248813  0.83447944  0.33544912  1
  Sb  Sb96  1  0.16710661  0.50110837  -0.00336824  1
  Sb  Sb97  1  0.66637965  0.33323852  0.33509904  1
  Sb  Sb98  1  0.66886774  0.83190102  0.16563693  1
  Sb  Sb99  1  0.83003388  0.50219036  0.33665635  1
  Sb  Sb100  1  0.66038870  0.50230989  0.50144006  1
  Sb  Sb101  1  0.83267142  0.67216219  0.16207081  1
  Sb  Sb102  1  0.33962571  0.16679467  0.82858818  1
  Sb  Sb103  1  0.33754915  0.83062480  0.83002860  1
  Sb  Sb104  1  0.16645934  0.16736969  0.00781154  1
  Sb  Sb105  1  0.66038383  0.16527368  0.49886087  1
  Sb  Sb106  1  0.17115253  -0.00073015  0.49653143  1
  Sb  Sb107  1  0.16762607  0.83061373  0.00132215  1
  Te  Te108  1  0.15920211  0.16769616  0.17599749  1
  Te  Te109  1  0.17034987  0.17013224  0.49359552  1
  Te  Te110  1  0.16643819  0.16902213  0.83132029  1
  Te  Te111  1  0.15890943  0.49841767  0.16611369  1
  Te  Te112  1  0.17027841  0.50058310  0.50255349  1
  Te  Te113  1  0.16360394  0.49970635  0.82538466  1
  Te  Te114  1  0.15355723  0.83361430  0.16711229  1
  Te  Te115  1  0.16881823  0.82812183  0.50039431  1
  Te  Te116  1  0.16447837  0.83385075  0.83095971  1
  Te  Te117  1  0.50063585  0.16615992  0.16677626  1
  Te  Te118  1  0.49917290  0.16522727  0.49766415  1
  Te  Te119  1  0.50000564  0.17250798  0.83481809  1
  Te  Te120  1  0.50089158  0.49935360  0.16775595  1
  Te  Te121  1  0.49687877  0.50090677  0.49739575  1
  Te  Te122  1  0.50322469  0.50064932  0.83557279  1
  Te  Te123  1  0.49847095  0.84266605  0.15876309  1
  Te  Te124  1  0.49737967  0.83275809  0.50057397  1
  Te  Te125  1  0.49970822  0.82764669  0.83179655  1
  Te  Te126  1  0.83375161  0.16435604  0.16643805  1
  Te  Te127  1  0.83458558  0.16059143  0.50004200  1
  Te  Te128  1  0.83305973  0.16882807  0.82989725  1
  Te  Te129  1  0.83284789  0.49781853  0.16803899  1
  Te  Te130  1  0.83398991  0.49817233  0.50734292  1
  Te  Te131  1  0.83003627  0.50105176  0.83364002  1
  Te  Te132  1  0.83493166  0.83791414  0.16461548  1
  Te  Te133  1  0.83361737  0.83668003  0.50019612  1
  Te  Te134  1  0.83329091  0.82895729  0.83000513  1
  Te  Te135  1  0.17595546  -0.00015471  0.00224297  1
  Te  Te136  1  0.17785460  0.00709525  0.33376044  1
  Te  Te137  1  0.16912062  0.00293088  0.66676855  1
  Te  Te138  1  0.15964233  0.33260590  -0.00156099  1
  Te  Te139  1  0.16289562  0.33036698  0.33804791  1
  Te  Te140  1  0.16594280  0.33918885  0.65943247  1
  Te  Te141  1  0.15988480  0.66607156  -0.00096501  1
  Te  Te142  1  0.16200330  0.66651756  0.33948225  1
  Te  Te143  1  0.16684647  0.66186070  0.66114079  1
  Te  Te144  1  0.50334613  0.00279085  -0.00318124  1
  Te  Te145  1  0.50353788  -0.00308056  0.33268936  1
  Te  Te146  1  0.50095797  0.00517165  0.66459081  1
  Te  Te147  1  0.50073522  0.32942171  -0.00022424  1
  Te  Te148  1  0.50152647  0.33376542  0.33526822  1
  Te  Te149  1  0.50503251  0.33223088  0.66611463  1
  Te  Te150  1  0.50584435  0.66704365  0.00369773  1
  Te  Te151  1  0.50167344  0.66851483  0.33204245  1
  Te  Te152  1  0.50279372  0.66468635  0.66714426  1
  Te  Te153  1  0.82934192  -0.00007897  0.00160796  1
  Te  Te154  1  0.83123588  -0.00104879  0.33267338  1
  Te  Te155  1  0.83069310  0.00048000  0.66481461  1
  Te  Te156  1  0.83589194  0.32831882  -0.00392426  1
  Te  Te157  1  0.83583393  0.33068305  0.33427891  1
  Te  Te158  1  0.82828443  0.32939503  0.66978619  1
  Te  Te159  1  0.83187343  0.66911358  -0.00366548  1
  Te  Te160  1  0.83313325  0.66922667  0.33400999  1
  Te  Te161  1  0.82911072  0.66777960  0.66980164  1
  Te  Te162  1  -0.00173352  0.16577264  0.00689474  1
  Te  Te163  1  -0.00672798  0.16587349  0.33112851  1
  Te  Te164  1  -0.00391162  0.16710514  0.66729401  1
  Te  Te165  1  0.00057870  0.50129788  0.00133709  1
  Te  Te166  1  -0.00060359  0.50167226  0.33018763  1
  Te  Te167  1  -0.00474644  0.49944567  0.66868100  1
  Te  Te168  1  -0.00384490  0.82817849  0.00356132  1
  Te  Te169  1  -0.00358575  0.83154195  0.33288581  1
  Te  Te170  1  -0.00507756  0.83281840  0.66260271  1
  Te  Te171  1  0.33603984  0.16493513  0.00005075  1
  Te  Te172  1  0.34194588  0.16639685  0.33593602  1
  Te  Te173  1  0.33750147  0.16574486  0.66039225  1
  Te  Te174  1  0.33817239  0.50398682  0.00088133  1
  Te  Te175  1  0.33795162  0.50584427  0.33786144  1
  Te  Te176  1  0.33030668  0.50561799  0.66239342  1
  Te  Te177  1  0.33539241  0.83263643  0.00145466  1
  Te  Te178  1  0.33167303  0.83083390  0.33617029  1
  Te  Te179  1  0.33763900  0.82664961  0.66128710  1
  Te  Te180  1  0.66708955  0.16561325  -0.00004093  1
  Te  Te181  1  0.66709113  0.16443276  0.33262112  1
  Te  Te182  1  0.66647737  0.16505909  0.66729423  1
  Te  Te183  1  0.66334332  0.50253924  -0.00020587  1
  Te  Te184  1  0.66285982  0.50248753  0.33143736  1
  Te  Te185  1  0.66998587  0.50270314  0.66819908  1
  Te  Te186  1  0.66713001  0.82963632  0.00090663  1
  Te  Te187  1  0.67328882  0.83185483  0.33161004  1
  Te  Te188  1  0.66585186  0.82950460  0.66733230  1
  Te  Te189  1  -0.00387971  0.00230705  0.16651344  1
  Te  Te190  1  -0.00002046  -0.00759953  0.49924716  1
  Te  Te191  1  0.00120901  0.00052745  0.83374788  1
  Te  Te192  1  -0.00061232  0.33362599  0.16815772  1
  Te  Te193  1  0.00112713  0.33364531  0.49376100  1
  Te  Te194  1  -0.00389354  0.34113164  0.83532712  1
  Te  Te195  1  -0.00149864  0.66495953  0.16852238  1
  Te  Te196  1  -0.00404849  0.67035682  0.49634713  1
  Te  Te197  1  0.00037471  0.65966456  0.83580133  1
  Te  Te198  1  0.33660519  -0.00018532  0.16841428  1
  Te  Te199  1  0.33728315  0.00276432  0.49550629  1
  Te  Te200  1  0.33391013  -0.00111198  0.84225149  1
  Te  Te201  1  0.34018870  0.33382913  0.16726390  1
  Te  Te202  1  0.33539348  0.32978785  0.49983196  1
  Te  Te203  1  0.33963397  0.33472929  0.83132083  1
  Te  Te204  1  0.33082535  0.66735855  0.16036631  1
  Te  Te205  1  0.33728994  0.66669609  0.49819725  1
  Te  Te206  1  0.33787934  0.66661020  0.84217965  1
  Te  Te207  1  0.66730963  0.00040398  0.16743996  1
  Te  Te208  1  0.66526761  -0.00076858  0.49662557  1
  Te  Te209  1  0.66744000  0.00142383  0.84396187  1
  Te  Te210  1  0.66117207  0.34223042  0.16709492  1
  Te  Te211  1  0.66043106  0.33475887  0.50682247  1
  Te  Te212  1  0.66672944  0.33949020  0.83072635  1
  Te  Te213  1  0.66737648  0.66070875  0.17186295  1
  Te  Te214  1  0.65936794  0.66688667  0.49490277  1
  Te  Te215  1  0.66513330  0.66224926  0.83357374  1
