# generated using pymatgen
data_AgSbTe2
_symmetry_space_group_name_H-M   'P 1'
_cell_length_a   18.30812664
_cell_length_b   18.31383278
_cell_length_c   18.30988774
_cell_angle_alpha   90.00182023
_cell_angle_beta   89.99560070
_cell_angle_gamma   90.00264464
_symmetry_Int_Tables_number   1
_chemical_formula_structural   AgSbTe2
_chemical_formula_sum   'Ag54 Sb54 Te108'
_cell_volume   6139.15830060
_cell_formula_units_Z   54
loop_
 _symmetry_equiv_pos_site_id
 _symmetry_equiv_pos_as_xyz
  1  'x, y, z'
loop_
 _atom_site_type_symbol
 _atom_site_label
 _atom_site_symmetry_multiplicity
 _atom_site_fract_x
 _atom_site_fract_y
 _atom_site_fract_z
 _atom_site_occupancy
  Ag  Ag0  1  0.84202478  -0.00261324  0.49204695  1
  Ag  Ag1  1  0.00232496  0.83597239  0.84690166  1
  Ag  Ag2  1  0.83372204  0.66785207  0.49278909  1
  Ag  Ag3  1  0.83277413  0.33386759  0.83820502  1
  Ag  Ag4  1  0.66712667  0.49693442  0.83215496  1
  Ag  Ag5  1  0.15789036  0.83945209  -0.00365900  1
  Ag  Ag6  1  0.66987472  0.33681639  0.33797383  1
  Ag  Ag7  1  0.66617854  0.00267452  0.33334555  1
  Ag  Ag8  1  0.16765791  0.83541139  0.66367652  1
  Ag  Ag9  1  0.16594116  0.50004721  0.65684504  1
  Ag  Ag10  1  0.15718917  0.00006257  0.16254525  1
  Ag  Ag11  1  0.66669109  0.66108955  0.33740329  1
  Ag  Ag12  1  0.66977877  0.33956496  0.66219096  1
  Ag  Ag13  1  0.32287242  0.49890155  0.49762812  1
  Ag  Ag14  1  0.84535554  0.82738713  0.00405748  1
  Ag  Ag15  1  0.00313253  -0.01051100  0.00721880  1
  Ag  Ag16  1  0.83412583  0.66580953  0.16812756  1
  Ag  Ag17  1  0.66727759  0.65767558  0.65817302  1
  Ag  Ag18  1  0.83870579  0.50159898  0.00363745  1
  Ag  Ag19  1  0.16918535  -0.00093140  0.83412794  1
  Ag  Ag20  1  0.32292234  0.66488066  0.00490452  1
  Ag  Ag21  1  0.49631204  0.16336991  0.66349256  1
  Ag  Ag22  1  0.83374149  0.16799771  0.33340549  1
  Ag  Ag23  1  0.50147859  0.00070929  0.16916563  1
  Ag  Ag24  1  0.49920796  0.83943748  0.33736432  1
  Ag  Ag25  1  0.83621756  0.33453617  0.16678529  1
  Ag  Ag26  1  0.16238804  0.33491776  0.49879831  1
  Ag  Ag27  1  0.50389747  0.32875662  0.83199390  1
  Ag  Ag28  1  0.67029357  0.49915364  0.17092347  1
  Ag  Ag29  1  0.00006229  0.33490792  0.00112714  1
  Ag  Ag30  1  0.00514238  0.49284294  0.49879763  1
  Ag  Ag31  1  0.16323406  0.15835823  -0.00001102  1
  Ag  Ag32  1  0.50349052  0.49944448  -0.00094309  1
  Ag  Ag33  1  0.49386499  0.00464899  0.83338534  1
  Ag  Ag34  1  0.32657928  0.16514437  0.50166425  1
  Ag  Ag35  1  0.33633269  0.66226874  0.33514505  1
  Ag  Ag36  1  -0.00140915  0.33253368  0.33749346  1
  Ag  Ag37  1  0.00604863  0.17016040  0.49504596  1
  Ag  Ag38  1  0.00498067  0.83842234  0.49914201  1
  Ag  Ag39  1  0.50273744  0.16369276  0.33668468  1
  Ag  Ag40  1  0.33456215  0.16478457  0.82507164  1
  Ag  Ag41  1  0.16319424  0.00247637  0.49935166  1
  Ag  Ag42  1  -0.00116989  0.33380523  0.65718501  1
  Ag  Ag43  1  0.32708056  0.83508547  0.50065937  1
  Ag  Ag44  1  0.83967700  0.00014270  0.17101130  1
  Ag  Ag45  1  0.66969658  0.49984225  0.49795240  1
  Ag  Ag46  1  0.49281659  0.84066097  0.66204414  1
  Ag  Ag47  1  -0.00087330  0.16213063  0.16991963  1
  Ag  Ag48  1  0.16820456  0.49646826  0.34157940  1
  Ag  Ag49  1  0.00186715  0.67735232  0.00251458  1
  Ag  Ag50  1  -0.00179141  0.84275794  0.15847238  1
  Ag  Ag51  1  0.33196322  0.00071415  0.66445262  1
  Ag  Ag52  1  0.32793528  0.33640933  0.33823113  1
  Ag  Ag53  1  0.16007833  0.50132184  -0.00009596  1
  Sb  Sb54  1  0.16555304  0.32975689  0.83016330  1
  Sb  Sb55  1  0.66759653  0.17061710  0.49669629  1
  Sb  Sb56  1  0.16570146  0.67190718  0.83585489  1
  Sb  Sb57  1  0.83372276  0.49554077  0.32976717  1
  Sb  Sb58  1  0.67356858  0.16998816  0.17085567  1
  Sb  Sb59  1  0.66952157  0.82989766  0.83138512  1
  Sb  Sb60  1  0.83432785  0.49832982  0.66741202  1
  Sb  Sb61  1  0.66105452  0.17289313  0.83052482  1
  Sb  Sb62  1  0.16222447  0.66500025  0.49887276  1
  Sb  Sb63  1  0.33473653  0.50100542  0.17050914  1
  Sb  Sb64  1  0.67087391  0.66259172  0.00319609  1
  Sb  Sb65  1  0.33680175  0.00128091  0.33944991  1
  Sb  Sb66  1  0.50367972  0.66731650  0.49870388  1
  Sb  Sb67  1  0.67280996  0.83113777  0.16926171  1
  Sb  Sb68  1  0.00571246  0.00195825  0.66491607  1
  Sb  Sb69  1  0.83338764  0.66179337  0.83664604  1
  Sb  Sb70  1  0.33608769  0.67031517  0.66231417  1
  Sb  Sb71  1  0.50496219  0.66968741  0.16875876  1
  Sb  Sb72  1  0.50549525  0.33024353  0.16584220  1
  Sb  Sb73  1  0.49225573  0.16898603  -0.00033120  1
  Sb  Sb74  1  0.83576403  0.00397402  0.83633331  1
  Sb  Sb75  1  0.00439764  0.16486603  0.83362034  1
  Sb  Sb76  1  0.49986642  0.49721561  0.33105485  1
  Sb  Sb77  1  0.49624265  0.83151203  0.00048350  1
  Sb  Sb78  1  0.49730288  0.00008795  0.49913831  1
  Sb  Sb79  1  0.67152895  -0.00063288  0.00586188  1
  Sb  Sb80  1  -0.00293343  0.66456664  0.66697119  1
  Sb  Sb81  1  0.32449849  -0.00319804  -0.00383546  1
  Sb  Sb82  1  0.33241266  0.32949914  0.66105669  1
  Sb  Sb83  1  0.50087395  0.66690639  0.83320296  1
  Sb  Sb84  1  0.32741711  0.33706965  0.00349018  1
  Sb  Sb85  1  0.32813237  0.16543787  0.17059478  1
  Sb  Sb86  1  0.83740401  0.83279701  0.66750259  1
  Sb  Sb87  1  -0.00188059  0.49982865  0.83385856  1
  Sb  Sb88  1  0.16025635  0.66991955  0.16508869  1
  Sb  Sb89  1  -0.00379643  0.49764268  0.16687396  1
  Sb  Sb90  1  0.84330526  0.16869582  0.00714609  1
  Sb  Sb91  1  0.32822231  0.83879038  0.82842980  1
  Sb  Sb92  1  0.66092230  0.00144354  0.66114361  1
  Sb  Sb93  1  0.16842264  0.83075275  0.33521147  1
  Sb  Sb94  1  0.66800034  0.82973073  0.49834818  1
  Sb  Sb95  1  0.49645941  0.33183819  0.50153159  1
  Sb  Sb96  1  0.83107317  0.16866366  0.66032371  1
  Sb  Sb97  1  -0.00387551  0.00581276  0.33145632  1
  Sb  Sb98  1  0.32839930  0.83441213  0.17078918  1
  Sb  Sb99  1  0.83288662  0.83673136  0.33027230  1
  Sb  Sb100  1  0.33509324  0.49539742  0.83082136  1
  Sb  Sb101  1  0.15861946  0.33045291  0.17057043  1
  Sb  Sb102  1  0.17047216  0.16435662  0.66604036  1
  Sb  Sb103  1  0.83964395  0.33446819  0.49558650  1
  Sb  Sb104  1  0.50014318  0.49783345  0.66910399  1
  Sb  Sb105  1  -0.00213379  0.66203715  0.33145723  1
  Sb  Sb106  1  0.67365823  0.33686157  -0.00047759  1
  Sb  Sb107  1  0.16505285  0.17019452  0.33427654  1
  Te  Te108  1  0.16107203  0.16221114  0.16336060  1
  Te  Te109  1  0.16642952  0.16605409  0.50023088  1
  Te  Te110  1  0.17176242  0.16150989  0.83529250  1
  Te  Te111  1  0.16655172  0.49972222  0.16128776  1
  Te  Te112  1  0.16439258  0.50034590  0.49996666  1
  Te  Te113  1  0.16736128  0.49926271  0.83691862  1
  Te  Te114  1  0.16049253  0.83802294  0.16566944  1
  Te  Te115  1  0.16738711  0.83300656  0.50144406  1
  Te  Te116  1  0.16332087  0.83815398  0.83245004  1
  Te  Te117  1  0.50000008  0.16156315  0.16888670  1
  Te  Te118  1  0.49577979  0.16619610  0.49859444  1
  Te  Te119  1  0.49533530  0.16553419  0.83319638  1
  Te  Te120  1  0.50566337  0.49986731  0.16026767  1
  Te  Te121  1  0.50286016  0.49951139  0.50027071  1
  Te  Te122  1  0.50274064  0.49650227  0.83662292  1
  Te  Te123  1  0.50016306  0.83985684  0.16971114  1
  Te  Te124  1  0.49627054  0.83412285  0.50091058  1
  Te  Te125  1  0.49994762  0.83938227  0.82985413  1
  Te  Te126  1  0.83895080  0.16439145  0.17241869  1
  Te  Te127  1  0.83808859  0.16281733  0.49412161  1
  Te  Te128  1  0.83220719  0.17352731  0.83332148  1
  Te  Te129  1  0.83103256  0.49938278  0.16384547  1
  Te  Te130  1  0.83358252  0.50294008  0.49973171  1
  Te  Te131  1  0.82983236  0.49475597  0.83746672  1
  Te  Te132  1  0.83767994  0.83548136  0.16428066  1
  Te  Te133  1  0.83737021  0.83437793  0.50012105  1
  Te  Te134  1  0.83876474  0.83460826  0.83766467  1
  Te  Te135  1  0.16396454  -0.00163220  0.00072769  1
  Te  Te136  1  0.16809921  -0.00008347  0.33641491  1
  Te  Te137  1  0.17008546  -0.00245644  0.66466701  1
  Te  Te138  1  0.16225906  0.33697598  -0.00040879  1
  Te  Te139  1  0.16573919  0.33607215  0.33693056  1
  Te  Te140  1  0.16333379  0.33670897  0.66270342  1
  Te  Te141  1  0.16360164  0.66433983  0.00089924  1
  Te  Te142  1  0.17145258  0.65843822  0.33125169  1
  Te  Te143  1  0.16674534  0.66652939  0.66796040  1
  Te  Te144  1  0.50090423  -0.00071485  -0.00052782  1
  Te  Te145  1  0.50313464  0.00112863  0.33295123  1
  Te  Te146  1  0.49675206  0.00102563  0.66793066  1
  Te  Te147  1  0.49820955  0.33716567  -0.00379201  1
  Te  Te148  1  0.50607859  0.32862041  0.33211092  1
  Te  Te149  1  0.50249933  0.33036480  0.67105607  1
  Te  Te150  1  0.49804940  0.66203752  0.00098920  1
  Te  Te151  1  0.50045232  0.67040299  0.33247141  1
  Te  Te152  1  0.50560361  0.67136063  0.66730150  1
  Te  Te153  1  0.83946667  -0.00045073  0.00398041  1
  Te  Te154  1  0.82972784  0.00235027  0.33255009  1
  Te  Te155  1  0.83135530  0.00059422  0.66189635  1
  Te  Te156  1  0.83802250  0.33480246  0.00266301  1
  Te  Te157  1  0.83273034  0.32967662  0.33033086  1
  Te  Te158  1  0.83297768  0.33296993  0.67065370  1
  Te  Te159  1  0.83665487  0.66492305  0.00296028  1
  Te  Te160  1  0.82994012  0.66729726  0.33193435  1
  Te  Te161  1  0.82774745  0.66675556  0.66316172  1
  Te  Te162  1  0.00547685  0.17207253  0.00054248  1
  Te  Te163  1  -0.00092439  0.17180326  0.33457936  1
  Te  Te164  1  -0.00011911  0.17273391  0.66251414  1
  Te  Te165  1  -0.00183743  0.49551702  -0.00003701  1
  Te  Te166  1  0.00338124  0.49504397  0.33607946  1
  Te  Te167  1  0.00379342  0.49697095  0.66466887  1
  Te  Te168  1  0.00121301  0.83342732  0.00214012  1
  Te  Te169  1  0.00062314  0.83043805  0.34073911  1
  Te  Te170  1  0.00493054  0.83288977  0.65807801  1
  Te  Te171  1  0.32398724  0.16756365  -0.00013018  1
  Te  Te172  1  0.33618980  0.17096447  0.33767839  1
  Te  Te173  1  0.33640125  0.16356163  0.66342546  1
  Te  Te174  1  0.33050049  0.50417894  -0.00030271  1
  Te  Te175  1  0.33323585  0.49916282  0.33675266  1
  Te  Te176  1  0.32872395  0.50071591  0.66104012  1
  Te  Te177  1  0.32812534  0.82569637  -0.00015851  1
  Te  Te178  1  0.33667006  0.83012244  0.33833909  1
  Te  Te179  1  0.33172516  0.83551718  0.66201228  1
  Te  Te180  1  0.66524939  0.16722166  0.00020689  1
  Te  Te181  1  0.66467363  0.16862035  0.33304780  1
  Te  Te182  1  0.65936410  0.17311868  0.66409522  1
  Te  Te183  1  0.66845208  0.50040977  -0.00061073  1
  Te  Te184  1  0.66642701  0.49958775  0.33509525  1
  Te  Te185  1  0.66611941  0.49805331  0.66476238  1
  Te  Te186  1  0.67118077  0.83144197  -0.00086598  1
  Te  Te187  1  0.66073339  0.83122192  0.33350021  1
  Te  Te188  1  0.66348396  0.83132713  0.66664784  1
  Te  Te189  1  0.00036902  0.00169762  0.16730400  1
  Te  Te190  1  0.00214586  0.00151396  0.49915752  1
  Te  Te191  1  0.00237988  -0.00275748  0.83412930  1
  Te  Te192  1  -0.00429188  0.33055999  0.16749127  1
  Te  Te193  1  0.00079037  0.33347883  0.49926508  1
  Te  Te194  1  -0.00254360  0.33225499  0.83507501  1
  Te  Te195  1  -0.00661825  0.66935933  0.16367923  1
  Te  Te196  1  -0.00664077  0.66429945  0.50005785  1
  Te  Te197  1  -0.00169629  0.67328371  0.83825365  1
  Te  Te198  1  0.33516279  0.00010292  0.16679349  1
  Te  Te199  1  0.33027029  0.00027380  0.50347357  1
  Te  Te200  1  0.33298639  0.00348276  0.83012133  1
  Te  Te201  1  0.33449407  0.33274626  0.17637685  1
  Te  Te202  1  0.33007654  0.33439795  0.49667986  1
  Te  Te203  1  0.33717594  0.32678703  0.83398291  1
  Te  Te204  1  0.33370228  0.66753502  0.16865656  1
  Te  Te205  1  0.33349966  0.66512520  0.49629327  1
  Te  Te206  1  0.33436208  0.66569132  0.83842048  1
  Te  Te207  1  0.66749952  0.00047213  0.17240899  1
  Te  Te208  1  0.67317904  0.00059254  0.49397522  1
  Te  Te209  1  0.66426376  0.00016577  0.83214615  1
  Te  Te210  1  0.67283764  0.33754378  0.17064028  1
  Te  Te211  1  0.66836777  0.33771883  0.49969506  1
  Te  Te212  1  0.66645015  0.33753861  0.83287408  1
  Te  Te213  1  0.67266566  0.66192533  0.17140305  1
  Te  Te214  1  0.67101887  0.66349585  0.49800447  1
  Te  Te215  1  0.66716715  0.65961007  0.82789622  1
