# generated using pymatgen
data_AgSbTe2
_symmetry_space_group_name_H-M   'P 1'
_cell_length_a   18.32925920
_cell_length_b   18.33694930
_cell_length_c   18.33085641
_cell_angle_alpha   90.00280277
_cell_angle_beta   89.99930977
_cell_angle_gamma   90.00250646
_symmetry_Int_Tables_number   1
_chemical_formula_structural   AgSbTe2
_chemical_formula_sum   'Ag54 Sb54 Te108'
_cell_volume   6161.05025836
_cell_formula_units_Z   54
loop_
 _symmetry_equiv_pos_site_id
 _symmetry_equiv_pos_as_xyz
  1  'x, y, z'
loop_
 _atom_site_type_symbol
 _atom_site_label
 _atom_site_symmetry_multiplicity
 _atom_site_fract_x
 _atom_site_fract_y
 _atom_site_fract_z
 _atom_site_occupancy
  Ag  Ag0  1  0.66207595  0.00108172  0.00375137  1
  Ag  Ag1  1  0.33493225  0.49356616  0.83795328  1
  Ag  Ag2  1  -0.01311258  0.34018269  0.32845882  1
  Ag  Ag3  1  0.49928565  0.49967400  0.00046302  1
  Ag  Ag4  1  0.82702379  0.33631878  0.82571144  1
  Ag  Ag5  1  0.33454943  0.16335185  0.16540621  1
  Ag  Ag6  1  0.17062087  0.15961518  0.00188741  1
  Ag  Ag7  1  0.50309716  0.32794656  0.16813934  1
  Ag  Ag8  1  0.83391720  0.49728818  0.33427791  1
  Ag  Ag9  1  0.01134458  -0.00091993  0.00467887  1
  Ag  Ag10  1  0.33380199  0.49594990  0.16332866  1
  Ag  Ag11  1  0.34643752  0.66902943  0.33154498  1
  Ag  Ag12  1  0.00474667  0.84083846  0.16750814  1
  Ag  Ag13  1  0.65807881  0.00442656  0.32413685  1
  Ag  Ag14  1  0.34467287  0.16817273  0.49006498  1
  Ag  Ag15  1  0.82621895  0.33737154  0.49719105  1
  Ag  Ag16  1  -0.00516006  0.66534105  0.33531334  1
  Ag  Ag17  1  0.82627048  0.33037590  0.17124295  1
  Ag  Ag18  1  -0.00337464  0.66515166  0.66208442  1
  Ag  Ag19  1  0.50739530  0.32324575  0.49159738  1
  Ag  Ag20  1  0.50304603  0.67086189  0.83841314  1
  Ag  Ag21  1  0.33477913  0.84616009  0.16596753  1
  Ag  Ag22  1  0.82900029  0.65944104  0.49912006  1
  Ag  Ag23  1  0.83179625  0.00713282  0.16571951  1
  Ag  Ag24  1  0.50714930  0.66768643  0.49316227  1
  Ag  Ag25  1  0.49877121  0.83612606  0.00586452  1
  Ag  Ag26  1  0.34462649  -0.00039964  0.32725851  1
  Ag  Ag27  1  0.50154225  0.00951818  0.48427736  1
  Ag  Ag28  1  0.17403632  0.66992214  0.83393366  1
  Ag  Ag29  1  0.34339460  0.33302104  0.67466329  1
  Ag  Ag30  1  0.34101889  0.16979498  0.83803557  1
  Ag  Ag31  1  0.49930819  -0.00101926  0.83970747  1
  Ag  Ag32  1  0.17742961  -0.00147979  0.84481000  1
  Ag  Ag33  1  0.66222518  0.32819326  0.00154480  1
  Ag  Ag34  1  0.66348512  0.83395419  0.83782373  1
  Ag  Ag35  1  0.16228616  0.50043091  0.66987868  1
  Ag  Ag36  1  0.49946020  0.84488148  0.32693654  1
  Ag  Ag37  1  0.66736590  0.32913456  0.33582858  1
  Ag  Ag38  1  0.66085505  0.16711112  0.83290108  1
  Ag  Ag39  1  0.66226940  0.17091507  0.49835978  1
  Ag  Ag40  1  0.50009183  0.15721870  0.33551851  1
  Ag  Ag41  1  0.49726994  0.00367387  0.17081482  1
  Ag  Ag42  1  0.83609931  0.49636670  0.66420556  1
  Ag  Ag43  1  0.00201674  0.49719660  0.16929470  1
  Ag  Ag44  1  0.66420597  0.66679241  0.33370664  1
  Ag  Ag45  1  0.00282463  0.16220401  0.16688408  1
  Ag  Ag46  1  0.34170904  0.33301684  -0.00014967  1
  Ag  Ag47  1  0.17450763  0.84224649  0.00219047  1
  Ag  Ag48  1  -0.00185085  0.83046356  0.48830081  1
  Ag  Ag49  1  0.66343172  0.66952638  -0.00307942  1
  Ag  Ag50  1  0.16816977  0.00048242  0.16245918  1
  Ag  Ag51  1  0.66797726  0.33013759  0.66243151  1
  Ag  Ag52  1  0.82801718  0.65998795  0.82732603  1
  Ag  Ag53  1  0.83099669  0.17736040  0.66708858  1
  Sb  Sb54  1  -0.00355360  -0.00189997  0.32438996  1
  Sb  Sb55  1  0.33431436  0.83646153  0.49144176  1
  Sb  Sb56  1  -0.00421618  0.50391892  0.49568490  1
  Sb  Sb57  1  0.67054866  0.65996236  0.66633866  1
  Sb  Sb58  1  -0.00427917  0.67054621  0.00173240  1
  Sb  Sb59  1  0.33880336  0.83603677  0.84193505  1
  Sb  Sb60  1  0.17334463  0.16576932  0.32650284  1
  Sb  Sb61  1  0.83275125  0.82984460  0.66663338  1
  Sb  Sb62  1  0.49699679  0.16437217  0.00522578  1
  Sb  Sb63  1  0.66673991  0.49226483  0.49881756  1
  Sb  Sb64  1  0.16867222  0.33292476  0.83491921  1
  Sb  Sb65  1  0.66273498  0.49739478  0.83512579  1
  Sb  Sb66  1  0.16787440  0.67163565  0.16110845  1
  Sb  Sb67  1  0.82821686  0.49833420  0.00141042  1
  Sb  Sb68  1  0.66636541  0.00712775  0.66852262  1
  Sb  Sb69  1  0.17125029  -0.00006555  0.49564365  1
  Sb  Sb70  1  0.82812539  0.82854573  0.33141549  1
  Sb  Sb71  1  0.16570326  0.82924578  0.67499084  1
  Sb  Sb72  1  0.82816978  0.00190845  0.83912194  1
  Sb  Sb73  1  0.50439463  0.16896209  0.66209497  1
  Sb  Sb74  1  0.49960159  0.66858528  0.16655501  1
  Sb  Sb75  1  -0.00131788  0.16653452  0.83893448  1
  Sb  Sb76  1  0.33632283  0.49553522  0.49840074  1
  Sb  Sb77  1  0.82509064  0.17397766  0.33366908  1
  Sb  Sb78  1  0.00224637  0.50075993  0.83658562  1
  Sb  Sb79  1  -0.00613784  0.33820662  0.66133645  1
  Sb  Sb80  1  -0.00344254  0.83151686  0.83872147  1
  Sb  Sb81  1  0.17077958  0.83339507  0.32576386  1
  Sb  Sb82  1  -0.00374421  0.16466714  0.49254011  1
  Sb  Sb83  1  0.16773205  0.33198140  0.49963930  1
  Sb  Sb84  1  0.66341112  0.16656974  0.16664867  1
  Sb  Sb85  1  0.16500943  0.66807073  0.50259257  1
  Sb  Sb86  1  0.83370684  0.66403848  0.16907533  1
  Sb  Sb87  1  0.83223263  0.16699605  0.00021445  1
  Sb  Sb88  1  0.17265117  0.50004921  -0.00164837  1
  Sb  Sb89  1  0.49999581  0.83231397  0.66787027  1
  Sb  Sb90  1  0.33503575  0.00796803  0.66423628  1
  Sb  Sb91  1  0.16306201  0.50128828  0.33480843  1
  Sb  Sb92  1  0.33135563  0.65942929  0.66527195  1
  Sb  Sb93  1  0.50297538  0.33045238  0.83752659  1
  Sb  Sb94  1  0.82680345  0.00226153  0.49240552  1
  Sb  Sb95  1  0.50142169  0.49703949  0.67105321  1
  Sb  Sb96  1  0.66517429  0.49685740  0.16719955  1
  Sb  Sb97  1  0.66683916  0.83597795  0.50120019  1
  Sb  Sb98  1  0.82860602  0.83425843  0.00212085  1
  Sb  Sb99  1  0.16550052  0.17074623  0.67341724  1
  Sb  Sb100  1  -0.00286042  0.32949578  0.00699257  1
  Sb  Sb101  1  0.50437795  0.49935488  0.32791270  1
  Sb  Sb102  1  0.16905709  0.32838453  0.16607027  1
  Sb  Sb103  1  0.34031105  0.33257959  0.32897181  1
  Sb  Sb104  1  0.33535105  0.00630549  0.00700813  1
  Sb  Sb105  1  -0.00055999  -0.00349708  0.67193931  1
  Sb  Sb106  1  0.34012970  0.66251218  0.00308708  1
  Sb  Sb107  1  0.66322858  0.83641416  0.16412644  1
  Te  Te108  1  0.17088115  0.16213750  0.16236689  1
  Te  Te109  1  0.17210804  0.16501312  0.50218046  1
  Te  Te110  1  0.16703714  0.16319336  0.83923479  1
  Te  Te111  1  0.16829389  0.50024587  0.16648797  1
  Te  Te112  1  0.16696526  0.49985374  0.50884105  1
  Te  Te113  1  0.17142790  0.50268449  0.83087090  1
  Te  Te114  1  0.16911263  0.83778373  0.16122723  1
  Te  Te115  1  0.16000048  0.83458035  0.50199788  1
  Te  Te116  1  0.16658764  0.83402494  0.84143204  1
  Te  Te117  1  0.49743047  0.16736053  0.17156798  1
  Te  Te118  1  0.50120980  0.16715761  0.49895978  1
  Te  Te119  1  0.50008204  0.16470235  0.83114614  1
  Te  Te120  1  0.49640584  0.49567914  0.16123262  1
  Te  Te121  1  0.49945176  0.50834638  0.50126729  1
  Te  Te122  1  0.49422758  0.50264598  0.83779179  1
  Te  Te123  1  0.49759593  0.83486486  0.16702426  1
  Te  Te124  1  0.49989219  0.82869690  0.49696315  1
  Te  Te125  1  0.50305057  0.83220693  0.83468527  1
  Te  Te126  1  0.83684266  0.16855556  0.16720775  1
  Te  Te127  1  0.82888413  0.16992969  0.50310362  1
  Te  Te128  1  0.83063039  0.17011702  0.83054283  1
  Te  Te129  1  0.83665959  0.49591483  0.16956910  1
  Te  Te130  1  0.83318188  0.49941677  0.49951367  1
  Te  Te131  1  0.83450188  0.49942377  0.83301752  1
  Te  Te132  1  0.84065770  0.83657735  0.16704977  1
  Te  Te133  1  0.83733829  0.83070172  0.49985472  1
  Te  Te134  1  0.82687659  0.82948602  0.83366885  1
  Te  Te135  1  0.17122213  -0.00076208  0.00173580  1
  Te  Te136  1  0.17172986  -0.00062367  0.32708998  1
  Te  Te137  1  0.16619530  -0.00013264  0.67335054  1
  Te  Te138  1  0.16971900  0.33069643  -0.00097554  1
  Te  Te139  1  0.15639839  0.33371515  0.33457084  1
  Te  Te140  1  0.16529835  0.33924148  0.66699054  1
  Te  Te141  1  0.16532080  0.66845432  -0.00703456  1
  Te  Te142  1  0.15930559  0.66687883  0.33402240  1
  Te  Te143  1  0.16317766  0.66231409  0.67313925  1
  Te  Te144  1  0.50187467  -0.00162110  -0.00063549  1
  Te  Te145  1  0.50115468  0.00051765  0.32967402  1
  Te  Te146  1  0.49958129  -0.00093272  0.67557069  1
  Te  Te147  1  0.50104002  0.33194452  0.00240976  1
  Te  Te148  1  0.50497019  0.33565002  0.33237451  1
  Te  Te149  1  0.50242557  0.33445373  0.66046523  1
  Te  Te150  1  0.50387095  0.66931913  -0.00082852  1
  Te  Te151  1  0.50310267  0.66296056  0.33302308  1
  Te  Te152  1  0.50066431  0.66509321  0.66649716  1
  Te  Te153  1  0.82477014  0.00096843  0.00627583  1
  Te  Te154  1  0.82672470  0.00012538  0.32659295  1
  Te  Te155  1  0.83434790  0.00313745  0.66534884  1
  Te  Te156  1  0.82848709  0.33283323  0.00464890  1
  Te  Te157  1  0.82872322  0.33446690  0.33230247  1
  Te  Te158  1  0.83242752  0.33604598  0.66561365  1
  Te  Te159  1  0.82573559  0.66600699  -0.00479833  1
  Te  Te160  1  0.83273241  0.66323091  0.33555552  1
  Te  Te161  1  0.83558895  0.66347291  0.66488765  1
  Te  Te162  1  0.00445363  0.16184823  0.00598818  1
  Te  Te163  1  0.00212052  0.16668149  0.32755809  1
  Te  Te164  1  -0.00566075  0.16605842  0.66455895  1
  Te  Te165  1  0.00092769  0.50028921  0.00844067  1
  Te  Te166  1  -0.00293320  0.50150053  0.32993517  1
  Te  Te167  1  -0.00208291  0.50438094  0.66848784  1
  Te  Te168  1  0.00084301  0.83806867  0.00607234  1
  Te  Te169  1  0.00031271  0.83085649  0.32932268  1
  Te  Te170  1  0.00012673  0.82692475  0.66666627  1
  Te  Te171  1  0.33151430  0.17210458  -0.00073136  1
  Te  Te172  1  0.33823133  0.16630202  0.33115505  1
  Te  Te173  1  0.33071709  0.17467050  0.67465848  1
  Te  Te174  1  0.33754532  0.49586871  -0.00011845  1
  Te  Te175  1  0.33132886  0.50367750  0.32926968  1
  Te  Te176  1  0.33211801  0.49288612  0.66961519  1
  Te  Te177  1  0.33596897  0.82879690  0.00638659  1
  Te  Te178  1  0.33739867  0.83069498  0.32757337  1
  Te  Te179  1  0.33185672  0.83280443  0.66571135  1
  Te  Te180  1  0.66649265  0.16650532  -0.00434323  1
  Te  Te181  1  0.66143538  0.16721076  0.33392981  1
  Te  Te182  1  0.67043304  0.17212325  0.66916430  1
  Te  Te183  1  0.66008038  0.50155557  0.00115704  1
  Te  Te184  1  0.67338711  0.50520131  0.33254913  1
  Te  Te185  1  0.67434069  0.49095894  0.66811495  1
  Te  Te186  1  0.66175390  0.83378060  -0.00154446  1
  Te  Te187  1  0.66064198  0.83126256  0.33413677  1
  Te  Te188  1  0.66647549  0.83389749  0.67528227  1
  Te  Te189  1  0.00108876  0.00086662  0.16404591  1
  Te  Te190  1  0.00003522  -0.00545483  0.50013724  1
  Te  Te191  1  0.00032716  -0.00076595  0.84146098  1
  Te  Te192  1  0.00058592  0.33294985  0.16919566  1
  Te  Te193  1  -0.00517620  0.33194392  0.49288533  1
  Te  Te194  1  -0.00890159  0.33292998  0.83453172  1
  Te  Te195  1  0.00011564  0.66528686  0.17009391  1
  Te  Te196  1  -0.00172254  0.66919599  0.49827328  1
  Te  Te197  1  -0.00579713  0.66660579  0.83232861  1
  Te  Te198  1  0.33635163  0.00222175  0.16829855  1
  Te  Te199  1  0.33922289  0.00470172  0.49555979  1
  Te  Te200  1  0.33504418  0.00253694  0.83086640  1
  Te  Te201  1  0.33595600  0.33292670  0.16507764  1
  Te  Te202  1  0.33596430  0.32831683  0.49849336  1
  Te  Te203  1  0.33463275  0.33283506  0.83456793  1
  Te  Te204  1  0.33279295  0.65928643  0.17146052  1
  Te  Te205  1  0.33385937  0.66670603  0.49437764  1
  Te  Te206  1  0.33596009  0.66696910  0.83250918  1
  Te  Te207  1  0.66438999  0.00022499  0.16513600  1
  Te  Te208  1  0.66108966  0.00423191  0.49866273  1
  Te  Te209  1  0.66429547  0.00348770  0.83599905  1
  Te  Te210  1  0.66567317  0.33287827  0.16431380  1
  Te  Te211  1  0.66669312  0.33051745  0.49772232  1
  Te  Te212  1  0.66702537  0.33091574  0.83792560  1
  Te  Te213  1  0.66785304  0.66767294  0.16755787  1
  Te  Te214  1  0.66897440  0.66896583  0.49909645  1
  Te  Te215  1  0.66487833  0.66499505  0.83251220  1
