# generated using pymatgen
data_AgSbTe2
_symmetry_space_group_name_H-M   'P 1'
_cell_length_a   18.33724182
_cell_length_b   18.33021423
_cell_length_c   18.32490010
_cell_angle_alpha   89.99686335
_cell_angle_beta   90.00138043
_cell_angle_gamma   90.00194994
_symmetry_Int_Tables_number   1
_chemical_formula_structural   AgSbTe2
_chemical_formula_sum   'Ag54 Sb54 Te108'
_cell_volume   6159.46749658
_cell_formula_units_Z   54
loop_
 _symmetry_equiv_pos_site_id
 _symmetry_equiv_pos_as_xyz
  1  'x, y, z'
loop_
 _atom_site_type_symbol
 _atom_site_label
 _atom_site_symmetry_multiplicity
 _atom_site_fract_x
 _atom_site_fract_y
 _atom_site_fract_z
 _atom_site_occupancy
  Ag  Ag0  1  0.33203259  0.32105995  -0.00442951  1
  Ag  Ag1  1  0.66608347  -0.00739275  0.67145013  1
  Ag  Ag2  1  0.33228417  0.67257740  0.67508958  1
  Ag  Ag3  1  0.32346832  0.66755531  0.33235711  1
  Ag  Ag4  1  0.16513329  0.66884306  0.16450914  1
  Ag  Ag5  1  0.16368818  0.82706161  0.32877655  1
  Ag  Ag6  1  0.67045100  0.83451320  0.50045648  1
  Ag  Ag7  1  0.83085833  0.16156572  0.32735147  1
  Ag  Ag8  1  0.33085211  0.16726852  0.15490261  1
  Ag  Ag9  1  0.49646574  0.50096125  0.33511068  1
  Ag  Ag10  1  0.33159877  0.50306885  0.83488258  1
  Ag  Ag11  1  0.17419336  0.34048654  0.83705497  1
  Ag  Ag12  1  0.33076301  0.83220522  0.83488182  1
  Ag  Ag13  1  0.83601600  0.83518808  0.66828988  1
  Ag  Ag14  1  0.65856108  0.49930740  0.83180692  1
  Ag  Ag15  1  0.83895563  0.66843280  0.83706608  1
  Ag  Ag16  1  0.00461139  -0.00188776  0.67124534  1
  Ag  Ag17  1  0.16471722  -0.00115243  0.50386166  1
  Ag  Ag18  1  0.66470054  0.67389940  0.66796000  1
  Ag  Ag19  1  0.00103640  0.33329482  0.66871368  1
  Ag  Ag20  1  0.49794839  0.33000451  0.16474521  1
  Ag  Ag21  1  0.33269410  -0.00524317  0.67492302  1
  Ag  Ag22  1  0.33689143  0.16274975  0.84074710  1
  Ag  Ag23  1  0.17092127  0.66373997  0.83984051  1
  Ag  Ag24  1  0.17788191  0.15905598  -0.00113362  1
  Ag  Ag25  1  0.65856466  0.16553521  0.83641358  1
  Ag  Ag26  1  0.66447703  0.33544904  0.33279132  1
  Ag  Ag27  1  0.49830440  0.50094251  0.67403514  1
  Ag  Ag28  1  0.16708191  0.50911945  0.33034365  1
  Ag  Ag29  1  0.66816438  0.00266733  -0.00807775  1
  Ag  Ag30  1  0.50057227  0.17027073  0.32615455  1
  Ag  Ag31  1  0.83718185  -0.00313482  0.50239103  1
  Ag  Ag32  1  0.01395675  0.50079455  0.83142394  1
  Ag  Ag33  1  0.00198911  0.16312329  0.16421730  1
  Ag  Ag34  1  0.00638501  0.66577887  0.33013867  1
  Ag  Ag35  1  0.49000695  0.16540899  -0.00114398  1
  Ag  Ag36  1  -0.00016109  0.34082508  0.33351769  1
  Ag  Ag37  1  0.33338576  0.16324687  0.50031053  1
  Ag  Ag38  1  0.49755285  0.82844831  0.33248294  1
  Ag  Ag39  1  0.32910958  0.00836791  -0.00706552  1
  Ag  Ag40  1  0.83571041  0.83210231  0.33237064  1
  Ag  Ag41  1  0.32788804  0.66910843  -0.00806990  1
  Ag  Ag42  1  0.49593951  0.00607363  0.83496295  1
  Ag  Ag43  1  0.66759026  0.66848704  0.33592474  1
  Ag  Ag44  1  0.16646226  0.83517040  0.66997434  1
  Ag  Ag45  1  0.00087084  0.83454311  0.16686233  1
  Ag  Ag46  1  0.84160432  0.83733319  -0.00027234  1
  Ag  Ag47  1  0.83408431  0.15697842  0.00242353  1
  Ag  Ag48  1  0.16933449  0.50886771  -0.00676496  1
  Ag  Ag49  1  0.16752003  0.83220295  -0.00325325  1
  Ag  Ag50  1  0.00220488  0.49889475  0.50229049  1
  Ag  Ag51  1  0.00397056  0.00008807  -0.00523378  1
  Ag  Ag52  1  0.49215602  0.32761216  0.83714135  1
  Ag  Ag53  1  0.84336753  0.67186994  0.16550396  1
  Sb  Sb54  1  0.49497490  0.66559411  0.83310089  1
  Sb  Sb55  1  0.66348948  0.83371782  0.83026096  1
  Sb  Sb56  1  0.00698254  0.67244921  0.00376661  1
  Sb  Sb57  1  0.49830300  0.00022694  0.50502907  1
  Sb  Sb58  1  0.66940601  0.33351172  0.66610867  1
  Sb  Sb59  1  0.83247200  0.50789706  0.66897739  1
  Sb  Sb60  1  0.00488262  0.83055291  0.83671802  1
  Sb  Sb61  1  0.49774922  0.16878620  0.67320709  1
  Sb  Sb62  1  0.00292964  0.50113103  0.16523651  1
  Sb  Sb63  1  0.83189037  0.33490601  0.16778172  1
  Sb  Sb64  1  0.00270769  0.16613440  0.49544164  1
  Sb  Sb65  1  0.83484648  0.50553867  0.33374127  1
  Sb  Sb66  1  0.16945414  0.50565255  0.66971036  1
  Sb  Sb67  1  0.49525882  0.66361653  0.17015751  1
  Sb  Sb68  1  0.49872479  0.83096632  0.66577172  1
  Sb  Sb69  1  0.83355811  0.33552497  0.83450505  1
  Sb  Sb70  1  0.83461742  -0.00371498  0.16580227  1
  Sb  Sb71  1  0.66717767  -0.00223575  0.33534992  1
  Sb  Sb72  1  0.16849704  0.16109176  0.67426819  1
  Sb  Sb73  1  0.83445901  0.15863290  0.66919258  1
  Sb  Sb74  1  0.66437625  0.50028011  0.16333024  1
  Sb  Sb75  1  0.00650969  0.32823462  0.00037183  1
  Sb  Sb76  1  0.17352099  -0.00365465  0.83374589  1
  Sb  Sb77  1  0.16599652  0.32949831  0.50419407  1
  Sb  Sb78  1  0.49784941  0.00525285  0.16203948  1
  Sb  Sb79  1  0.16563825  0.67108198  0.49891707  1
  Sb  Sb80  1  0.49602758  0.83938537  0.00257361  1
  Sb  Sb81  1  0.49285422  0.49470704  -0.00258030  1
  Sb  Sb82  1  0.33316806  -0.00225418  0.33319802  1
  Sb  Sb83  1  0.67273774  0.83192491  0.17053787  1
  Sb  Sb84  1  0.33010727  0.49751628  0.50251775  1
  Sb  Sb85  1  0.66956843  0.50504840  0.50168866  1
  Sb  Sb86  1  0.49952897  0.66829824  0.49874576  1
  Sb  Sb87  1  0.00292081  0.16787983  0.83887209  1
  Sb  Sb88  1  0.49947136  0.33148738  0.50003815  1
  Sb  Sb89  1  0.82965451  -0.00520343  0.83332755  1
  Sb  Sb90  1  0.33320837  0.33554092  0.32822473  1
  Sb  Sb91  1  0.66419104  0.16067878  0.50223579  1
  Sb  Sb92  1  0.32920206  0.33303266  0.67590943  1
  Sb  Sb93  1  -0.00046802  -0.00288153  0.33292508  1
  Sb  Sb94  1  0.16723729  0.16580930  0.32753279  1
  Sb  Sb95  1  0.33386712  0.83598801  0.50243524  1
  Sb  Sb96  1  0.66598517  0.16599601  0.16299290  1
  Sb  Sb97  1  0.66061503  0.32755748  0.00071328  1
  Sb  Sb98  1  0.16954253  0.33579189  0.16192664  1
  Sb  Sb99  1  0.33213991  0.49866756  0.16160545  1
  Sb  Sb100  1  0.83407169  0.67345230  0.49892604  1
  Sb  Sb101  1  0.66535684  0.67071172  -0.00220737  1
  Sb  Sb102  1  0.84020930  0.50443578  -0.00309837  1
  Sb  Sb103  1  0.00115435  0.66921450  0.66583376  1
  Sb  Sb104  1  0.16546315  -0.00456018  0.16518494  1
  Sb  Sb105  1  -0.00148617  0.83178256  0.49639051  1
  Sb  Sb106  1  0.83456902  0.32637499  0.49810113  1
  Sb  Sb107  1  0.32765704  0.83486893  0.16312689  1
  Te  Te108  1  0.16640376  0.16701750  0.16067209  1
  Te  Te109  1  0.17046422  0.16083505  0.49891431  1
  Te  Te110  1  0.16992036  0.17230387  0.83986011  1
  Te  Te111  1  0.16707302  0.50573141  0.16950336  1
  Te  Te112  1  0.16261168  0.49775391  0.49543196  1
  Te  Te113  1  0.17028164  0.50249244  0.83234427  1
  Te  Te114  1  0.16233341  0.82989063  0.16758561  1
  Te  Te115  1  0.16603777  0.83791582  0.50298674  1
  Te  Te116  1  0.16962000  0.82910065  0.83448860  1
  Te  Te117  1  0.49925101  0.17002121  0.16536418  1
  Te  Te118  1  0.49608569  0.16556397  0.49253157  1
  Te  Te119  1  0.49866755  0.16754706  0.83484730  1
  Te  Te120  1  0.49912135  0.49267206  0.17316788  1
  Te  Te121  1  0.50018600  0.49887678  0.49525440  1
  Te  Te122  1  0.49773445  0.49904782  0.83370548  1
  Te  Te123  1  0.49969681  0.83313178  0.17403594  1
  Te  Te124  1  0.50548754  0.83510694  0.49130960  1
  Te  Te125  1  0.49238061  0.83844471  0.83418352  1
  Te  Te126  1  0.83572112  0.16724581  0.16717018  1
  Te  Te127  1  0.83323152  0.15870162  0.49610857  1
  Te  Te128  1  0.83142003  0.16729380  0.83776056  1
  Te  Te129  1  0.83345037  0.50968710  0.16424359  1
  Te  Te130  1  0.84038948  0.49815157  0.50136685  1
  Te  Te131  1  0.82830092  0.50678684  0.83389926  1
  Te  Te132  1  0.83861080  0.83065341  0.16700120  1
  Te  Te133  1  0.83270540  0.83753689  0.50073730  1
  Te  Te134  1  0.83298347  0.82818574  0.83424079  1
  Te  Te135  1  0.16654605  -0.00234966  0.00003297  1
  Te  Te136  1  0.16666840  -0.00560823  0.33838863  1
  Te  Te137  1  0.16741485  -0.00356411  0.66652841  1
  Te  Te138  1  0.17099045  0.33423286  -0.00316052  1
  Te  Te139  1  0.16268943  0.33498305  0.33322288  1
  Te  Te140  1  0.16096991  0.33407601  0.67262483  1
  Te  Te141  1  0.16693450  0.66924264  0.00029252  1
  Te  Te142  1  0.16564356  0.66839400  0.33596560  1
  Te  Te143  1  0.16934450  0.67287295  0.66838798  1
  Te  Te144  1  0.49706652  0.00414758  -0.00396146  1
  Te  Te145  1  0.50081633  0.00159596  0.33309206  1
  Te  Te146  1  0.49906917  0.00038489  0.67186350  1
  Te  Te147  1  0.49600785  0.32855499  -0.00124827  1
  Te  Te148  1  0.49988603  0.33253750  0.33310795  1
  Te  Te149  1  0.50126884  0.33970149  0.67176077  1
  Te  Te150  1  0.49417775  0.66684505  0.00280229  1
  Te  Te151  1  0.50496519  0.66645257  0.33295012  1
  Te  Te152  1  0.50019359  0.66319044  0.66573252  1
  Te  Te153  1  0.83557392  -0.00321169  -0.00018676  1
  Te  Te154  1  0.83273271  -0.00143711  0.33658741  1
  Te  Te155  1  0.83132394  -0.00487863  0.66583287  1
  Te  Te156  1  0.83236139  0.33028855  0.00148162  1
  Te  Te157  1  0.83461850  0.32993922  0.33195709  1
  Te  Te158  1  0.84063099  0.33181578  0.66636259  1
  Te  Te159  1  0.83218858  0.67214467  -0.00018574  1
  Te  Te160  1  0.83021573  0.67046875  0.33219760  1
  Te  Te161  1  0.83170490  0.67454768  0.66954002  1
  Te  Te162  1  -0.00621657  0.16258807  0.00338533  1
  Te  Te163  1  -0.00191134  0.16580303  0.32841012  1
  Te  Te164  1  0.00040076  0.16452693  0.66620261  1
  Te  Te165  1  0.00759140  0.49696478  -0.00603296  1
  Te  Te166  1  0.00135435  0.50092927  0.33132500  1
  Te  Te167  1  0.00025630  0.50063522  0.66851873  1
  Te  Te168  1  0.00103637  0.83786145  0.00252728  1
  Te  Te169  1  -0.00011753  0.83142492  0.33008692  1
  Te  Te170  1  0.00042432  0.83641316  0.66654330  1
  Te  Te171  1  0.33392380  0.16516543  -0.00149211  1
  Te  Te172  1  0.33582244  0.16661384  0.33339758  1
  Te  Te173  1  0.33332473  0.16230023  0.66509680  1
  Te  Te174  1  0.32882401  0.50907852  -0.00389574  1
  Te  Te175  1  0.33261921  0.50266250  0.33484769  1
  Te  Te176  1  0.33699562  0.50340960  0.66887981  1
  Te  Te177  1  0.33092352  0.82959536  -0.00204088  1
  Te  Te178  1  0.33147483  0.83004931  0.33299105  1
  Te  Te179  1  0.33253990  0.83318021  0.66792667  1
  Te  Te180  1  0.67253988  0.16357172  -0.00362031  1
  Te  Te181  1  0.66755840  0.16599295  0.33379280  1
  Te  Te182  1  0.66644711  0.16412851  0.67216570  1
  Te  Te183  1  0.66625978  0.50006973  -0.00696503  1
  Te  Te184  1  0.66516234  0.50209983  0.33347541  1
  Te  Te185  1  0.66364196  0.50214511  0.66921867  1
  Te  Te186  1  0.66773371  0.83885312  -0.00042133  1
  Te  Te187  1  0.67172731  0.83186258  0.33628423  1
  Te  Te188  1  0.66545921  0.83285442  0.66486460  1
  Te  Te189  1  0.00028306  0.00075297  0.16143821  1
  Te  Te190  1  0.00067498  -0.00080862  0.50485532  1
  Te  Te191  1  -0.00042743  -0.00043315  0.83194006  1
  Te  Te192  1  -0.00021376  0.32946686  0.17182145  1
  Te  Te193  1  0.00030448  0.33597331  0.49754787  1
  Te  Te194  1  0.00047723  0.33760607  0.83138536  1
  Te  Te195  1  0.00249397  0.66805963  0.16948340  1
  Te  Te196  1  -0.00106217  0.66062035  0.49366018  1
  Te  Te197  1  0.00024729  0.66287164  0.83309712  1
  Te  Te198  1  0.33220567  0.00585150  0.16104080  1
  Te  Te199  1  0.33050346  0.00238759  0.50272999  1
  Te  Te200  1  0.33371909  0.00115264  0.83297181  1
  Te  Te201  1  0.33665542  0.32944039  0.16053593  1
  Te  Te202  1  0.33253273  0.32584752  0.50318331  1
  Te  Te203  1  0.33333276  0.33425453  0.83484047  1
  Te  Te204  1  0.32785926  0.66685042  0.17328584  1
  Te  Te205  1  0.33265029  0.66596088  0.49676145  1
  Te  Te206  1  0.33232578  0.66691038  0.83212012  1
  Te  Te207  1  0.66593462  -0.00092105  0.15540447  1
  Te  Te208  1  0.66882986  -0.00423216  0.50563918  1
  Te  Te209  1  0.66387682  0.00041287  0.83191613  1
  Te  Te210  1  0.66169284  0.33363111  0.17349581  1
  Te  Te211  1  0.66745222  0.33295189  0.49321713  1
  Te  Te212  1  0.66519210  0.33401559  0.83228735  1
  Te  Te213  1  0.66822970  0.66577521  0.17029787  1
  Te  Te214  1  0.66794432  0.67162913  0.50153100  1
  Te  Te215  1  0.66540673  0.66486528  0.83069910  1
