# generated using pymatgen
data_AgSbTe2
_symmetry_space_group_name_H-M   'P 1'
_cell_length_a   18.33128251
_cell_length_b   18.33978682
_cell_length_c   18.33754614
_cell_angle_alpha   89.99714919
_cell_angle_beta   90.00126064
_cell_angle_gamma   90.00061821
_symmetry_Int_Tables_number   1
_chemical_formula_structural   AgSbTe2
_chemical_formula_sum   'Ag54 Sb54 Te108'
_cell_volume   6164.93288089
_cell_formula_units_Z   54
loop_
 _symmetry_equiv_pos_site_id
 _symmetry_equiv_pos_as_xyz
  1  'x, y, z'
loop_
 _atom_site_type_symbol
 _atom_site_label
 _atom_site_symmetry_multiplicity
 _atom_site_fract_x
 _atom_site_fract_y
 _atom_site_fract_z
 _atom_site_occupancy
  Ag  Ag0  1  0.33177927  0.00354486  -0.00312151  1
  Ag  Ag1  1  -0.00205139  0.00392073  0.66728767  1
  Ag  Ag2  1  0.16555948  0.84252512  -0.00026371  1
  Ag  Ag3  1  0.16138758  0.33280576  0.50113767  1
  Ag  Ag4  1  -0.00396881  0.83196194  0.49599998  1
  Ag  Ag5  1  0.16184945  0.50230624  0.33421254  1
  Ag  Ag6  1  0.67217887  -0.00353916  0.32502928  1
  Ag  Ag7  1  0.15993907  0.16481104  0.32792632  1
  Ag  Ag8  1  0.66896459  0.67394906  0.66754699  1
  Ag  Ag9  1  0.67251227  0.67848252  0.33596775  1
  Ag  Ag10  1  0.17700338  0.15877057  0.00224055  1
  Ag  Ag11  1  0.83728839  0.15579640  0.33041983  1
  Ag  Ag12  1  0.83133232  0.00149991  0.16742711  1
  Ag  Ag13  1  0.50578189  0.84614836  0.00339543  1
  Ag  Ag14  1  0.16618536  0.67317145  0.83790231  1
  Ag  Ag15  1  -0.00060142  0.33031933  -0.00114657  1
  Ag  Ag16  1  0.83585313  0.32136126  0.16416391  1
  Ag  Ag17  1  0.50102059  0.16330628  0.67493092  1
  Ag  Ag18  1  0.32910725  0.31802350  -0.00603189  1
  Ag  Ag19  1  0.83402866  0.00166895  0.83654510  1
  Ag  Ag20  1  0.33000397  0.32520324  0.67491445  1
  Ag  Ag21  1  0.33173610  0.16319278  0.15385482  1
  Ag  Ag22  1  0.33177311  0.49513803  0.83386955  1
  Ag  Ag23  1  0.83329587  -0.00137024  0.49571566  1
  Ag  Ag24  1  0.49088541  0.16248244  -0.00499681  1
  Ag  Ag25  1  0.00224193  0.16334102  0.83177029  1
  Ag  Ag26  1  0.66113049  0.00231136  0.00342622  1
  Ag  Ag27  1  0.66574452  0.68202126  -0.00064095  1
  Ag  Ag28  1  0.66823277  0.31899955  -0.00770440  1
  Ag  Ag29  1  0.33287267  0.00635920  0.67785715  1
  Ag  Ag30  1  0.00029400  0.32377216  0.66621602  1
  Ag  Ag31  1  0.66460717  0.16300001  0.84005860  1
  Ag  Ag32  1  0.16356684  0.00025289  0.15814014  1
  Ag  Ag33  1  0.66527318  0.49410133  0.83421465  1
  Ag  Ag34  1  0.83014734  0.83789201  0.33074226  1
  Ag  Ag35  1  0.15854911  0.66595289  0.49775538  1
  Ag  Ag36  1  0.16211319  0.67478349  0.16593302  1
  Ag  Ag37  1  0.83095740  0.83795593  0.00583329  1
  Ag  Ag38  1  0.66578079  0.16094331  0.15612139  1
  Ag  Ag39  1  0.00016154  0.66940495  0.34022041  1
  Ag  Ag40  1  0.66909167  0.00401046  0.67119671  1
  Ag  Ag41  1  0.66828686  0.32232957  0.67288544  1
  Ag  Ag42  1  0.00059924  0.83333353  0.16792901  1
  Ag  Ag43  1  0.00146494  0.50487371  0.17274114  1
  Ag  Ag44  1  0.33094216  0.16544305  0.84053090  1
  Ag  Ag45  1  0.67266489  0.83491912  0.49441798  1
  Ag  Ag46  1  0.51122504  0.83478245  0.33003284  1
  Ag  Ag47  1  0.51105319  0.00028312  0.16181953  1
  Ag  Ag48  1  0.32970648  0.84888701  0.83660758  1
  Ag  Ag49  1  0.17067848  0.00088373  0.84012086  1
  Ag  Ag50  1  0.00358961  0.51004212  0.49776995  1
  Ag  Ag51  1  0.00051433  0.66924190  0.65921164  1
  Ag  Ag52  1  0.00112201  0.16456677  0.50579298  1
  Ag  Ag53  1  0.50611002  0.67092610  0.50067930  1
  Sb  Sb54  1  0.32596749  0.49342783  0.16037811  1
  Sb  Sb55  1  0.83605314  0.67395398  0.83383110  1
  Sb  Sb56  1  0.67351734  0.84094228  0.16966892  1
  Sb  Sb57  1  0.49670220  0.33480756  0.50331351  1
  Sb  Sb58  1  0.16723273  0.16589704  0.67110550  1
  Sb  Sb59  1  -0.00073333  0.66650660  0.00014191  1
  Sb  Sb60  1  0.00015199  0.49647663  0.83097519  1
  Sb  Sb61  1  0.50125837  0.49737678  -0.00065059  1
  Sb  Sb62  1  0.50401272  0.32460114  0.16348894  1
  Sb  Sb63  1  0.32762359  0.84163003  0.16016058  1
  Sb  Sb64  1  -0.00108100  0.16287847  0.16500635  1
  Sb  Sb65  1  0.83359890  0.49941699  0.66669790  1
  Sb  Sb66  1  0.66982082  0.32845770  0.33371382  1
  Sb  Sb67  1  0.83268481  0.50203345  0.00105564  1
  Sb  Sb68  1  0.83096727  0.15942577  0.00446361  1
  Sb  Sb69  1  0.33252841  0.66739708  0.66959936  1
  Sb  Sb70  1  0.67198460  0.16001493  0.50196912  1
  Sb  Sb71  1  0.49667583  0.00173052  0.84110224  1
  Sb  Sb72  1  0.32710485  0.66872781  0.33306375  1
  Sb  Sb73  1  -0.00756697  -0.00357821  0.33635827  1
  Sb  Sb74  1  0.50226447  0.84022194  0.66949829  1
  Sb  Sb75  1  0.16668152  0.49914455  0.00226214  1
  Sb  Sb76  1  0.16565198  0.49940447  0.66370220  1
  Sb  Sb77  1  0.00101418  0.00460408  -0.00387850  1
  Sb  Sb78  1  0.49868503  0.67814188  0.16900394  1
  Sb  Sb79  1  0.50110199  0.49664808  0.66738278  1
  Sb  Sb80  1  0.16125395  0.32822107  0.16682529  1
  Sb  Sb81  1  0.16743451  0.32954348  0.83149470  1
  Sb  Sb82  1  0.50284335  0.15985846  0.32963414  1
  Sb  Sb83  1  0.83678159  0.67457431  0.49936266  1
  Sb  Sb84  1  0.33588578  -0.00006084  0.32911721  1
  Sb  Sb85  1  0.33653146  0.67215630  -0.00208880  1
  Sb  Sb86  1  0.50700573  -0.00397431  0.49730019  1
  Sb  Sb87  1  0.16514024  0.83368948  0.67169289  1
  Sb  Sb88  1  0.00092778  0.33472653  0.33398497  1
  Sb  Sb89  1  0.32597476  0.50006840  0.50548517  1
  Sb  Sb90  1  0.32654920  0.16584625  0.50462729  1
  Sb  Sb91  1  0.00353182  0.84018698  0.83386626  1
  Sb  Sb92  1  0.83956705  0.32500162  0.49785410  1
  Sb  Sb93  1  0.83866648  0.50320973  0.33237425  1
  Sb  Sb94  1  0.66419797  0.84042682  0.83484604  1
  Sb  Sb95  1  0.32985895  0.33064002  0.33153958  1
  Sb  Sb96  1  0.33210150  0.83461626  0.50456826  1
  Sb  Sb97  1  0.67227667  0.49577617  0.16178107  1
  Sb  Sb98  1  0.83715942  0.67278552  0.16699625  1
  Sb  Sb99  1  0.15926842  -0.00009942  0.50081243  1
  Sb  Sb100  1  0.83207845  0.32568760  0.83840302  1
  Sb  Sb101  1  0.83317852  0.83800304  0.66479091  1
  Sb  Sb102  1  0.49742975  0.51034504  0.33414531  1
  Sb  Sb103  1  0.67353907  0.50763125  0.50483204  1
  Sb  Sb104  1  0.16202412  0.83579270  0.32886987  1
  Sb  Sb105  1  0.49947701  0.32881039  0.83417050  1
  Sb  Sb106  1  0.83272309  0.16332299  0.66609658  1
  Sb  Sb107  1  0.49884210  0.66920238  0.83043974  1
  Te  Te108  1  0.16608372  0.16456952  0.16508378  1
  Te  Te109  1  0.16092395  0.16778080  0.49553100  1
  Te  Te110  1  0.16576572  0.16430929  0.83721023  1
  Te  Te111  1  0.16186665  0.50074791  0.17128971  1
  Te  Te112  1  0.16227769  0.50204499  0.49623285  1
  Te  Te113  1  0.16863021  0.50501188  0.83375146  1
  Te  Te114  1  0.16253795  0.83449127  0.16307023  1
  Te  Te115  1  0.16320982  0.82920793  0.49836228  1
  Te  Te116  1  0.16919161  0.83448340  0.83726080  1
  Te  Te117  1  0.50320355  0.16018291  0.16476750  1
  Te  Te118  1  0.49892689  0.16745192  0.50086896  1
  Te  Te119  1  0.50336605  0.16614123  0.83376845  1
  Te  Te120  1  0.49772721  0.50167194  0.16832752  1
  Te  Te121  1  0.49964172  0.50930609  0.49965065  1
  Te  Te122  1  0.50290943  0.50113777  0.83340093  1
  Te  Te123  1  0.49510891  0.83980970  0.16382194  1
  Te  Te124  1  0.50115431  0.82934385  0.49833341  1
  Te  Te125  1  0.49176006  0.83248235  0.84062337  1
  Te  Te126  1  0.83271276  0.16279868  0.17021459  1
  Te  Te127  1  0.83918507  0.15964913  0.49275431  1
  Te  Te128  1  0.83503480  0.16019023  0.83328195  1
  Te  Te129  1  0.84088615  0.49673700  0.16738347  1
  Te  Te130  1  0.84311753  0.49590950  0.49853824  1
  Te  Te131  1  0.82632381  0.50106212  0.83415465  1
  Te  Te132  1  0.83959795  0.83698186  0.16719657  1
  Te  Te133  1  0.83384972  0.83920070  0.49809397  1
  Te  Te134  1  0.83375125  0.84130398  0.84084892  1
  Te  Te135  1  0.16462180  0.00113792  -0.00177105  1
  Te  Te136  1  0.16787854  0.00425188  0.33144771  1
  Te  Te137  1  0.16523805  -0.00030800  0.66938689  1
  Te  Te138  1  0.16595882  0.33118333  -0.00093882  1
  Te  Te139  1  0.16682266  0.33111044  0.33798149  1
  Te  Te140  1  0.16286876  0.33274516  0.66245861  1
  Te  Te141  1  0.16747498  0.66746774  0.00066188  1
  Te  Te142  1  0.16215770  0.66794002  0.33209694  1
  Te  Te143  1  0.16421992  0.66664470  0.66359253  1
  Te  Te144  1  0.50065647  0.00227307  0.00269107  1
  Te  Te145  1  0.50534360  -0.00482067  0.32788033  1
  Te  Te146  1  0.50282726  0.00415510  0.66391944  1
  Te  Te147  1  0.50512888  0.32688038  0.00109214  1
  Te  Te148  1  0.49964147  0.33624066  0.33403504  1
  Te  Te149  1  0.50332437  0.32678262  0.66518516  1
  Te  Te150  1  0.50563738  0.66836825  0.00070234  1
  Te  Te151  1  0.50335456  0.67392814  0.33659061  1
  Te  Te152  1  0.50372555  0.66814526  0.66229782  1
  Te  Te153  1  0.83521483  -0.00415299  0.00164774  1
  Te  Te154  1  0.83175486  -0.00199100  0.33075266  1
  Te  Te155  1  0.83332579  0.00014364  0.66909639  1
  Te  Te156  1  0.83247836  0.33523965  0.00398002  1
  Te  Te157  1  0.83303259  0.33041066  0.32652577  1
  Te  Te158  1  0.83392100  0.33196161  0.66668106  1
  Te  Te159  1  0.82631228  0.67377685  -0.00069717  1
  Te  Te160  1  0.83371882  0.67173357  0.33252234  1
  Te  Te161  1  0.83184873  0.66794877  0.66799892  1
  Te  Te162  1  0.00054185  0.17163563  -0.00292844  1
  Te  Te163  1  -0.00021764  0.16643057  0.33370454  1
  Te  Te164  1  0.00039229  0.16476564  0.66769505  1
  Te  Te165  1  -0.00041865  0.49357628  0.00091822  1
  Te  Te166  1  0.00312188  0.50334608  0.33424590  1
  Te  Te167  1  -0.00021091  0.50325728  0.66259012  1
  Te  Te168  1  0.00301087  0.83132003  0.00213522  1
  Te  Te169  1  -0.00179876  0.82988884  0.33375504  1
  Te  Te170  1  -0.00066097  0.83140458  0.66329718  1
  Te  Te171  1  0.33387671  0.16339198  -0.00148842  1
  Te  Te172  1  0.33028221  0.16634524  0.33274939  1
  Te  Te173  1  0.33496842  0.16666139  0.66878962  1
  Te  Te174  1  0.33487722  0.49477566  -0.00629121  1
  Te  Te175  1  0.32488256  0.49972033  0.33272120  1
  Te  Te176  1  0.33453616  0.49243541  0.67328427  1
  Te  Te177  1  0.32936963  0.83687907  -0.00391065  1
  Te  Te178  1  0.34055899  0.83372992  0.33410913  1
  Te  Te179  1  0.33391088  0.83900671  0.67384093  1
  Te  Te180  1  0.66926125  0.16297427  -0.00035711  1
  Te  Te181  1  0.67046734  0.16106974  0.33375303  1
  Te  Te182  1  0.66536344  0.16465284  0.66615387  1
  Te  Te183  1  0.66587371  0.49433212  -0.00565217  1
  Te  Te184  1  0.66702840  0.50463310  0.33366498  1
  Te  Te185  1  0.66658854  0.50099066  0.67295350  1
  Te  Te186  1  0.66590348  0.83904515  0.00080942  1
  Te  Te187  1  0.66950058  0.83536798  0.33246657  1
  Te  Te188  1  0.66644711  0.83337924  0.66314648  1
  Te  Te189  1  0.00118317  -0.00384343  0.16730589  1
  Te  Te190  1  -0.00399249  -0.00030098  0.50407798  1
  Te  Te191  1  0.00073105  0.00329083  0.82833091  1
  Te  Te192  1  -0.00310115  0.33488355  0.16395199  1
  Te  Te193  1  0.00205615  0.32624451  0.50304852  1
  Te  Te194  1  -0.00069784  0.32972569  0.83051659  1
  Te  Te195  1  0.00251113  0.66672648  0.16483897  1
  Te  Te196  1  -0.00083542  0.66907989  0.50024213  1
  Te  Te197  1  0.00461683  0.66602172  0.82936592  1
  Te  Te198  1  0.32489845  0.00506589  0.16393326  1
  Te  Te199  1  0.33353260  -0.00101533  0.50675163  1
  Te  Te200  1  0.33286637  0.00533733  0.83495234  1
  Te  Te201  1  0.33369426  0.32561575  0.16001517  1
  Te  Te202  1  0.32726129  0.33432678  0.50596992  1
  Te  Te203  1  0.33255855  0.32882217  0.83356467  1
  Te  Te204  1  0.32513091  0.66366144  0.16573347  1
  Te  Te205  1  0.32950156  0.66660797  0.50189176  1
  Te  Te206  1  0.32740532  0.65814514  0.83236531  1
  Te  Te207  1  0.66982658  0.00162571  0.16522055  1
  Te  Te208  1  0.67114664  -0.00498358  0.50397575  1
  Te  Te209  1  0.66893025  0.00253308  0.83165012  1
  Te  Te210  1  0.67174400  0.32803090  0.16503666  1
  Te  Te211  1  0.66690617  0.33663855  0.50621876  1
  Te  Te212  1  0.66787093  0.32918844  0.83251750  1
  Te  Te213  1  0.66610824  0.66289724  0.16395218  1
  Te  Te214  1  0.66838493  0.67057187  0.50021762  1
  Te  Te215  1  0.66735449  0.66950997  0.83271651  1
