# generated using pymatgen
data_AgSbTe2
_symmetry_space_group_name_H-M   'P 1'
_cell_length_a   18.32608554
_cell_length_b   18.32599837
_cell_length_c   18.32730829
_cell_angle_alpha   90.00089856
_cell_angle_beta   90.00070729
_cell_angle_gamma   90.00020125
_symmetry_Int_Tables_number   1
_chemical_formula_structural   AgSbTe2
_chemical_formula_sum   'Ag54 Sb54 Te108'
_cell_volume   6155.11311061
_cell_formula_units_Z   54
loop_
 _symmetry_equiv_pos_site_id
 _symmetry_equiv_pos_as_xyz
  1  'x, y, z'
loop_
 _atom_site_type_symbol
 _atom_site_label
 _atom_site_symmetry_multiplicity
 _atom_site_fract_x
 _atom_site_fract_y
 _atom_site_fract_z
 _atom_site_occupancy
  Ag  Ag0  1  0.83408347  0.83884642  0.33154513  1
  Ag  Ag1  1  0.16459364  0.49219158  0.65455668  1
  Ag  Ag2  1  0.15616028  0.17706397  0.33780298  1
  Ag  Ag3  1  -0.00284437  0.01204461  0.67339826  1
  Ag  Ag4  1  0.83680484  0.84218899  0.66099784  1
  Ag  Ag5  1  0.67287020  0.33050503  0.33623890  1
  Ag  Ag6  1  0.67488217  0.82887768  0.49359029  1
  Ag  Ag7  1  0.33287436  0.82430874  0.49680100  1
  Ag  Ag8  1  0.33432216  -0.00154214  0.33075803  1
  Ag  Ag9  1  0.50431036  0.17320337  0.33624608  1
  Ag  Ag10  1  0.83519476  0.67501984  0.16457690  1
  Ag  Ag11  1  -0.00339612  0.17339205  0.50739205  1
  Ag  Ag12  1  0.33310626  0.50339862  0.49331962  1
  Ag  Ag13  1  0.50426902  0.16736633  0.66548731  1
  Ag  Ag14  1  0.67098639  0.16310829  0.15941334  1
  Ag  Ag15  1  0.51402643  0.16393762  -0.00448377  1
  Ag  Ag16  1  0.50231435  0.33668531  0.49670976  1
  Ag  Ag17  1  0.32632300  0.50211242  0.17674664  1
  Ag  Ag18  1  0.15061486  0.17155021  0.65876416  1
  Ag  Ag19  1  0.66870239  0.49612977  0.83316214  1
  Ag  Ag20  1  0.66177484  0.49871521  0.49894248  1
  Ag  Ag21  1  0.67206773  0.00600438  0.00017788  1
  Ag  Ag22  1  0.83429299  0.49561055  0.00125098  1
  Ag  Ag23  1  0.83994502  0.32987661  0.49930855  1
  Ag  Ag24  1  0.17204612  0.49475069  0.33696462  1
  Ag  Ag25  1  0.83499005  0.32065453  0.83135239  1
  Ag  Ag26  1  0.33560285  0.66674535  0.00572747  1
  Ag  Ag27  1  0.67070037  0.66950773  0.00149516  1
  Ag  Ag28  1  0.67705365  0.16716394  0.83870705  1
  Ag  Ag29  1  0.16074731  0.33523497  0.17958061  1
  Ag  Ag30  1  0.50267657  0.66896427  0.83377137  1
  Ag  Ag31  1  -0.01110305  0.00310016  -0.00370154  1
  Ag  Ag32  1  -0.00647462  0.83601137  0.49966273  1
  Ag  Ag33  1  0.00075266  0.33020529  0.33639859  1
  Ag  Ag34  1  0.83980802  0.16446365  0.68030194  1
  Ag  Ag35  1  0.83253446  0.16505203  -0.00801792  1
  Ag  Ag36  1  0.00105378  0.49816641  0.16548448  1
  Ag  Ag37  1  0.33415413  0.66247059  0.33510225  1
  Ag  Ag38  1  0.49617731  0.66000318  0.49966070  1
  Ag  Ag39  1  0.83376931  0.16727502  0.33263879  1
  Ag  Ag40  1  0.33698168  -0.00034263  0.00357515  1
  Ag  Ag41  1  -0.00140037  0.32410622  0.65538321  1
  Ag  Ag42  1  -0.00517386  0.84328712  0.83629870  1
  Ag  Ag43  1  -0.00706831  0.83011482  0.16725117  1
  Ag  Ag44  1  0.15826112  0.33724857  0.49609830  1
  Ag  Ag45  1  0.49309764  0.49522189  0.33814920  1
  Ag  Ag46  1  -0.01163106  0.16248625  0.82089681  1
  Ag  Ag47  1  0.67554367  0.83875655  0.16897308  1
  Ag  Ag48  1  0.17095785  0.65670520  0.49848704  1
  Ag  Ag49  1  -0.00457391  0.32839663  0.00201004  1
  Ag  Ag50  1  0.50867465  0.00512558  0.83656538  1
  Ag  Ag51  1  0.83328035  -0.00185871  0.16115118  1
  Ag  Ag52  1  -0.00853743  0.66875435  0.00353032  1
  Ag  Ag53  1  0.83323564  0.00731243  0.84206643  1
  Sb  Sb54  1  0.67182455  0.16886398  0.49986693  1
  Sb  Sb55  1  0.50989227  0.32980491  0.82914737  1
  Sb  Sb56  1  0.16180079  0.83305524  0.00099109  1
  Sb  Sb57  1  0.50623437  0.83737988  0.66458782  1
  Sb  Sb58  1  0.50510501  0.00246684  0.16178004  1
  Sb  Sb59  1  0.50481541  0.49696749  0.00275872  1
  Sb  Sb60  1  0.33478713  0.16496996  0.83463611  1
  Sb  Sb61  1  0.67033401  0.49814291  0.16778077  1
  Sb  Sb62  1  0.15880694  0.00223079  0.83367168  1
  Sb  Sb63  1  0.49768206  0.33274438  0.17312584  1
  Sb  Sb64  1  0.16472240  0.00463524  0.49868541  1
  Sb  Sb65  1  0.50209298  0.83723242  -0.00102470  1
  Sb  Sb66  1  0.33388248  0.66649843  0.65932655  1
  Sb  Sb67  1  0.50426105  0.83333878  0.33609417  1
  Sb  Sb68  1  0.83323968  0.66549893  0.49539248  1
  Sb  Sb69  1  0.16196076  0.66122896  0.17097405  1
  Sb  Sb70  1  0.66419489  0.66321567  0.33107169  1
  Sb  Sb71  1  0.33984154  0.50285613  0.83234998  1
  Sb  Sb72  1  0.50004009  0.00286334  0.50246680  1
  Sb  Sb73  1  0.33626572  0.16866446  0.17059336  1
  Sb  Sb74  1  0.32996073  0.16968382  0.49700496  1
  Sb  Sb75  1  0.15988911  0.16734881  0.00134360  1
  Sb  Sb76  1  0.00029871  0.00440156  0.33246171  1
  Sb  Sb77  1  0.15782615  0.83593612  0.66144059  1
  Sb  Sb78  1  0.67357043  0.33132826  0.66041011  1
  Sb  Sb79  1  0.50335855  0.66549000  0.16727815  1
  Sb  Sb80  1  0.32672305  0.33234264  0.66371687  1
  Sb  Sb81  1  0.83066704  0.66995580  0.84193543  1
  Sb  Sb82  1  0.67431481  0.00237556  0.67217545  1
  Sb  Sb83  1  0.32928971  0.00118497  0.66609031  1
  Sb  Sb84  1  0.83671265  0.49478096  0.66915038  1
  Sb  Sb85  1  -0.00579442  0.49760691  0.83869940  1
  Sb  Sb86  1  0.33108299  0.83415305  0.83146487  1
  Sb  Sb87  1  0.49839696  0.49530370  0.65922601  1
  Sb  Sb88  1  0.16230997  0.83266764  0.33616787  1
  Sb  Sb89  1  0.15451557  0.33186713  0.82863213  1
  Sb  Sb90  1  0.16919440  0.66484008  0.83014768  1
  Sb  Sb91  1  0.83776180  0.33026547  0.16777868  1
  Sb  Sb92  1  0.83405165  0.00364979  0.49997276  1
  Sb  Sb93  1  0.16077590  0.49960236  0.00291131  1
  Sb  Sb94  1  0.33263839  0.82974135  0.17063143  1
  Sb  Sb95  1  0.32960324  0.33710005  0.33549892  1
  Sb  Sb96  1  0.83432690  0.83865777  0.00504822  1
  Sb  Sb97  1  0.32898362  0.33333367  0.00272149  1
  Sb  Sb98  1  0.00131679  0.49677352  0.49556475  1
  Sb  Sb99  1  0.67366805  0.83670035  0.83598195  1
  Sb  Sb100  1  0.66718122  0.66689756  0.66985769  1
  Sb  Sb101  1  0.83448315  0.49617652  0.33000992  1
  Sb  Sb102  1  0.66574315  0.00574208  0.32839726  1
  Sb  Sb103  1  0.16053473  0.00539926  0.16779923  1
  Sb  Sb104  1  0.00246724  0.66360898  0.33033863  1
  Sb  Sb105  1  -0.00744028  0.16820756  0.16688256  1
  Sb  Sb106  1  0.67353709  0.32929162  0.00315044  1
  Sb  Sb107  1  -0.00034599  0.66564775  0.66945277  1
  Te  Te108  1  0.16724374  0.17294126  0.17178025  1
  Te  Te109  1  0.16369047  0.17086587  0.49849014  1
  Te  Te110  1  0.16503083  0.16736659  0.82775579  1
  Te  Te111  1  0.16498979  0.49666838  0.16886756  1
  Te  Te112  1  0.16400420  0.49808935  0.49750860  1
  Te  Te113  1  0.16928853  0.49990156  0.82862220  1
  Te  Te114  1  0.15881091  0.83420586  0.16885157  1
  Te  Te115  1  0.16753108  0.82985207  0.49972900  1
  Te  Te116  1  0.15701748  0.83268355  0.83025825  1
  Te  Te117  1  0.50555548  0.16710618  0.16907982  1
  Te  Te118  1  0.50100904  0.16985475  0.49858289  1
  Te  Te119  1  0.50095826  0.16481117  0.83543225  1
  Te  Te120  1  0.49655017  0.49989866  0.17292980  1
  Te  Te121  1  0.50097461  0.50004110  0.49898067  1
  Te  Te122  1  0.50765335  0.50144376  0.83245280  1
  Te  Te123  1  0.50704872  0.83373449  0.16803742  1
  Te  Te124  1  0.49831216  0.82992387  0.50126931  1
  Te  Te125  1  0.50096181  0.83186062  0.83077383  1
  Te  Te126  1  0.82951515  0.16421054  0.17350177  1
  Te  Te127  1  0.83634486  0.16934385  0.49190943  1
  Te  Te128  1  0.83348152  0.16491318  0.83578551  1
  Te  Te129  1  0.83655235  0.50179351  0.16225013  1
  Te  Te130  1  0.82817538  0.49569520  0.49998398  1
  Te  Te131  1  0.82728935  0.50198430  0.83688486  1
  Te  Te132  1  0.83349705  0.83558781  0.16768085  1
  Te  Te133  1  0.83374570  0.83220651  0.49713455  1
  Te  Te134  1  0.83689891  0.83698994  0.82665801  1
  Te  Te135  1  0.17487309  0.00059648  0.00064694  1
  Te  Te136  1  0.17308732  0.00509945  0.33226814  1
  Te  Te137  1  0.16020528  0.00786957  0.66639268  1
  Te  Te138  1  0.15934177  0.33331697  0.00003608  1
  Te  Te139  1  0.16617369  0.33371039  0.33617680  1
  Te  Te140  1  0.16115582  0.33118046  0.66305055  1
  Te  Te141  1  0.17075756  0.66569459  -0.00041506  1
  Te  Te142  1  0.17067387  0.66321620  0.33781064  1
  Te  Te143  1  0.16726500  0.66331918  0.66100460  1
  Te  Te144  1  0.50048039  0.00376607  -0.00351066  1
  Te  Te145  1  0.49533376  0.00366546  0.33358538  1
  Te  Te146  1  0.49885744  0.00503886  0.67260517  1
  Te  Te147  1  0.49874419  0.32535702  -0.00124073  1
  Te  Te148  1  0.49930797  0.33400492  0.33628828  1
  Te  Te149  1  0.50027020  0.32811234  0.66146747  1
  Te  Te150  1  0.50083584  0.66521203  -0.00169503  1
  Te  Te151  1  0.49615984  0.66410729  0.33712404  1
  Te  Te152  1  0.49970265  0.66700630  0.66692869  1
  Te  Te153  1  0.83237501  0.00175428  0.00101594  1
  Te  Te154  1  0.83281506  0.00097218  0.32939619  1
  Te  Te155  1  0.83850318  0.00307741  0.66557883  1
  Te  Te156  1  0.83585274  0.33231114  0.00031463  1
  Te  Te157  1  0.83530720  0.33216881  0.33533503  1
  Te  Te158  1  0.83883178  0.32988128  0.66478676  1
  Te  Te159  1  0.83308101  0.66491218  0.00401894  1
  Te  Te160  1  0.83364052  0.66960971  0.32686950  1
  Te  Te161  1  0.83401893  0.66902619  0.66629589  1
  Te  Te162  1  -0.00319792  0.16475807  0.00027875  1
  Te  Te163  1  -0.00065295  0.16911777  0.33389011  1
  Te  Te164  1  -0.00463556  0.16793212  0.66400907  1
  Te  Te165  1  -0.00410807  0.50138447  0.00363461  1
  Te  Te166  1  0.00279003  0.49553319  0.32777443  1
  Te  Te167  1  0.00482379  0.49690724  0.66981705  1
  Te  Te168  1  0.00004163  0.83408067  0.00016631  1
  Te  Te169  1  -0.00477318  0.83446432  0.33362857  1
  Te  Te170  1  -0.00457571  0.83220615  0.66335117  1
  Te  Te171  1  0.33235300  0.16304864  0.00231261  1
  Te  Te172  1  0.34021744  0.16086695  0.33298106  1
  Te  Te173  1  0.34106754  0.16524289  0.66597432  1
  Te  Te174  1  0.33455451  0.50302808  0.00142597  1
  Te  Te175  1  0.33313092  0.50089758  0.33448153  1
  Te  Te176  1  0.32706700  0.49962220  0.66280899  1
  Te  Te177  1  0.33306609  0.83147812  0.00080620  1
  Te  Te178  1  0.33310762  0.83227448  0.33598326  1
  Te  Te179  1  0.33174749  0.83496314  0.65958914  1
  Te  Te180  1  0.67053682  0.16719099  -0.00027712  1
  Te  Te181  1  0.66680798  0.16953990  0.33496936  1
  Te  Te182  1  0.66589294  0.16636685  0.67059200  1
  Te  Te183  1  0.67074992  0.50090440  -0.00126706  1
  Te  Te184  1  0.66458534  0.49539349  0.33648004  1
  Te  Te185  1  0.66707529  0.49928774  0.66652494  1
  Te  Te186  1  0.66638099  0.83074098  0.00352486  1
  Te  Te187  1  0.67123919  0.83369934  0.33190891  1
  Te  Te188  1  0.67430970  0.83445562  0.66153658  1
  Te  Te189  1  -0.00435551  -0.00361763  0.16272977  1
  Te  Te190  1  0.00037639  -0.00355366  0.50132296  1
  Te  Te191  1  -0.00278025  0.00217103  0.83509161  1
  Te  Te192  1  0.00171198  0.33462836  0.16651173  1
  Te  Te193  1  -0.00016490  0.33398216  0.49764002  1
  Te  Te194  1  -0.00721918  0.33085928  0.84034226  1
  Te  Te195  1  -0.00250430  0.66723236  0.16336013  1
  Te  Te196  1  0.00262334  0.67003980  0.49980050  1
  Te  Te197  1  0.00135768  0.66781960  0.84115444  1
  Te  Te198  1  0.33265693  -0.00233221  0.16616942  1
  Te  Te199  1  0.33301850  -0.00414182  0.49654556  1
  Te  Te200  1  0.33714285  -0.00256025  0.83822818  1
  Te  Te201  1  0.32598318  0.34057370  0.16579964  1
  Te  Te202  1  0.33747387  0.33889526  0.50122731  1
  Te  Te203  1  0.33353471  0.33455613  0.83353175  1
  Te  Te204  1  0.33296716  0.66412803  0.16778514  1
  Te  Te205  1  0.33397613  0.66384420  0.49725317  1
  Te  Te206  1  0.33953738  0.66838225  0.83931665  1
  Te  Te207  1  0.67042591  0.00048344  0.16228721  1
  Te  Te208  1  0.66546443  -0.00964258  0.49987307  1
  Te  Te209  1  0.66847819  0.00262822  0.83805690  1
  Te  Te210  1  0.66625799  0.32916416  0.17457653  1
  Te  Te211  1  0.66521158  0.33470911  0.49613714  1
  Te  Te212  1  0.67411838  0.33189266  0.83270128  1
  Te  Te213  1  0.67087070  0.66740127  0.16242141  1
  Te  Te214  1  0.66352885  0.66575109  0.49971807  1
  Te  Te215  1  0.66312132  0.66695960  0.83829793  1
