# generated using pymatgen
data_AgSbTe2
_symmetry_space_group_name_H-M   'P 1'
_cell_length_a   18.34061755
_cell_length_b   18.34848983
_cell_length_c   18.34769145
_cell_angle_alpha   90.00098427
_cell_angle_beta   90.00045222
_cell_angle_gamma   90.00093721
_symmetry_Int_Tables_number   1
_chemical_formula_structural   AgSbTe2
_chemical_formula_sum   'Ag54 Sb54 Te108'
_cell_volume   6174.41346383
_cell_formula_units_Z   54
loop_
 _symmetry_equiv_pos_site_id
 _symmetry_equiv_pos_as_xyz
  1  'x, y, z'
loop_
 _atom_site_type_symbol
 _atom_site_label
 _atom_site_symmetry_multiplicity
 _atom_site_fract_x
 _atom_site_fract_y
 _atom_site_fract_z
 _atom_site_occupancy
  Ag  Ag0  1  0.83348257  0.66807310  0.15569971  1
  Ag  Ag1  1  0.17481745  0.49440862  -0.00317999  1
  Ag  Ag2  1  0.33432127  0.48951545  0.16223004  1
  Ag  Ag3  1  0.83680686  -0.00274328  0.83579809  1
  Ag  Ag4  1  -0.00103966  0.83393160  0.16416713  1
  Ag  Ag5  1  0.83539566  0.16325267  -0.00246154  1
  Ag  Ag6  1  0.32805275  0.83647591  0.15895369  1
  Ag  Ag7  1  0.32924938  0.33965153  0.00287408  1
  Ag  Ag8  1  0.49352124  0.49869015  -0.00025809  1
  Ag  Ag9  1  0.83060070  0.66656715  0.49812710  1
  Ag  Ag10  1  0.83123610  0.34454961  0.16198246  1
  Ag  Ag11  1  0.16665373  0.49875752  0.67866983  1
  Ag  Ag12  1  0.33409095  0.65754662  0.00125154  1
  Ag  Ag13  1  0.67167064  0.17400231  0.83627744  1
  Ag  Ag14  1  0.83172825  0.51079909  -0.00346414  1
  Ag  Ag15  1  0.48848163  0.33741443  0.15931701  1
  Ag  Ag16  1  0.17283513  0.33220502  0.84064280  1
  Ag  Ag17  1  0.83360120  -0.00597678  0.50753638  1
  Ag  Ag18  1  -0.00261886  0.66744826  0.67304509  1
  Ag  Ag19  1  0.68070124  -0.00235053  -0.00023629  1
  Ag  Ag20  1  0.16324745  0.15897171  0.67654025  1
  Ag  Ag21  1  0.16514851  0.83713023  0.32261896  1
  Ag  Ag22  1  0.49643003  0.33747621  0.84035831  1
  Ag  Ag23  1  0.48552458  0.00170061  0.16259166  1
  Ag  Ag24  1  0.33245243  0.33761371  0.31582824  1
  Ag  Ag25  1  0.32871227  0.17618371  0.16191143  1
  Ag  Ag26  1  0.33071406  -0.00011781  0.00257182  1
  Ag  Ag27  1  0.17804223  0.32580790  0.15870564  1
  Ag  Ag28  1  0.33132234  0.83744211  0.84081827  1
  Ag  Ag29  1  -0.00817751  0.50321993  0.83474957  1
  Ag  Ag30  1  0.83480040  0.65913788  0.84227062  1
  Ag  Ag31  1  0.32353641  -0.00338071  0.67491846  1
  Ag  Ag32  1  0.17003611  0.00384033  0.15467017  1
  Ag  Ag33  1  0.83667036  -0.00567220  0.15392507  1
  Ag  Ag34  1  0.49945477  0.50134084  0.67324008  1
  Ag  Ag35  1  0.67292659  0.49685072  0.83397430  1
  Ag  Ag36  1  0.50376847  0.66271148  0.50203948  1
  Ag  Ag37  1  0.17018166  0.16288018  0.31620529  1
  Ag  Ag38  1  0.50056903  0.50186715  0.32408598  1
  Ag  Ag39  1  0.16561663  0.00390710  0.83770484  1
  Ag  Ag40  1  0.16977095  0.84287410  0.67081311  1
  Ag  Ag41  1  0.83398479  0.82445972  0.00271802  1
  Ag  Ag42  1  0.16798886  0.17182733  -0.00119092  1
  Ag  Ag43  1  0.83733794  0.82752949  0.31903754  1
  Ag  Ag44  1  0.83350829  0.50145423  0.67654701  1
  Ag  Ag45  1  0.49209786  0.82730792  0.66935511  1
  Ag  Ag46  1  0.82857152  0.51098687  0.32226411  1
  Ag  Ag47  1  0.67300469  0.66364757  0.32773490  1
  Ag  Ag48  1  0.66708303  0.33715419  0.67362329  1
  Ag  Ag49  1  0.67677067  0.66508007  0.00163846  1
  Ag  Ag50  1  0.00551901  -0.00561658  0.67009124  1
  Ag  Ag51  1  -0.01076302  0.66456354  -0.00414228  1
  Ag  Ag52  1  0.33581324  0.50033922  0.50091534  1
  Ag  Ag53  1  0.83715344  0.16638684  0.67672583  1
  Sb  Sb54  1  0.83220980  0.33599503  0.83862668  1
  Sb  Sb55  1  0.33644433  0.66289849  0.32807274  1
  Sb  Sb56  1  0.66944696  0.16497262  0.50767061  1
  Sb  Sb57  1  0.33073817  0.66803416  0.67178346  1
  Sb  Sb58  1  0.00248645  0.83051841  0.83649001  1
  Sb  Sb59  1  0.33144701  0.16979687  0.49727760  1
  Sb  Sb60  1  -0.00049207  0.16412795  0.50403449  1
  Sb  Sb61  1  0.00457109  0.34055781  -0.00107111  1
  Sb  Sb62  1  0.66531446  0.16568294  0.15977736  1
  Sb  Sb63  1  0.66935794  0.83034379  0.50121280  1
  Sb  Sb64  1  0.50303489  -0.00734996  0.49852460  1
  Sb  Sb65  1  0.49939593  0.82719722  0.33185357  1
  Sb  Sb66  1  0.16429163  -0.00037227  0.50340421  1
  Sb  Sb67  1  0.49518517  0.17472615  0.32874469  1
  Sb  Sb68  1  0.66264104  0.34142103  0.33426842  1
  Sb  Sb69  1  0.33430470  0.33256053  0.67325622  1
  Sb  Sb70  1  0.33200058  0.00238842  0.32665003  1
  Sb  Sb71  1  0.66320935  0.50258421  0.50538311  1
  Sb  Sb72  1  0.83611403  0.83193877  0.67067086  1
  Sb  Sb73  1  -0.00748903  0.66718106  0.32965609  1
  Sb  Sb74  1  -0.00117861  0.16859716  0.83505936  1
  Sb  Sb75  1  0.49690960  0.17056124  -0.00006952  1
  Sb  Sb76  1  0.33227906  0.82838179  0.50041750  1
  Sb  Sb77  1  0.83805280  0.16483433  0.32759790  1
  Sb  Sb78  1  -0.00004570  0.50465855  0.15934745  1
  Sb  Sb79  1  0.33124018  0.16368807  0.83993149  1
  Sb  Sb80  1  -0.00164110  0.33552972  0.67101534  1
  Sb  Sb81  1  0.16248603  0.66592283  0.83513561  1
  Sb  Sb82  1  0.50247527  0.66440753  0.16648562  1
  Sb  Sb83  1  0.16873904  0.33511701  0.50157854  1
  Sb  Sb84  1  0.00563653  0.16114507  0.16311174  1
  Sb  Sb85  1  -0.00096136  -0.00570568  -0.00369242  1
  Sb  Sb86  1  0.83133182  0.33819194  0.49906213  1
  Sb  Sb87  1  0.00035880  -0.00202504  0.33436753  1
  Sb  Sb88  1  -0.00107233  0.83207194  0.49853559  1
  Sb  Sb89  1  0.33366158  0.50322860  0.83735869  1
  Sb  Sb90  1  0.49931811  0.82992592  -0.00169342  1
  Sb  Sb91  1  0.50421219  0.66118729  0.83235715  1
  Sb  Sb92  1  0.49826770  0.16856626  0.67036819  1
  Sb  Sb93  1  0.67151051  0.66199881  0.67063295  1
  Sb  Sb94  1  0.66599194  0.83163357  0.83436153  1
  Sb  Sb95  1  0.66473923  0.33566178  -0.00363083  1
  Sb  Sb96  1  0.66974993  0.83200576  0.16438391  1
  Sb  Sb97  1  0.66502910  0.49948918  0.15866598  1
  Sb  Sb98  1  0.16827307  0.50029046  0.32817932  1
  Sb  Sb99  1  0.16434142  0.66860094  0.16414294  1
  Sb  Sb100  1  0.66946784  0.00266346  0.67597187  1
  Sb  Sb101  1  0.49728979  0.34230109  0.50069227  1
  Sb  Sb102  1  0.49944636  0.00280040  0.83894721  1
  Sb  Sb103  1  0.67071300  -0.00523926  0.32462485  1
  Sb  Sb104  1  0.16610472  0.66569790  0.50302280  1
  Sb  Sb105  1  0.16653977  0.83382363  -0.00101356  1
  Sb  Sb106  1  0.00524311  0.33527772  0.32711813  1
  Sb  Sb107  1  0.00094174  0.50380889  0.50741042  1
  Te  Te108  1  0.16782484  0.16531015  0.16008511  1
  Te  Te109  1  0.16702972  0.16751029  0.50822212  1
  Te  Te110  1  0.16624510  0.16457881  0.83576990  1
  Te  Te111  1  0.16841051  0.49726201  0.16293527  1
  Te  Te112  1  0.17266421  0.50054854  0.50085219  1
  Te  Te113  1  0.16957849  0.50014960  0.83655189  1
  Te  Te114  1  0.16577753  0.83545631  0.16496174  1
  Te  Te115  1  0.16647327  0.83270898  0.50280446  1
  Te  Te116  1  0.16924618  0.83796771  0.83033054  1
  Te  Te117  1  0.49496156  0.16675010  0.16673628  1
  Te  Te118  1  0.50043689  0.16486923  0.49873492  1
  Te  Te119  1  0.50812142  0.17380368  0.83277601  1
  Te  Te120  1  0.49826163  0.49877388  0.16421671  1
  Te  Te121  1  0.49660303  0.50386201  0.50376632  1
  Te  Te122  1  0.49975388  0.49729030  0.83375532  1
  Te  Te123  1  0.49323437  0.83794173  0.16696836  1
  Te  Te124  1  0.50011044  0.82558911  0.50387733  1
  Te  Te125  1  0.49492792  0.83412754  0.82935685  1
  Te  Te126  1  0.83416716  0.15638486  0.16452412  1
  Te  Te127  1  0.83357413  0.16291081  0.50092752  1
  Te  Te128  1  0.83330516  0.16978820  0.83440893  1
  Te  Te129  1  0.83311533  0.50386141  0.16380785  1
  Te  Te130  1  0.83299823  0.50390565  0.50333651  1
  Te  Te131  1  0.83285246  0.49830464  0.83491618  1
  Te  Te132  1  0.83220270  0.83259374  0.16327041  1
  Te  Te133  1  0.83400101  0.83268252  0.50204163  1
  Te  Te134  1  0.83344356  0.83650666  0.83745804  1
  Te  Te135  1  0.16541031  -0.00066344  -0.00249305  1
  Te  Te136  1  0.16663528  -0.00067197  0.33480257  1
  Te  Te137  1  0.16543704  0.00055832  0.66616755  1
  Te  Te138  1  0.16715530  0.33331320  0.00112502  1
  Te  Te139  1  0.17148796  0.33157842  0.32917510  1
  Te  Te140  1  0.16682741  0.33758978  0.66951356  1
  Te  Te141  1  0.17442127  0.66125215  -0.00027806  1
  Te  Te142  1  0.16459516  0.67313737  0.33456616  1
  Te  Te143  1  0.16236982  0.65919136  0.66755932  1
  Te  Te144  1  0.49366268  -0.00047638  0.00385848  1
  Te  Te145  1  0.50259389  -0.00089339  0.32784644  1
  Te  Te146  1  0.49803563  -0.00168926  0.66583556  1
  Te  Te147  1  0.49899459  0.33654056  0.00109751  1
  Te  Te148  1  0.49532372  0.34204922  0.32951907  1
  Te  Te149  1  0.50212137  0.33780975  0.66943247  1
  Te  Te150  1  0.49517048  0.66191350  -0.00006227  1
  Te  Te151  1  0.50463037  0.66150217  0.33632387  1
  Te  Te152  1  0.50032967  0.66334787  0.66474664  1
  Te  Te153  1  0.83771520  0.00367760  -0.00352177  1
  Te  Te154  1  0.83379839  -0.00450254  0.33468671  1
  Te  Te155  1  0.83275920  0.00021231  0.67121581  1
  Te  Te156  1  0.83285105  0.32545534  0.00274088  1
  Te  Te157  1  0.83242703  0.33439107  0.32947457  1
  Te  Te158  1  0.83120862  0.33387363  0.66683529  1
  Te  Te159  1  0.83228469  0.66763057  -0.00157873  1
  Te  Te160  1  0.83231381  0.66794913  0.33730858  1
  Te  Te161  1  0.83530042  0.66567418  0.66630625  1
  Te  Te162  1  -0.00008433  0.16755242  -0.00062484  1
  Te  Te163  1  0.01050757  0.16670670  0.33510768  1
  Te  Te164  1  -0.00098268  0.16341609  0.66862470  1
  Te  Te165  1  -0.00602920  0.50599377  -0.00389700  1
  Te  Te166  1  -0.00641178  0.50111922  0.33476924  1
  Te  Te167  1  -0.00099194  0.50233448  0.67170141  1
  Te  Te168  1  -0.00268231  0.82557879  0.00327210  1
  Te  Te169  1  0.00023861  0.83300907  0.32794528  1
  Te  Te170  1  0.00397452  0.83228262  0.66727280  1
  Te  Te171  1  0.33084006  0.16101548  0.00264928  1
  Te  Te172  1  0.32771936  0.17185479  0.32947786  1
  Te  Te173  1  0.32784779  0.16285650  0.66644175  1
  Te  Te174  1  0.33435639  0.49887738  0.00064751  1
  Te  Te175  1  0.33373745  0.49855871  0.32747933  1
  Te  Te176  1  0.33315814  0.50021551  0.66672515  1
  Te  Te177  1  0.33302511  0.84047231  -0.00014833  1
  Te  Te178  1  0.32936474  0.83267240  0.33138791  1
  Te  Te179  1  0.33054160  0.83467700  0.66573593  1
  Te  Te180  1  0.66867102  0.16299535  -0.00420670  1
  Te  Te181  1  0.66705181  0.16748734  0.33518263  1
  Te  Te182  1  0.67149076  0.17058583  0.67418221  1
  Te  Te183  1  0.67049764  0.50157737  -0.00503157  1
  Te  Te184  1  0.66797578  0.50400187  0.33529556  1
  Te  Te185  1  0.66749553  0.49844979  0.67176256  1
  Te  Te186  1  0.66887887  0.83204210  -0.00159415  1
  Te  Te187  1  0.67163180  0.82630952  0.33377877  1
  Te  Te188  1  0.65723812  0.83345570  0.66815827  1
  Te  Te189  1  -0.00063064  -0.00528807  0.16758731  1
  Te  Te190  1  -0.00719718  -0.00166938  0.50884867  1
  Te  Te191  1  0.00059292  0.00010711  0.82883934  1
  Te  Te192  1  -0.00990111  0.33273966  0.16564348  1
  Te  Te193  1  -0.00050982  0.33412542  0.49857341  1
  Te  Te194  1  0.01276605  0.34253923  0.83316076  1
  Te  Te195  1  -0.00472316  0.67205085  0.16269787  1
  Te  Te196  1  -0.00583721  0.66707241  0.50807924  1
  Te  Te197  1  -0.00320327  0.66467380  0.83404818  1
  Te  Te198  1  0.32858757  -0.00251963  0.16636900  1
  Te  Te199  1  0.33613704  0.00028284  0.50491720  1
  Te  Te200  1  0.33224184  -0.00166972  0.83366226  1
  Te  Te201  1  0.33345479  0.33379757  0.16030656  1
  Te  Te202  1  0.33365908  0.33951274  0.49819525  1
  Te  Te203  1  0.33369744  0.33133156  0.83920980  1
  Te  Te204  1  0.33334862  0.67299490  0.16252926  1
  Te  Te205  1  0.33730929  0.66042501  0.49959904  1
  Te  Te206  1  0.33439654  0.67498712  0.83917652  1
  Te  Te207  1  0.67386851  -0.00043868  0.15838869  1
  Te  Te208  1  0.67243804  -0.00146795  0.49865724  1
  Te  Te209  1  0.66863894  0.00173261  0.84097621  1
  Te  Te210  1  0.67315542  0.33153499  0.16793602  1
  Te  Te211  1  0.66492960  0.33201672  0.50928706  1
  Te  Te212  1  0.66554056  0.33528985  0.83253633  1
  Te  Te213  1  0.67063410  0.66575881  0.16446547  1
  Te  Te214  1  0.66829845  0.66584452  0.49694725  1
  Te  Te215  1  0.67199615  0.66352244  0.83876893  1
