# generated using pymatgen
data_AgSbTe2
_symmetry_space_group_name_H-M   'P 1'
_cell_length_a   18.35135374
_cell_length_b   18.33759546
_cell_length_c   18.33278453
_cell_angle_alpha   89.99279065
_cell_angle_beta   89.99906767
_cell_angle_gamma   90.00004198
_symmetry_Int_Tables_number   1
_chemical_formula_structural   AgSbTe2
_chemical_formula_sum   'Ag54 Sb54 Te108'
_cell_volume   6169.34311725
_cell_formula_units_Z   54
loop_
 _symmetry_equiv_pos_site_id
 _symmetry_equiv_pos_as_xyz
  1  'x, y, z'
loop_
 _atom_site_type_symbol
 _atom_site_label
 _atom_site_symmetry_multiplicity
 _atom_site_fract_x
 _atom_site_fract_y
 _atom_site_fract_z
 _atom_site_occupancy
  Ag  Ag0  1  0.17293658  0.49693522  0.65872258  1
  Ag  Ag1  1  -0.00046813  0.33732017  0.66987850  1
  Ag  Ag2  1  0.33253828  0.83156778  0.83191116  1
  Ag  Ag3  1  0.82659932  0.66439730  0.50087870  1
  Ag  Ag4  1  0.00922545  0.50246070  0.50275846  1
  Ag  Ag5  1  0.49887459  0.33483902  0.84413193  1
  Ag  Ag6  1  0.66623932  0.33414736  0.32177587  1
  Ag  Ag7  1  0.50456832  0.33251258  0.15672306  1
  Ag  Ag8  1  0.16809690  0.82766451  -0.00470316  1
  Ag  Ag9  1  0.17678954  0.49780047  0.00066764  1
  Ag  Ag10  1  0.49992096  0.18165109  0.00583632  1
  Ag  Ag11  1  0.66065077  0.17841718  0.16513154  1
  Ag  Ag12  1  0.00592292  0.83342489  0.83377315  1
  Ag  Ag13  1  0.82918393  0.83110922  -0.00284227  1
  Ag  Ag14  1  0.49616031  0.49484410  -0.00377912  1
  Ag  Ag15  1  0.65208653  0.33747618  0.01020264  1
  Ag  Ag16  1  0.00314638  0.66391836  0.34095502  1
  Ag  Ag17  1  0.82720196  0.16960540  0.33039329  1
  Ag  Ag18  1  0.66852742  0.34262845  0.66722566  1
  Ag  Ag19  1  0.33589645  0.49617060  0.16019029  1
  Ag  Ag20  1  0.33314827  0.50259962  0.50348592  1
  Ag  Ag21  1  0.33260878  0.66275429  0.34212144  1
  Ag  Ag22  1  0.00212315  0.33858327  0.00099403  1
  Ag  Ag23  1  0.65376237  0.82065286  0.50310658  1
  Ag  Ag24  1  -0.00482544  0.17427160  0.16561515  1
  Ag  Ag25  1  0.66024750  0.49054057  0.16581020  1
  Ag  Ag26  1  0.34026937  0.33819874  0.00332941  1
  Ag  Ag27  1  0.34187160  0.66180848  0.66190845  1
  Ag  Ag28  1  0.16807063  -0.00199528  0.83343621  1
  Ag  Ag29  1  0.33556064  -0.00060499  0.33502321  1
  Ag  Ag30  1  0.66260294  0.50222380  0.50838606  1
  Ag  Ag31  1  0.50058100  0.82903622  -0.00680609  1
  Ag  Ag32  1  0.66130889  0.66148622  0.65756568  1
  Ag  Ag33  1  0.50033241  0.16909698  0.32492541  1
  Ag  Ag34  1  0.66518118  0.66205501  -0.00071872  1
  Ag  Ag35  1  0.17033660  0.49806144  0.34131124  1
  Ag  Ag36  1  0.81930595  0.33221940  0.16317855  1
  Ag  Ag37  1  0.49866336  0.50256182  0.66511129  1
  Ag  Ag38  1  0.49945906  0.66756177  0.50327767  1
  Ag  Ag39  1  0.49767581  0.82037236  0.66493963  1
  Ag  Ag40  1  -0.00237580  0.66274964  0.00243372  1
  Ag  Ag41  1  0.16675246  0.17893169  0.66846552  1
  Ag  Ag42  1  0.83607232  -0.00135343  0.83427140  1
  Ag  Ag43  1  0.66404638  -0.00258303  -0.00006189  1
  Ag  Ag44  1  0.00166582  0.82249682  0.50684201  1
  Ag  Ag45  1  0.33425007  0.49965305  0.83198559  1
  Ag  Ag46  1  0.33833264  0.17874188  0.16142167  1
  Ag  Ag47  1  0.33749680  0.81986679  0.50651701  1
  Ag  Ag48  1  0.49869240  -0.00980384  0.50047961  1
  Ag  Ag49  1  0.33297486  0.17579267  0.83775511  1
  Ag  Ag50  1  0.81901756  0.49703198  0.66284895  1
  Ag  Ag51  1  0.16719684  0.33988248  0.50032582  1
  Ag  Ag52  1  0.83408045  0.17771976  0.66485170  1
  Ag  Ag53  1  0.17134936  0.33537359  0.16323496  1
  Sb  Sb54  1  0.00458321  -0.00303993  0.33511145  1
  Sb  Sb55  1  0.16916096  0.82625658  0.33158579  1
  Sb  Sb56  1  0.16714523  0.65773406  0.16564934  1
  Sb  Sb57  1  0.83336079  0.83566971  0.33175788  1
  Sb  Sb58  1  0.49783840  0.00154600  0.83192180  1
  Sb  Sb59  1  0.16918020  0.00750945  0.16121958  1
  Sb  Sb60  1  0.16968180  0.17366266  0.33445999  1
  Sb  Sb61  1  0.66602110  0.17283522  0.49690951  1
  Sb  Sb62  1  0.83285451  0.65960267  0.16952854  1
  Sb  Sb63  1  0.83373258  0.66840412  0.83017565  1
  Sb  Sb64  1  0.66469130  0.83104850  0.16566974  1
  Sb  Sb65  1  0.17187565  0.33322670  0.83419992  1
  Sb  Sb66  1  0.00123908  0.49469092  0.16767386  1
  Sb  Sb67  1  0.66193360  0.16780291  0.83851074  1
  Sb  Sb68  1  0.33782682  0.00266956  0.00096387  1
  Sb  Sb69  1  -0.00087588  0.66066174  0.66418880  1
  Sb  Sb70  1  0.17115359  0.66060401  0.50094093  1
  Sb  Sb71  1  0.33429259  -0.00356407  0.66533165  1
  Sb  Sb72  1  0.00078206  0.83498161  0.16171317  1
  Sb  Sb73  1  0.82918759  0.33082699  0.83460102  1
  Sb  Sb74  1  0.82796473  0.16680911  -0.00023068  1
  Sb  Sb75  1  0.00056274  0.00345624  0.66682922  1
  Sb  Sb76  1  0.16781599  0.66872705  0.83449750  1
  Sb  Sb77  1  0.17098090  0.82822380  0.66935703  1
  Sb  Sb78  1  0.83474161  0.34004868  0.50036368  1
  Sb  Sb79  1  0.66454175  0.65927791  0.33687510  1
  Sb  Sb80  1  0.33618631  0.66123904  -0.00171301  1
  Sb  Sb81  1  0.49914601  0.00846245  0.16635971  1
  Sb  Sb82  1  0.83467014  0.49602669  0.33755711  1
  Sb  Sb83  1  0.83144370  0.00787173  0.16220198  1
  Sb  Sb84  1  0.83038416  0.83003057  0.66910931  1
  Sb  Sb85  1  0.17197761  0.17207025  -0.00295297  1
  Sb  Sb86  1  0.17188941  0.00281877  0.50397030  1
  Sb  Sb87  1  0.82930838  0.50119602  -0.00494644  1
  Sb  Sb88  1  0.33456938  0.82923774  0.16451794  1
  Sb  Sb89  1  0.49974227  0.65866272  0.16818565  1
  Sb  Sb90  1  0.49763289  0.33881990  0.50019851  1
  Sb  Sb91  1  0.66184354  0.00629023  0.33042506  1
  Sb  Sb92  1  -0.00095431  0.17157513  0.49872718  1
  Sb  Sb93  1  0.82734265  -0.00505001  0.50376819  1
  Sb  Sb94  1  0.49889879  0.83579023  0.33696593  1
  Sb  Sb95  1  0.33380119  0.34072128  0.67183049  1
  Sb  Sb96  1  0.66551039  -0.00074247  0.66917860  1
  Sb  Sb97  1  0.33750742  0.33635779  0.32542440  1
  Sb  Sb98  1  0.33478329  0.17162129  0.50051575  1
  Sb  Sb99  1  -0.00232303  0.33735728  0.33249770  1
  Sb  Sb100  1  0.65925477  0.49875933  0.83214305  1
  Sb  Sb101  1  -0.00201982  -0.00002605  -0.00140984  1
  Sb  Sb102  1  0.49591831  0.49567858  0.33348350  1
  Sb  Sb103  1  0.50002989  0.17274339  0.66849851  1
  Sb  Sb104  1  0.00712834  0.50247849  0.83083523  1
  Sb  Sb105  1  0.49930138  0.66136496  0.82830695  1
  Sb  Sb106  1  0.00323209  0.16560981  0.83601185  1
  Sb  Sb107  1  0.66265721  0.83271584  0.83231404  1
  Te  Te108  1  0.17357411  0.17282653  0.16633231  1
  Te  Te109  1  0.16607244  0.17215637  0.50632850  1
  Te  Te110  1  0.17071021  0.16242325  0.82953551  1
  Te  Te111  1  0.16796552  0.49464914  0.15972569  1
  Te  Te112  1  0.16799653  0.49763424  0.49958510  1
  Te  Te113  1  0.17355775  0.49996478  0.84049876  1
  Te  Te114  1  0.16661760  0.83574513  0.15848172  1
  Te  Te115  1  0.16672748  0.83591645  0.50041816  1
  Te  Te116  1  0.16846381  0.83549785  0.83415757  1
  Te  Te117  1  0.49893128  0.16949010  0.16523881  1
  Te  Te118  1  0.50004689  0.16367014  0.49923218  1
  Te  Te119  1  0.49367196  0.16913488  0.83644642  1
  Te  Te120  1  0.49940227  0.49502129  0.16666685  1
  Te  Te121  1  0.49962977  0.50313932  0.50020582  1
  Te  Te122  1  0.49413864  0.49620067  0.83416271  1
  Te  Te123  1  0.50005489  0.83326687  0.16006385  1
  Te  Te124  1  0.49659339  0.83082384  0.49990985  1
  Te  Te125  1  0.49565463  0.83439580  0.83012088  1
  Te  Te126  1  0.83215031  0.17207561  0.16697109  1
  Te  Te127  1  0.83372081  0.16403765  0.50332568  1
  Te  Te128  1  0.83461986  0.16259800  0.82867888  1
  Te  Te129  1  0.82945957  0.49241024  0.16675222  1
  Te  Te130  1  0.82900979  0.50362865  0.50325011  1
  Te  Te131  1  0.83747592  0.49963219  0.82313764  1
  Te  Te132  1  0.83338428  0.83436092  0.15958534  1
  Te  Te133  1  0.83951394  0.82891214  0.50008928  1
  Te  Te134  1  0.83429591  0.83641958  0.83611960  1
  Te  Te135  1  0.16792976  -0.00321140  -0.00540951  1
  Te  Te136  1  0.17303815  0.00000108  0.33355610  1
  Te  Te137  1  0.16638997  0.00336288  0.67207333  1
  Te  Te138  1  0.16272313  0.33541990  0.00006519  1
  Te  Te139  1  0.16561379  0.33811626  0.33529307  1
  Te  Te140  1  0.16755337  0.33674583  0.66817745  1
  Te  Te141  1  0.16453904  0.66558570  0.00083593  1
  Te  Te142  1  0.16589544  0.65988220  0.33201740  1
  Te  Te143  1  0.17020162  0.65910383  0.66804371  1
  Te  Te144  1  0.50412750  -0.00934081  -0.00112861  1
  Te  Te145  1  0.49632709  0.00479818  0.33664202  1
  Te  Te146  1  0.50100132  -0.00010943  0.66251722  1
  Te  Te147  1  0.49645338  0.33716061  0.00043301  1
  Te  Te148  1  0.50522844  0.32854125  0.33350699  1
  Te  Te149  1  0.50396089  0.33801403  0.66716957  1
  Te  Te150  1  0.50258711  0.66742799  0.00079024  1
  Te  Te151  1  0.49635021  0.66761892  0.33817859  1
  Te  Te152  1  0.50186274  0.66432031  0.66489280  1
  Te  Te153  1  0.82922842  -0.00319160  -0.00451348  1
  Te  Te154  1  0.83397637  0.00745258  0.33394735  1
  Te  Te155  1  0.83329364  0.00203526  0.67243009  1
  Te  Te156  1  0.84144383  0.33345463  0.00217555  1
  Te  Te157  1  0.82959975  0.32834779  0.33077764  1
  Te  Te158  1  0.83425761  0.33567975  0.66737176  1
  Te  Te159  1  0.83284365  0.66892367  0.00099607  1
  Te  Te160  1  0.83753374  0.66699122  0.33756729  1
  Te  Te161  1  0.82943804  0.66230432  0.66230262  1
  Te  Te162  1  0.00012928  0.17073814  0.00402575  1
  Te  Te163  1  -0.00145494  0.16608164  0.32962448  1
  Te  Te164  1  0.00007027  0.17260587  0.66675400  1
  Te  Te165  1  -0.00273490  0.50134618  -0.00100911  1
  Te  Te166  1  0.00280456  0.50434213  0.33744829  1
  Te  Te167  1  0.00975924  0.49721812  0.66385828  1
  Te  Te168  1  0.00264172  0.83315228  -0.00215014  1
  Te  Te169  1  0.00087120  0.82689333  0.33426335  1
  Te  Te170  1  0.00041002  0.83133408  0.66814214  1
  Te  Te171  1  0.33744897  0.16856535  -0.00022525  1
  Te  Te172  1  0.33624686  0.16564983  0.33199571  1
  Te  Te173  1  0.33057185  0.16763962  0.67104726  1
  Te  Te174  1  0.33598639  0.50007486  0.00038407  1
  Te  Te175  1  0.33070917  0.50103474  0.33618274  1
  Te  Te176  1  0.33473046  0.50104005  0.66663608  1
  Te  Te177  1  0.33328212  0.83176601  -0.00217404  1
  Te  Te178  1  0.33218607  0.82976175  0.33586265  1
  Te  Te179  1  0.33600498  0.82971621  0.66594409  1
  Te  Te180  1  0.66253840  0.17453744  0.00328797  1
  Te  Te181  1  0.66564375  0.17044841  0.33021295  1
  Te  Te182  1  0.66996396  0.16784349  0.66626790  1
  Te  Te183  1  0.66506737  0.49744213  -0.00087990  1
  Te  Te184  1  0.66672573  0.49531449  0.33013182  1
  Te  Te185  1  0.66229618  0.50287091  0.66843936  1
  Te  Te186  1  0.66524979  0.83112543  0.00014270  1
  Te  Te187  1  0.66804235  0.83381643  0.33928435  1
  Te  Te188  1  0.66205948  0.83069630  0.66278565  1
  Te  Te189  1  0.00056844  0.01053447  0.16777432  1
  Te  Te190  1  -0.00030651  -0.00779129  0.49939497  1
  Te  Te191  1  0.00061005  -0.00482959  0.83331246  1
  Te  Te192  1  0.00949690  0.33176592  0.16590619  1
  Te  Te193  1  0.00321234  0.33841992  0.50373748  1
  Te  Te194  1  -0.00110963  0.33409349  0.83272665  1
  Te  Te195  1  -0.00129846  0.66644791  0.16284327  1
  Te  Te196  1  0.00035773  0.66389704  0.50115358  1
  Te  Te197  1  -0.00035707  0.67313234  0.84050717  1
  Te  Te198  1  0.33295964  0.00057248  0.17246061  1
  Te  Te199  1  0.33687243  0.00235385  0.49671310  1
  Te  Te200  1  0.33099346  -0.00571200  0.83321977  1
  Te  Te201  1  0.33242447  0.33580127  0.16532255  1
  Te  Te202  1  0.32920066  0.33939949  0.49899563  1
  Te  Te203  1  0.33684303  0.33488928  0.83812149  1
  Te  Te204  1  0.33393290  0.65994901  0.17330298  1
  Te  Te205  1  0.33389937  0.66367400  0.50114197  1
  Te  Te206  1  0.33382364  0.66755983  0.82975997  1
  Te  Te207  1  0.66653514  0.00228455  0.16049783  1
  Te  Te208  1  0.66163790  -0.00305403  0.49956819  1
  Te  Te209  1  0.66977012  0.00012158  0.83949663  1
  Te  Te210  1  0.66423723  0.33394759  0.16525198  1
  Te  Te211  1  0.66657778  0.33962718  0.50769602  1
  Te  Te212  1  0.66173279  0.33197745  0.82797167  1
  Te  Te213  1  0.66756215  0.66195148  0.16397249  1
  Te  Te214  1  0.66529728  0.66341253  0.49835435  1
  Te  Te215  1  0.66736901  0.66682449  0.83977019  1
