# generated using pymatgen
data_AgSbTe2
_symmetry_space_group_name_H-M   'P 1'
_cell_length_a   18.34335291
_cell_length_b   18.34835420
_cell_length_c   18.33883183
_cell_angle_alpha   90.00149882
_cell_angle_beta   90.00120433
_cell_angle_gamma   89.99837815
_symmetry_Int_Tables_number   1
_chemical_formula_structural   AgSbTe2
_chemical_formula_sum   'Ag54 Sb54 Te108'
_cell_volume   6172.30678927
_cell_formula_units_Z   54
loop_
 _symmetry_equiv_pos_site_id
 _symmetry_equiv_pos_as_xyz
  1  'x, y, z'
loop_
 _atom_site_type_symbol
 _atom_site_label
 _atom_site_symmetry_multiplicity
 _atom_site_fract_x
 _atom_site_fract_y
 _atom_site_fract_z
 _atom_site_occupancy
  Ag  Ag0  1  0.49817819  0.82813167  0.66952117  1
  Ag  Ag1  1  0.82490032  0.50094115  0.00285377  1
  Ag  Ag2  1  -0.01293124  0.83087360  0.16635453  1
  Ag  Ag3  1  0.16950260  0.33010317  0.83372105  1
  Ag  Ag4  1  0.66654469  -0.00348693  0.32249847  1
  Ag  Ag5  1  0.82585666  0.67477779  0.16602773  1
  Ag  Ag6  1  0.00056012  -0.00401733  0.67868120  1
  Ag  Ag7  1  0.66878325  -0.00262019  0.00780134  1
  Ag  Ag8  1  0.17248008  0.50063037  0.66516847  1
  Ag  Ag9  1  0.82426767  0.67665624  0.83831376  1
  Ag  Ag10  1  0.66517053  0.33479329  0.67581414  1
  Ag  Ag11  1  -0.01323785  0.67300523  0.33089208  1
  Ag  Ag12  1  0.50627357  0.33713044  0.16008223  1
  Ag  Ag13  1  0.66870375  0.66870216  0.32719506  1
  Ag  Ag14  1  0.82424598  -0.01462154  0.15886343  1
  Ag  Ag15  1  0.33384405  0.50477868  0.50302916  1
  Ag  Ag16  1  0.16794463  0.33495908  0.16502823  1
  Ag  Ag17  1  0.33924258  0.66652033  0.66540755  1
  Ag  Ag18  1  0.51444924  -0.00043133  0.16670391  1
  Ag  Ag19  1  -0.00098189  0.15712692  0.83335051  1
  Ag  Ag20  1  0.49805180  0.50604828  0.67223640  1
  Ag  Ag21  1  0.16642257  0.49805510  0.33490667  1
  Ag  Ag22  1  0.66840905  0.50082539  0.16246336  1
  Ag  Ag23  1  -0.01467535  0.50465178  0.16740503  1
  Ag  Ag24  1  0.82317837  0.33338535  0.84347654  1
  Ag  Ag25  1  -0.00833898  -0.00638900  0.33127854  1
  Ag  Ag26  1  0.82994106  0.16171108  0.00013607  1
  Ag  Ag27  1  0.50617447  0.66084383  0.82851968  1
  Ag  Ag28  1  0.83201224  0.83172761  0.32188982  1
  Ag  Ag29  1  0.50717181  0.49802762  -0.00396508  1
  Ag  Ag30  1  0.67303564  0.84326515  0.16393464  1
  Ag  Ag31  1  0.50246375  0.67033573  0.50844320  1
  Ag  Ag32  1  0.66565128  0.15610044  0.16913134  1
  Ag  Ag33  1  0.17172143  0.83077641  0.66826231  1
  Ag  Ag34  1  0.34443293  -0.00069863  0.33203859  1
  Ag  Ag35  1  0.50568395  0.34048803  0.83755222  1
  Ag  Ag36  1  0.82980434  0.83405346  0.00753334  1
  Ag  Ag37  1  0.16957897  0.33788765  0.50259549  1
  Ag  Ag38  1  0.66710738  0.33594274  0.32143542  1
  Ag  Ag39  1  0.82978427  -0.00703151  0.84181340  1
  Ag  Ag40  1  0.67000295  0.82698244  0.83739248  1
  Ag  Ag41  1  0.66465800  0.50625413  0.84013864  1
  Ag  Ag42  1  -0.01274701  0.83814141  0.83467312  1
  Ag  Ag43  1  0.50068202  -0.00806265  0.50038619  1
  Ag  Ag44  1  0.66570586  0.16717179  0.49070277  1
  Ag  Ag45  1  0.34524345  0.16943511  0.16006315  1
  Ag  Ag46  1  0.82430777  0.66750620  0.48509713  1
  Ag  Ag47  1  0.33722239  0.82736801  0.50368002  1
  Ag  Ag48  1  0.33670452  0.33220228  -0.00018288  1
  Ag  Ag49  1  0.33248484  0.16832211  0.83865549  1
  Ag  Ag50  1  0.82239604  0.33666511  0.16080809  1
  Ag  Ag51  1  0.50919435  0.66490252  0.16767196  1
  Ag  Ag52  1  0.50605252  -0.00255526  0.83352020  1
  Ag  Ag53  1  0.15237657  0.00402785  0.83058461  1
  Sb  Sb54  1  0.33852721  0.49627659  0.16976777  1
  Sb  Sb55  1  0.66143426  0.66361769  0.66731559  1
  Sb  Sb56  1  0.83402848  0.50725327  0.32357864  1
  Sb  Sb57  1  0.33796664  0.66951036  0.33678914  1
  Sb  Sb58  1  0.17121482  0.66351873  0.50056170  1
  Sb  Sb59  1  0.16571760  0.16942322  0.33201852  1
  Sb  Sb60  1  0.34147110  0.49583235  0.82933005  1
  Sb  Sb61  1  0.50725786  0.83434761  0.33585615  1
  Sb  Sb62  1  0.50274500  0.16395529  0.32962117  1
  Sb  Sb63  1  0.33733964  0.83765020  0.83019327  1
  Sb  Sb64  1  -0.00192412  0.33220447  0.67016560  1
  Sb  Sb65  1  0.33878974  0.16655721  0.49976017  1
  Sb  Sb66  1  0.33654833  0.33081272  0.32827394  1
  Sb  Sb67  1  0.16384435  0.16721112  -0.00214214  1
  Sb  Sb68  1  0.82744510  -0.00467073  0.49697897  1
  Sb  Sb69  1  0.33267229  -0.00467474  0.66651982  1
  Sb  Sb70  1  0.34269018  0.00503245  0.00208222  1
  Sb  Sb71  1  0.82964795  0.83272868  0.66993345  1
  Sb  Sb72  1  -0.00376862  0.33382319  0.32916295  1
  Sb  Sb73  1  0.66285839  0.49925335  0.49932966  1
  Sb  Sb74  1  0.66857641  0.66872110  0.00763966  1
  Sb  Sb75  1  0.16342012  0.66128226  0.17033925  1
  Sb  Sb76  1  0.16341231  0.00327052  0.16301627  1
  Sb  Sb77  1  0.16763273  0.49581030  -0.00091689  1
  Sb  Sb78  1  0.33979326  0.66131556  -0.00464090  1
  Sb  Sb79  1  0.00171122  0.67053001  0.66312994  1
  Sb  Sb80  1  0.00135893  0.83335904  0.50076462  1
  Sb  Sb81  1  -0.00983609  -0.00053124  -0.00083531  1
  Sb  Sb82  1  0.66786864  0.00254069  0.66857399  1
  Sb  Sb83  1  0.50664559  0.17173129  0.00127225  1
  Sb  Sb84  1  0.83010826  0.50133473  0.67410581  1
  Sb  Sb85  1  0.66710197  0.16705651  0.83977722  1
  Sb  Sb86  1  0.66520696  0.33439611  0.00323751  1
  Sb  Sb87  1  0.66267542  0.83413039  0.49869713  1
  Sb  Sb88  1  0.83082585  0.16617555  0.67633498  1
  Sb  Sb89  1  0.83011640  0.16048445  0.32496431  1
  Sb  Sb90  1  -0.00638375  0.16552887  0.16201386  1
  Sb  Sb91  1  0.17069783  0.00267402  0.50295174  1
  Sb  Sb92  1  -0.00581581  0.50228381  0.83742528  1
  Sb  Sb93  1  0.00343375  0.50204992  0.49424770  1
  Sb  Sb94  1  0.83209240  0.33857817  0.49725603  1
  Sb  Sb95  1  0.33665688  0.33794596  0.67155056  1
  Sb  Sb96  1  0.15882470  0.83593772  -0.00560149  1
  Sb  Sb97  1  -0.00539043  0.66709707  0.00501246  1
  Sb  Sb98  1  0.16704677  0.66634205  0.83026224  1
  Sb  Sb99  1  -0.00256680  0.33367163  -0.00021399  1
  Sb  Sb100  1  0.16189190  0.83092670  0.33658941  1
  Sb  Sb101  1  0.49950911  0.50171079  0.33260768  1
  Sb  Sb102  1  0.16723793  0.16800873  0.66947161  1
  Sb  Sb103  1  0.34040873  0.83922881  0.17208462  1
  Sb  Sb104  1  0.50667448  0.83013389  -0.00417653  1
  Sb  Sb105  1  0.50183415  0.16645846  0.67081323  1
  Sb  Sb106  1  -0.00611668  0.16442566  0.50399771  1
  Sb  Sb107  1  0.49920774  0.33574497  0.50101429  1
  Te  Te108  1  0.16518257  0.17293334  0.16494064  1
  Te  Te109  1  0.16749775  0.17419002  0.50051965  1
  Te  Te110  1  0.16624749  0.16668765  0.83367207  1
  Te  Te111  1  0.17060788  0.49473099  0.16747053  1
  Te  Te112  1  0.16951668  0.49791840  0.50238539  1
  Te  Te113  1  0.16422108  0.49725991  0.83041560  1
  Te  Te114  1  0.16531230  0.83276881  0.16564953  1
  Te  Te115  1  0.17263971  0.83407783  0.50588612  1
  Te  Te116  1  0.16730094  0.83555184  0.82868297  1
  Te  Te117  1  0.50287956  0.16482087  0.16508045  1
  Te  Te118  1  0.50403326  0.16384431  0.50212207  1
  Te  Te119  1  0.49738202  0.16495556  0.83524101  1
  Te  Te120  1  0.50283847  0.49982282  0.16623097  1
  Te  Te121  1  0.49588911  0.50365689  0.50312429  1
  Te  Te122  1  0.50284872  0.49984898  0.83267608  1
  Te  Te123  1  0.50538718  0.83379997  0.16499780  1
  Te  Te124  1  0.49769402  0.83216526  0.50231657  1
  Te  Te125  1  0.50282977  0.83513863  0.83174953  1
  Te  Te126  1  0.83042071  0.17645142  0.16060395  1
  Te  Te127  1  0.82710669  0.16840792  0.49968359  1
  Te  Te128  1  0.83406380  0.17063861  0.83922059  1
  Te  Te129  1  0.83022470  0.49615963  0.16444273  1
  Te  Te130  1  0.83450841  0.50731190  0.50277700  1
  Te  Te131  1  0.82915224  0.49415294  0.83868093  1
  Te  Te132  1  0.83165410  0.83059748  0.16636974  1
  Te  Te133  1  0.83216983  0.82682965  0.50106174  1
  Te  Te134  1  0.83077034  0.83424494  0.83136163  1
  Te  Te135  1  0.17148438  -0.00018161  -0.01010725  1
  Te  Te136  1  0.16303019  0.00061305  0.33345113  1
  Te  Te137  1  0.16403381  -0.00268563  0.67024166  1
  Te  Te138  1  0.17211839  0.33304184  -0.00253324  1
  Te  Te139  1  0.16648587  0.33641329  0.33033144  1
  Te  Te140  1  0.16638411  0.33682352  0.66968373  1
  Te  Te141  1  0.16893734  0.66615995  0.00023899  1
  Te  Te142  1  0.16630189  0.66057240  0.33465317  1
  Te  Te143  1  0.17193776  0.66630197  0.66595463  1
  Te  Te144  1  0.50639708  -0.00169995  0.00132650  1
  Te  Te145  1  0.50335413  -0.00153178  0.32887026  1
  Te  Te146  1  0.49996907  -0.00332439  0.66760513  1
  Te  Te147  1  0.49792798  0.33642320  -0.00083641  1
  Te  Te148  1  0.50553784  0.33360809  0.32977329  1
  Te  Te149  1  0.50375660  0.33720197  0.66953119  1
  Te  Te150  1  0.50050221  0.66036581  -0.00157531  1
  Te  Te151  1  0.50420370  0.66758990  0.32824244  1
  Te  Te152  1  0.50004889  0.66639176  0.66734541  1
  Te  Te153  1  0.82958374  -0.00288715  0.00016804  1
  Te  Te154  1  0.83011409  -0.00512816  0.33257688  1
  Te  Te155  1  0.83948948  -0.00019225  0.66635701  1
  Te  Te156  1  0.83390963  0.33896392  0.00067809  1
  Te  Te157  1  0.82855314  0.33245863  0.33026832  1
  Te  Te158  1  0.82837031  0.33446234  0.66785357  1
  Te  Te159  1  0.83365765  0.66628737  -0.00098017  1
  Te  Te160  1  0.83008316  0.66821863  0.32818608  1
  Te  Te161  1  0.83352536  0.66586475  0.67563747  1
  Te  Te162  1  -0.00794164  0.16721190  -0.00726118  1
  Te  Te163  1  -0.00161170  0.15930641  0.33447554  1
  Te  Te164  1  -0.00040619  0.15982097  0.67197075  1
  Te  Te165  1  -0.00226825  0.50040963  0.00809371  1
  Te  Te166  1  0.00500956  0.50101550  0.32715816  1
  Te  Te167  1  0.00634410  0.50133707  0.66669161  1
  Te  Te168  1  -0.00739472  0.83286473  0.00041681  1
  Te  Te169  1  -0.00260039  0.83230492  0.33287139  1
  Te  Te170  1  0.00457634  0.83589543  0.66939770  1
  Te  Te171  1  0.33261190  0.17104677  0.00053454  1
  Te  Te172  1  0.33246059  0.16023055  0.33046463  1
  Te  Te173  1  0.33410152  0.16667923  0.67297162  1
  Te  Te174  1  0.33719216  0.49400138  0.00009344  1
  Te  Te175  1  0.32882441  0.50050256  0.33944788  1
  Te  Te176  1  0.33443244  0.50304257  0.66385177  1
  Te  Te177  1  0.33114577  0.83297130  0.00229924  1
  Te  Te178  1  0.33034649  0.83839637  0.33967313  1
  Te  Te179  1  0.33512867  0.83001369  0.66435695  1
  Te  Te180  1  0.67168968  0.15844056  0.00620330  1
  Te  Te181  1  0.66747539  0.16507000  0.32967780  1
  Te  Te182  1  0.66627736  0.17384917  0.66105277  1
  Te  Te183  1  0.66592629  0.50052084  -0.00116240  1
  Te  Te184  1  0.66727779  0.50045272  0.33141629  1
  Te  Te185  1  0.66249919  0.49523900  0.66851293  1
  Te  Te186  1  0.66994016  0.83688706  -0.00139079  1
  Te  Te187  1  0.67139657  0.83345764  0.33208228  1
  Te  Te188  1  0.66006636  0.83464706  0.67256696  1
  Te  Te189  1  -0.00162759  -0.00284508  0.17031553  1
  Te  Te190  1  -0.00011945  0.00094981  0.49457365  1
  Te  Te191  1  -0.00439105  -0.00211769  0.83645849  1
  Te  Te192  1  0.00616336  0.33450237  0.16674718  1
  Te  Te193  1  0.00572420  0.33245837  0.49995207  1
  Te  Te194  1  0.00362799  0.33322611  0.83246756  1
  Te  Te195  1  -0.00160898  0.66690054  0.17091822  1
  Te  Te196  1  -0.00602479  0.66733247  0.49359635  1
  Te  Te197  1  -0.00224584  0.67178724  0.83249441  1
  Te  Te198  1  0.33187858  0.00659755  0.17004200  1
  Te  Te199  1  0.33902070  0.00078189  0.49647215  1
  Te  Te200  1  0.34324880  0.00497822  0.83440526  1
  Te  Te201  1  0.33498804  0.32915788  0.16483643  1
  Te  Te202  1  0.33034637  0.33476488  0.49870814  1
  Te  Te203  1  0.33343746  0.33012174  0.83540057  1
  Te  Te204  1  0.33881488  0.66897231  0.16652381  1
  Te  Te205  1  0.33841561  0.66674389  0.50193844  1
  Te  Te206  1  0.33836105  0.66748564  0.82788909  1
  Te  Te207  1  0.66971160  -0.00034304  0.16785866  1
  Te  Te208  1  0.66097373  0.00265616  0.50039530  1
  Te  Te209  1  0.66851153  0.00186094  0.83189947  1
  Te  Te210  1  0.66399001  0.34094111  0.16500834  1
  Te  Te211  1  0.66647946  0.33081916  0.49523240  1
  Te  Te212  1  0.66511102  0.33132509  0.83483280  1
  Te  Te213  1  0.66692699  0.66131440  0.16778970  1
  Te  Te214  1  0.66387819  0.66687148  0.49555397  1
  Te  Te215  1  0.66577186  0.66570568  0.83146932  1
