# generated using pymatgen
data_AgSbTe2
_symmetry_space_group_name_H-M   'P 1'
_cell_length_a   18.31117196
_cell_length_b   18.31337024
_cell_length_c   18.31309761
_cell_angle_alpha   89.99912218
_cell_angle_beta   90.00212380
_cell_angle_gamma   90.00263027
_symmetry_Int_Tables_number   1
_chemical_formula_structural   AgSbTe2
_chemical_formula_sum   'Ag54 Sb54 Te108'
_cell_volume   6141.10080077
_cell_formula_units_Z   54
loop_
 _symmetry_equiv_pos_site_id
 _symmetry_equiv_pos_as_xyz
  1  'x, y, z'
loop_
 _atom_site_type_symbol
 _atom_site_label
 _atom_site_symmetry_multiplicity
 _atom_site_fract_x
 _atom_site_fract_y
 _atom_site_fract_z
 _atom_site_occupancy
  Ag  Ag0  1  0.16343160  0.67273734  0.16353498  1
  Ag  Ag1  1  0.16677857  0.15751231  0.66521188  1
  Ag  Ag2  1  0.00335743  0.49995424  0.16520529  1
  Ag  Ag3  1  -0.00498386  0.50172857  0.84316922  1
  Ag  Ag4  1  0.84382124  0.66657484  0.16724386  1
  Ag  Ag5  1  0.32621680  -0.00262466  0.65872231  1
  Ag  Ag6  1  -0.00243574  0.17026060  0.17251461  1
  Ag  Ag7  1  0.50413467  0.16563073  -0.00310662  1
  Ag  Ag8  1  0.00394891  0.00077423  0.65900988  1
  Ag  Ag9  1  0.66658646  0.66496715  0.33380284  1
  Ag  Ag10  1  0.49899420  0.16487298  0.66605322  1
  Ag  Ag11  1  0.15924698  0.67082532  0.84154889  1
  Ag  Ag12  1  0.49134886  0.83809910  0.00001665  1
  Ag  Ag13  1  0.49804753  0.50059490  0.33307526  1
  Ag  Ag14  1  0.33079875  0.83370584  0.83723578  1
  Ag  Ag15  1  0.49541509  0.00401631  0.50407625  1
  Ag  Ag16  1  0.00181961  0.32789893  0.32742101  1
  Ag  Ag17  1  0.16423541  -0.00644093  0.17334381  1
  Ag  Ag18  1  0.32560208  0.82788269  0.16723486  1
  Ag  Ag19  1  -0.00130895  0.66072508  0.00518273  1
  Ag  Ag20  1  0.67366255  0.49975909  0.49840413  1
  Ag  Ag21  1  0.00428326  0.00703787  0.33950041  1
  Ag  Ag22  1  0.50219883  0.32737114  0.83191864  1
  Ag  Ag23  1  0.33533451  0.83856284  0.49703763  1
  Ag  Ag24  1  0.32786992  -0.00342455  0.33947195  1
  Ag  Ag25  1  0.49139519  0.66725999  0.16859651  1
  Ag  Ag26  1  0.32575609  0.50664071  0.16929142  1
  Ag  Ag27  1  0.66767223  0.33162116  0.66330220  1
  Ag  Ag28  1  0.66657601  0.83633629  0.50025872  1
  Ag  Ag29  1  0.83458590  -0.00077960  0.82489972  1
  Ag  Ag30  1  0.16304927  0.33342237  0.16521568  1
  Ag  Ag31  1  0.33067636  0.33344119  0.32835214  1
  Ag  Ag32  1  0.67547824  0.16746463  0.17166279  1
  Ag  Ag33  1  0.50181948  0.32477425  0.50228524  1
  Ag  Ag34  1  0.83800276  0.83410547  0.66472814  1
  Ag  Ag35  1  0.00905231  0.82925248  0.16496818  1
  Ag  Ag36  1  0.16399516  0.83935832  0.66921151  1
  Ag  Ag37  1  0.83343164  0.17065090  0.00473607  1
  Ag  Ag38  1  0.83978326  -0.00067396  0.50480694  1
  Ag  Ag39  1  0.83720857  0.16629692  0.33136507  1
  Ag  Ag40  1  -0.00691885  0.16294078  0.49364212  1
  Ag  Ag41  1  0.83636342  0.50391353  0.66885880  1
  Ag  Ag42  1  0.33635629  0.66930102  0.32830094  1
  Ag  Ag43  1  0.83902655  0.49699530  -0.00523715  1
  Ag  Ag44  1  0.00100469  0.33886103  0.00714089  1
  Ag  Ag45  1  0.17062338  0.83253261  0.00319766  1
  Ag  Ag46  1  -0.00702359  0.49555407  0.49680353  1
  Ag  Ag47  1  0.32932853  0.33295497  0.00799039  1
  Ag  Ag48  1  0.16494042  -0.00081156  0.50049855  1
  Ag  Ag49  1  0.49999276  0.00665521  0.82752214  1
  Ag  Ag50  1  0.83281051  0.33631675  0.83443431  1
  Ag  Ag51  1  0.67062371  0.16596318  0.49754928  1
  Ag  Ag52  1  0.83355229  0.66887848  0.49930983  1
  Ag  Ag53  1  0.83919183  0.66086669  0.83373539  1
  Sb  Sb54  1  -0.00273687  0.16925878  0.83390078  1
  Sb  Sb55  1  0.16475289  0.16334331  -0.00081118  1
  Sb  Sb56  1  0.83035328  0.33239594  0.50416144  1
  Sb  Sb57  1  0.66782693  0.00433684  0.66252872  1
  Sb  Sb58  1  0.32899232  0.16620520  0.16778467  1
  Sb  Sb59  1  0.49606918  0.83013474  0.33143334  1
  Sb  Sb60  1  -0.00307135  0.32991526  0.66557863  1
  Sb  Sb61  1  0.33347600  -0.00135434  0.00039779  1
  Sb  Sb62  1  0.33466768  0.15840468  0.49916767  1
  Sb  Sb63  1  0.16853497  0.49873666  0.33035221  1
  Sb  Sb64  1  0.66957354  0.33169193  -0.00258592  1
  Sb  Sb65  1  0.66644524  0.16704436  0.82983559  1
  Sb  Sb66  1  0.50493067  0.49303732  0.66143990  1
  Sb  Sb67  1  0.66680002  -0.00135822  0.33733011  1
  Sb  Sb68  1  -0.00011424  0.83869802  0.49681332  1
  Sb  Sb69  1  0.15943720  0.16428952  0.33601733  1
  Sb  Sb70  1  0.49858776  0.84092117  0.66826021  1
  Sb  Sb71  1  0.00335789  0.82963976  0.83678492  1
  Sb  Sb72  1  0.49331296  -0.00200284  0.16888918  1
  Sb  Sb73  1  0.83565706  0.83354037  -0.00376146  1
  Sb  Sb74  1  0.50367221  0.16958960  0.33465985  1
  Sb  Sb75  1  0.16638296  -0.00578482  0.82877807  1
  Sb  Sb76  1  0.00012367  0.00079323  0.00110628  1
  Sb  Sb77  1  0.67109538  0.66366492  0.65956126  1
  Sb  Sb78  1  0.49431436  0.33492095  0.16732746  1
  Sb  Sb79  1  0.00001628  0.66595387  0.32721432  1
  Sb  Sb80  1  0.67410648  0.66692213  0.00660929  1
  Sb  Sb81  1  0.66632366  0.00092044  0.00103592  1
  Sb  Sb82  1  0.66985458  0.49722174  0.17209775  1
  Sb  Sb83  1  -0.00205203  0.67111595  0.66895843  1
  Sb  Sb84  1  0.15795873  0.50591826  0.00438883  1
  Sb  Sb85  1  0.66655933  0.83434280  0.17179049  1
  Sb  Sb86  1  0.50298974  0.49791988  0.00395500  1
  Sb  Sb87  1  0.16484181  0.33750142  0.83822836  1
  Sb  Sb88  1  0.84121645  0.33428863  0.16160000  1
  Sb  Sb89  1  0.33615133  0.16133844  0.83322722  1
  Sb  Sb90  1  0.33728068  0.32783998  0.66492887  1
  Sb  Sb91  1  0.32908604  0.50434002  0.84013535  1
  Sb  Sb92  1  0.49959407  0.66809229  0.84029949  1
  Sb  Sb93  1  0.84095921  -0.00094760  0.16979988  1
  Sb  Sb94  1  0.83276645  0.16485268  0.66527820  1
  Sb  Sb95  1  0.32655560  0.66638006  0.00836151  1
  Sb  Sb96  1  0.67520852  0.49843750  0.82710525  1
  Sb  Sb97  1  0.66540907  0.83352710  0.82743010  1
  Sb  Sb98  1  0.16166006  0.67390382  0.49685129  1
  Sb  Sb99  1  0.33357032  0.50401616  0.49332827  1
  Sb  Sb100  1  0.83363489  0.49748365  0.33445003  1
  Sb  Sb101  1  0.15978371  0.50209198  0.66655545  1
  Sb  Sb102  1  0.83427801  0.83576557  0.33881121  1
  Sb  Sb103  1  0.16719577  0.83600692  0.32911584  1
  Sb  Sb104  1  0.33192620  0.67478712  0.66116461  1
  Sb  Sb105  1  0.50526121  0.66855373  0.49393300  1
  Sb  Sb106  1  0.66742156  0.33526400  0.33848093  1
  Sb  Sb107  1  0.16804957  0.32678815  0.49638759  1
  Te  Te108  1  0.16045246  0.16718361  0.16429998  1
  Te  Te109  1  0.16179609  0.16060725  0.50539288  1
  Te  Te110  1  0.16660280  0.16724477  0.82687993  1
  Te  Te111  1  0.16624433  0.49861359  0.16611381  1
  Te  Te112  1  0.16000361  0.50119462  0.50105875  1
  Te  Te113  1  0.15984018  0.50828040  0.83300535  1
  Te  Te114  1  0.16637401  0.83347779  0.16530028  1
  Te  Te115  1  0.16919637  0.83835325  0.50585520  1
  Te  Te116  1  0.16980460  0.82984413  0.83305178  1
  Te  Te117  1  0.50220680  0.16593027  0.16256193  1
  Te  Te118  1  0.50200232  0.16545876  0.50042641  1
  Te  Te119  1  0.50107595  0.16639336  0.83443897  1
  Te  Te120  1  0.49989718  0.50379056  0.17044603  1
  Te  Te121  1  0.50230924  0.49956113  0.49614332  1
  Te  Te122  1  0.49993278  0.49549709  0.83333706  1
  Te  Te123  1  0.49910426  0.83057302  0.16120666  1
  Te  Te124  1  0.50036569  0.83734134  0.50102848  1
  Te  Te125  1  0.49690174  0.83501344  0.83771017  1
  Te  Te126  1  0.83609987  0.16501940  0.16557797  1
  Te  Te127  1  0.83316733  0.16551699  0.49923775  1
  Te  Te128  1  0.83148895  0.16622186  0.83724611  1
  Te  Te129  1  0.83663433  0.50521376  0.16484490  1
  Te  Te130  1  0.83413146  0.49926342  0.50110278  1
  Te  Te131  1  0.83597990  0.50065230  0.83248451  1
  Te  Te132  1  0.83355810  0.82841521  0.16510853  1
  Te  Te133  1  0.83323921  0.83429061  0.50367384  1
  Te  Te134  1  0.83329359  0.83591034  0.82809750  1
  Te  Te135  1  0.16687192  -0.00552083  0.00370404  1
  Te  Te136  1  0.16678529  0.00084690  0.33486056  1
  Te  Te137  1  0.16645643  -0.00184514  0.66685773  1
  Te  Te138  1  0.16611697  0.33161173  0.00339010  1
  Te  Te139  1  0.16732496  0.33164512  0.32891885  1
  Te  Te140  1  0.16793609  0.32848002  0.66767679  1
  Te  Te141  1  0.16162219  0.67132401  0.00154789  1
  Te  Te142  1  0.17263635  0.66660125  0.32804118  1
  Te  Te143  1  0.16564244  0.67290599  0.66787537  1
  Te  Te144  1  0.49908862  0.00250289  -0.00217989  1
  Te  Te145  1  0.49413330  0.00040761  0.33864922  1
  Te  Te146  1  0.50001994  0.00442674  0.66599366  1
  Te  Te147  1  0.49911445  0.33059100  -0.00310211  1
  Te  Te148  1  0.49691516  0.33713558  0.33605471  1
  Te  Te149  1  0.50246884  0.32789008  0.66659029  1
  Te  Te150  1  0.50156523  0.66795291  0.00612586  1
  Te  Te151  1  0.49763529  0.66379709  0.32965026  1
  Te  Te152  1  0.50071259  0.66546738  0.66940267  1
  Te  Te153  1  0.83335621  0.00344445  -0.00547996  1
  Te  Te154  1  0.83689225  0.00418820  0.33795484  1
  Te  Te155  1  0.83385760  -0.00138245  0.66522733  1
  Te  Te156  1  0.83607465  0.33222666  -0.00437125  1
  Te  Te157  1  0.83872091  0.32806112  0.33351103  1
  Te  Te158  1  0.83091110  0.33570201  0.67313296  1
  Te  Te159  1  0.83864048  0.66732592  0.00029753  1
  Te  Te160  1  0.83187605  0.66631618  0.33377765  1
  Te  Te161  1  0.83385638  0.66637708  0.66482899  1
  Te  Te162  1  -0.00306962  0.17071251  0.00263078  1
  Te  Te163  1  -0.00194129  0.16681349  0.33322617  1
  Te  Te164  1  0.00187517  0.16247247  0.66346115  1
  Te  Te165  1  -0.00305490  0.49911509  0.00283523  1
  Te  Te166  1  0.00058877  0.49549785  0.33133003  1
  Te  Te167  1  -0.00479434  0.49888894  0.66156393  1
  Te  Te168  1  0.00268909  0.83063643  0.00493657  1
  Te  Te169  1  -0.00055816  0.83894676  0.32475867  1
  Te  Te170  1  -0.00073438  0.83845798  0.66734793  1
  Te  Te171  1  0.33681652  0.17226619  0.00009058  1
  Te  Te172  1  0.33454556  0.16957145  0.33276452  1
  Te  Te173  1  0.33462262  0.16033175  0.66622512  1
  Te  Te174  1  0.33472021  0.49349990  0.00655890  1
  Te  Te175  1  0.33675673  0.49826381  0.32999414  1
  Te  Te176  1  0.33162660  0.50104720  0.66731327  1
  Te  Te177  1  0.33298838  0.83204967  0.00238890  1
  Te  Te178  1  0.33334269  0.83531310  0.33243239  1
  Te  Te179  1  0.33174505  0.83822862  0.66442100  1
  Te  Te180  1  0.66779961  0.16734806  0.00418215  1
  Te  Te181  1  0.67260341  0.16657224  0.33540111  1
  Te  Te182  1  0.66263048  0.17099270  0.66068498  1
  Te  Te183  1  0.67662302  0.49965878  0.00070847  1
  Te  Te184  1  0.66286875  0.50277598  0.33856318  1
  Te  Te185  1  0.67236191  0.49517161  0.65906961  1
  Te  Te186  1  0.65956008  0.83329513  0.00087445  1
  Te  Te187  1  0.66556405  0.82740889  0.34022946  1
  Te  Te188  1  0.67128131  0.83183836  0.65964229  1
  Te  Te189  1  0.00428852  0.00154555  0.16787908  1
  Te  Te190  1  -0.00029451  -0.00008132  0.49910005  1
  Te  Te191  1  -0.00441384  0.00035256  0.82918494  1
  Te  Te192  1  0.00162992  0.33369005  0.16691963  1
  Te  Te193  1  0.00163606  0.33203014  0.49667484  1
  Te  Te194  1  -0.00269564  0.33823726  0.83639153  1
  Te  Te195  1  0.00192011  0.66526312  0.16666153  1
  Te  Te196  1  -0.00559773  0.66311119  0.49729126  1
  Te  Te197  1  -0.00127294  0.66342355  0.83509677  1
  Te  Te198  1  0.32688616  -0.00449331  0.17067789  1
  Te  Te199  1  0.33270269  -0.00229205  0.49974600  1
  Te  Te200  1  0.33658540  -0.00551480  0.83123167  1
  Te  Te201  1  0.32862854  0.33361605  0.16745254  1
  Te  Te202  1  0.33789538  0.33566826  0.49588163  1
  Te  Te203  1  0.33568590  0.33526126  0.83490914  1
  Te  Te204  1  0.33131940  0.66675301  0.16811119  1
  Te  Te205  1  0.33211032  0.67345221  0.49219243  1
  Te  Te206  1  0.33021926  0.67218386  0.83315982  1
  Te  Te207  1  0.66687099  0.00625266  0.16966356  1
  Te  Te208  1  0.66695609  0.00060775  0.49878018  1
  Te  Te209  1  0.66625593  -0.00066122  0.83265084  1
  Te  Te210  1  0.66698626  0.32741609  0.16819703  1
  Te  Te211  1  0.66306258  0.33156227  0.50238318  1
  Te  Te212  1  0.66498549  0.33309473  0.82816491  1
  Te  Te213  1  0.66723286  0.66677388  0.17363604  1
  Te  Te214  1  0.67148646  0.66591836  0.49507068  1
  Te  Te215  1  0.67373009  0.66652797  0.83396030  1
