# generated using pymatgen
data_AgSbTe2
_symmetry_space_group_name_H-M   'P 1'
_cell_length_a   18.34519062
_cell_length_b   18.34935540
_cell_length_c   18.35197480
_cell_angle_alpha   90.00161926
_cell_angle_beta   90.00552621
_cell_angle_gamma   90.00464927
_symmetry_Int_Tables_number   1
_chemical_formula_structural   AgSbTe2
_chemical_formula_sum   'Ag54 Sb54 Te108'
_cell_volume   6177.68616636
_cell_formula_units_Z   54
loop_
 _symmetry_equiv_pos_site_id
 _symmetry_equiv_pos_as_xyz
  1  'x, y, z'
loop_
 _atom_site_type_symbol
 _atom_site_label
 _atom_site_symmetry_multiplicity
 _atom_site_fract_x
 _atom_site_fract_y
 _atom_site_fract_z
 _atom_site_occupancy
  Ag  Ag0  1  0.66970729  0.50878187  0.84440141  1
  Ag  Ag1  1  0.83196287  -0.00923488  0.15387718  1
  Ag  Ag2  1  0.33794921  0.83771734  0.83240550  1
  Ag  Ag3  1  0.33227885  0.67335228  -0.00823322  1
  Ag  Ag4  1  0.32620000  0.16326571  0.50943030  1
  Ag  Ag5  1  0.83564956  0.82898067  0.66574523  1
  Ag  Ag6  1  0.83599286  0.51107421  0.66709883  1
  Ag  Ag7  1  0.67141812  0.67014419  0.33093835  1
  Ag  Ag8  1  0.82970043  0.83106699  0.33823899  1
  Ag  Ag9  1  -0.01455556  0.00117582  -0.00124753  1
  Ag  Ag10  1  0.67076267  0.83118174  0.49362370  1
  Ag  Ag11  1  0.33780493  0.32536640  -0.00611121  1
  Ag  Ag12  1  0.15719862  0.00014659  0.50487066  1
  Ag  Ag13  1  0.83871840  -0.01027288  0.50164425  1
  Ag  Ag14  1  0.51193695  0.83358302  0.33478700  1
  Ag  Ag15  1  0.67111408  0.82828314  0.17027378  1
  Ag  Ag16  1  0.33360693  0.16338186  0.15191415  1
  Ag  Ag17  1  0.83311476  0.67435891  0.82780698  1
  Ag  Ag18  1  -0.01176776  0.67532300  0.34629572  1
  Ag  Ag19  1  0.15406448  0.66999543  0.51094476  1
  Ag  Ag20  1  0.33165181  0.00030105  0.33875185  1
  Ag  Ag21  1  0.48988334  0.16406341  0.66409540  1
  Ag  Ag22  1  0.66586381  0.34173770  0.33403602  1
  Ag  Ag23  1  -0.00714342  0.51261934  0.50334670  1
  Ag  Ag24  1  0.82866187  -0.00888953  0.84218007  1
  Ag  Ag25  1  0.67349738  -0.00221865  -0.00236781  1
  Ag  Ag26  1  0.66766100  0.51020485  0.16087406  1
  Ag  Ag27  1  0.17628957  0.16343848  -0.00660191  1
  Ag  Ag28  1  0.33318877  0.15852324  0.82914147  1
  Ag  Ag29  1  0.00671304  0.67247120  0.66242666  1
  Ag  Ag30  1  0.33449817  0.00335418  -0.00334272  1
  Ag  Ag31  1  0.83617751  0.67237036  0.50566146  1
  Ag  Ag32  1  -0.00201639  -0.00540082  0.34530059  1
  Ag  Ag33  1  0.50028625  0.00332493  0.50589926  1
  Ag  Ag34  1  -0.00056630  -0.00625268  0.66213932  1
  Ag  Ag35  1  0.82981067  0.83390898  -0.00376640  1
  Ag  Ag36  1  0.17098290  0.32244412  0.50419605  1
  Ag  Ag37  1  0.00706901  0.15451869  0.50197828  1
  Ag  Ag38  1  0.49978300  -0.00031768  0.83122779  1
  Ag  Ag39  1  0.66417648  0.34376716  0.00133078  1
  Ag  Ag40  1  0.32205547  0.66618974  0.67178548  1
  Ag  Ag41  1  0.16122168  0.82712333  0.66627906  1
  Ag  Ag42  1  0.51113000  0.66750575  0.16489748  1
  Ag  Ag43  1  0.51064661  0.50196497  -0.00098690  1
  Ag  Ag44  1  0.16189021  0.51451062  0.66437373  1
  Ag  Ag45  1  0.49819022  0.32700438  0.50166232  1
  Ag  Ag46  1  0.17192187  0.16327091  0.66508187  1
  Ag  Ag47  1  0.67150851  0.50799785  0.49923528  1
  Ag  Ag48  1  0.16446560  0.66853335  0.82111508  1
  Ag  Ag49  1  0.67212760  0.83110231  0.83475362  1
  Ag  Ag50  1  0.83464178  0.14915945  -0.00093226  1
  Ag  Ag51  1  0.82771934  0.50646414  -0.00636504  1
  Ag  Ag52  1  0.82796742  0.67363389  0.17042138  1
  Ag  Ag53  1  0.33118946  0.32752621  0.66770302  1
  Sb  Sb54  1  0.66826729  0.66839789  0.00527359  1
  Sb  Sb55  1  0.17132627  0.33029142  0.16886411  1
  Sb  Sb56  1  0.33986438  0.83718592  0.16167267  1
  Sb  Sb57  1  0.50232619  0.33656868  0.16826914  1
  Sb  Sb58  1  0.83619714  0.16232660  0.66962151  1
  Sb  Sb59  1  -0.00953940  0.83281180  0.50307955  1
  Sb  Sb60  1  0.16231340  0.83507137  0.34431921  1
  Sb  Sb61  1  -0.00246253  0.67140887  -0.00332432  1
  Sb  Sb62  1  0.33842710  0.32549473  0.33759400  1
  Sb  Sb63  1  0.16684307  -0.00473734  0.82762823  1
  Sb  Sb64  1  0.33771680  0.50365828  0.83203127  1
  Sb  Sb65  1  -0.00631748  0.50405116  0.82616311  1
  Sb  Sb66  1  0.16559320  0.49692637  -0.00749792  1
  Sb  Sb67  1  0.00496781  0.16252373  0.82887519  1
  Sb  Sb68  1  -0.01061091  0.83472481  0.16793701  1
  Sb  Sb69  1  0.50329615  0.67162945  0.83665192  1
  Sb  Sb70  1  0.49846692  0.16746973  -0.00424262  1
  Sb  Sb71  1  0.66901351  -0.00647377  0.33149528  1
  Sb  Sb72  1  0.82922639  0.33395729  0.83418777  1
  Sb  Sb73  1  0.16736121  0.16481288  0.33931197  1
  Sb  Sb74  1  0.16499258  0.83852596  -0.00827613  1
  Sb  Sb75  1  0.33409129  0.67425644  0.33525605  1
  Sb  Sb76  1  0.50348866  0.66810944  0.49849832  1
  Sb  Sb77  1  0.66430243  0.16290046  0.83599061  1
  Sb  Sb78  1  -0.00613008  0.83484345  0.83013400  1
  Sb  Sb79  1  0.50331458  0.50468841  0.33161653  1
  Sb  Sb80  1  0.66785611  0.16321620  0.49999148  1
  Sb  Sb81  1  0.33388878  0.49671507  0.50275799  1
  Sb  Sb82  1  0.17123563  0.33513573  0.82576478  1
  Sb  Sb83  1  0.66221781  0.33622691  0.66706066  1
  Sb  Sb84  1  0.16445828  0.50225373  0.34482878  1
  Sb  Sb85  1  0.67203907  -0.00243293  0.66985813  1
  Sb  Sb86  1  0.50137017  0.83696379  0.66530933  1
  Sb  Sb87  1  0.82915657  0.51120656  0.33766167  1
  Sb  Sb88  1  -0.00284074  0.32770337  0.00019658  1
  Sb  Sb89  1  0.50080035  0.49939850  0.66920440  1
  Sb  Sb90  1  0.67097443  0.66760210  0.66296170  1
  Sb  Sb91  1  0.00261252  0.16258887  0.16890442  1
  Sb  Sb92  1  0.83113293  0.33618238  0.50081668  1
  Sb  Sb93  1  0.50336627  -0.00390379  0.16491871  1
  Sb  Sb94  1  0.83265754  0.15643034  0.33022887  1
  Sb  Sb95  1  -0.01058813  0.50459002  0.17195563  1
  Sb  Sb96  1  0.00630771  0.33465912  0.66240899  1
  Sb  Sb97  1  0.49982167  0.15976788  0.33929435  1
  Sb  Sb98  1  0.33942652  0.49810345  0.16082234  1
  Sb  Sb99  1  -0.00552120  0.33227726  0.34030230  1
  Sb  Sb100  1  0.66412879  0.16375501  0.16420592  1
  Sb  Sb101  1  0.50681752  0.83101234  0.00170259  1
  Sb  Sb102  1  0.82946187  0.33449797  0.16564597  1
  Sb  Sb103  1  0.32835397  0.00153961  0.66587043  1
  Sb  Sb104  1  0.16480404  -0.00114334  0.16740135  1
  Sb  Sb105  1  0.49912024  0.32894484  0.83109249  1
  Sb  Sb106  1  0.16500721  0.66656662  0.16696123  1
  Sb  Sb107  1  0.33733368  0.83949201  0.50521470  1
  Te  Te108  1  0.17260062  0.16589832  0.15983918  1
  Te  Te109  1  0.16748050  0.16199088  0.50093517  1
  Te  Te110  1  0.17114419  0.16699610  0.83302344  1
  Te  Te111  1  0.16484823  0.49868857  0.16605921  1
  Te  Te112  1  0.16658942  0.50733429  0.50668778  1
  Te  Te113  1  0.16603716  0.50602100  0.82588973  1
  Te  Te114  1  0.16842771  0.83262181  0.16671621  1
  Te  Te115  1  0.17201082  0.83543390  0.50716569  1
  Te  Te116  1  0.17303732  0.82862610  0.82800136  1
  Te  Te117  1  0.49364105  0.16562906  0.16816666  1
  Te  Te118  1  0.50061744  0.16532849  0.50344940  1
  Te  Te119  1  0.49616419  0.16101126  0.82817681  1
  Te  Te120  1  0.50607326  0.50515154  0.16152005  1
  Te  Te121  1  0.50533801  0.49742405  0.50052347  1
  Te  Te122  1  0.50766200  0.49988109  0.83769830  1
  Te  Te123  1  0.50658112  0.82872366  0.17046811  1
  Te  Te124  1  0.50622722  0.83630183  0.49749413  1
  Te  Te125  1  0.50240032  0.83918773  0.83338498  1
  Te  Te126  1  0.83327626  0.16289177  0.16058935  1
  Te  Te127  1  0.83724899  0.16660280  0.49967953  1
  Te  Te128  1  0.83363901  0.16351824  0.83827553  1
  Te  Te129  1  0.82637250  0.50349272  0.16413075  1
  Te  Te130  1  0.83284915  0.50074311  0.50353007  1
  Te  Te131  1  0.82895603  0.50035324  0.83075009  1
  Te  Te132  1  0.82961747  0.83275019  0.16506295  1
  Te  Te133  1  0.82824179  0.83149722  0.50337029  1
  Te  Te134  1  0.83216949  0.83392580  0.83107894  1
  Te  Te135  1  0.17487040  0.00426232  -0.00058225  1
  Te  Te136  1  0.16415286  -0.00079780  0.33779866  1
  Te  Te137  1  0.16127639  0.00293105  0.66448492  1
  Te  Te138  1  0.16974197  0.32794529  -0.00033283  1
  Te  Te139  1  0.16712550  0.33396636  0.34209308  1
  Te  Te140  1  0.17187459  0.32313232  0.66199786  1
  Te  Te141  1  0.16971677  0.66674126  -0.00193829  1
  Te  Te142  1  0.16323788  0.66814125  0.33691273  1
  Te  Te143  1  0.16601885  0.67069589  0.66603065  1
  Te  Te144  1  0.49444547  -0.00059670  -0.00265778  1
  Te  Te145  1  0.49882380  -0.00575525  0.33269014  1
  Te  Te146  1  0.50279599  0.00255339  0.66795538  1
  Te  Te147  1  0.50047476  0.33697064  0.00049605  1
  Te  Te148  1  0.50473510  0.33364260  0.33865813  1
  Te  Te149  1  0.49451151  0.33103378  0.66261282  1
  Te  Te150  1  0.49273093  0.66430765  0.00293511  1
  Te  Te151  1  0.50222863  0.67207379  0.32909366  1
  Te  Te152  1  0.48831889  0.66587570  0.66742064  1
  Te  Te153  1  0.82936106  -0.00642113  -0.00168636  1
  Te  Te154  1  0.83553211  -0.00548288  0.34246369  1
  Te  Te155  1  0.83830659  -0.00069977  0.66059646  1
  Te  Te156  1  0.82942754  0.34418684  0.00074317  1
  Te  Te157  1  0.82630073  0.33081473  0.33252301  1
  Te  Te158  1  0.83339143  0.33524088  0.66712267  1
  Te  Te159  1  0.83616593  0.66786027  -0.00425462  1
  Te  Te160  1  0.83160673  0.67087269  0.33402229  1
  Te  Te161  1  0.83196959  0.66793046  0.66671350  1
  Te  Te162  1  -0.00264896  0.16295461  0.00021624  1
  Te  Te163  1  -0.00011616  0.16036622  0.33897914  1
  Te  Te164  1  0.00308600  0.16416836  0.66185394  1
  Te  Te165  1  -0.00456688  0.49867844  0.00104163  1
  Te  Te166  1  -0.00239443  0.50324233  0.34135570  1
  Te  Te167  1  -0.00021026  0.50116176  0.66188293  1
  Te  Te168  1  -0.00358452  0.84002451  0.00005306  1
  Te  Te169  1  -0.00407294  0.83469890  0.33240133  1
  Te  Te170  1  0.00036359  0.83340703  0.66780921  1
  Te  Te171  1  0.33614774  0.16608009  -0.00585776  1
  Te  Te172  1  0.33358372  0.15960054  0.33894039  1
  Te  Te173  1  0.33236768  0.16541060  0.66745309  1
  Te  Te174  1  0.33313330  0.49650018  -0.00124592  1
  Te  Te175  1  0.33332338  0.49933839  0.33005782  1
  Te  Te176  1  0.32962567  0.49694804  0.66728781  1
  Te  Te177  1  0.33287020  0.83313515  -0.00486473  1
  Te  Te178  1  0.33372261  0.84001173  0.33109811  1
  Te  Te179  1  0.33416665  0.83026793  0.67134104  1
  Te  Te180  1  0.67025075  0.16282500  0.00098061  1
  Te  Te181  1  0.66662781  0.17595598  0.33136848  1
  Te  Te182  1  0.66303531  0.16878851  0.66753215  1
  Te  Te183  1  0.66785491  0.50366828  0.00132247  1
  Te  Te184  1  0.66591531  0.50259202  0.33692845  1
  Te  Te185  1  0.66954539  0.49995157  0.66070926  1
  Te  Te186  1  0.66931504  0.83499735  -0.00288394  1
  Te  Te187  1  0.67000136  0.83273669  0.33252421  1
  Te  Te188  1  0.67095664  0.83302511  0.67145486  1
  Te  Te189  1  -0.00519470  0.00083589  0.16068109  1
  Te  Te190  1  0.00011778  -0.00355276  0.50204986  1
  Te  Te191  1  -0.00455375  0.00092477  0.83767552  1
  Te  Te192  1  0.00185856  0.33364654  0.17084309  1
  Te  Te193  1  0.00618571  0.33168023  0.49921675  1
  Te  Te194  1  0.00123428  0.33373508  0.83282005  1
  Te  Te195  1  -0.00596382  0.66673393  0.17034388  1
  Te  Te196  1  -0.00268172  0.66918498  0.50214044  1
  Te  Te197  1  -0.00063267  0.66704340  0.82863978  1
  Te  Te198  1  0.33319916  0.00365879  0.16507078  1
  Te  Te199  1  0.34064308  0.00312056  0.49925812  1
  Te  Te200  1  0.33239109  -0.00117495  0.83277290  1
  Te  Te201  1  0.33507039  0.32625933  0.16412309  1
  Te  Te202  1  0.33421273  0.32931872  0.50108440  1
  Te  Te203  1  0.33417548  0.33063845  0.83350999  1
  Te  Te204  1  0.33424834  0.66693986  0.16476491  1
  Te  Te205  1  0.33335669  0.66659869  0.50147746  1
  Te  Te206  1  0.33552695  0.66817262  0.83327131  1
  Te  Te207  1  0.67083827  -0.00359547  0.16272180  1
  Te  Te208  1  0.66309626  -0.00348107  0.49985877  1
  Te  Te209  1  0.66767362  -0.00220455  0.83579123  1
  Te  Te210  1  0.66561306  0.33527135  0.16307213  1
  Te  Te211  1  0.66315472  0.33287755  0.49891688  1
  Te  Te212  1  0.66486770  0.33800069  0.84040478  1
  Te  Te213  1  0.66890535  0.66846971  0.16843444  1
  Te  Te214  1  0.66792641  0.66840999  0.49579138  1
  Te  Te215  1  0.67030132  0.66810166  0.83123744  1
