# generated using pymatgen
data_AgSbTe2
_symmetry_space_group_name_H-M   'P 1'
_cell_length_a   18.32290492
_cell_length_b   18.32263581
_cell_length_c   18.32205122
_cell_angle_alpha   89.99952460
_cell_angle_beta   90.00142424
_cell_angle_gamma   90.00005373
_symmetry_Int_Tables_number   1
_chemical_formula_structural   AgSbTe2
_chemical_formula_sum   'Ag54 Sb54 Te108'
_cell_volume   6151.15074379
_cell_formula_units_Z   54
loop_
 _symmetry_equiv_pos_site_id
 _symmetry_equiv_pos_as_xyz
  1  'x, y, z'
loop_
 _atom_site_type_symbol
 _atom_site_label
 _atom_site_symmetry_multiplicity
 _atom_site_fract_x
 _atom_site_fract_y
 _atom_site_fract_z
 _atom_site_occupancy
  Ag  Ag0  1  0.49409039  0.83544456  0.66979336  1
  Ag  Ag1  1  0.16270974  0.32960694  0.17588178  1
  Ag  Ag2  1  0.82938185  0.66433972  0.16522326  1
  Ag  Ag3  1  0.33832527  0.66606608  0.33635631  1
  Ag  Ag4  1  0.67055665  0.66967021  -0.00835056  1
  Ag  Ag5  1  0.82890815  0.50546964  -0.00851709  1
  Ag  Ag6  1  0.83039652  0.83212122  0.67188801  1
  Ag  Ag7  1  -0.00708391  0.00027578  -0.00307619  1
  Ag  Ag8  1  0.50182326  0.00376652  0.50512212  1
  Ag  Ag9  1  0.00096461  0.16811615  0.16699462  1
  Ag  Ag10  1  -0.00162026  0.66785728  0.67005936  1
  Ag  Ag11  1  0.83109639  0.83346548  -0.00642081  1
  Ag  Ag12  1  0.49947714  0.00094585  0.16489649  1
  Ag  Ag13  1  0.82938377  0.50702716  0.67167690  1
  Ag  Ag14  1  0.67111721  0.15774540  0.83052571  1
  Ag  Ag15  1  0.50127609  0.67483124  0.82894550  1
  Ag  Ag16  1  0.83099443  0.83690095  0.33348511  1
  Ag  Ag17  1  0.33063418  0.16549771  0.17048423  1
  Ag  Ag18  1  0.66337898  0.66443610  0.33196295  1
  Ag  Ag19  1  0.00495492  0.32883846  0.33041572  1
  Ag  Ag20  1  0.50157378  0.49932933  0.33585317  1
  Ag  Ag21  1  0.33341867  0.67011403  0.67270928  1
  Ag  Ag22  1  0.16601795  0.33122994  0.82911678  1
  Ag  Ag23  1  0.83734250  0.33337911  0.16546896  1
  Ag  Ag24  1  0.33916419  0.82995550  0.82773071  1
  Ag  Ag25  1  0.16554721  0.83374867  -0.01361473  1
  Ag  Ag26  1  0.17435539  0.66855512  0.82810013  1
  Ag  Ag27  1  0.33358230  0.83533955  0.16620777  1
  Ag  Ag28  1  0.16830929  0.16751776  0.66740888  1
  Ag  Ag29  1  0.82955455  0.00035134  0.50904268  1
  Ag  Ag30  1  0.33386849  0.83271059  0.51046405  1
  Ag  Ag31  1  0.33664344  0.50954710  0.83128591  1
  Ag  Ag32  1  0.50615068  -0.00483228  0.82941862  1
  Ag  Ag33  1  0.83361667  0.16553533  0.33491806  1
  Ag  Ag34  1  -0.00450630  0.16612144  0.83332490  1
  Ag  Ag35  1  0.66512439  0.50172377  0.50302704  1
  Ag  Ag36  1  0.66932255  0.50345855  0.16512615  1
  Ag  Ag37  1  0.66640407  0.66596312  0.67560938  1
  Ag  Ag38  1  0.32979841  0.32907691  0.33414091  1
  Ag  Ag39  1  0.49688497  0.16843820  0.33990297  1
  Ag  Ag40  1  0.67076620  -0.00786572  -0.00594342  1
  Ag  Ag41  1  0.49849672  0.15997137  0.66694541  1
  Ag  Ag42  1  0.83424767  0.32631075  0.83306927  1
  Ag  Ag43  1  0.33342156  0.16593439  0.82920741  1
  Ag  Ag44  1  0.16569114  0.50564548  0.67037895  1
  Ag  Ag45  1  0.17144714  0.00608320  0.50296572  1
  Ag  Ag46  1  0.82610559  0.00334335  0.83001823  1
  Ag  Ag47  1  0.66447363  0.83166610  0.83193930  1
  Ag  Ag48  1  0.83223410  0.16366773  0.67381177  1
  Ag  Ag49  1  0.17215013  0.32664681  0.49982517  1
  Ag  Ag50  1  0.49471071  0.32737675  0.49848390  1
  Ag  Ag51  1  0.66671807  0.50865701  0.83229692  1
  Ag  Ag52  1  0.16993752  0.17191477  0.33749004  1
  Ag  Ag53  1  0.17725148  0.82658378  0.67020444  1
  Sb  Sb54  1  0.82587236  0.49812738  0.33507182  1
  Sb  Sb55  1  -0.00128469  0.00706348  0.32993593  1
  Sb  Sb56  1  0.16579672  0.16213243  -0.00238652  1
  Sb  Sb57  1  -0.00643688  0.49350623  0.16692671  1
  Sb  Sb58  1  0.49996275  0.32905735  0.17501833  1
  Sb  Sb59  1  0.66650458  -0.00321762  0.33010017  1
  Sb  Sb60  1  0.66380034  0.83090501  0.50710591  1
  Sb  Sb61  1  -0.00165859  0.66295161  0.33593576  1
  Sb  Sb62  1  0.82861951  0.66834430  0.83294455  1
  Sb  Sb63  1  0.49965661  0.33028104  0.82607261  1
  Sb  Sb64  1  0.33517396  -0.00510422  0.66720740  1
  Sb  Sb65  1  0.66707118  0.16960240  0.16343485  1
  Sb  Sb66  1  0.33726245  0.50311938  0.50473172  1
  Sb  Sb67  1  0.16783826  0.00132231  0.82885478  1
  Sb  Sb68  1  0.50054404  0.66858476  0.50477570  1
  Sb  Sb69  1  0.16211569  0.50428999  -0.00884425  1
  Sb  Sb70  1  0.00297092  0.83519904  0.50255405  1
  Sb  Sb71  1  0.83341439  0.32902501  0.50120638  1
  Sb  Sb72  1  0.33776124  0.66930370  -0.00515221  1
  Sb  Sb73  1  0.50276571  0.83453175  -0.00862294  1
  Sb  Sb74  1  0.82993270  0.67143129  0.50144881  1
  Sb  Sb75  1  0.00230772  0.33346886  0.66538394  1
  Sb  Sb76  1  -0.00118295  0.32829394  0.00133398  1
  Sb  Sb77  1  -0.00425375  0.49636847  0.83147054  1
  Sb  Sb78  1  0.66777841  0.33863623  0.66808068  1
  Sb  Sb79  1  0.66477938  0.82932764  0.16143811  1
  Sb  Sb80  1  -0.00376873  0.49780783  0.50255529  1
  Sb  Sb81  1  0.83342281  0.16315782  -0.00464221  1
  Sb  Sb82  1  0.00204433  0.16653110  0.50126818  1
  Sb  Sb83  1  0.17391851  0.49258704  0.34058641  1
  Sb  Sb84  1  0.16463691  0.66344580  0.16220031  1
  Sb  Sb85  1  0.17058749  0.00529865  0.16896927  1
  Sb  Sb86  1  0.66466439  0.16818279  0.50676683  1
  Sb  Sb87  1  0.33684670  0.49892692  0.16527413  1
  Sb  Sb88  1  0.50421844  0.67079774  0.16504174  1
  Sb  Sb89  1  0.50716345  0.50254217  0.00053809  1
  Sb  Sb90  1  0.66517534  0.33596308  0.33342395  1
  Sb  Sb91  1  0.66642035  -0.00628448  0.67356423  1
  Sb  Sb92  1  0.33336688  0.16251083  0.50136262  1
  Sb  Sb93  1  0.33085341  0.33271092  0.00111670  1
  Sb  Sb94  1  0.67056702  0.33537642  -0.00249570  1
  Sb  Sb95  1  -0.00161814  0.83735133  0.83158926  1
  Sb  Sb96  1  -0.00668108  0.67185973  -0.00728602  1
  Sb  Sb97  1  0.33125974  0.33570610  0.66374390  1
  Sb  Sb98  1  0.16724074  0.83713043  0.33865308  1
  Sb  Sb99  1  0.50045592  0.16427375  -0.00456795  1
  Sb  Sb100  1  0.50192853  0.83417342  0.33790471  1
  Sb  Sb101  1  0.50138868  0.50239791  0.66462238  1
  Sb  Sb102  1  0.33409906  -0.00246807  -0.00228713  1
  Sb  Sb103  1  0.82929230  0.00144925  0.16261764  1
  Sb  Sb104  1  0.16988878  0.66608333  0.50822459  1
  Sb  Sb105  1  0.00170706  0.83817954  0.16507059  1
  Sb  Sb106  1  -0.00222713  -0.00124569  0.67108562  1
  Sb  Sb107  1  0.33494455  0.00197133  0.33402019  1
  Te  Te108  1  0.16883878  0.16987913  0.16589084  1
  Te  Te109  1  0.16736420  0.16643040  0.50156427  1
  Te  Te110  1  0.17069609  0.16642605  0.83093624  1
  Te  Te111  1  0.16673963  0.49271667  0.16406183  1
  Te  Te112  1  0.16678227  0.49434871  0.50893219  1
  Te  Te113  1  0.16674037  0.49627974  0.82947448  1
  Te  Te114  1  0.17140606  0.83328798  0.16905457  1
  Te  Te115  1  0.17125495  0.83762788  0.50534148  1
  Te  Te116  1  0.16559441  0.83539792  0.82964807  1
  Te  Te117  1  0.49825055  0.16274394  0.16977617  1
  Te  Te118  1  0.49977120  0.16483111  0.50154761  1
  Te  Te119  1  0.49685881  0.16645356  0.82841574  1
  Te  Te120  1  0.50545216  0.49987064  0.17104408  1
  Te  Te121  1  0.50382246  0.49810078  0.49700936  1
  Te  Te122  1  0.50100155  0.49874161  0.83289415  1
  Te  Te123  1  0.49503448  0.83847981  0.16861446  1
  Te  Te124  1  0.49653659  0.83840683  0.50604323  1
  Te  Te125  1  0.49995022  0.83414539  0.83000489  1
  Te  Te126  1  0.83429721  0.16986477  0.16912080  1
  Te  Te127  1  0.83247423  0.16241303  0.49951087  1
  Te  Te128  1  0.83220259  0.16703636  0.83365272  1
  Te  Te129  1  0.82926543  0.49877375  0.16858950  1
  Te  Te130  1  0.82719416  0.49866682  0.50725560  1
  Te  Te131  1  0.83036090  0.50073821  0.83116217  1
  Te  Te132  1  0.83306046  0.83211015  0.16685149  1
  Te  Te133  1  0.83256993  0.83893211  0.50233759  1
  Te  Te134  1  0.83237960  0.83462958  0.83302906  1
  Te  Te135  1  0.16331602  -0.00783898  0.00064869  1
  Te  Te136  1  0.16621024  0.00724253  0.34020924  1
  Te  Te137  1  0.16409203  0.00378404  0.66182399  1
  Te  Te138  1  0.16552958  0.33505159  -0.00770096  1
  Te  Te139  1  0.16933904  0.33087546  0.33416691  1
  Te  Te140  1  0.16595729  0.32915833  0.66839752  1
  Te  Te141  1  0.16489232  0.67289706  -0.00552766  1
  Te  Te142  1  0.16941326  0.66515123  0.33303159  1
  Te  Te143  1  0.17137212  0.66745657  0.66900767  1
  Te  Te144  1  0.50514403  -0.00031556  -0.00325486  1
  Te  Te145  1  0.50065214  0.00438070  0.33752362  1
  Te  Te146  1  0.50093800  0.00038654  0.66729998  1
  Te  Te147  1  0.50008553  0.33387322  0.00156602  1
  Te  Te148  1  0.49698422  0.32960886  0.33805725  1
  Te  Te149  1  0.49885424  0.32618352  0.65822542  1
  Te  Te150  1  0.50885724  0.66748203  -0.00663586  1
  Te  Te151  1  0.49947128  0.66613344  0.33313936  1
  Te  Te152  1  0.50046620  0.66911893  0.66959131  1
  Te  Te153  1  0.83147509  -0.00346961  -0.00332002  1
  Te  Te154  1  0.83287988  0.00133380  0.33295754  1
  Te  Te155  1  0.83322095  0.00125053  0.66886721  1
  Te  Te156  1  0.83482163  0.33792430  -0.00112767  1
  Te  Te157  1  0.83534176  0.32933164  0.33272917  1
  Te  Te158  1  0.83577271  0.32941399  0.67035590  1
  Te  Te159  1  0.83074055  0.66942677  0.00265703  1
  Te  Te160  1  0.83335159  0.66795127  0.33067954  1
  Te  Te161  1  0.83109874  0.66703436  0.66635055  1
  Te  Te162  1  -0.00010044  0.16144587  -0.00024789  1
  Te  Te163  1  -0.00079856  0.17031798  0.33108353  1
  Te  Te164  1  -0.00100091  0.16622772  0.67159922  1
  Te  Te165  1  -0.01073747  0.50187592  -0.00011946  1
  Te  Te166  1  0.00208093  0.49317262  0.33435457  1
  Te  Te167  1  -0.00038308  0.50478005  0.66683504  1
  Te  Te168  1  -0.00233873  0.83884916  0.00015194  1
  Te  Te169  1  -0.00781591  0.83196047  0.33308623  1
  Te  Te170  1  -0.00566897  0.82886733  0.66623108  1
  Te  Te171  1  0.33299330  0.16547278  0.00340552  1
  Te  Te172  1  0.33319417  0.16797029  0.33355587  1
  Te  Te173  1  0.33185689  0.16819770  0.66904349  1
  Te  Te174  1  0.33263111  0.50076922  -0.00857707  1
  Te  Te175  1  0.33979016  0.50318534  0.33264981  1
  Te  Te176  1  0.33219839  0.50534780  0.67215082  1
  Te  Te177  1  0.32900463  0.83272045  0.00125154  1
  Te  Te178  1  0.33328442  0.82975446  0.32920076  1
  Te  Te179  1  0.33406578  0.83062950  0.66971626  1
  Te  Te180  1  0.66611223  0.16306746  -0.00757196  1
  Te  Te181  1  0.66807688  0.16613562  0.33331588  1
  Te  Te182  1  0.66895860  0.16919513  0.67171379  1
  Te  Te183  1  0.67109808  0.50327628  -0.00258165  1
  Te  Te184  1  0.66270661  0.50292860  0.33327853  1
  Te  Te185  1  0.66734276  0.50478146  0.66959009  1
  Te  Te186  1  0.66945373  0.83174408  -0.00439246  1
  Te  Te187  1  0.67060416  0.82786833  0.33310116  1
  Te  Te188  1  0.66975094  0.82659833  0.67099728  1
  Te  Te189  1  0.00068734  0.00702044  0.16042495  1
  Te  Te190  1  -0.00545410  0.00055138  0.49840733  1
  Te  Te191  1  -0.00471277  0.00568324  0.83716389  1
  Te  Te192  1  -0.00053568  0.32788503  0.16818507  1
  Te  Te193  1  0.00606222  0.33262674  0.49323541  1
  Te  Te194  1  -0.00061229  0.32726118  0.83307100  1
  Te  Te195  1  -0.00649443  0.66700184  0.16677496  1
  Te  Te196  1  0.00054877  0.66630555  0.50723054  1
  Te  Te197  1  0.00976631  0.66612378  0.82834105  1
  Te  Te198  1  0.33790013  0.00175996  0.16559370  1
  Te  Te199  1  0.33500211  -0.00687300  0.49995943  1
  Te  Te200  1  0.33896446  0.00108129  0.83398943  1
  Te  Te201  1  0.33010908  0.33038600  0.17069561  1
  Te  Te202  1  0.33263804  0.33565707  0.49488469  1
  Te  Te203  1  0.33110746  0.32815250  0.83335526  1
  Te  Te204  1  0.33330014  0.66879877  0.16815187  1
  Te  Te205  1  0.33425996  0.67168556  0.49669154  1
  Te  Te206  1  0.33476620  0.66895756  0.83316347  1
  Te  Te207  1  0.66070860  0.00004951  0.15927737  1
  Te  Te208  1  0.66672802  -0.00028592  0.49821334  1
  Te  Te209  1  0.66639266  -0.00148326  0.83452061  1
  Te  Te210  1  0.67220550  0.33891191  0.16519780  1
  Te  Te211  1  0.66288604  0.33936155  0.50032981  1
  Te  Te212  1  0.67066303  0.33487887  0.83364643  1
  Te  Te213  1  0.66892426  0.66390788  0.17014109  1
  Te  Te214  1  0.66553969  0.66224200  0.49415709  1
  Te  Te215  1  0.66661394  0.66846306  0.83266449  1
