# generated using pymatgen
data_AgSbTe2
_symmetry_space_group_name_H-M   'P 1'
_cell_length_a   18.32950826
_cell_length_b   18.34005194
_cell_length_c   18.33613996
_cell_angle_alpha   90.00179798
_cell_angle_beta   90.00450543
_cell_angle_gamma   90.00092189
_symmetry_Int_Tables_number   1
_chemical_formula_structural   AgSbTe2
_chemical_formula_sum   'Ag54 Sb54 Te108'
_cell_volume   6163.95258081
_cell_formula_units_Z   54
loop_
 _symmetry_equiv_pos_site_id
 _symmetry_equiv_pos_as_xyz
  1  'x, y, z'
loop_
 _atom_site_type_symbol
 _atom_site_label
 _atom_site_symmetry_multiplicity
 _atom_site_fract_x
 _atom_site_fract_y
 _atom_site_fract_z
 _atom_site_occupancy
  Ag  Ag0  1  0.83294434  0.16782472  0.66252642  1
  Ag  Ag1  1  0.01209661  -0.00914882  -0.00186852  1
  Ag  Ag2  1  0.17547330  0.84209937  0.67401995  1
  Ag  Ag3  1  0.65708853  -0.00260972  0.34453180  1
  Ag  Ag4  1  0.33333613  0.33222860  0.66347845  1
  Ag  Ag5  1  0.00293988  0.33960077  0.00428814  1
  Ag  Ag6  1  0.00190050  0.33748598  0.32843221  1
  Ag  Ag7  1  -0.00014726  0.67022664  -0.00173630  1
  Ag  Ag8  1  0.66541066  0.82636234  0.82401609  1
  Ag  Ag9  1  0.66208956  0.67335184  0.67016895  1
  Ag  Ag10  1  0.49798888  0.67759588  0.50816700  1
  Ag  Ag11  1  0.50189606  0.66320895  0.82539512  1
  Ag  Ag12  1  0.34127611  0.83384966  0.49770043  1
  Ag  Ag13  1  0.83339399  0.17368137  0.34192273  1
  Ag  Ag14  1  0.82713967  0.00116038  0.50414504  1
  Ag  Ag15  1  0.33175247  0.33477174  0.33426505  1
  Ag  Ag16  1  0.83793664  0.34226759  0.82629600  1
  Ag  Ag17  1  0.50025698  0.50522899  0.66754532  1
  Ag  Ag18  1  0.33624241  -0.00570088  0.33595362  1
  Ag  Ag19  1  0.33644631  0.67057563  0.33610139  1
  Ag  Ag20  1  0.33131636  0.00020000  0.66429673  1
  Ag  Ag21  1  0.66018669  -0.00648189  0.66253968  1
  Ag  Ag22  1  0.83569286  0.50293210  -0.01097732  1
  Ag  Ag23  1  0.82854025  0.49490997  0.67169204  1
  Ag  Ag24  1  0.83251093  0.49571425  0.34113287  1
  Ag  Ag25  1  0.17299466  0.15907792  0.67353332  1
  Ag  Ag26  1  -0.00728597  0.49927880  0.49759801  1
  Ag  Ag27  1  0.65399551  0.83763208  0.50813569  1
  Ag  Ag28  1  0.49894568  0.83275502  0.65820580  1
  Ag  Ag29  1  0.66499787  0.50534383  0.82972530  1
  Ag  Ag30  1  -0.00111806  0.49779869  0.16526647  1
  Ag  Ag31  1  0.32989483  0.16108068  0.16941117  1
  Ag  Ag32  1  0.16856079  -0.00405529  0.84067547  1
  Ag  Ag33  1  0.33839877  0.50089185  0.82578891  1
  Ag  Ag34  1  0.49556801  0.83077555  0.34546937  1
  Ag  Ag35  1  0.16706613  0.15557141  -0.00638820  1
  Ag  Ag36  1  0.82667894  0.66076724  0.83283860  1
  Ag  Ag37  1  0.32944872  0.84152022  0.17202171  1
  Ag  Ag38  1  0.84537460  0.82861878  -0.00234355  1
  Ag  Ag39  1  0.33765060  0.50233572  0.50333077  1
  Ag  Ag40  1  0.00962889  0.83257713  0.16073048  1
  Ag  Ag41  1  0.16880857  0.32827096  0.15987569  1
  Ag  Ag42  1  0.83609718  0.33463794  0.50516146  1
  Ag  Ag43  1  0.50222276  -0.01040452  0.50414642  1
  Ag  Ag44  1  0.50054430  0.50048316  -0.01232221  1
  Ag  Ag45  1  0.32423417  -0.00275238  0.00025805  1
  Ag  Ag46  1  0.16249403  0.84347907  -0.00518423  1
  Ag  Ag47  1  0.16450652  0.33329701  0.83670291  1
  Ag  Ag48  1  0.17078386  0.00224906  0.15444263  1
  Ag  Ag49  1  0.48861230  0.33583850  0.16895492  1
  Ag  Ag50  1  0.49305032  0.15711120  0.66683792  1
  Ag  Ag51  1  0.16807031  0.66983626  0.83422983  1
  Ag  Ag52  1  0.49718611  0.50296644  0.33837684  1
  Ag  Ag53  1  0.00902056  -0.00098199  0.66797921  1
  Sb  Sb54  1  0.17017222  -0.00134682  0.50441296  1
  Sb  Sb55  1  0.83805206  0.33473780  0.16793328  1
  Sb  Sb56  1  0.82984823  0.83510450  0.67133531  1
  Sb  Sb57  1  0.17429795  0.66733105  0.50760521  1
  Sb  Sb58  1  0.66716737  -0.00372627  -0.00502508  1
  Sb  Sb59  1  0.49731249  0.34152405  0.83441528  1
  Sb  Sb60  1  0.00265251  0.00276568  0.33327694  1
  Sb  Sb61  1  0.50110963  0.33562494  0.49952128  1
  Sb  Sb62  1  0.66876582  0.49948786  0.16378260  1
  Sb  Sb63  1  -0.00307743  0.66904531  0.67160286  1
  Sb  Sb64  1  0.49676358  0.66310293  0.16762785  1
  Sb  Sb65  1  0.00123354  0.82972654  0.49707859  1
  Sb  Sb66  1  0.33336653  0.16494029  0.49934660  1
  Sb  Sb67  1  0.66367602  0.50520553  0.50598279  1
  Sb  Sb68  1  0.33150873  0.49843588  0.16802782  1
  Sb  Sb69  1  0.67155699  0.66622531  -0.01007214  1
  Sb  Sb70  1  0.00244824  0.66095110  0.32867581  1
  Sb  Sb71  1  0.00316523  0.16632365  0.83137024  1
  Sb  Sb72  1  0.50092466  0.16522781  0.33883847  1
  Sb  Sb73  1  0.34002769  0.66698932  0.66360310  1
  Sb  Sb74  1  0.16718432  0.66851473  0.16152567  1
  Sb  Sb75  1  0.00140613  0.33118619  0.66728159  1
  Sb  Sb76  1  0.83548454  0.66582170  0.16007765  1
  Sb  Sb77  1  0.49003774  0.00196577  0.17207853  1
  Sb  Sb78  1  0.84351590  0.16874326  -0.00347691  1
  Sb  Sb79  1  0.66469539  0.33340581  0.66676658  1
  Sb  Sb80  1  0.33085578  0.16928284  0.83145371  1
  Sb  Sb81  1  0.84006636  0.00035828  0.16914187  1
  Sb  Sb82  1  0.17500305  0.83504692  0.33017798  1
  Sb  Sb83  1  0.16907676  0.49999112  0.67012504  1
  Sb  Sb84  1  0.16504660  0.33417129  0.50236231  1
  Sb  Sb85  1  0.65973906  0.16540399  0.16860834  1
  Sb  Sb86  1  0.66761516  0.33194781  0.33483276  1
  Sb  Sb87  1  0.82777102  0.66586016  0.50609492  1
  Sb  Sb88  1  0.33310844  0.82975049  0.82853213  1
  Sb  Sb89  1  0.49606435  0.82924525  -0.00278568  1
  Sb  Sb90  1  0.83747147  -0.00124599  0.82687070  1
  Sb  Sb91  1  0.16942685  0.49842455  0.33299408  1
  Sb  Sb92  1  0.82921625  0.83203060  0.33081595  1
  Sb  Sb93  1  -0.00275309  0.17052977  0.50071464  1
  Sb  Sb94  1  0.66007042  0.66979632  0.34125894  1
  Sb  Sb95  1  -0.00310987  0.49985860  0.83428239  1
  Sb  Sb96  1  0.66247366  0.83527726  0.16778954  1
  Sb  Sb97  1  0.32993935  0.66934653  0.00097496  1
  Sb  Sb98  1  0.49450420  -0.00710620  0.82463783  1
  Sb  Sb99  1  0.00635432  0.16846409  0.16604309  1
  Sb  Sb100  1  -0.00034529  0.83273196  0.83882615  1
  Sb  Sb101  1  0.67175590  0.33488873  -0.00231782  1
  Sb  Sb102  1  0.66769125  0.16586009  0.82959884  1
  Sb  Sb103  1  0.16352259  0.50036496  -0.00191235  1
  Sb  Sb104  1  0.66808154  0.15812332  0.50213331  1
  Sb  Sb105  1  0.32689497  0.33195160  -0.00019974  1
  Sb  Sb106  1  0.16570798  0.16764695  0.33327555  1
  Sb  Sb107  1  0.49057697  0.17073511  -0.00374256  1
  Te  Te108  1  0.17049869  0.16752565  0.16713951  1
  Te  Te109  1  0.16479880  0.16725038  0.51084824  1
  Te  Te110  1  0.16822527  0.16867816  0.83302443  1
  Te  Te111  1  0.16025823  0.49667489  0.16577828  1
  Te  Te112  1  0.17232339  0.50063999  0.50136962  1
  Te  Te113  1  0.17182360  0.49810172  0.83343308  1
  Te  Te114  1  0.16900648  0.83470060  0.16446873  1
  Te  Te115  1  0.17058961  0.83197941  0.50623359  1
  Te  Te116  1  0.16737297  0.83448487  0.83365044  1
  Te  Te117  1  0.49256564  0.17310938  0.16603142  1
  Te  Te118  1  0.50090036  0.16601805  0.50772031  1
  Te  Te119  1  0.49985963  0.16844732  0.82629995  1
  Te  Te120  1  0.50070054  0.49640300  0.17348469  1
  Te  Te121  1  0.49806323  0.49920488  0.49983928  1
  Te  Te122  1  0.50042390  0.50225515  0.83031288  1
  Te  Te123  1  0.49357239  0.83302394  0.16679044  1
  Te  Te124  1  0.49787145  0.83395982  0.50106718  1
  Te  Te125  1  0.50297705  0.82590568  0.83182942  1
  Te  Te126  1  0.83101213  0.16684094  0.16919373  1
  Te  Te127  1  0.83312907  0.16664375  0.50120019  1
  Te  Te128  1  0.83311174  0.17243303  0.82806542  1
  Te  Te129  1  0.83674462  0.49924062  0.16724212  1
  Te  Te130  1  0.83142165  0.50090959  0.50034969  1
  Te  Te131  1  0.83484051  0.50015616  0.83179144  1
  Te  Te132  1  0.83613645  0.83338670  0.16044287  1
  Te  Te133  1  0.83239310  0.83575087  0.49802464  1
  Te  Te134  1  0.82970285  0.83097465  0.83818451  1
  Te  Te135  1  0.16789433  -0.00022775  -0.00144163  1
  Te  Te136  1  0.17315270  0.00231133  0.33274424  1
  Te  Te137  1  0.16833657  -0.00024756  0.66620961  1
  Te  Te138  1  0.16300346  0.33443854  -0.00101487  1
  Te  Te139  1  0.16632258  0.33166387  0.33177629  1
  Te  Te140  1  0.16979238  0.33129046  0.67060091  1
  Te  Te141  1  0.16270278  0.66908420  -0.00570336  1
  Te  Te142  1  0.17387009  0.66692968  0.33443311  1
  Te  Te143  1  0.16490056  0.67196643  0.67447189  1
  Te  Te144  1  0.49678293  0.00084891  -0.00152360  1
  Te  Te145  1  0.49729712  0.00078526  0.33791356  1
  Te  Te146  1  0.49737873  -0.00302878  0.66461377  1
  Te  Te147  1  0.49949172  0.33825331  0.00363610  1
  Te  Te148  1  0.49867180  0.33356327  0.33243004  1
  Te  Te149  1  0.49539205  0.33813727  0.66701553  1
  Te  Te150  1  0.49910039  0.66056999  -0.00150358  1
  Te  Te151  1  0.49644920  0.66553174  0.33442622  1
  Te  Te152  1  0.50128603  0.66596242  0.66656349  1
  Te  Te153  1  0.83705053  -0.00084721  -0.00075484  1
  Te  Te154  1  0.83459661  -0.00014072  0.33792755  1
  Te  Te155  1  0.83419563  0.00206011  0.66453587  1
  Te  Te156  1  0.83962339  0.33578615  -0.00167565  1
  Te  Te157  1  0.83413293  0.33551640  0.33380315  1
  Te  Te158  1  0.83383302  0.33330626  0.66592921  1
  Te  Te159  1  0.83713223  0.66531791  -0.00573094  1
  Te  Te160  1  0.83244483  0.65978398  0.33373352  1
  Te  Te161  1  0.82967716  0.66255853  0.67232977  1
  Te  Te162  1  0.00675425  0.16627630  0.00037535  1
  Te  Te163  1  -0.00592640  0.17247855  0.33365395  1
  Te  Te164  1  -0.00405165  0.16192340  0.66539000  1
  Te  Te165  1  -0.00291127  0.49908087  0.00053326  1
  Te  Te166  1  -0.00135207  0.49744444  0.33343952  1
  Te  Te167  1  -0.00378222  0.50061017  0.66094791  1
  Te  Te168  1  0.00204082  0.83395858  0.00177927  1
  Te  Te169  1  0.00045920  0.83181473  0.32590593  1
  Te  Te170  1  0.00171208  0.83768718  0.66398589  1
  Te  Te171  1  0.32770200  0.16200445  0.00338139  1
  Te  Te172  1  0.33349284  0.17288828  0.33140061  1
  Te  Te173  1  0.33335884  0.16747273  0.66545398  1
  Te  Te174  1  0.33879127  0.50082647  -0.00069062  1
  Te  Te175  1  0.33586070  0.49422672  0.33364683  1
  Te  Te176  1  0.33456703  0.49922438  0.66524077  1
  Te  Te177  1  0.32906886  0.83693656  0.00163528  1
  Te  Te178  1  0.33575732  0.83482615  0.33609285  1
  Te  Te179  1  0.33589016  0.83435459  0.66475482  1
  Te  Te180  1  0.66706912  0.16510242  -0.00062086  1
  Te  Te181  1  0.67285448  0.15990889  0.33304778  1
  Te  Te182  1  0.66880783  0.16134208  0.66816687  1
  Te  Te183  1  0.66826087  0.49989664  -0.00459091  1
  Te  Te184  1  0.66562552  0.50095950  0.33322707  1
  Te  Te185  1  0.66609253  0.49968839  0.66985992  1
  Te  Te186  1  0.66870414  0.83365469  -0.00167106  1
  Te  Te187  1  0.66078167  0.83765518  0.33514236  1
  Te  Te188  1  0.66805084  0.83387719  0.66711951  1
  Te  Te189  1  0.00723400  -0.00224590  0.16417825  1
  Te  Te190  1  -0.00448094  -0.00200320  0.50305748  1
  Te  Te191  1  0.00567755  -0.00047757  0.83261733  1
  Te  Te192  1  0.00366672  0.33534748  0.16717753  1
  Te  Te193  1  -0.00328547  0.33958519  0.49655444  1
  Te  Te194  1  0.00205600  0.33359507  0.83582199  1
  Te  Te195  1  0.00100429  0.66526568  0.16083878  1
  Te  Te196  1  0.00052763  0.66019031  0.49908687  1
  Te  Te197  1  0.00292707  0.66629206  0.83759807  1
  Te  Te198  1  0.33025302  0.00072804  0.16933232  1
  Te  Te199  1  0.33605878  -0.00122268  0.50161598  1
  Te  Te200  1  0.32866409  -0.00064441  0.83067934  1
  Te  Te201  1  0.32872580  0.33423853  0.16696177  1
  Te  Te202  1  0.33281382  0.33595318  0.49997280  1
  Te  Te203  1  0.32989541  0.33804882  0.83033966  1
  Te  Te204  1  0.33171854  0.67134782  0.17371695  1
  Te  Te205  1  0.33810691  0.66471674  0.49613875  1
  Te  Te206  1  0.33344438  0.66209329  0.83500499  1
  Te  Te207  1  0.66587599  -0.00026536  0.17009786  1
  Te  Te208  1  0.66627989  -0.00372183  0.50188865  1
  Te  Te209  1  0.66659298  -0.00514497  0.82680385  1
  Te  Te210  1  0.65784347  0.33242587  0.16624552  1
  Te  Te211  1  0.67642772  0.33434377  0.49966479  1
  Te  Te212  1  0.67328405  0.33913507  0.83281528  1
  Te  Te213  1  0.66645970  0.66785005  0.16746586  1
  Te  Te214  1  0.66043629  0.67380841  0.50714412  1
  Te  Te215  1  0.66601656  0.66538167  0.82934020  1
