# generated using pymatgen
data_AgSbTe2
_symmetry_space_group_name_H-M   'P 1'
_cell_length_a   18.31577427
_cell_length_b   18.31719697
_cell_length_c   18.31581361
_cell_angle_alpha   90.00054166
_cell_angle_beta   89.99947046
_cell_angle_gamma   90.00093633
_symmetry_Int_Tables_number   1
_chemical_formula_structural   AgSbTe2
_chemical_formula_sum   'Ag54 Sb54 Te108'
_cell_volume   6144.83906696
_cell_formula_units_Z   54
loop_
 _symmetry_equiv_pos_site_id
 _symmetry_equiv_pos_as_xyz
  1  'x, y, z'
loop_
 _atom_site_type_symbol
 _atom_site_label
 _atom_site_symmetry_multiplicity
 _atom_site_fract_x
 _atom_site_fract_y
 _atom_site_fract_z
 _atom_site_occupancy
  Ag  Ag0  1  0.82691590  0.82802121  0.00879967  1
  Ag  Ag1  1  0.66906959  -0.00304189  0.67049673  1
  Ag  Ag2  1  0.66512068  0.49682260  0.83311282  1
  Ag  Ag3  1  -0.00716840  0.66889556  0.00498819  1
  Ag  Ag4  1  0.50850146  0.33347956  0.16159208  1
  Ag  Ag5  1  0.16703629  0.66456341  0.49873553  1
  Ag  Ag6  1  0.83483304  0.16002005  0.33292362  1
  Ag  Ag7  1  -0.00497378  0.16227307  0.17304143  1
  Ag  Ag8  1  0.16317417  0.82647843  0.00562861  1
  Ag  Ag9  1  0.66463658  0.16672377  0.83165514  1
  Ag  Ag10  1  0.16579207  0.33412348  0.50771699  1
  Ag  Ag11  1  0.16578030  0.50492467  0.00202950  1
  Ag  Ag12  1  0.49757666  0.33300618  0.83337111  1
  Ag  Ag13  1  0.33045601  0.83271550  0.50411168  1
  Ag  Ag14  1  0.16097040  0.50093269  0.33885458  1
  Ag  Ag15  1  0.16882015  0.49460056  0.66191112  1
  Ag  Ag16  1  0.67105560  0.67199365  0.32893015  1
  Ag  Ag17  1  0.00387538  0.16032290  0.49853569  1
  Ag  Ag18  1  0.83585442  0.33505037  0.16715318  1
  Ag  Ag19  1  0.66737927  0.83269084  0.49406437  1
  Ag  Ag20  1  0.17110151  0.33341202  0.82361658  1
  Ag  Ag21  1  0.15962398  0.00043595  0.49914244  1
  Ag  Ag22  1  0.33859549  0.66736765  0.66408308  1
  Ag  Ag23  1  0.83262238  0.16626969  0.66256362  1
  Ag  Ag24  1  0.67393464  0.83341284  0.16621987  1
  Ag  Ag25  1  0.15939006  0.66791996  0.16527443  1
  Ag  Ag26  1  0.66975843  -0.00936925  -0.00248046  1
  Ag  Ag27  1  0.83876956  -0.00226320  0.50038101  1
  Ag  Ag28  1  0.49975814  0.16814330  0.66873286  1
  Ag  Ag29  1  0.51114542  0.83213218  0.33557175  1
  Ag  Ag30  1  0.82957167  0.49852256  0.66746293  1
  Ag  Ag31  1  0.67217336  0.67179799  0.00166314  1
  Ag  Ag32  1  0.50549718  0.50370798  -0.00819304  1
  Ag  Ag33  1  0.50982766  0.82752533  -0.00061867  1
  Ag  Ag34  1  -0.00820598  0.83433131  0.17068854  1
  Ag  Ag35  1  -0.00015487  0.84037033  0.49479351  1
  Ag  Ag36  1  0.82967284  0.00038196  0.82913519  1
  Ag  Ag37  1  0.00278553  0.33165241  0.66501906  1
  Ag  Ag38  1  0.83605642  0.50453771  0.33063233  1
  Ag  Ag39  1  0.16680706  0.17253740  0.66067268  1
  Ag  Ag40  1  -0.00206892  -0.00062225  0.33508752  1
  Ag  Ag41  1  0.67649931  0.16136841  0.16307945  1
  Ag  Ag42  1  0.82928394  0.50915341  0.00289460  1
  Ag  Ag43  1  0.16109345  -0.00383871  0.17048584  1
  Ag  Ag44  1  0.83552236  0.67055944  0.16414817  1
  Ag  Ag45  1  0.33824479  0.16467111  0.82457889  1
  Ag  Ag46  1  0.50209358  0.83094595  0.66653289  1
  Ag  Ag47  1  0.32117636  0.16453034  0.50663288  1
  Ag  Ag48  1  0.83011970  0.83172008  0.32679777  1
  Ag  Ag49  1  0.32575515  0.50394452  0.50488940  1
  Ag  Ag50  1  0.66414973  0.67046405  0.66781332  1
  Ag  Ag51  1  0.50145146  0.50119049  0.67188912  1
  Ag  Ag52  1  0.33523359  0.83715194  0.82797559  1
  Ag  Ag53  1  0.16034058  0.33550199  0.16672745  1
  Sb  Sb54  1  0.66716541  0.33721505  0.00020244  1
  Sb  Sb55  1  -0.00220905  0.16789146  0.82943786  1
  Sb  Sb56  1  0.16852672  0.66173764  0.83335203  1
  Sb  Sb57  1  0.50657906  0.00310772  0.83218191  1
  Sb  Sb58  1  0.33076880  0.33389406  0.33501229  1
  Sb  Sb59  1  -0.00267272  0.49884737  0.83326308  1
  Sb  Sb60  1  -0.00029654  0.50218084  0.16642075  1
  Sb  Sb61  1  0.33022828  0.50068556  0.16878097  1
  Sb  Sb62  1  0.49552557  0.67033863  0.50337336  1
  Sb  Sb63  1  0.82736198  0.83407892  0.66453932  1
  Sb  Sb64  1  -0.00590962  0.00466919  0.65887921  1
  Sb  Sb65  1  0.33293398  0.83233714  0.16854351  1
  Sb  Sb66  1  0.16544842  0.16825668  -0.00151026  1
  Sb  Sb67  1  0.33761530  -0.00129913  0.66558252  1
  Sb  Sb68  1  0.66964757  0.33860256  0.32955753  1
  Sb  Sb69  1  0.83927492  0.32955190  0.49834129  1
  Sb  Sb70  1  0.33066735  0.16779955  0.16820989  1
  Sb  Sb71  1  0.16100264  0.17008223  0.33959577  1
  Sb  Sb72  1  0.83218284  0.33212563  0.83561739  1
  Sb  Sb73  1  0.33603073  -0.00337713  -0.00098262  1
  Sb  Sb74  1  0.83175963  0.16383663  0.00159546  1
  Sb  Sb75  1  -0.00170520  0.66353858  0.66724056  1
  Sb  Sb76  1  0.67425364  -0.00769269  0.33412558  1
  Sb  Sb77  1  0.66956900  0.33310504  0.66723453  1
  Sb  Sb78  1  0.50151535  0.66354023  0.83122720  1
  Sb  Sb79  1  0.83650246  0.67108899  0.49558946  1
  Sb  Sb80  1  0.50147333  -0.00348438  0.50129135  1
  Sb  Sb81  1  0.17110500  0.83248173  0.66443094  1
  Sb  Sb82  1  0.49387992  0.33278837  0.50499549  1
  Sb  Sb83  1  0.16241559  0.83004328  0.33279413  1
  Sb  Sb84  1  0.50781371  0.16315406  0.33703603  1
  Sb  Sb85  1  0.33378828  0.66816128  0.33996483  1
  Sb  Sb86  1  0.00550283  0.50017902  0.50035221  1
  Sb  Sb87  1  0.66262599  0.83539264  0.83605924  1
  Sb  Sb88  1  0.00026922  0.33762539  0.00022469  1
  Sb  Sb89  1  0.67152797  0.15870858  0.50369071  1
  Sb  Sb90  1  0.00051324  0.32860171  0.33498439  1
  Sb  Sb91  1  0.00251207  0.83418195  0.83512557  1
  Sb  Sb92  1  0.33392313  0.66803812  -0.00513141  1
  Sb  Sb93  1  0.83665069  -0.00314424  0.16968151  1
  Sb  Sb94  1  -0.00358345  0.67194806  0.32861491  1
  Sb  Sb95  1  0.32617834  -0.00231982  0.33683394  1
  Sb  Sb96  1  -0.00471630  -0.00651954  0.00732411  1
  Sb  Sb97  1  0.82916356  0.66930563  0.83935071  1
  Sb  Sb98  1  0.50103836  0.50408689  0.33444234  1
  Sb  Sb99  1  0.32695515  0.33389682  0.66688243  1
  Sb  Sb100  1  0.67053830  0.50412418  0.16164739  1
  Sb  Sb101  1  0.33306602  0.33480530  -0.00196825  1
  Sb  Sb102  1  0.50291226  0.66499974  0.16520489  1
  Sb  Sb103  1  0.33620350  0.49871671  0.82667330  1
  Sb  Sb104  1  0.50336330  0.16820573  -0.00506515  1
  Sb  Sb105  1  0.16248133  0.00354265  0.83100292  1
  Sb  Sb106  1  0.66554325  0.50804780  0.50568451  1
  Sb  Sb107  1  0.50096613  0.00122728  0.16515462  1
  Te  Te108  1  0.16462549  0.16829462  0.16765895  1
  Te  Te109  1  0.16451167  0.16661939  0.50021053  1
  Te  Te110  1  0.16741415  0.17106454  0.82977384  1
  Te  Te111  1  0.16618900  0.50068890  0.16411678  1
  Te  Te112  1  0.16627849  0.49956217  0.50066070  1
  Te  Te113  1  0.16771199  0.49394113  0.83271662  1
  Te  Te114  1  0.16778722  0.83174932  0.16603427  1
  Te  Te115  1  0.16687668  0.83448212  0.49904061  1
  Te  Te116  1  0.17120143  0.83474265  0.83684718  1
  Te  Te117  1  0.50019129  0.17239949  0.16740108  1
  Te  Te118  1  0.49842576  0.16588160  0.50639531  1
  Te  Te119  1  0.50154472  0.17032280  0.82957240  1
  Te  Te120  1  0.49946642  0.49453364  0.16560503  1
  Te  Te121  1  0.49430718  0.49911728  0.50444358  1
  Te  Te122  1  0.50130435  0.49557030  0.83233891  1
  Te  Te123  1  0.50228707  0.83308907  0.16338712  1
  Te  Te124  1  0.50114995  0.83376417  0.50366853  1
  Te  Te125  1  0.49562485  0.83531486  0.83237266  1
  Te  Te126  1  0.83370437  0.16625222  0.16815611  1
  Te  Te127  1  0.83679512  0.16443462  0.50153677  1
  Te  Te128  1  0.82921602  0.16484534  0.83124797  1
  Te  Te129  1  0.83313955  0.50075917  0.16699534  1
  Te  Te130  1  0.83393004  0.49893514  0.50094859  1
  Te  Te131  1  0.82823799  0.49854889  0.83149393  1
  Te  Te132  1  0.83332914  0.83288817  0.16670480  1
  Te  Te133  1  0.83391375  0.83566257  0.49921679  1
  Te  Te134  1  0.83435046  0.83913084  0.83593439  1
  Te  Te135  1  0.16617171  -0.00296670  0.00107673  1
  Te  Te136  1  0.15995190  0.00007352  0.33392693  1
  Te  Te137  1  0.16531830  0.00452967  0.66254304  1
  Te  Te138  1  0.16593625  0.33727605  0.00558410  1
  Te  Te139  1  0.16599897  0.34024041  0.32778619  1
  Te  Te140  1  0.16500189  0.33283054  0.66591784  1
  Te  Te141  1  0.16816921  0.66589197  0.00073539  1
  Te  Te142  1  0.16611572  0.66147744  0.33330179  1
  Te  Te143  1  0.16650700  0.66286367  0.66428750  1
  Te  Te144  1  0.50620387  -0.00664506  0.00016806  1
  Te  Te145  1  0.49987153  -0.00654402  0.33268857  1
  Te  Te146  1  0.50777699  -0.00020776  0.66647255  1
  Te  Te147  1  0.49988325  0.33821567  0.00034018  1
  Te  Te148  1  0.50066458  0.33370822  0.32676916  1
  Te  Te149  1  0.50160955  0.33429714  0.67083158  1
  Te  Te150  1  0.50388632  0.66541635  0.00008094  1
  Te  Te151  1  0.50691049  0.67205199  0.33300455  1
  Te  Te152  1  0.50221104  0.66565992  0.66606081  1
  Te  Te153  1  0.82940416  -0.00363411  -0.00281501  1
  Te  Te154  1  0.83665959  -0.00008090  0.33728490  1
  Te  Te155  1  0.82916358  0.00106294  0.66389309  1
  Te  Te156  1  0.83471887  0.34081206  0.00511899  1
  Te  Te157  1  0.83434147  0.33749564  0.32830952  1
  Te  Te158  1  0.83877507  0.33451143  0.66730391  1
  Te  Te159  1  0.83227663  0.66718639  0.00217454  1
  Te  Te160  1  0.83074258  0.66727514  0.32945433  1
  Te  Te161  1  0.82996659  0.66066997  0.66689777  1
  Te  Te162  1  -0.00063569  0.16561016  0.00748259  1
  Te  Te163  1  -0.00424472  0.16305786  0.33313716  1
  Te  Te164  1  -0.00217730  0.16980273  0.66435613  1
  Te  Te165  1  0.00130874  0.50564273  -0.00037853  1
  Te  Te166  1  -0.00226783  0.50077707  0.33377336  1
  Te  Te167  1  -0.00028433  0.49654757  0.66662065  1
  Te  Te168  1  0.00323042  0.82911298  0.00176629  1
  Te  Te169  1  -0.00356674  0.83648414  0.33283122  1
  Te  Te170  1  0.00014588  0.83207596  0.66239151  1
  Te  Te171  1  0.33480665  0.16492733  -0.00755258  1
  Te  Te172  1  0.33763111  0.16536494  0.34130854  1
  Te  Te173  1  0.33427534  0.16485510  0.66627592  1
  Te  Te174  1  0.33366500  0.50200143  -0.00165640  1
  Te  Te175  1  0.33160617  0.50136529  0.34210422  1
  Te  Te176  1  0.33392408  0.50429716  0.66429688  1
  Te  Te177  1  0.33309471  0.83286693  -0.00235568  1
  Te  Te178  1  0.34082948  0.83281809  0.33971574  1
  Te  Te179  1  0.33707402  0.83175525  0.66506176  1
  Te  Te180  1  0.66648204  0.16307783  0.00010771  1
  Te  Te181  1  0.67314171  0.16599869  0.33042101  1
  Te  Te182  1  0.66922713  0.16563950  0.66807423  1
  Te  Te183  1  0.66602193  0.50335020  -0.00338379  1
  Te  Te184  1  0.67041901  0.50858678  0.33527180  1
  Te  Te185  1  0.66581293  0.50169307  0.66935639  1
  Te  Te186  1  0.66740657  0.83219581  -0.00172937  1
  Te  Te187  1  0.66940576  0.83216157  0.33231997  1
  Te  Te188  1  0.66279501  0.83134468  0.66961624  1
  Te  Te189  1  0.00268188  -0.00173744  0.17107243  1
  Te  Te190  1  -0.00060708  -0.00043475  0.49800991  1
  Te  Te191  1  -0.00852043  0.00112591  0.83434586  1
  Te  Te192  1  -0.00214072  0.32849981  0.16713099  1
  Te  Te193  1  0.00591618  0.32777067  0.50298955  1
  Te  Te194  1  0.00705779  0.33257937  0.82878661  1
  Te  Te195  1  -0.00051858  0.67121737  0.16401168  1
  Te  Te196  1  0.00697976  0.67304148  0.49955695  1
  Te  Te197  1  0.00000260  0.66696379  0.84169807  1
  Te  Te198  1  0.32265965  0.00151377  0.16748492  1
  Te  Te199  1  0.32726781  -0.00079762  0.50039096  1
  Te  Te200  1  0.33141601  0.00111726  0.83284142  1
  Te  Te201  1  0.32868960  0.33221627  0.16649482  1
  Te  Te202  1  0.32632396  0.33035750  0.50030245  1
  Te  Te203  1  0.33381192  0.32778122  0.83304868  1
  Te  Te204  1  0.32433072  0.66677473  0.16775106  1
  Te  Te205  1  0.32816909  0.66881414  0.50472307  1
  Te  Te206  1  0.33392169  0.67427330  0.82478667  1
  Te  Te207  1  0.66619957  -0.00067979  0.16331092  1
  Te  Te208  1  0.67089358  -0.00731224  0.50408475  1
  Te  Te209  1  0.66996766  0.00290976  0.83243149  1
  Te  Te210  1  0.66941016  0.32781542  0.16590308  1
  Te  Te211  1  0.66461262  0.33338303  0.49787535  1
  Te  Te212  1  0.66354714  0.33132319  0.83381905  1
  Te  Te213  1  0.66833406  0.67106964  0.16472339  1
  Te  Te214  1  0.66813874  0.67382241  0.50362263  1
  Te  Te215  1  0.66636763  0.66001724  0.83165424  1
