# generated using pymatgen
data_AgSbTe2
_symmetry_space_group_name_H-M   'P 1'
_cell_length_a   18.31216616
_cell_length_b   18.30874438
_cell_length_c   18.31243386
_cell_angle_alpha   89.99953506
_cell_angle_beta   90.00082794
_cell_angle_gamma   90.00060848
_symmetry_Int_Tables_number   1
_chemical_formula_structural   AgSbTe2
_chemical_formula_sum   'Ag54 Sb54 Te108'
_cell_volume   6139.66041101
_cell_formula_units_Z   54
loop_
 _symmetry_equiv_pos_site_id
 _symmetry_equiv_pos_as_xyz
  1  'x, y, z'
loop_
 _atom_site_type_symbol
 _atom_site_label
 _atom_site_symmetry_multiplicity
 _atom_site_fract_x
 _atom_site_fract_y
 _atom_site_fract_z
 _atom_site_occupancy
  Ag  Ag0  1  0.00115559  0.16699202  0.16254220  1
  Ag  Ag1  1  0.16733737  0.66104073  0.49802639  1
  Ag  Ag2  1  0.33240266  0.50042806  0.50799571  1
  Ag  Ag3  1  0.16183570  0.50147124  0.33229877  1
  Ag  Ag4  1  0.83845183  0.16291356  0.00106780  1
  Ag  Ag5  1  0.83981197  0.50131486  0.34297318  1
  Ag  Ag6  1  0.17297256  0.49957464  -0.00068804  1
  Ag  Ag7  1  -0.00130397  0.66243012  0.66992206  1
  Ag  Ag8  1  0.66751143  0.17385064  0.49909473  1
  Ag  Ag9  1  0.33637317  0.49405400  0.83555661  1
  Ag  Ag10  1  -0.00260251  0.00537524  0.33707565  1
  Ag  Ag11  1  0.82981768  0.33799846  0.50125195  1
  Ag  Ag12  1  0.33882458  0.83802111  0.83828846  1
  Ag  Ag13  1  0.67216854  0.49564179  0.50775326  1
  Ag  Ag14  1  0.49760282  0.32895045  0.16293769  1
  Ag  Ag15  1  0.33549332  0.16316066  0.15717088  1
  Ag  Ag16  1  0.67400511  -0.00063020  0.66826695  1
  Ag  Ag17  1  0.33370095  0.00122519  -0.00601331  1
  Ag  Ag18  1  0.33220030  0.16653343  0.83953936  1
  Ag  Ag19  1  0.49353624  0.82587675  0.00042876  1
  Ag  Ag20  1  0.17163068  0.00220766  0.83237994  1
  Ag  Ag21  1  0.83452714  0.83129069  0.33464374  1
  Ag  Ag22  1  0.83565663  0.66738759  0.16236879  1
  Ag  Ag23  1  0.83271534  0.50259073  0.66261767  1
  Ag  Ag24  1  0.33432576  0.82981033  0.50425106  1
  Ag  Ag25  1  0.83357810  0.83635163  0.66919783  1
  Ag  Ag26  1  0.82918961  0.83313244  -0.00306912  1
  Ag  Ag27  1  0.17021246  0.16277599  0.67470414  1
  Ag  Ag28  1  0.49550316  0.33732274  0.83738899  1
  Ag  Ag29  1  0.49660382  0.00845776  0.16391011  1
  Ag  Ag30  1  -0.00036755  0.50027519  0.83261981  1
  Ag  Ag31  1  0.33599289  0.33472918  0.67573804  1
  Ag  Ag32  1  0.66195885  0.50386501  0.82987358  1
  Ag  Ag33  1  -0.00169333  0.33439410  0.32967727  1
  Ag  Ag34  1  0.33318889  0.00322374  0.67632908  1
  Ag  Ag35  1  0.50255194  0.33651009  0.50137913  1
  Ag  Ag36  1  -0.00338118  0.49958256  0.50370965  1
  Ag  Ag37  1  0.49630883  0.66558710  0.15931328  1
  Ag  Ag38  1  -0.00689942  -0.00220452  0.66712461  1
  Ag  Ag39  1  0.00197020  0.66018454  -0.00087888  1
  Ag  Ag40  1  0.83398592  0.00123306  0.50840837  1
  Ag  Ag41  1  0.17185679  0.17165741  -0.00229533  1
  Ag  Ag42  1  0.16700466  0.66494516  0.16169107  1
  Ag  Ag43  1  0.00489547  0.33737978  0.00183329  1
  Ag  Ag44  1  0.33365744  0.33371289  -0.00543403  1
  Ag  Ag45  1  0.83582249  -0.00184712  0.82875576  1
  Ag  Ag46  1  0.66474689  0.83205680  0.83672309  1
  Ag  Ag47  1  0.33765650  0.83460284  0.15514730  1
  Ag  Ag48  1  0.50029793  0.49786050  0.67621678  1
  Ag  Ag49  1  0.65670588  0.16580294  0.16608947  1
  Ag  Ag50  1  0.49914398  0.16843146  0.32691593  1
  Ag  Ag51  1  0.49195102  0.50298918  -0.00473646  1
  Ag  Ag52  1  0.66064710  0.66726357  0.00005682  1
  Ag  Ag53  1  0.33686056  0.66597735  0.00052047  1
  Sb  Sb54  1  0.00393590  0.33493858  0.66846599  1
  Sb  Sb55  1  0.00025838  0.49698953  0.16532873  1
  Sb  Sb56  1  0.66590087  0.49843774  0.16405879  1
  Sb  Sb57  1  0.49463016  0.65955714  0.49521951  1
  Sb  Sb58  1  0.66312384  0.33608871  0.00003402  1
  Sb  Sb59  1  0.83186024  0.33521679  0.16873381  1
  Sb  Sb60  1  0.50267885  0.00380909  0.49867475  1
  Sb  Sb61  1  0.16299773  -0.00350079  0.50652475  1
  Sb  Sb62  1  0.83371421  0.67070283  0.83848138  1
  Sb  Sb63  1  0.67142019  0.00171980  0.33663337  1
  Sb  Sb64  1  0.32957245  -0.00018908  0.33216382  1
  Sb  Sb65  1  0.83443595  0.50221446  -0.00298241  1
  Sb  Sb66  1  0.66270449  0.16617887  0.83409437  1
  Sb  Sb67  1  0.66575762  0.83129668  0.50608205  1
  Sb  Sb68  1  0.33717334  0.16904415  0.50228056  1
  Sb  Sb69  1  0.83674141  0.66277538  0.49914679  1
  Sb  Sb70  1  0.83177149  0.16744435  0.33037815  1
  Sb  Sb71  1  0.33391766  0.50031176  0.15820319  1
  Sb  Sb72  1  0.16708259  0.66824589  0.83630832  1
  Sb  Sb73  1  0.67193139  0.66546991  0.67302510  1
  Sb  Sb74  1  0.33208429  0.66509911  0.32585970  1
  Sb  Sb75  1  0.50184147  0.82889622  0.67411162  1
  Sb  Sb76  1  0.16307949  0.83002796  0.33306603  1
  Sb  Sb77  1  -0.00155153  0.83171807  0.83379123  1
  Sb  Sb78  1  0.83081355  -0.00152636  0.16475586  1
  Sb  Sb79  1  0.50256796  0.83749238  0.32705769  1
  Sb  Sb80  1  -0.00073179  0.66260456  0.33103524  1
  Sb  Sb81  1  0.49412127  0.16963083  0.00472555  1
  Sb  Sb82  1  0.00551696  0.16987170  0.83779747  1
  Sb  Sb83  1  0.00268595  0.00074059  -0.00271515  1
  Sb  Sb84  1  0.33144089  0.33554333  0.33069201  1
  Sb  Sb85  1  0.49563308  0.00279555  0.83732776  1
  Sb  Sb86  1  0.32981696  0.66503508  0.67175889  1
  Sb  Sb87  1  0.66883658  0.66513243  0.32728435  1
  Sb  Sb88  1  0.00050497  0.83552682  0.16501814  1
  Sb  Sb89  1  0.66969608  0.33342902  0.33503816  1
  Sb  Sb90  1  0.16487707  0.83634675  0.66834847  1
  Sb  Sb91  1  0.17171664  0.83013450  -0.00031674  1
  Sb  Sb92  1  0.66336245  0.83533781  0.15923419  1
  Sb  Sb93  1  0.16815515  0.17113745  0.32970970  1
  Sb  Sb94  1  0.83008520  0.33269424  0.83044876  1
  Sb  Sb95  1  0.17447646  0.33062863  0.83527781  1
  Sb  Sb96  1  0.16730366  0.49769050  0.67004516  1
  Sb  Sb97  1  0.83623453  0.16438501  0.66902926  1
  Sb  Sb98  1  0.00049470  0.82914610  0.50137641  1
  Sb  Sb99  1  0.49891627  0.49468722  0.33224895  1
  Sb  Sb100  1  0.17056835  0.33631144  0.16231361  1
  Sb  Sb101  1  0.66221865  -0.00279722  -0.00407521  1
  Sb  Sb102  1  0.66127378  0.33332516  0.66501547  1
  Sb  Sb103  1  0.49898613  0.65898488  0.84036411  1
  Sb  Sb104  1  0.17099275  -0.00176752  0.16120446  1
  Sb  Sb105  1  0.49550900  0.17100010  0.66483291  1
  Sb  Sb106  1  0.16770640  0.33971154  0.49995250  1
  Sb  Sb107  1  -0.00411400  0.17057073  0.49812071  1
  Te  Te108  1  0.16876127  0.16656325  0.16239713  1
  Te  Te109  1  0.16629916  0.16666802  0.50019525  1
  Te  Te110  1  0.17119711  0.16310625  0.83638065  1
  Te  Te111  1  0.16727843  0.50465501  0.16531142  1
  Te  Te112  1  0.16671510  0.50271352  0.50199900  1
  Te  Te113  1  0.16724138  0.50091483  0.83865641  1
  Te  Te114  1  0.17388749  0.82729715  0.16801871  1
  Te  Te115  1  0.17283970  0.82677092  0.49943927  1
  Te  Te116  1  0.17284498  0.84064114  0.83359782  1
  Te  Te117  1  0.49801223  0.16752356  0.16587797  1
  Te  Te118  1  0.50584529  0.17157574  0.49623515  1
  Te  Te119  1  0.49414095  0.17454813  0.83300192  1
  Te  Te120  1  0.50138881  0.49894170  0.16323112  1
  Te  Te121  1  0.49803881  0.49609225  0.49810741  1
  Te  Te122  1  0.49878094  0.49774287  0.83436733  1
  Te  Te123  1  0.49695387  0.83117580  0.16349519  1
  Te  Te124  1  0.49521229  0.83268882  0.49870154  1
  Te  Te125  1  0.50053629  0.83503297  0.83922145  1
  Te  Te126  1  0.83652108  0.16667655  0.16225130  1
  Te  Te127  1  0.82848119  0.16735965  0.49976621  1
  Te  Te128  1  0.83179122  0.16321530  0.83886405  1
  Te  Te129  1  0.83216334  0.50442328  0.17165498  1
  Te  Te130  1  0.83401359  0.50108857  0.50185243  1
  Te  Te131  1  0.83303526  0.49935241  0.82802151  1
  Te  Te132  1  0.83239279  0.83083417  0.16400392  1
  Te  Te133  1  0.83226035  0.83497244  0.50244848  1
  Te  Te134  1  0.83226617  0.83687617  0.83249946  1
  Te  Te135  1  0.17112500  0.00260356  -0.00463836  1
  Te  Te136  1  0.15772128  -0.00001566  0.33426286  1
  Te  Te137  1  0.17052790  0.00267083  0.67035621  1
  Te  Te138  1  0.16611128  0.33467482  0.00032697  1
  Te  Te139  1  0.15950894  0.33994221  0.33166779  1
  Te  Te140  1  0.17429458  0.32527017  0.66646561  1
  Te  Te141  1  0.16432251  0.66399966  0.00132882  1
  Te  Te142  1  0.16528980  0.66166176  0.33345715  1
  Te  Te143  1  0.15996381  0.66708736  0.66339744  1
  Te  Te144  1  0.49492669  -0.00501670  0.00363467  1
  Te  Te145  1  0.49948733  0.00545267  0.32850369  1
  Te  Te146  1  0.49532194  -0.00204005  0.66553701  1
  Te  Te147  1  0.49767705  0.33687273  0.00106984  1
  Te  Te148  1  0.49953399  0.32918920  0.33298222  1
  Te  Te149  1  0.49588867  0.33775181  0.66272247  1
  Te  Te150  1  0.49824585  0.66532441  0.00206340  1
  Te  Te151  1  0.50086741  0.66719587  0.32157375  1
  Te  Te152  1  0.50048924  0.65911449  0.66383289  1
  Te  Te153  1  0.83361011  -0.00166201  -0.00355020  1
  Te  Te154  1  0.83818430  -0.00206534  0.33500883  1
  Te  Te155  1  0.83402171  0.00164237  0.66700247  1
  Te  Te156  1  0.83663624  0.33070449  -0.00021117  1
  Te  Te157  1  0.83858168  0.33721143  0.33664282  1
  Te  Te158  1  0.83428227  0.33662683  0.66185950  1
  Te  Te159  1  0.83714758  0.66723328  0.00335202  1
  Te  Te160  1  0.83399390  0.66753513  0.32739969  1
  Te  Te161  1  0.83827625  0.66603184  0.66667227  1
  Te  Te162  1  0.00165439  0.16799344  0.00212989  1
  Te  Te163  1  0.00026875  0.16895918  0.32929963  1
  Te  Te164  1  0.00659350  0.16303395  0.66708893  1
  Te  Te165  1  0.00039156  0.49952353  -0.00122369  1
  Te  Te166  1  0.00020484  0.49739343  0.33347684  1
  Te  Te167  1  -0.00041061  0.49988832  0.66790432  1
  Te  Te168  1  -0.00566797  0.82779305  -0.00018603  1
  Te  Te169  1  -0.00589800  0.83763852  0.33332766  1
  Te  Te170  1  -0.00578653  0.83484493  0.66700836  1
  Te  Te171  1  0.33326752  0.16794305  -0.00014324  1
  Te  Te172  1  0.33691063  0.16711024  0.32910044  1
  Te  Te173  1  0.33084402  0.16573196  0.66786146  1
  Te  Te174  1  0.33296806  0.49847298  -0.00181323  1
  Te  Te175  1  0.32895192  0.49991635  0.34231719  1
  Te  Te176  1  0.33458779  0.49947474  0.66894576  1
  Te  Te177  1  0.33313511  0.83294845  -0.00116331  1
  Te  Te178  1  0.33356531  0.83348335  0.33727024  1
  Te  Te179  1  0.33411742  0.83400863  0.66913177  1
  Te  Te180  1  0.67196499  0.16621392  0.00250765  1
  Te  Te181  1  0.66311215  0.16657339  0.33302008  1
  Te  Te182  1  0.66632265  0.16078774  0.66428367  1
  Te  Te183  1  0.66493317  0.50408924  -0.00407252  1
  Te  Te184  1  0.67148936  0.50009144  0.33933056  1
  Te  Te185  1  0.66732776  0.49971100  0.66833389  1
  Te  Te186  1  0.66951604  0.83059550  -0.00474937  1
  Te  Te187  1  0.67444548  0.83339152  0.33445379  1
  Te  Te188  1  0.67008612  0.83544201  0.67360416  1
  Te  Te189  1  0.00096339  0.00460770  0.16823824  1
  Te  Te190  1  -0.00475465  -0.00033019  0.50292203  1
  Te  Te191  1  -0.00139644  0.00090071  0.82885567  1
  Te  Te192  1  -0.00039287  0.32804286  0.16354135  1
  Te  Te193  1  -0.00351885  0.33820105  0.49955025  1
  Te  Te194  1  -0.00157302  0.33947675  0.83830275  1
  Te  Te195  1  0.00110118  0.66738164  0.16253173  1
  Te  Te196  1  0.00391088  0.66141544  0.50152411  1
  Te  Te197  1  0.00061972  0.66177808  0.83380627  1
  Te  Te198  1  0.33590650  -0.00050028  0.16619913  1
  Te  Te199  1  0.33279301  -0.00245668  0.50250287  1
  Te  Te200  1  0.33443967  0.00150094  0.83428437  1
  Te  Te201  1  0.33760847  0.33028137  0.16272187  1
  Te  Te202  1  0.33696231  0.33661812  0.50053961  1
  Te  Te203  1  0.33549236  0.33494231  0.83426870  1
  Te  Te204  1  0.33276953  0.66739180  0.16068777  1
  Te  Te205  1  0.32977333  0.66530170  0.50052658  1
  Te  Te206  1  0.33205424  0.66873892  0.83960084  1
  Te  Te207  1  0.66122893  0.00569549  0.16747377  1
  Te  Te208  1  0.67084897  -0.00042102  0.50510512  1
  Te  Te209  1  0.66842989  -0.00185634  0.82853381  1
  Te  Te210  1  0.66105132  0.32683499  0.16735263  1
  Te  Te211  1  0.66700982  0.33442392  0.50049211  1
  Te  Te212  1  0.65975646  0.33834198  0.83230625  1
  Te  Te213  1  0.66736984  0.66720418  0.15943056  1
  Te  Te214  1  0.66407264  0.66062576  0.50042067  1
  Te  Te215  1  0.66681260  0.66629782  0.83966783  1
