# generated using pymatgen
data_AgSbTe2
_symmetry_space_group_name_H-M   'P 1'
_cell_length_a   18.32782522
_cell_length_b   18.33624573
_cell_length_c   18.33202286
_cell_angle_alpha   89.99896309
_cell_angle_beta   90.00409206
_cell_angle_gamma   89.99924522
_symmetry_Int_Tables_number   1
_chemical_formula_structural   AgSbTe2
_chemical_formula_sum   'Ag54 Sb54 Te108'
_cell_volume   6160.72387402
_cell_formula_units_Z   54
loop_
 _symmetry_equiv_pos_site_id
 _symmetry_equiv_pos_as_xyz
  1  'x, y, z'
loop_
 _atom_site_type_symbol
 _atom_site_label
 _atom_site_symmetry_multiplicity
 _atom_site_fract_x
 _atom_site_fract_y
 _atom_site_fract_z
 _atom_site_occupancy
  Ag  Ag0  1  0.49921738  0.49627283  -0.00703357  1
  Ag  Ag1  1  0.83639575  0.33272643  0.82982415  1
  Ag  Ag2  1  0.49826229  0.33485937  0.50114487  1
  Ag  Ag3  1  0.66768996  0.66152348  0.33094112  1
  Ag  Ag4  1  0.82793447  0.50177077  0.34115406  1
  Ag  Ag5  1  -0.00215241  0.15323285  0.83012843  1
  Ag  Ag6  1  -0.00575933  0.83122731  0.16279878  1
  Ag  Ag7  1  0.49964809  0.17507066  0.66198592  1
  Ag  Ag8  1  0.34217097  0.49644278  0.50449645  1
  Ag  Ag9  1  0.50781012  0.49496766  0.33596884  1
  Ag  Ag10  1  0.66256799  0.49805615  0.49455777  1
  Ag  Ag11  1  0.83333186  0.15900275  0.34116887  1
  Ag  Ag12  1  0.83847248  0.83230114  -0.00017525  1
  Ag  Ag13  1  0.83250407  0.49954921  0.66313395  1
  Ag  Ag14  1  0.50105512  0.49428151  0.66898979  1
  Ag  Ag15  1  -0.00134783  0.32783319  0.33076703  1
  Ag  Ag16  1  0.16692491  0.33470504  0.16987427  1
  Ag  Ag17  1  0.49332782  0.65371589  0.83360119  1
  Ag  Ag18  1  -0.00485732  -0.00205671  0.67660586  1
  Ag  Ag19  1  0.67557819  -0.00214430  0.33265956  1
  Ag  Ag20  1  0.15368515  0.83481788  0.33280752  1
  Ag  Ag21  1  0.00204346  0.50385015  0.83734728  1
  Ag  Ag22  1  -0.00447854  0.67042004  -0.00749890  1
  Ag  Ag23  1  0.50133457  0.17661777  0.00045155  1
  Ag  Ag24  1  0.16208533  0.66785765  0.82986702  1
  Ag  Ag25  1  0.32146987  0.82247262  0.83235898  1
  Ag  Ag26  1  0.50277569  0.17508392  0.33893996  1
  Ag  Ag27  1  0.15995152  0.16387234  0.34063739  1
  Ag  Ag28  1  0.83486509  -0.00132480  0.50017965  1
  Ag  Ag29  1  0.16319131  0.50122233  -0.00336173  1
  Ag  Ag30  1  0.67393636  0.66555097  0.00394355  1
  Ag  Ag31  1  0.83584636  0.66679532  0.50006969  1
  Ag  Ag32  1  0.15398735  -0.00787435  0.83262734  1
  Ag  Ag33  1  0.83649718  0.16399408  0.66186003  1
  Ag  Ag34  1  0.84163407  0.00103815  0.82282763  1
  Ag  Ag35  1  -0.00623796  0.00163214  0.33286424  1
  Ag  Ag36  1  0.67578674  0.82649889  0.17007923  1
  Ag  Ag37  1  0.83808231  0.83878713  0.66661571  1
  Ag  Ag38  1  0.50337130  0.00850837  0.16869696  1
  Ag  Ag39  1  -0.00382239  0.50416712  0.16390265  1
  Ag  Ag40  1  0.66514549  0.17252486  0.49712465  1
  Ag  Ag41  1  0.49818878  0.33426733  0.17160466  1
  Ag  Ag42  1  0.33873676  0.66451641  0.33811120  1
  Ag  Ag43  1  0.34079419  0.17414726  0.50135782  1
  Ag  Ag44  1  0.66739161  0.50486169  0.17419640  1
  Ag  Ag45  1  -0.00148764  0.66908560  0.67316397  1
  Ag  Ag46  1  -0.00174404  -0.00931388  -0.01186944  1
  Ag  Ag47  1  0.00051583  0.83792174  0.83810869  1
  Ag  Ag48  1  0.16063714  0.66496264  0.50141061  1
  Ag  Ag49  1  0.33813094  0.33475333  0.66556009  1
  Ag  Ag50  1  0.83593493  0.83872012  0.33414840  1
  Ag  Ag51  1  0.33956636  0.50332949  0.82815057  1
  Ag  Ag52  1  0.15860111  0.16576448  0.66300093  1
  Ag  Ag53  1  0.50198864  0.33644853  0.82627486  1
  Sb  Sb54  1  0.66126941  0.33465586  0.66544304  1
  Sb  Sb55  1  0.67557072  0.83061976  0.83891761  1
  Sb  Sb56  1  0.17112728  0.33538561  0.49781069  1
  Sb  Sb57  1  0.33502956  0.49922505  0.16744840  1
  Sb  Sb58  1  0.32903504  0.66135911  0.66572169  1
  Sb  Sb59  1  0.33608715  0.33477525  -0.00558868  1
  Sb  Sb60  1  -0.00350345  0.83287794  0.49990953  1
  Sb  Sb61  1  0.33557018  0.16836519  0.17428028  1
  Sb  Sb62  1  0.67019939  0.83001240  0.49374447  1
  Sb  Sb63  1  0.83257733  0.50632047  -0.00176747  1
  Sb  Sb64  1  0.33445149  0.33642746  0.33813087  1
  Sb  Sb65  1  0.83319127  0.66810444  0.17325822  1
  Sb  Sb66  1  0.33207954  0.66444097  -0.00109001  1
  Sb  Sb67  1  0.84012579  0.66689775  0.82782945  1
  Sb  Sb68  1  0.67025162  0.16646161  0.82762747  1
  Sb  Sb69  1  0.32727178  0.00501359  0.66703205  1
  Sb  Sb70  1  -0.00102621  0.16598542  0.16730193  1
  Sb  Sb71  1  -0.00311660  0.16610396  0.50221732  1
  Sb  Sb72  1  0.67073204  -0.00434015  0.00627718  1
  Sb  Sb73  1  0.50538608  0.83151911  0.66993253  1
  Sb  Sb74  1  -0.00202108  0.50161711  0.49953042  1
  Sb  Sb75  1  0.83193269  -0.00240822  0.17177821  1
  Sb  Sb76  1  0.82865482  0.33360622  0.50271878  1
  Sb  Sb77  1  0.16507396  0.50056231  0.33145348  1
  Sb  Sb78  1  0.32986294  -0.00013793  -0.00285737  1
  Sb  Sb79  1  0.67513725  0.00168486  0.65920334  1
  Sb  Sb80  1  0.50789450  0.01136309  0.49537195  1
  Sb  Sb81  1  0.50103099  0.00429025  0.83533589  1
  Sb  Sb82  1  0.66840347  0.33564885  0.33375032  1
  Sb  Sb83  1  0.50247830  0.65722062  0.50299214  1
  Sb  Sb84  1  0.16293186  0.66281066  0.16708103  1
  Sb  Sb85  1  0.50551673  0.82972318  -0.00027330  1
  Sb  Sb86  1  0.16545591  0.00294206  0.16464608  1
  Sb  Sb87  1  0.66398708  0.16701986  0.17408762  1
  Sb  Sb88  1  0.66495852  0.33958643  0.00164237  1
  Sb  Sb89  1  0.33159741  0.83186583  0.16472472  1
  Sb  Sb90  1  0.50470764  0.83205000  0.33223781  1
  Sb  Sb91  1  0.15957720  0.83536544  0.66687061  1
  Sb  Sb92  1  -0.00408509  0.66854718  0.33369084  1
  Sb  Sb93  1  0.66563429  0.50205123  0.83230362  1
  Sb  Sb94  1  0.33133361  0.17065575  0.82614682  1
  Sb  Sb95  1  0.83194326  0.33660789  0.16647613  1
  Sb  Sb96  1  0.15888984  0.82743627  0.00033820  1
  Sb  Sb97  1  0.83027150  0.16081334  -0.00266952  1
  Sb  Sb98  1  0.16606703  0.49738814  0.66984093  1
  Sb  Sb99  1  0.50333085  0.66138665  0.16447512  1
  Sb  Sb100  1  0.00076526  0.33274379  0.66591633  1
  Sb  Sb101  1  0.33117885  0.82987744  0.50374887  1
  Sb  Sb102  1  0.33303464  -0.00184218  0.33533597  1
  Sb  Sb103  1  0.16044281  -0.00149045  0.50218406  1
  Sb  Sb104  1  0.16810679  0.17061881  -0.00192548  1
  Sb  Sb105  1  0.67282960  0.66426108  0.66602962  1
  Sb  Sb106  1  0.16541143  0.33654401  0.83495817  1
  Sb  Sb107  1  -0.00029099  0.33635673  0.00186846  1
  Te  Te108  1  0.16741118  0.17207033  0.16993472  1
  Te  Te109  1  0.16842310  0.16625858  0.50028673  1
  Te  Te110  1  0.16274754  0.16760615  0.83178834  1
  Te  Te111  1  0.16445093  0.49570840  0.16278481  1
  Te  Te112  1  0.17039095  0.50468195  0.50059169  1
  Te  Te113  1  0.16427425  0.50180941  0.83533227  1
  Te  Te114  1  0.16349281  0.83407757  0.17191441  1
  Te  Te115  1  0.16791902  0.82834853  0.49407537  1
  Te  Te116  1  0.16227619  0.83136245  0.83357619  1
  Te  Te117  1  0.50006103  0.17046646  0.16936538  1
  Te  Te118  1  0.50180250  0.17119260  0.49993413  1
  Te  Te119  1  0.50047660  0.17100253  0.82987137  1
  Te  Te120  1  0.50083593  0.49716159  0.16925973  1
  Te  Te121  1  0.50097101  0.49756244  0.49992565  1
  Te  Te122  1  0.50248211  0.49723983  0.83154812  1
  Te  Te123  1  0.50066421  0.83555498  0.16532258  1
  Te  Te124  1  0.50008014  0.83600594  0.50249962  1
  Te  Te125  1  0.49897500  0.83493722  0.83375950  1
  Te  Te126  1  0.83211992  0.16887364  0.17453621  1
  Te  Te127  1  0.83062410  0.16755036  0.50049585  1
  Te  Te128  1  0.83604504  0.16635176  0.83211254  1
  Te  Te129  1  0.83360611  0.49949708  0.16894469  1
  Te  Te130  1  0.83192801  0.49985388  0.50136523  1
  Te  Te131  1  0.83292259  0.49826448  0.83027328  1
  Te  Te132  1  0.83530608  0.83357156  0.16897481  1
  Te  Te133  1  0.83157676  0.83258133  0.49889955  1
  Te  Te134  1  0.83908372  0.83417286  0.83070607  1
  Te  Te135  1  0.16055453  0.00177604  -0.00397718  1
  Te  Te136  1  0.16576204  0.00103998  0.33352151  1
  Te  Te137  1  0.15937843  0.00414509  0.67015244  1
  Te  Te138  1  0.16786269  0.33909834  0.00682512  1
  Te  Te139  1  0.16464276  0.32973728  0.33057882  1
  Te  Te140  1  0.17033401  0.32605576  0.66621468  1
  Te  Te141  1  0.16379181  0.66102241  -0.00360257  1
  Te  Te142  1  0.16384229  0.66880144  0.33547881  1
  Te  Te143  1  0.16129692  0.66748339  0.66699637  1
  Te  Te144  1  0.50091494  0.00202685  0.00419802  1
  Te  Te145  1  0.50064542  0.00148124  0.32961840  1
  Te  Te146  1  0.50162562  0.00354496  0.66636698  1
  Te  Te147  1  0.50040547  0.33565807  0.00001980  1
  Te  Te148  1  0.49921181  0.33444155  0.33377465  1
  Te  Te149  1  0.49875335  0.33462142  0.66692451  1
  Te  Te150  1  0.49941635  0.66186374  -0.00383278  1
  Te  Te151  1  0.50309891  0.66381322  0.33434604  1
  Te  Te152  1  0.50042728  0.66329010  0.67216293  1
  Te  Te153  1  0.83806901  -0.00464670  -0.00149625  1
  Te  Te154  1  0.83301098  -0.00016456  0.33421960  1
  Te  Te155  1  0.83673122  0.00187043  0.66351519  1
  Te  Te156  1  0.83224332  0.33106073  -0.00773724  1
  Te  Te157  1  0.83782798  0.33646291  0.33415268  1
  Te  Te158  1  0.83486561  0.33267965  0.66963496  1
  Te  Te159  1  0.83367741  0.67132348  -0.00338456  1
  Te  Te160  1  0.83098621  0.66389589  0.33922034  1
  Te  Te161  1  0.83724370  0.66197673  0.66166686  1
  Te  Te162  1  0.00021039  0.16452488  -0.00491683  1
  Te  Te163  1  -0.00072033  0.16580837  0.33256134  1
  Te  Te164  1  -0.00173865  0.16635712  0.66857063  1
  Te  Te165  1  -0.00132201  0.50248433  0.00182852  1
  Te  Te166  1  -0.00280183  0.50089497  0.33015265  1
  Te  Te167  1  -0.00248680  0.50043208  0.66804860  1
  Te  Te168  1  -0.00097281  0.83167647  0.00153549  1
  Te  Te169  1  -0.00371530  0.83267269  0.33202146  1
  Te  Te170  1  -0.00356346  0.83461359  0.66867690  1
  Te  Te171  1  0.34121956  0.16653208  -0.00142885  1
  Te  Te172  1  0.33577505  0.16660273  0.34057053  1
  Te  Te173  1  0.33737680  0.16993564  0.66229221  1
  Te  Te174  1  0.33726110  0.50103431  -0.00464958  1
  Te  Te175  1  0.33410827  0.50330954  0.33605942  1
  Te  Te176  1  0.33418529  0.49709018  0.66720057  1
  Te  Te177  1  0.33211894  0.83262507  -0.00751784  1
  Te  Te178  1  0.33290616  0.82762218  0.33423568  1
  Te  Te179  1  0.33459569  0.83386186  0.67307139  1
  Te  Te180  1  0.66090826  0.16525348  0.00113672  1
  Te  Te181  1  0.66657307  0.16494892  0.33674558  1
  Te  Te182  1  0.66899687  0.16639091  0.65999517  1
  Te  Te183  1  0.66433021  0.50614044  0.00464002  1
  Te  Te184  1  0.66745806  0.50020700  0.33365840  1
  Te  Te185  1  0.66841795  0.50122909  0.66043052  1
  Te  Te186  1  0.67303412  0.82795092  0.00755882  1
  Te  Te187  1  0.67050975  0.83268252  0.32888122  1
  Te  Te188  1  0.67600178  0.83334725  0.66657220  1
  Te  Te189  1  0.00114181  -0.00387093  0.17337842  1
  Te  Te190  1  -0.00544131  0.00002621  0.49237507  1
  Te  Te191  1  -0.00233595  -0.00265484  0.83224508  1
  Te  Te192  1  0.00032320  0.33622246  0.16952107  1
  Te  Te193  1  0.00172493  0.33420426  0.49089330  1
  Te  Te194  1  -0.00223603  0.34423413  0.83412446  1
  Te  Te195  1  -0.00028055  0.66587331  0.15979190  1
  Te  Te196  1  -0.00025499  0.66615881  0.50609124  1
  Te  Te197  1  0.00046805  0.66299117  0.83267969  1
  Te  Te198  1  0.34060508  -0.00053423  0.16557185  1
  Te  Te199  1  0.33279367  0.00373570  0.50103214  1
  Te  Te200  1  0.32932093  -0.00218065  0.83290922  1
  Te  Te201  1  0.33563138  0.33410495  0.16622324  1
  Te  Te202  1  0.33653053  0.33519088  0.50372220  1
  Te  Te203  1  0.33590297  0.33877029  0.82781224  1
  Te  Te204  1  0.33223738  0.66731451  0.17601571  1
  Te  Te205  1  0.33180037  0.66257593  0.49823704  1
  Te  Te206  1  0.33123056  0.66379073  0.83219756  1
  Te  Te207  1  0.66309377  -0.00287343  0.17222062  1
  Te  Te208  1  0.67406806  0.00213079  0.49260893  1
  Te  Te209  1  0.67250596  -0.00180281  0.83516420  1
  Te  Te210  1  0.66100805  0.34106225  0.16632788  1
  Te  Te211  1  0.66013081  0.33473117  0.49958394  1
  Te  Te212  1  0.66534178  0.33343532  0.83471565  1
  Te  Te213  1  0.66706497  0.66618040  0.16758273  1
  Te  Te214  1  0.67055639  0.66258879  0.49614599  1
  Te  Te215  1  0.65930247  0.66795033  0.83766069  1
