# generated using pymatgen
data_AgSbTe2
_symmetry_space_group_name_H-M   'P 1'
_cell_length_a   18.32242198
_cell_length_b   18.32235780
_cell_length_c   18.32726017
_cell_angle_alpha   90.00415403
_cell_angle_beta   90.00185140
_cell_angle_gamma   90.00139456
_symmetry_Int_Tables_number   1
_chemical_formula_structural   AgSbTe2
_chemical_formula_sum   'Ag54 Sb54 Te108'
_cell_volume   6152.64396578
_cell_formula_units_Z   54
loop_
 _symmetry_equiv_pos_site_id
 _symmetry_equiv_pos_as_xyz
  1  'x, y, z'
loop_
 _atom_site_type_symbol
 _atom_site_label
 _atom_site_symmetry_multiplicity
 _atom_site_fract_x
 _atom_site_fract_y
 _atom_site_fract_z
 _atom_site_occupancy
  Ag  Ag0  1  0.32795449  0.66738291  0.67342439  1
  Ag  Ag1  1  0.16428798  0.67162285  0.15814511  1
  Ag  Ag2  1  0.33155948  0.66706331  -0.00612001  1
  Ag  Ag3  1  0.33051151  0.16836339  0.83020075  1
  Ag  Ag4  1  0.00458099  0.83142720  0.16238473  1
  Ag  Ag5  1  0.17003884  0.66988348  0.49924720  1
  Ag  Ag6  1  -0.00030907  0.83774795  0.83910777  1
  Ag  Ag7  1  0.16790710  0.50302363  0.32834036  1
  Ag  Ag8  1  0.16772716  -0.00975758  0.17030776  1
  Ag  Ag9  1  0.00370861  0.33004918  0.32994062  1
  Ag  Ag10  1  -0.00253701  0.33858393  0.67796963  1
  Ag  Ag11  1  0.65945182  0.83146176  0.16732706  1
  Ag  Ag12  1  0.49258302  -0.00853177  0.17332205  1
  Ag  Ag13  1  0.32800704  0.33507279  0.33473805  1
  Ag  Ag14  1  0.49438835  0.83090192  0.00299196  1
  Ag  Ag15  1  0.49036573  0.34552666  0.83479063  1
  Ag  Ag16  1  0.00720029  0.66637304  0.67259077  1
  Ag  Ag17  1  0.84550378  0.33455304  0.83455133  1
  Ag  Ag18  1  0.83659797  0.49930161  0.67074843  1
  Ag  Ag19  1  0.00853704  -0.00109601  0.32857057  1
  Ag  Ag20  1  0.33186287  0.83235529  0.16627959  1
  Ag  Ag21  1  0.00341189  -0.00278562  0.67556937  1
  Ag  Ag22  1  0.49022058  0.51281930  -0.00594486  1
  Ag  Ag23  1  0.16906966  0.50932195  0.00098598  1
  Ag  Ag24  1  0.33497585  0.50449079  0.83055208  1
  Ag  Ag25  1  0.33168581  0.50191982  0.50656482  1
  Ag  Ag26  1  0.00174550  0.16499696  0.83473907  1
  Ag  Ag27  1  0.84027362  0.33973865  0.16297209  1
  Ag  Ag28  1  0.48731500  0.66492334  0.83780591  1
  Ag  Ag29  1  0.84668909  -0.00001027  0.83293298  1
  Ag  Ag30  1  0.16861341  0.82797099  0.00366622  1
  Ag  Ag31  1  0.00119236  -0.00113012  -0.00521557  1
  Ag  Ag32  1  0.16225564  0.33984341  0.83530990  1
  Ag  Ag33  1  0.48929265  -0.00192738  0.49655655  1
  Ag  Ag34  1  0.49326781  0.15354805  0.33344757  1
  Ag  Ag35  1  0.66510725  0.83461577  0.49408042  1
  Ag  Ag36  1  0.66050922  0.66898427  -0.00131031  1
  Ag  Ag37  1  -0.00128087  0.33029983  -0.00656169  1
  Ag  Ag38  1  0.84017082  0.66567225  0.83669988  1
  Ag  Ag39  1  0.65603766  -0.00293872  0.66828067  1
  Ag  Ag40  1  0.83843508  0.16803718  -0.00318050  1
  Ag  Ag41  1  0.17042697  0.66278805  0.83933741  1
  Ag  Ag42  1  0.33374212  0.15853099  0.50150657  1
  Ag  Ag43  1  0.00287257  0.50795055  0.16525020  1
  Ag  Ag44  1  0.33321052  -0.00164624  0.33991589  1
  Ag  Ag45  1  0.17212594  -0.00693459  0.49481794  1
  Ag  Ag46  1  0.33293460  -0.00503459  0.66144619  1
  Ag  Ag47  1  0.32906001  0.67128664  0.33147674  1
  Ag  Ag48  1  0.83263566  0.83317088  0.32867445  1
  Ag  Ag49  1  0.49550080  -0.00318254  0.83184136  1
  Ag  Ag50  1  0.49739447  0.83631293  0.32441080  1
  Ag  Ag51  1  0.84261417  0.66835366  0.15959528  1
  Ag  Ag52  1  0.83762102  0.33473625  0.50312802  1
  Ag  Ag53  1  0.49362598  0.50224158  0.67652145  1
  Sb  Sb54  1  0.50045112  0.33145583  0.16273518  1
  Sb  Sb55  1  0.16954615  0.83157232  0.32446625  1
  Sb  Sb56  1  0.67209624  0.50877911  0.16364968  1
  Sb  Sb57  1  0.32720529  0.50792715  0.16478048  1
  Sb  Sb58  1  0.00678749  0.66949044  0.33143718  1
  Sb  Sb59  1  0.16547704  -0.00332613  0.83418888  1
  Sb  Sb60  1  0.16613035  0.83157052  0.67263829  1
  Sb  Sb61  1  0.83657215  0.83301709  0.00299885  1
  Sb  Sb62  1  0.33365080  0.16043765  0.16664695  1
  Sb  Sb63  1  0.66228745  0.16122942  0.50046286  1
  Sb  Sb64  1  0.17089435  0.16610431  0.33328068  1
  Sb  Sb65  1  0.83882465  0.66461247  0.50181517  1
  Sb  Sb66  1  0.49386054  0.67291126  0.15851892  1
  Sb  Sb67  1  0.83899704  0.50010347  -0.00526546  1
  Sb  Sb68  1  -0.00020304  0.83475799  0.49749173  1
  Sb  Sb69  1  0.66559153  0.67060952  0.67183435  1
  Sb  Sb70  1  0.32930576  0.33581561  0.66764086  1
  Sb  Sb71  1  0.49896696  0.33035083  0.50349907  1
  Sb  Sb72  1  0.67047261  0.33033421  0.66871972  1
  Sb  Sb73  1  0.49248145  0.67240169  0.50476673  1
  Sb  Sb74  1  -0.00017510  0.16447048  0.16098272  1
  Sb  Sb75  1  0.49865402  0.83346504  0.66937432  1
  Sb  Sb76  1  0.84125548  0.50219537  0.33431658  1
  Sb  Sb77  1  0.66818052  0.33351698  0.33214377  1
  Sb  Sb78  1  0.66019439  0.67106407  0.32765682  1
  Sb  Sb79  1  0.00633902  0.49986464  0.83755125  1
  Sb  Sb80  1  0.66915510  0.83295888  0.83633044  1
  Sb  Sb81  1  0.32958639  -0.00538619  -0.00122488  1
  Sb  Sb82  1  0.83482579  0.83149136  0.66607798  1
  Sb  Sb83  1  0.16750886  0.16455665  0.66879731  1
  Sb  Sb84  1  0.66894123  -0.00644766  -0.00351946  1
  Sb  Sb85  1  0.49680425  0.16654346  0.66718202  1
  Sb  Sb86  1  0.32830434  0.33935253  -0.00107588  1
  Sb  Sb87  1  0.16120304  0.33770674  0.16406331  1
  Sb  Sb88  1  0.33531380  0.83446410  0.49343974  1
  Sb  Sb89  1  0.50162910  0.16221025  -0.00082610  1
  Sb  Sb90  1  0.00722773  0.49924702  0.49861692  1
  Sb  Sb91  1  0.83552577  0.00263022  0.50422270  1
  Sb  Sb92  1  0.83704860  -0.00605619  0.16310606  1
  Sb  Sb93  1  0.00521874  0.16631832  0.50482016  1
  Sb  Sb94  1  0.00610818  0.66930884  -0.00342648  1
  Sb  Sb95  1  0.66042349  -0.00434266  0.33690763  1
  Sb  Sb96  1  0.16302504  0.16556190  -0.00251415  1
  Sb  Sb97  1  0.66894749  0.16386019  0.83402469  1
  Sb  Sb98  1  0.66071976  0.50202568  0.83367690  1
  Sb  Sb99  1  0.16749075  0.50331552  0.66988700  1
  Sb  Sb100  1  0.83311812  0.16353210  0.32916338  1
  Sb  Sb101  1  0.83711600  0.16978108  0.67280312  1
  Sb  Sb102  1  0.67149814  0.34054857  -0.00168156  1
  Sb  Sb103  1  0.48840264  0.50451537  0.33251491  1
  Sb  Sb104  1  0.32941698  0.83052682  0.83850562  1
  Sb  Sb105  1  0.16540859  0.33543435  0.50207357  1
  Sb  Sb106  1  0.66161833  0.50554922  0.50159250  1
  Sb  Sb107  1  0.66784836  0.15876008  0.16610655  1
  Te  Te108  1  0.16745241  0.15580391  0.16536896  1
  Te  Te109  1  0.17460842  0.16243463  0.50043549  1
  Te  Te110  1  0.16727037  0.17255756  0.83384943  1
  Te  Te111  1  0.16236377  0.50315089  0.16518911  1
  Te  Te112  1  0.17344788  0.50260700  0.49616346  1
  Te  Te113  1  0.17251108  0.50148802  0.83574067  1
  Te  Te114  1  0.16532877  0.83258861  0.16433413  1
  Te  Te115  1  0.16629822  0.83264425  0.50007199  1
  Te  Te116  1  0.16041227  0.82744754  0.84046141  1
  Te  Te117  1  0.50149421  0.16053811  0.17083219  1
  Te  Te118  1  0.49471802  0.16235570  0.49629623  1
  Te  Te119  1  0.49657614  0.16044388  0.83431112  1
  Te  Te120  1  0.50191208  0.49935242  0.16161476  1
  Te  Te121  1  0.49332600  0.50032504  0.50221771  1
  Te  Te122  1  0.49670451  0.50305974  0.83456598  1
  Te  Te123  1  0.49837565  0.83336383  0.16489237  1
  Te  Te124  1  0.50395696  0.83890153  0.49890863  1
  Te  Te125  1  0.50034433  0.83236436  0.83778615  1
  Te  Te126  1  0.83245520  0.17243613  0.16096666  1
  Te  Te127  1  0.83192257  0.17414191  0.49881626  1
  Te  Te128  1  0.83627058  0.16559596  0.83697791  1
  Te  Te129  1  0.83931059  0.50229838  0.16585221  1
  Te  Te130  1  0.83154996  0.49615465  0.50302197  1
  Te  Te131  1  0.83208550  0.50041893  0.83066393  1
  Te  Te132  1  0.83978080  0.82984094  0.16828367  1
  Te  Te133  1  0.82919283  0.83309925  0.49299483  1
  Te  Te134  1  0.83867386  0.83351230  0.83419743  1
  Te  Te135  1  0.16195536  -0.00356104  0.00320983  1
  Te  Te136  1  0.16836382  -0.00013386  0.33302852  1
  Te  Te137  1  0.16745381  -0.00204429  0.66312136  1
  Te  Te138  1  0.16115990  0.33571697  -0.00288714  1
  Te  Te139  1  0.16674925  0.33632717  0.33319361  1
  Te  Te140  1  0.15952895  0.33457578  0.67062612  1
  Te  Te141  1  0.16754661  0.66710670  -0.00043770  1
  Te  Te142  1  0.16963467  0.66457627  0.33563556  1
  Te  Te143  1  0.16723909  0.66637777  0.66776318  1
  Te  Te144  1  0.50090623  -0.00431994  -0.00383243  1
  Te  Te145  1  0.49834411  -0.00409654  0.33389387  1
  Te  Te146  1  0.49473809  0.00016145  0.66952149  1
  Te  Te147  1  0.50093345  0.33209060  -0.00533885  1
  Te  Te148  1  0.49582582  0.33496231  0.33287820  1
  Te  Te149  1  0.50109744  0.33832604  0.67280850  1
  Te  Te150  1  0.49505014  0.66940136  -0.00186519  1
  Te  Te151  1  0.49203921  0.67233158  0.33474101  1
  Te  Te152  1  0.49776451  0.66321402  0.67256904  1
  Te  Te153  1  0.83656620  0.00201797  -0.00501968  1
  Te  Te154  1  0.83640230  -0.00301765  0.33369055  1
  Te  Te155  1  0.84352182  -0.00005803  0.67164610  1
  Te  Te156  1  0.83682172  0.33390917  -0.00272802  1
  Te  Te157  1  0.83691875  0.33288203  0.32972575  1
  Te  Te158  1  0.83593508  0.33601003  0.67152879  1
  Te  Te159  1  0.83267918  0.66602072  -0.00093698  1
  Te  Te160  1  0.83382207  0.67049655  0.33243099  1
  Te  Te161  1  0.83402674  0.66261552  0.66907546  1
  Te  Te162  1  -0.00241050  0.16712785  -0.00537178  1
  Te  Te163  1  -0.00088456  0.16627085  0.33519274  1
  Te  Te164  1  0.00117398  0.16519220  0.67295842  1
  Te  Te165  1  0.00486677  0.49515015  0.00547602  1
  Te  Te166  1  0.00589825  0.49753367  0.32909034  1
  Te  Te167  1  -0.00265449  0.49994210  0.66573119  1
  Te  Te168  1  0.00173191  0.83551579  0.00033718  1
  Te  Te169  1  -0.00297554  0.83683126  0.33042222  1
  Te  Te170  1  -0.00037434  0.83224881  0.67005152  1
  Te  Te171  1  0.33364271  0.16836434  -0.00754529  1
  Te  Te172  1  0.33551834  0.16227633  0.33363810  1
  Te  Te173  1  0.33364053  0.16335778  0.66809296  1
  Te  Te174  1  0.33095488  0.50339853  -0.00191603  1
  Te  Te175  1  0.32803914  0.50084746  0.33256422  1
  Te  Te176  1  0.33378449  0.50146628  0.66801777  1
  Te  Te177  1  0.33245565  0.82939755  0.00429951  1
  Te  Te178  1  0.33605187  0.83590338  0.32857793  1
  Te  Te179  1  0.33315038  0.83201522  0.66759637  1
  Te  Te180  1  0.67530555  0.16693358  0.00093878  1
  Te  Te181  1  0.65728307  0.16673480  0.33365322  1
  Te  Te182  1  0.66698062  0.15574703  0.66589416  1
  Te  Te183  1  0.65756551  0.50827006  0.00045882  1
  Te  Te184  1  0.66530084  0.50211852  0.33320379  1
  Te  Te185  1  0.66703221  0.50022227  0.66516631  1
  Te  Te186  1  0.66347159  0.82804715  0.00425719  1
  Te  Te187  1  0.66646589  0.83287437  0.33039416  1
  Te  Te188  1  0.66690651  0.83881797  0.66286119  1
  Te  Te189  1  0.00099221  -0.00223378  0.16817500  1
  Te  Te190  1  0.00446856  0.00141555  0.49923088  1
  Te  Te191  1  0.00338634  0.00031188  0.83483756  1
  Te  Te192  1  -0.00153019  0.33050408  0.17006402  1
  Te  Te193  1  -0.00257028  0.33264984  0.49549922  1
  Te  Te194  1  0.00208517  0.33632219  0.83390881  1
  Te  Te195  1  0.00247005  0.66790498  0.16640536  1
  Te  Te196  1  0.00698062  0.66673276  0.50738338  1
  Te  Te197  1  -0.00076670  0.66523492  0.83160191  1
  Te  Te198  1  0.33389791  -0.00468310  0.16632155  1
  Te  Te199  1  0.33300094  -0.00192217  0.50009172  1
  Te  Te200  1  0.33283386  0.00030305  0.83094952  1
  Te  Te201  1  0.33289583  0.33136446  0.17323087  1
  Te  Te202  1  0.33333187  0.33410811  0.49708135  1
  Te  Te203  1  0.33335439  0.33256681  0.83266937  1
  Te  Te204  1  0.32777496  0.67049685  0.16927607  1
  Te  Te205  1  0.32939092  0.66590291  0.50108752  1
  Te  Te206  1  0.33111710  0.66772794  0.83307568  1
  Te  Te207  1  0.66433327  -0.00885635  0.16582517  1
  Te  Te208  1  0.66702842  -0.00452933  0.50580517  1
  Te  Te209  1  0.66228212  -0.00101191  0.82852599  1
  Te  Te210  1  0.67373006  0.33366463  0.16588589  1
  Te  Te211  1  0.67331102  0.33429436  0.50034231  1
  Te  Te212  1  0.66581839  0.33213144  0.83314392  1
  Te  Te213  1  0.67395706  0.67320574  0.16185748  1
  Te  Te214  1  0.66676254  0.67405947  0.50017921  1
  Te  Te215  1  0.67441525  0.66794475  0.83794000  1
