# generated using pymatgen
data_AgSbTe2
_symmetry_space_group_name_H-M   'P 1'
_cell_length_a   18.32041858
_cell_length_b   18.32200141
_cell_length_c   18.32293437
_cell_angle_alpha   90.00131123
_cell_angle_beta   90.00141014
_cell_angle_gamma   90.00554121
_symmetry_Int_Tables_number   1
_chemical_formula_structural   AgSbTe2
_chemical_formula_sum   'Ag54 Sb54 Te108'
_cell_volume   6150.39952262
_cell_formula_units_Z   54
loop_
 _symmetry_equiv_pos_site_id
 _symmetry_equiv_pos_as_xyz
  1  'x, y, z'
loop_
 _atom_site_type_symbol
 _atom_site_label
 _atom_site_symmetry_multiplicity
 _atom_site_fract_x
 _atom_site_fract_y
 _atom_site_fract_z
 _atom_site_occupancy
  Ag  Ag0  1  -0.00074053  0.33151692  0.33485344  1
  Ag  Ag1  1  0.83628354  0.32840405  0.50216363  1
  Ag  Ag2  1  0.66871639  0.32231027  0.33801623  1
  Ag  Ag3  1  0.65860901  0.67510408  0.32990268  1
  Ag  Ag4  1  -0.00321420  0.48845948  0.16554076  1
  Ag  Ag5  1  0.66427118  0.84187568  0.49554478  1
  Ag  Ag6  1  0.33902945  0.33445833  0.66279176  1
  Ag  Ag7  1  0.82586015  0.16663599  0.33241719  1
  Ag  Ag8  1  0.82372079  0.83912059  0.66399458  1
  Ag  Ag9  1  0.33716088  0.16516331  0.16953083  1
  Ag  Ag10  1  0.66888938  0.16897902  0.83474999  1
  Ag  Ag11  1  0.33337807  0.00450335  0.00625040  1
  Ag  Ag12  1  0.50439945  0.32808235  0.50226229  1
  Ag  Ag13  1  0.83346539  0.33009892  0.82420193  1
  Ag  Ag14  1  -0.00088692  0.17136171  0.49614003  1
  Ag  Ag15  1  0.34536920  -0.00017509  0.33082329  1
  Ag  Ag16  1  0.50424553  0.83936914  0.65903624  1
  Ag  Ag17  1  0.49941898  0.00423915  0.83198281  1
  Ag  Ag18  1  0.33930980  0.67014930  0.33540251  1
  Ag  Ag19  1  0.00112123  0.17004217  0.16533279  1
  Ag  Ag20  1  0.50613321  0.32874994  0.82639215  1
  Ag  Ag21  1  0.33556993  0.66116271  0.66226800  1
  Ag  Ag22  1  0.82558363  0.00691295  0.49814678  1
  Ag  Ag23  1  0.82323858  0.00431080  0.17544234  1
  Ag  Ag24  1  0.00306257  0.65695886  -0.00090086  1
  Ag  Ag25  1  0.49962725  0.49861790  -0.00005174  1
  Ag  Ag26  1  0.16248143  0.16544733  -0.00267738  1
  Ag  Ag27  1  0.66827372  0.00597021  0.65675623  1
  Ag  Ag28  1  0.66368401  0.84555475  0.17692777  1
  Ag  Ag29  1  0.65885497  0.00379227  0.33662966  1
  Ag  Ag30  1  0.50803036  0.15727105  0.33246137  1
  Ag  Ag31  1  0.15694679  0.33315083  0.49619090  1
  Ag  Ag32  1  0.00115023  0.33022303  0.00697233  1
  Ag  Ag33  1  -0.00049308  0.48857217  0.83410352  1
  Ag  Ag34  1  0.33122983  0.49520309  0.49908983  1
  Ag  Ag35  1  0.15962604  0.33080976  0.17458125  1
  Ag  Ag36  1  0.66661483  0.16546506  0.17489345  1
  Ag  Ag37  1  0.16846971  0.66866983  0.83293043  1
  Ag  Ag38  1  0.00322657  0.01266158  -0.00330079  1
  Ag  Ag39  1  -0.00153177  0.16976480  0.83512746  1
  Ag  Ag40  1  0.66494470  0.32530260  0.65821139  1
  Ag  Ag41  1  0.50244113  0.84422425  0.33662084  1
  Ag  Ag42  1  0.50219880  0.67109112  0.17154745  1
  Ag  Ag43  1  0.00251213  0.48973338  0.50004127  1
  Ag  Ag44  1  0.16487857  0.49706163  0.33536225  1
  Ag  Ag45  1  0.50629520  0.00015589  0.17753981  1
  Ag  Ag46  1  0.17367533  0.83285035  0.33378076  1
  Ag  Ag47  1  0.50767243  0.00435231  0.48936592  1
  Ag  Ag48  1  -0.00798524  0.00427636  0.66963742  1
  Ag  Ag49  1  0.16278222  0.16728497  0.67107438  1
  Ag  Ag50  1  0.83481924  0.49259860  0.66472180  1
  Ag  Ag51  1  0.66856018  0.49507141  0.17096386  1
  Ag  Ag52  1  0.16643688  0.00380098  0.83436450  1
  Ag  Ag53  1  0.49772699  0.66541724  0.83444977  1
  Sb  Sb54  1  0.83590003  0.16656798  0.66051716  1
  Sb  Sb55  1  0.50025332  0.33037115  0.16886157  1
  Sb  Sb56  1  0.00219725  0.65776197  0.32919694  1
  Sb  Sb57  1  0.33237336  0.16593368  0.83478588  1
  Sb  Sb58  1  0.16720937  0.16936480  0.33213126  1
  Sb  Sb59  1  0.16614977  0.49517736  0.00238089  1
  Sb  Sb60  1  0.33025035  0.49912254  0.82863594  1
  Sb  Sb61  1  0.00430004  0.66745168  0.67034939  1
  Sb  Sb62  1  0.16931767  0.83748740  0.66290280  1
  Sb  Sb63  1  0.33820981  0.00216142  0.66410575  1
  Sb  Sb64  1  0.50077907  0.83372258  0.00276252  1
  Sb  Sb65  1  0.82812903  0.67017063  0.16818694  1
  Sb  Sb66  1  0.33474619  0.83346494  0.83172811  1
  Sb  Sb67  1  0.66380721  0.84090901  0.82945687  1
  Sb  Sb68  1  0.16287008  0.49301433  0.66309578  1
  Sb  Sb69  1  0.50025168  0.16464639  0.66230606  1
  Sb  Sb70  1  0.16517760  0.83884048  0.00453537  1
  Sb  Sb71  1  0.33837455  0.83238227  0.49776420  1
  Sb  Sb72  1  0.66805901  0.49357743  0.83557957  1
  Sb  Sb73  1  0.66681508  0.66415096  0.00480949  1
  Sb  Sb74  1  0.33229871  0.66983156  0.00132686  1
  Sb  Sb75  1  0.66180256  0.66822086  0.66301546  1
  Sb  Sb76  1  0.17002871  0.66198166  0.16527068  1
  Sb  Sb77  1  0.83335251  0.83587374  -0.00346917  1
  Sb  Sb78  1  0.67121329  0.33130552  0.00248003  1
  Sb  Sb79  1  0.83284869  0.66533223  0.49917853  1
  Sb  Sb80  1  0.16880474  0.66099231  0.50159434  1
  Sb  Sb81  1  0.83358397  0.00829421  0.83024689  1
  Sb  Sb82  1  0.33847904  0.84050975  0.17103969  1
  Sb  Sb83  1  0.84079874  0.16693699  0.00572690  1
  Sb  Sb84  1  0.82524971  0.84165277  0.33827858  1
  Sb  Sb85  1  -0.00484331  0.83883407  0.16964358  1
  Sb  Sb86  1  0.50275290  0.49872146  0.66879968  1
  Sb  Sb87  1  0.33373906  0.33180158  0.33818323  1
  Sb  Sb88  1  0.16629399  0.00658752  0.50180439  1
  Sb  Sb89  1  0.83247501  0.66107916  0.83145280  1
  Sb  Sb90  1  0.66680858  0.49698173  0.49623997  1
  Sb  Sb91  1  0.33020307  0.32873126  -0.00335173  1
  Sb  Sb92  1  0.49970131  0.49928730  0.33147309  1
  Sb  Sb93  1  0.49944497  0.66775489  0.49749605  1
  Sb  Sb94  1  0.83761663  0.32750165  0.17158561  1
  Sb  Sb95  1  -0.00340874  0.32710352  0.66321411  1
  Sb  Sb96  1  0.83448338  0.49698489  -0.00104056  1
  Sb  Sb97  1  -0.00052900  0.83840649  0.83261806  1
  Sb  Sb98  1  0.49644902  0.16787492  0.00359406  1
  Sb  Sb99  1  0.33079373  0.17134921  0.49629588  1
  Sb  Sb100  1  0.16343215  0.32965385  0.83013678  1
  Sb  Sb101  1  0.66552659  0.00225088  0.00456723  1
  Sb  Sb102  1  -0.00493570  0.83830851  0.49887398  1
  Sb  Sb103  1  0.67186661  0.16400062  0.49688215  1
  Sb  Sb104  1  0.83603019  0.49226397  0.33709809  1
  Sb  Sb105  1  -0.00100141  0.00819270  0.33288793  1
  Sb  Sb106  1  0.16816315  0.00755516  0.16477140  1
  Sb  Sb107  1  0.33360518  0.49504157  0.17251422  1
  Te  Te108  1  0.16118737  0.17091501  0.16529436  1
  Te  Te109  1  0.16073954  0.17199936  0.50316805  1
  Te  Te110  1  0.16440360  0.16457333  0.83328393  1
  Te  Te111  1  0.16263160  0.49468591  0.17015194  1
  Te  Te112  1  0.16446430  0.49481065  0.49733193  1
  Te  Te113  1  0.16048990  0.50247662  0.83365732  1
  Te  Te114  1  0.16588809  0.83123706  0.17397321  1
  Te  Te115  1  0.16537604  0.83350392  0.49361945  1
  Te  Te116  1  0.16700092  0.83474028  0.83266120  1
  Te  Te117  1  0.50118996  0.16340807  0.16915531  1
  Te  Te118  1  0.49791114  0.16685782  0.49537129  1
  Te  Te119  1  0.50031407  0.16775467  0.83345600  1
  Te  Te120  1  0.50168880  0.49906683  0.16351260  1
  Te  Te121  1  0.49681100  0.49399004  0.50052253  1
  Te  Te122  1  0.49981482  0.50004164  0.83638106  1
  Te  Te123  1  0.50373490  0.83473223  0.16943200  1
  Te  Te124  1  0.50346013  0.83504664  0.49861159  1
  Te  Te125  1  0.50105406  0.83381347  0.83168289  1
  Te  Te126  1  0.83241973  0.16318694  0.17124850  1
  Te  Te127  1  0.83835599  0.16684959  0.49500815  1
  Te  Te128  1  0.83502360  0.17155848  0.83553456  1
  Te  Te129  1  0.83441372  0.50071573  0.16715680  1
  Te  Te130  1  0.83662716  0.49565196  0.50396320  1
  Te  Te131  1  0.83742186  0.49444362  0.82974104  1
  Te  Te132  1  0.82652848  0.84033486  0.16674608  1
  Te  Te133  1  0.82854993  0.83747004  0.50481171  1
  Te  Te134  1  0.83094885  0.83268516  0.82483640  1
  Te  Te135  1  0.16501904  0.00323550  -0.00317842  1
  Te  Te136  1  0.16796840  -0.00393223  0.33381982  1
  Te  Te137  1  0.16764895  0.00280048  0.67016495  1
  Te  Te138  1  0.16279709  0.32815879  0.00052266  1
  Te  Te139  1  0.16652454  0.33501673  0.33494734  1
  Te  Te140  1  0.17157815  0.32931754  0.66281345  1
  Te  Te141  1  0.16418882  0.66745424  -0.00517239  1
  Te  Te142  1  0.17086550  0.66462342  0.33326100  1
  Te  Te143  1  0.17299263  0.66859431  0.67239164  1
  Te  Te144  1  0.49651987  0.00012267  -0.00824441  1
  Te  Te145  1  0.50079871  0.00036434  0.33379084  1
  Te  Te146  1  0.50261468  -0.00112106  0.67139598  1
  Te  Te147  1  0.49920449  0.33623681  -0.00306060  1
  Te  Te148  1  0.50310489  0.33186859  0.33657229  1
  Te  Te149  1  0.50353064  0.33178073  0.66562527  1
  Te  Te150  1  0.49864164  0.66428711  -0.00212818  1
  Te  Te151  1  0.50058951  0.66487853  0.33129682  1
  Te  Te152  1  0.49628819  0.66811106  0.66856962  1
  Te  Te153  1  0.84015740  -0.00104581  0.00215934  1
  Te  Te154  1  0.83274671  0.00552751  0.33553131  1
  Te  Te155  1  0.83012884  -0.00000081  0.66435241  1
  Te  Te156  1  0.84041701  0.33356882  -0.00965211  1
  Te  Te157  1  0.83238871  0.32848439  0.33767217  1
  Te  Te158  1  0.82953356  0.33240961  0.66375193  1
  Te  Te159  1  0.84213766  0.66695192  -0.00063679  1
  Te  Te160  1  0.82779738  0.66873093  0.33347626  1
  Te  Te161  1  0.83291521  0.66939001  0.66630265  1
  Te  Te162  1  0.00194734  0.16940688  0.00010131  1
  Te  Te163  1  0.00050206  0.17177731  0.33174639  1
  Te  Te164  1  0.00153650  0.16274464  0.67038358  1
  Te  Te165  1  0.00122390  0.49565607  0.00076767  1
  Te  Te166  1  0.00245629  0.49418330  0.33221831  1
  Te  Te167  1  -0.00406118  0.50204479  0.66793313  1
  Te  Te168  1  -0.00026174  0.83285262  0.00096152  1
  Te  Te169  1  0.00313829  0.82956005  0.33407967  1
  Te  Te170  1  -0.00091390  0.84052778  0.66483120  1
  Te  Te171  1  0.32703399  0.16268659  0.00524869  1
  Te  Te172  1  0.33538235  0.16359024  0.32920789  1
  Te  Te173  1  0.32755994  0.17105835  0.66588313  1
  Te  Te174  1  0.33775979  0.50024567  0.00084033  1
  Te  Te175  1  0.32891644  0.50248749  0.33712802  1
  Te  Te176  1  0.33286563  0.49923532  0.66151165  1
  Te  Te177  1  0.33243987  0.84359863  0.00127269  1
  Te  Te178  1  0.33699876  0.83184794  0.33339090  1
  Te  Te179  1  0.33914139  0.82852858  0.66440377  1
  Te  Te180  1  0.66606937  0.16712448  -0.00364479  1
  Te  Te181  1  0.66552132  0.16519161  0.33279375  1
  Te  Te182  1  0.66598777  0.16687931  0.67280170  1
  Te  Te183  1  0.66286959  0.49930441  0.00705459  1
  Te  Te184  1  0.66824717  0.49862526  0.32975158  1
  Te  Te185  1  0.67308606  0.49774142  0.66651489  1
  Te  Te186  1  0.66786658  0.83230501  0.00889884  1
  Te  Te187  1  0.66399691  0.83739241  0.33439953  1
  Te  Te188  1  0.66406690  0.83562273  0.66392838  1
  Te  Te189  1  -0.00085918  0.00461104  0.16372300  1
  Te  Te190  1  -0.00237837  0.00543359  0.50362906  1
  Te  Te191  1  0.00065883  0.00452224  0.83283262  1
  Te  Te192  1  -0.00192195  0.33210853  0.16853658  1
  Te  Te193  1  -0.00195373  0.33243163  0.50044385  1
  Te  Te194  1  -0.00070084  0.33071985  0.82924879  1
  Te  Te195  1  -0.00024828  0.66558652  0.16165515  1
  Te  Te196  1  0.00044131  0.65972794  0.49999686  1
  Te  Te197  1  0.00098786  0.66718806  0.83664054  1
  Te  Te198  1  0.33521332  0.00486648  0.16867711  1
  Te  Te199  1  0.33724934  0.00057923  0.49457386  1
  Te  Te200  1  0.33280324  0.00029871  0.83312142  1
  Te  Te201  1  0.32805897  0.32680335  0.16599315  1
  Te  Te202  1  0.33719654  0.33552592  0.50276364  1
  Te  Te203  1  0.33942136  0.33426748  0.82759021  1
  Te  Te204  1  0.33905350  0.66546169  0.17023401  1
  Te  Te205  1  0.33337551  0.66065993  0.49834528  1
  Te  Te206  1  0.33532234  0.66606751  0.83289726  1
  Te  Te207  1  0.66531849  0.00435052  0.16676374  1
  Te  Te208  1  0.66542922  0.00127593  0.50001174  1
  Te  Te209  1  0.66483444  0.00596796  0.83369130  1
  Te  Te210  1  0.66867257  0.33028098  0.17115823  1
  Te  Te211  1  0.66642728  0.33297175  0.49916070  1
  Te  Te212  1  0.66573837  0.33026871  0.83442001  1
  Te  Te213  1  0.66219157  0.66114827  0.16997486  1
  Te  Te214  1  0.66668726  0.66972540  0.49316000  1
  Te  Te215  1  0.66061320  0.66690154  0.83456721  1
