# generated using pymatgen
data_AgSbTe2
_symmetry_space_group_name_H-M   'P 1'
_cell_length_a   18.32903099
_cell_length_b   18.33228445
_cell_length_c   18.33895238
_cell_angle_alpha   90.00075694
_cell_angle_beta   90.00110616
_cell_angle_gamma   90.00187557
_symmetry_Int_Tables_number   1
_chemical_formula_structural   AgSbTe2
_chemical_formula_sum   'Ag54 Sb54 Te108'
_cell_volume   6162.12658186
_cell_formula_units_Z   54
loop_
 _symmetry_equiv_pos_site_id
 _symmetry_equiv_pos_as_xyz
  1  'x, y, z'
loop_
 _atom_site_type_symbol
 _atom_site_label
 _atom_site_symmetry_multiplicity
 _atom_site_fract_x
 _atom_site_fract_y
 _atom_site_fract_z
 _atom_site_occupancy
  Ag  Ag0  1  0.50002305  0.00059106  0.49075514  1
  Ag  Ag1  1  0.65706008  0.66097730  -0.00558008  1
  Ag  Ag2  1  0.50331450  0.33186626  0.49467260  1
  Ag  Ag3  1  0.66577253  0.50279252  0.82320181  1
  Ag  Ag4  1  0.33014958  0.49032865  0.16965006  1
  Ag  Ag5  1  0.66561556  0.34381488  0.65906939  1
  Ag  Ag6  1  0.50211927  0.67066776  0.83134731  1
  Ag  Ag7  1  0.49583261  0.16292490  -0.00115372  1
  Ag  Ag8  1  0.00733444  0.17009246  0.17138641  1
  Ag  Ag9  1  0.65599721  0.83039968  0.16928286  1
  Ag  Ag10  1  0.66329657  0.66463297  0.33434797  1
  Ag  Ag11  1  0.82043705  0.50291954  0.66666432  1
  Ag  Ag12  1  0.65539655  0.34031802  0.00672882  1
  Ag  Ag13  1  0.49945651  0.66581634  0.50368870  1
  Ag  Ag14  1  0.65503162  0.33472365  0.33542128  1
  Ag  Ag15  1  0.33789633  0.16653789  0.84358012  1
  Ag  Ag16  1  0.33888860  0.50222445  0.49709319  1
  Ag  Ag17  1  0.33961451  0.00133151  0.32888216  1
  Ag  Ag18  1  0.00985552  0.66718365  -0.00187346  1
  Ag  Ag19  1  0.66120117  0.17396993  0.49924155  1
  Ag  Ag20  1  0.33861024  0.33355956  0.01136350  1
  Ag  Ag21  1  0.33513573  0.17707487  0.16344006  1
  Ag  Ag22  1  0.65687949  0.66180359  0.67104188  1
  Ag  Ag23  1  0.17634313  0.65839234  0.16399630  1
  Ag  Ag24  1  0.17093068  0.82526235  0.66811870  1
  Ag  Ag25  1  0.00022458  0.83164468  0.83174822  1
  Ag  Ag26  1  0.65908197  0.49364341  0.50404881  1
  Ag  Ag27  1  -0.00582270  0.16839336  0.49194368  1
  Ag  Ag28  1  0.33801261  -0.00527800  0.66275736  1
  Ag  Ag29  1  0.33702035  0.83089617  0.49929609  1
  Ag  Ag30  1  0.16932385  0.33689626  0.83701391  1
  Ag  Ag31  1  0.82120184  0.66574684  0.83157411  1
  Ag  Ag32  1  0.00386499  0.32879128  0.33229803  1
  Ag  Ag33  1  -0.00149889  0.33371057  0.65939123  1
  Ag  Ag34  1  0.49738100  -0.00132374  0.17010762  1
  Ag  Ag35  1  0.33835251  0.83494484  0.16803211  1
  Ag  Ag36  1  0.49288304  0.32708569  0.17192567  1
  Ag  Ag37  1  0.82716682  0.33338321  0.16769686  1
  Ag  Ag38  1  0.49663109  -0.00353723  0.83679664  1
  Ag  Ag39  1  0.49722449  0.83637186  0.00683427  1
  Ag  Ag40  1  0.81962062  -0.00074045  0.49897266  1
  Ag  Ag41  1  0.17102250  0.49790948  0.32512069  1
  Ag  Ag42  1  0.33954343  0.66943356  0.66819915  1
  Ag  Ag43  1  0.83340498  0.82536210  0.66680034  1
  Ag  Ag44  1  0.16862488  0.50100784  0.66709189  1
  Ag  Ag45  1  0.65536317  0.00050811  0.33648853  1
  Ag  Ag46  1  0.49852045  0.16471537  0.66709660  1
  Ag  Ag47  1  0.17113783  0.50000242  0.00651518  1
  Ag  Ag48  1  0.33743159  0.33270601  0.32428351  1
  Ag  Ag49  1  0.00177955  0.00748196  0.33490409  1
  Ag  Ag50  1  0.33820798  0.66434273  0.00135447  1
  Ag  Ag51  1  0.33923836  0.00531968  0.00842989  1
  Ag  Ag52  1  0.17918923  0.33897055  0.16598488  1
  Ag  Ag53  1  0.49872281  0.83802403  0.32671142  1
  Sb  Sb54  1  0.16650422  0.17313132  0.33254151  1
  Sb  Sb55  1  0.82584504  0.83474864  0.33852040  1
  Sb  Sb56  1  0.00492074  0.33640857  0.00390882  1
  Sb  Sb57  1  -0.00155164  0.66576712  0.32740136  1
  Sb  Sb58  1  0.00107879  0.66314375  0.66974752  1
  Sb  Sb59  1  0.00828425  0.49277879  0.16703198  1
  Sb  Sb60  1  0.00851184  -0.00299906  0.00458801  1
  Sb  Sb61  1  0.82724016  0.83123438  -0.00276121  1
  Sb  Sb62  1  0.33338662  0.83578141  0.83251842  1
  Sb  Sb63  1  0.82664245  0.33099798  0.49680235  1
  Sb  Sb64  1  0.65877367  0.16824178  0.17138152  1
  Sb  Sb65  1  0.17282637  0.33535143  0.49654134  1
  Sb  Sb66  1  0.49494659  0.50116083  0.00096237  1
  Sb  Sb67  1  0.49858914  0.83407441  0.66567981  1
  Sb  Sb68  1  0.82214516  0.67020526  0.50775434  1
  Sb  Sb69  1  -0.00173298  0.50350011  0.83209684  1
  Sb  Sb70  1  0.82736224  0.00410188  0.17278954  1
  Sb  Sb71  1  0.65821637  0.17219187  0.82939235  1
  Sb  Sb72  1  0.83447802  0.50086825  -0.00260849  1
  Sb  Sb73  1  0.65898830  0.50022032  0.16936220  1
  Sb  Sb74  1  0.00490992  0.83745215  0.50281940  1
  Sb  Sb75  1  0.17496742  0.82875989  0.33526037  1
  Sb  Sb76  1  0.65666073  0.83263133  0.49653667  1
  Sb  Sb77  1  0.33656006  0.33576740  0.66478194  1
  Sb  Sb78  1  0.17537637  0.66370708  0.49867012  1
  Sb  Sb79  1  0.65707380  -0.00102297  0.00594731  1
  Sb  Sb80  1  0.82774313  0.16935264  0.66438467  1
  Sb  Sb81  1  0.82439375  0.16897983  0.00209452  1
  Sb  Sb82  1  0.49885653  0.16364670  0.33315432  1
  Sb  Sb83  1  0.83371133  0.16816220  0.33424046  1
  Sb  Sb84  1  0.34050185  0.66494940  0.33207810  1
  Sb  Sb85  1  0.17455960  0.00028302  0.49883229  1
  Sb  Sb86  1  0.49754313  0.33373423  0.83405571  1
  Sb  Sb87  1  0.49560301  0.50017448  0.33452761  1
  Sb  Sb88  1  0.66468113  0.82577676  0.83485512  1
  Sb  Sb89  1  0.17567147  0.82633062  -0.00278838  1
  Sb  Sb90  1  0.17563248  0.00166506  0.83264237  1
  Sb  Sb91  1  0.17675697  0.17451472  0.00185503  1
  Sb  Sb92  1  0.00746845  0.16498623  0.83437816  1
  Sb  Sb93  1  0.33901787  0.16781924  0.49664516  1
  Sb  Sb94  1  0.00404081  0.83752747  0.16374521  1
  Sb  Sb95  1  0.17099105  0.66230213  0.83580877  1
  Sb  Sb96  1  0.83169669  0.66252767  0.16110001  1
  Sb  Sb97  1  0.17812373  0.00250306  0.16885436  1
  Sb  Sb98  1  0.83323035  0.49817635  0.33771469  1
  Sb  Sb99  1  0.50032823  0.49903639  0.66481046  1
  Sb  Sb100  1  0.33626302  0.49844584  0.83314691  1
  Sb  Sb101  1  0.17373693  0.16946018  0.66562424  1
  Sb  Sb102  1  0.00408068  0.00356732  0.66200946  1
  Sb  Sb103  1  0.65900340  -0.00176723  0.66052520  1
  Sb  Sb104  1  0.49583851  0.67013202  0.16658187  1
  Sb  Sb105  1  0.83357621  0.33775213  0.83419541  1
  Sb  Sb106  1  0.82536779  -0.00696148  0.82596465  1
  Sb  Sb107  1  0.00060174  0.49408377  0.50255240  1
  Te  Te108  1  0.16943545  0.17120432  0.16625602  1
  Te  Te109  1  0.15581801  0.16756855  0.50091535  1
  Te  Te110  1  0.17489259  0.17317584  0.83335703  1
  Te  Te111  1  0.17038671  0.49936490  0.16619871  1
  Te  Te112  1  0.17149348  0.49987399  0.50556178  1
  Te  Te113  1  0.16673948  0.49593202  0.82873928  1
  Te  Te114  1  0.17217880  0.82998228  0.16630732  1
  Te  Te115  1  0.17485452  0.83163101  0.50610220  1
  Te  Te116  1  0.16285799  0.83356703  0.82865172  1
  Te  Te117  1  0.49664953  0.16649812  0.16269228  1
  Te  Te118  1  0.50146050  0.16618502  0.50268261  1
  Te  Te119  1  0.49567093  0.16499053  0.83326666  1
  Te  Te120  1  0.49186434  0.49001196  0.16789076  1
  Te  Te121  1  0.49988897  0.49939660  0.49939070  1
  Te  Te122  1  0.50632812  0.50733685  0.83409278  1
  Te  Te123  1  0.49888775  0.83270144  0.16713426  1
  Te  Te124  1  0.49471585  0.83566979  0.49973464  1
  Te  Te125  1  0.49954535  0.83286292  0.83826095  1
  Te  Te126  1  0.83727311  0.17204408  0.16571569  1
  Te  Te127  1  0.83229175  0.16032562  0.50157028  1
  Te  Te128  1  0.83434442  0.16336607  0.83342758  1
  Te  Te129  1  0.83470197  0.49381944  0.16770950  1
  Te  Te130  1  0.82877995  0.50145080  0.50598956  1
  Te  Te131  1  0.82940693  0.50500544  0.82864289  1
  Te  Te132  1  0.83028473  0.83375618  0.16712438  1
  Te  Te133  1  0.83621584  0.83838085  0.50576339  1
  Te  Te134  1  0.83659149  0.82867106  0.82889136  1
  Te  Te135  1  0.17763978  -0.00096545  0.00018908  1
  Te  Te136  1  0.16399030  -0.00271969  0.33311150  1
  Te  Te137  1  0.17470543  -0.00275768  0.66718174  1
  Te  Te138  1  0.16992994  0.33905272  0.00151590  1
  Te  Te139  1  0.16790848  0.33815991  0.33053492  1
  Te  Te140  1  0.16630440  0.33573003  0.66612667  1
  Te  Te141  1  0.17169390  0.66181355  0.00204759  1
  Te  Te142  1  0.16467888  0.66055475  0.32726459  1
  Te  Te143  1  0.16899433  0.66604669  0.66673701  1
  Te  Te144  1  0.49653884  -0.00031150  0.00222557  1
  Te  Te145  1  0.49805304  -0.00046319  0.33134844  1
  Te  Te146  1  0.49622961  0.00046576  0.66867797  1
  Te  Te147  1  0.49811390  0.33335556  -0.00214209  1
  Te  Te148  1  0.49786467  0.33293701  0.33470600  1
  Te  Te149  1  0.50464226  0.32838021  0.66612544  1
  Te  Te150  1  0.49866272  0.66756000  0.00132394  1
  Te  Te151  1  0.50501174  0.67246080  0.33581558  1
  Te  Te152  1  0.49910830  0.66864996  0.66550615  1
  Te  Te153  1  0.83352026  0.00005017  -0.00098571  1
  Te  Te154  1  0.83716115  -0.00010381  0.33912007  1
  Te  Te155  1  0.83407705  -0.00275531  0.66072032  1
  Te  Te156  1  0.82919573  0.33396876  0.00417185  1
  Te  Te157  1  0.83851939  0.33463365  0.32881351  1
  Te  Te158  1  0.83154817  0.33747503  0.66645075  1
  Te  Te159  1  0.82631132  0.66682623  -0.00644043  1
  Te  Te160  1  0.82572605  0.66643672  0.33334072  1
  Te  Te161  1  0.83490405  0.66481456  0.67134486  1
  Te  Te162  1  -0.00050589  0.16523209  0.00419428  1
  Te  Te163  1  0.00102751  0.16830161  0.33259688  1
  Te  Te164  1  0.00010518  0.17280898  0.66687034  1
  Te  Te165  1  0.00540497  0.50661335  -0.00058778  1
  Te  Te166  1  0.00596621  0.49607809  0.33508665  1
  Te  Te167  1  0.00614416  0.49396808  0.66668237  1
  Te  Te168  1  -0.00035543  0.82875096  -0.00336726  1
  Te  Te169  1  0.00072299  0.83615953  0.33295535  1
  Te  Te170  1  0.00144572  0.83415621  0.66897330  1
  Te  Te171  1  0.33723944  0.16815761  0.00259532  1
  Te  Te172  1  0.33151847  0.16606658  0.32903065  1
  Te  Te173  1  0.33811534  0.16363525  0.66469535  1
  Te  Te174  1  0.32995509  0.50005351  -0.00065164  1
  Te  Te175  1  0.33041941  0.49879008  0.33478630  1
  Te  Te176  1  0.33159338  0.50357952  0.66431131  1
  Te  Te177  1  0.33730344  0.82898969  0.00022612  1
  Te  Te178  1  0.33689364  0.83420480  0.33500549  1
  Te  Te179  1  0.33317465  0.83099374  0.66588537  1
  Te  Te180  1  0.65785821  0.17177706  -0.00060093  1
  Te  Te181  1  0.66727665  0.16906728  0.33854476  1
  Te  Te182  1  0.66129427  0.16790603  0.66152806  1
  Te  Te183  1  0.66766263  0.49977513  0.00208693  1
  Te  Te184  1  0.66666018  0.49757992  0.33732636  1
  Te  Te185  1  0.66384517  0.50137465  0.66457372  1
  Te  Te186  1  0.66044179  0.83066542  0.00516980  1
  Te  Te187  1  0.66179985  0.83490817  0.33043988  1
  Te  Te188  1  0.67140641  0.82778504  0.66640279  1
  Te  Te189  1  -0.00112924  0.00557070  0.17116862  1
  Te  Te190  1  0.00322331  0.00499201  0.49612824  1
  Te  Te191  1  -0.00065143  -0.00429384  0.83439369  1
  Te  Te192  1  -0.00000465  0.32923399  0.16866193  1
  Te  Te193  1  -0.00223156  0.32973107  0.49811950  1
  Te  Te194  1  0.00409995  0.33189770  0.83286253  1
  Te  Te195  1  0.00085500  0.66793603  0.15959980  1
  Te  Te196  1  -0.00188145  0.66690781  0.49729628  1
  Te  Te197  1  0.00223763  0.67047477  0.83755229  1
  Te  Te198  1  0.33715285  -0.00585175  0.16832400  1
  Te  Te199  1  0.33941880  0.00032784  0.49805413  1
  Te  Te200  1  0.33811489  0.00349050  0.83238647  1
  Te  Te201  1  0.33475587  0.33408759  0.16718842  1
  Te  Te202  1  0.34043149  0.33644591  0.49762933  1
  Te  Te203  1  0.33048362  0.33030913  0.83205055  1
  Te  Te204  1  0.33339380  0.67075245  0.16560878  1
  Te  Te205  1  0.33901758  0.66508175  0.50018644  1
  Te  Te206  1  0.33797955  0.66648415  0.83290897  1
  Te  Te207  1  0.66215863  -0.00152402  0.17374695  1
  Te  Te208  1  0.66211424  -0.00091113  0.49587690  1
  Te  Te209  1  0.65839486  0.00098556  0.83344062  1
  Te  Te210  1  0.66515542  0.33348740  0.16868904  1
  Te  Te211  1  0.66505897  0.33348661  0.49797355  1
  Te  Te212  1  0.66744489  0.33947877  0.83380193  1
  Te  Te213  1  0.66670395  0.66748810  0.16727673  1
  Te  Te214  1  0.66011568  0.66579658  0.49954841  1
  Te  Te215  1  0.66351068  0.66470442  0.83282415  1
