# generated using pymatgen
data_AgSbTe2
_symmetry_space_group_name_H-M   'P 1'
_cell_length_a   18.35634486
_cell_length_b   18.35855893
_cell_length_c   18.35315707
_cell_angle_alpha   89.99854720
_cell_angle_beta   90.00135087
_cell_angle_gamma   89.99949443
_symmetry_Int_Tables_number   1
_chemical_formula_structural   AgSbTe2
_chemical_formula_sum   'Ag54 Sb54 Te108'
_cell_volume   6184.94122916
_cell_formula_units_Z   54
loop_
 _symmetry_equiv_pos_site_id
 _symmetry_equiv_pos_as_xyz
  1  'x, y, z'
loop_
 _atom_site_type_symbol
 _atom_site_label
 _atom_site_symmetry_multiplicity
 _atom_site_fract_x
 _atom_site_fract_y
 _atom_site_fract_z
 _atom_site_occupancy
  Ag  Ag0  1  0.16965021  0.50157705  0.00300634  1
  Ag  Ag1  1  0.16623942  0.50477122  0.32779346  1
  Ag  Ag2  1  0.83403443  0.66512838  0.16932884  1
  Ag  Ag3  1  0.00335286  0.82629276  0.50107898  1
  Ag  Ag4  1  0.01380316  0.65909986  0.34337054  1
  Ag  Ag5  1  0.17247347  0.83206571  -0.00104973  1
  Ag  Ag6  1  0.16403461  0.51279008  0.66809634  1
  Ag  Ag7  1  0.48724606  0.67067951  0.16413192  1
  Ag  Ag8  1  0.32716306  0.50558414  0.84533674  1
  Ag  Ag9  1  0.84706814  0.32959559  0.83959077  1
  Ag  Ag10  1  0.49656941  0.17229459  0.33038630  1
  Ag  Ag11  1  0.00190321  0.16484392  0.50782852  1
  Ag  Ag12  1  0.16269136  0.16220767  -0.00526506  1
  Ag  Ag13  1  0.01079861  0.66351422  0.65425391  1
  Ag  Ag14  1  0.84151958  0.33662610  0.16266711  1
  Ag  Ag15  1  0.16401693  0.33467561  0.83891211  1
  Ag  Ag16  1  0.84638107  0.16369962  0.66994744  1
  Ag  Ag17  1  0.66808482  0.33433151  0.32757942  1
  Ag  Ag18  1  0.16215601  0.16577226  0.67420715  1
  Ag  Ag19  1  0.33188790  -0.01076028  0.00173396  1
  Ag  Ag20  1  0.01513693  0.00163161  0.00107483  1
  Ag  Ag21  1  0.01311955  0.49978967  0.17184668  1
  Ag  Ag22  1  0.84731290  0.83478341  0.65956095  1
  Ag  Ag23  1  0.48797303  -0.00487559  0.84406660  1
  Ag  Ag24  1  0.16467733  0.33857876  0.16389437  1
  Ag  Ag25  1  0.65534220  0.83245750  0.16690914  1
  Ag  Ag26  1  0.67175263  0.32880608  0.00657912  1
  Ag  Ag27  1  0.49581488  -0.01058650  0.16176907  1
  Ag  Ag28  1  0.00446283  0.16853603  0.82534449  1
  Ag  Ag29  1  0.32863056  0.66350460  0.32698530  1
  Ag  Ag30  1  0.84378460  0.16705319  -0.00311113  1
  Ag  Ag31  1  0.32920207  0.50424361  0.16840494  1
  Ag  Ag32  1  0.32123341  0.66785182  0.67541036  1
  Ag  Ag33  1  0.33282016  0.16615078  0.16663754  1
  Ag  Ag34  1  0.84701063  -0.01027210  0.50307341  1
  Ag  Ag35  1  0.67494242  0.83300190  0.49439180  1
  Ag  Ag36  1  0.16359626  0.67132371  0.51189427  1
  Ag  Ag37  1  0.85014260  0.67217781  0.49667423  1
  Ag  Ag38  1  0.48461501  0.49827528  0.33107642  1
  Ag  Ag39  1  0.16275465  -0.01447499  0.50613972  1
  Ag  Ag40  1  0.31763098  0.83017022  0.49173944  1
  Ag  Ag41  1  0.00375489  0.32937455  0.66190583  1
  Ag  Ag42  1  0.33209308  0.82392560  0.16436990  1
  Ag  Ag43  1  0.00666096  0.33979504  0.33442922  1
  Ag  Ag44  1  0.48436391  0.67154513  0.84111344  1
  Ag  Ag45  1  0.33037975  0.67207943  0.00569126  1
  Ag  Ag46  1  0.16493182  0.82320994  0.65563669  1
  Ag  Ag47  1  0.16951414  0.81988176  0.34520420  1
  Ag  Ag48  1  0.16795519  -0.00082750  0.83568738  1
  Ag  Ag49  1  0.48908372  0.83721609  0.00400569  1
  Ag  Ag50  1  0.16822590  0.65889256  0.82581995  1
  Ag  Ag51  1  0.66187464  0.00122173  0.00109258  1
  Ag  Ag52  1  0.00414305  0.51313357  0.49088085  1
  Ag  Ag53  1  0.32464781  0.34503386  0.32995283  1
  Sb  Sb54  1  0.65854035  0.49939674  0.83542928  1
  Sb  Sb55  1  0.49551377  0.15958164  0.00411264  1
  Sb  Sb56  1  0.16295433  0.33740684  0.49817735  1
  Sb  Sb57  1  0.66420131  0.66461804  0.33156548  1
  Sb  Sb58  1  0.49388471  0.16522611  0.66393580  1
  Sb  Sb59  1  0.66841863  -0.00223890  0.67064764  1
  Sb  Sb60  1  0.84593680  0.50011448  0.66603218  1
  Sb  Sb61  1  0.67458031  0.16144346  0.49791873  1
  Sb  Sb62  1  0.00500059  0.17260274  0.16626925  1
  Sb  Sb63  1  0.67276209  0.16597592  0.83717639  1
  Sb  Sb64  1  0.32132986  0.33915669  0.66222047  1
  Sb  Sb65  1  0.00730420  0.82667703  0.17115863  1
  Sb  Sb66  1  0.32419539  0.16893408  0.83942280  1
  Sb  Sb67  1  0.83956834  0.00428737  0.83138393  1
  Sb  Sb68  1  0.66368617  0.50150359  0.16743557  1
  Sb  Sb69  1  0.32240861  0.50819104  0.49375385  1
  Sb  Sb70  1  0.16890796  0.66064678  0.16874036  1
  Sb  Sb71  1  0.49992666  0.33375947  0.49546883  1
  Sb  Sb72  1  0.67981570  0.33286331  0.66682053  1
  Sb  Sb73  1  0.83931238  0.33410735  0.49718052  1
  Sb  Sb74  1  0.84128661  0.49515279  0.00096164  1
  Sb  Sb75  1  0.00204335  0.32857472  0.00049473  1
  Sb  Sb76  1  0.83339167  0.17010322  0.33087055  1
  Sb  Sb77  1  0.83619379  0.83732614  -0.00280750  1
  Sb  Sb78  1  0.67432560  0.50501057  0.49595945  1
  Sb  Sb79  1  0.84169476  0.50088019  0.33115635  1
  Sb  Sb80  1  0.67013408  0.66905622  0.66534786  1
  Sb  Sb81  1  0.83957531  0.83082456  0.33853445  1
  Sb  Sb82  1  0.49393434  0.83074452  0.32583277  1
  Sb  Sb83  1  0.16827580  0.16912817  0.33162318  1
  Sb  Sb84  1  0.00314935  -0.00071913  0.33237072  1
  Sb  Sb85  1  0.01027639  0.66991104  0.00054972  1
  Sb  Sb86  1  0.17168933  0.00326047  0.16192518  1
  Sb  Sb87  1  0.49241558  0.66969798  0.49689101  1
  Sb  Sb88  1  0.00559118  0.83841905  0.82732318  1
  Sb  Sb89  1  0.32671845  -0.00775153  0.67385303  1
  Sb  Sb90  1  0.00918669  0.49470192  0.83471088  1
  Sb  Sb91  1  0.66533369  0.83446010  0.83637349  1
  Sb  Sb92  1  0.49537668  -0.00442429  0.49673949  1
  Sb  Sb93  1  0.82998195  0.00027097  0.16721124  1
  Sb  Sb94  1  0.66198611  0.16547580  0.16551643  1
  Sb  Sb95  1  0.48702633  0.50311745  0.66293707  1
  Sb  Sb96  1  0.49680450  0.33566178  0.16813656  1
  Sb  Sb97  1  0.00335733  0.00093970  0.66577184  1
  Sb  Sb98  1  0.33008785  0.33464514  0.00702591  1
  Sb  Sb99  1  0.33075140  -0.00360510  0.32633461  1
  Sb  Sb100  1  0.84110787  0.66271845  0.83209949  1
  Sb  Sb101  1  0.32852623  0.82526948  0.83875795  1
  Sb  Sb102  1  0.66451696  0.00068135  0.33008076  1
  Sb  Sb103  1  0.32411749  0.16030248  0.49492101  1
  Sb  Sb104  1  0.66054192  0.66885842  0.00340231  1
  Sb  Sb105  1  0.49287864  0.33239939  0.83726837  1
  Sb  Sb106  1  0.49338069  0.83099422  0.67155013  1
  Sb  Sb107  1  0.49288457  0.50524214  0.00506875  1
  Te  Te108  1  0.17135588  0.17264221  0.16387217  1
  Te  Te109  1  0.16234467  0.16743367  0.50077928  1
  Te  Te110  1  0.16449601  0.16798739  0.83582231  1
  Te  Te111  1  0.16939334  0.49781026  0.16687228  1
  Te  Te112  1  0.16076400  0.50346765  0.50219300  1
  Te  Te113  1  0.16809048  0.49896678  0.83345862  1
  Te  Te114  1  0.17139175  0.83825038  0.15827665  1
  Te  Te115  1  0.16261919  0.83079531  0.50045985  1
  Te  Te116  1  0.16641408  0.84096839  0.84069562  1
  Te  Te117  1  0.49478383  0.16756841  0.17006308  1
  Te  Te118  1  0.50047032  0.16446889  0.49528218  1
  Te  Te119  1  0.49829640  0.16272290  0.83206444  1
  Te  Te120  1  0.49604395  0.50585521  0.17102515  1
  Te  Te121  1  0.50269635  0.50179638  0.49343975  1
  Te  Te122  1  0.49109656  0.50539006  0.83297244  1
  Te  Te123  1  0.49679786  0.83036343  0.16490620  1
  Te  Te124  1  0.50886060  0.83380255  0.50098226  1
  Te  Te125  1  0.50003530  0.83346939  0.83881585  1
  Te  Te126  1  0.83242561  0.16994671  0.16218150  1
  Te  Te127  1  0.83823311  0.16617707  0.50379498  1
  Te  Te128  1  0.83856648  0.16945478  0.83371320  1
  Te  Te129  1  0.83112660  0.49835711  0.16515900  1
  Te  Te130  1  0.84195222  0.50807148  0.50050254  1
  Te  Te131  1  0.83086525  0.49276881  0.83291990  1
  Te  Te132  1  0.83571213  0.83131168  0.16690475  1
  Te  Te133  1  0.83613206  0.83251214  0.50066855  1
  Te  Te134  1  0.83380831  0.83208208  0.82426290  1
  Te  Te135  1  0.17161891  0.00289648  0.00099771  1
  Te  Te136  1  0.16586257  -0.00116236  0.34043583  1
  Te  Te137  1  0.16757990  0.00426034  0.66921260  1
  Te  Te138  1  0.16800420  0.33605083  0.00071656  1
  Te  Te139  1  0.16542595  0.33438475  0.33127107  1
  Te  Te140  1  0.16172153  0.32575375  0.66664220  1
  Te  Te141  1  0.17026595  0.66658133  -0.00333698  1
  Te  Te142  1  0.16819852  0.66503443  0.32782850  1
  Te  Te143  1  0.16556612  0.66861991  0.66931420  1
  Te  Te144  1  0.49843426  -0.00126802  0.00134006  1
  Te  Te145  1  0.49921883  0.00415790  0.32806057  1
  Te  Te146  1  0.49886346  0.00003335  0.67465117  1
  Te  Te147  1  0.50857973  0.33281295  -0.00052154  1
  Te  Te148  1  0.49874554  0.33506373  0.33237670  1
  Te  Te149  1  0.50181345  0.33350559  0.66661854  1
  Te  Te150  1  0.49576014  0.67002012  0.00120335  1
  Te  Te151  1  0.49619384  0.66317042  0.32899794  1
  Te  Te152  1  0.49716601  0.66598312  0.67217863  1
  Te  Te153  1  0.82482975  0.00463614  -0.00069950  1
  Te  Te154  1  0.83288197  0.00208581  0.34113827  1
  Te  Te155  1  0.83258015  -0.00002854  0.66339698  1
  Te  Te156  1  0.83351350  0.33009837  0.00057842  1
  Te  Te157  1  0.83298926  0.33388274  0.32754397  1
  Te  Te158  1  0.84253000  0.32905287  0.66973757  1
  Te  Te159  1  0.83311250  0.66646110  0.00080722  1
  Te  Te160  1  0.83185389  0.66659277  0.33353448  1
  Te  Te161  1  0.83765880  0.67002760  0.66443622  1
  Te  Te162  1  0.00178963  0.16273520  0.00162374  1
  Te  Te163  1  -0.00049010  0.17169273  0.33429838  1
  Te  Te164  1  0.00225569  0.16462554  0.66744596  1
  Te  Te165  1  0.00801827  0.50180288  0.00571548  1
  Te  Te166  1  0.00302290  0.49975490  0.33195999  1
  Te  Te167  1  0.00585827  0.49895998  0.66831335  1
  Te  Te168  1  0.00252663  0.83995000  0.00011102  1
  Te  Te169  1  0.00709947  0.82997141  0.33816929  1
  Te  Te170  1  0.00476362  0.83340424  0.66315566  1
  Te  Te171  1  0.32835493  0.16769319  0.00562501  1
  Te  Te172  1  0.33616117  0.16595760  0.32894479  1
  Te  Te173  1  0.32786212  0.16803976  0.66473931  1
  Te  Te174  1  0.32971937  0.50037216  0.00399993  1
  Te  Te175  1  0.32774883  0.50203418  0.33276096  1
  Te  Te176  1  0.32392231  0.50615719  0.66371430  1
  Te  Te177  1  0.33319563  0.83180495  0.00158559  1
  Te  Te178  1  0.32979393  0.83049313  0.33005366  1
  Te  Te179  1  0.32769812  0.82773044  0.66101508  1
  Te  Te180  1  0.66669266  0.16686109  0.00071609  1
  Te  Te181  1  0.66180888  0.17228092  0.33310762  1
  Te  Te182  1  0.66899637  0.16689650  0.66610642  1
  Te  Te183  1  0.66625558  0.49382526  0.00008458  1
  Te  Te184  1  0.66354134  0.49359482  0.33410533  1
  Te  Te185  1  0.66496299  0.49938162  0.66527626  1
  Te  Te186  1  0.66771681  0.83653587  0.00415059  1
  Te  Te187  1  0.66585692  0.83304349  0.32973525  1
  Te  Te188  1  0.66525172  0.83301532  0.66323828  1
  Te  Te189  1  -0.00223351  0.00014607  0.16289430  1
  Te  Te190  1  0.00314976  0.00342986  0.49771788  1
  Te  Te191  1  0.00401281  0.00589336  0.84106571  1
  Te  Te192  1  0.00128246  0.33705996  0.16841222  1
  Te  Te193  1  -0.00126237  0.32670756  0.49874428  1
  Te  Te194  1  0.00396258  0.32979549  0.83354014  1
  Te  Te195  1  -0.00663433  0.66209855  0.16692607  1
  Te  Te196  1  0.00466118  0.66842483  0.49877937  1
  Te  Te197  1  0.00520692  0.66705674  0.83079762  1
  Te  Te198  1  0.33676103  0.00360269  0.16235858  1
  Te  Te199  1  0.32792607  -0.00795045  0.50174801  1
  Te  Te200  1  0.33005994  0.00241370  0.83943825  1
  Te  Te201  1  0.33096452  0.33662919  0.17065306  1
  Te  Te202  1  0.33349840  0.33190342  0.49181314  1
  Te  Te203  1  0.32685633  0.34019581  0.83120168  1
  Te  Te204  1  0.33166919  0.66548852  0.16615243  1
  Te  Te205  1  0.32921310  0.67170676  0.49425593  1
  Te  Te206  1  0.32790807  0.66502293  0.83458305  1
  Te  Te207  1  0.66183324  -0.00469954  0.16326109  1
  Te  Te208  1  0.66522229  -0.00555532  0.49981258  1
  Te  Te209  1  0.66427315  -0.00020997  0.83956578  1
  Te  Te210  1  0.66765564  0.33349518  0.16734759  1
  Te  Te211  1  0.66993370  0.33376683  0.49475776  1
  Te  Te212  1  0.66581693  0.33316961  0.83504781  1
  Te  Te213  1  0.67303704  0.67139983  0.16641870  1
  Te  Te214  1  0.66603879  0.67239078  0.49950885  1
  Te  Te215  1  0.66561251  0.66587431  0.83416778  1
