# generated using pymatgen
data_AgSbTe2
_symmetry_space_group_name_H-M   'P 1'
_cell_length_a   18.31182636
_cell_length_b   18.31442452
_cell_length_c   18.30954277
_cell_angle_alpha   90.00101735
_cell_angle_beta   89.99732513
_cell_angle_gamma   90.00152812
_symmetry_Int_Tables_number   1
_chemical_formula_structural   AgSbTe2
_chemical_formula_sum   'Ag54 Sb54 Te108'
_cell_volume   6140.48163074
_cell_formula_units_Z   54
loop_
 _symmetry_equiv_pos_site_id
 _symmetry_equiv_pos_as_xyz
  1  'x, y, z'
loop_
 _atom_site_type_symbol
 _atom_site_label
 _atom_site_symmetry_multiplicity
 _atom_site_fract_x
 _atom_site_fract_y
 _atom_site_fract_z
 _atom_site_occupancy
  Ag  Ag0  1  0.67363082  0.16715173  0.83618204  1
  Ag  Ag1  1  -0.00283709  0.17217361  0.50146857  1
  Ag  Ag2  1  0.83261521  0.32596349  0.16678993  1
  Ag  Ag3  1  0.50144713  0.84070057  0.01095996  1
  Ag  Ag4  1  0.00026030  0.83713161  0.16705943  1
  Ag  Ag5  1  0.50358819  0.16067776  0.01088876  1
  Ag  Ag6  1  0.16908320  0.00581167  0.16813292  1
  Ag  Ag7  1  0.34114621  0.16724311  0.17192095  1
  Ag  Ag8  1  0.33916162  0.49342411  0.17350655  1
  Ag  Ag9  1  0.83434016  0.32847220  0.83393745  1
  Ag  Ag10  1  0.16827176  0.32768745  0.17116513  1
  Ag  Ag11  1  0.66200778  0.50165923  0.16993871  1
  Ag  Ag12  1  0.50233482  0.83959047  0.32998459  1
  Ag  Ag13  1  0.16342707  0.16282131  0.00601248  1
  Ag  Ag14  1  0.16086392  0.33341972  0.49658708  1
  Ag  Ag15  1  -0.00779653  0.66667463  0.00200313  1
  Ag  Ag16  1  0.66356743  0.66748744  0.33560607  1
  Ag  Ag17  1  0.33175475  0.49970481  0.83279331  1
  Ag  Ag18  1  0.67031113  0.33636679  0.66321833  1
  Ag  Ag19  1  0.49977192  0.00442636  0.17339136  1
  Ag  Ag20  1  0.33519967  0.00120734  0.65445864  1
  Ag  Ag21  1  0.66737277  -0.00000881  0.00154488  1
  Ag  Ag22  1  0.16874635  0.83906620  0.00390633  1
  Ag  Ag23  1  0.34265570  -0.00049691  0.33554465  1
  Ag  Ag24  1  0.50229355  0.66854189  0.16911253  1
  Ag  Ag25  1  0.50160530  0.49504958  0.66157819  1
  Ag  Ag26  1  0.66485906  0.82985857  0.49687308  1
  Ag  Ag27  1  0.49921353  0.00282852  0.49144991  1
  Ag  Ag28  1  0.16807707  0.83629016  0.66203536  1
  Ag  Ag29  1  0.66783214  0.50502942  0.49872204  1
  Ag  Ag30  1  0.50085254  0.15813473  0.32901486  1
  Ag  Ag31  1  0.17013602  0.49876430  0.33433836  1
  Ag  Ag32  1  -0.00802557  0.00038421  0.33225375  1
  Ag  Ag33  1  0.83145897  0.16695424  0.00118633  1
  Ag  Ag34  1  -0.00618778  0.33277088  0.66186374  1
  Ag  Ag35  1  0.83344477  0.01122658  0.84188158  1
  Ag  Ag36  1  -0.00174097  0.49230682  0.82954491  1
  Ag  Ag37  1  0.82889926  0.00536098  0.48944209  1
  Ag  Ag38  1  -0.01033892  0.17152681  0.83059214  1
  Ag  Ag39  1  0.82676821  0.84192224  0.33440486  1
  Ag  Ag40  1  0.83218957  0.49450155  0.00269597  1
  Ag  Ag41  1  0.34157927  0.66977770  0.33408569  1
  Ag  Ag42  1  0.82823970  0.66167324  0.49663875  1
  Ag  Ag43  1  0.82918757  0.16054120  0.33042664  1
  Ag  Ag44  1  -0.00640369  0.49047527  0.50106467  1
  Ag  Ag45  1  0.83708665  0.33035058  0.49970326  1
  Ag  Ag46  1  0.33858073  0.84361302  0.49575426  1
  Ag  Ag47  1  0.50021284  0.32776475  0.16743863  1
  Ag  Ag48  1  0.83146206  0.00696589  0.17113200  1
  Ag  Ag49  1  0.66555043  0.65956556  0.65368408  1
  Ag  Ag50  1  0.33534932  0.49851773  0.49442742  1
  Ag  Ag51  1  0.66922122  0.66966119  0.00494255  1
  Ag  Ag52  1  0.49941474  0.16815312  0.65963209  1
  Ag  Ag53  1  0.33594825  0.16087670  0.49101200  1
  Sb  Sb54  1  0.66701461  0.16618872  0.50170714  1
  Sb  Sb55  1  0.66580387  -0.00446546  0.32904759  1
  Sb  Sb56  1  0.66401506  0.16951860  0.16407056  1
  Sb  Sb57  1  0.82740285  0.66692320  0.17003346  1
  Sb  Sb58  1  0.33390042  0.33129643  0.33271270  1
  Sb  Sb59  1  -0.00343683  0.33359056  -0.00218277  1
  Sb  Sb60  1  0.33450088  0.16983094  0.83469832  1
  Sb  Sb61  1  0.33355845  0.33227472  0.00356962  1
  Sb  Sb62  1  -0.00480075  0.66099731  0.66751095  1
  Sb  Sb63  1  0.17087805  0.50087976  0.66073906  1
  Sb  Sb64  1  0.66754406  0.83734663  0.83132337  1
  Sb  Sb65  1  -0.00101689  0.16380058  0.16880495  1
  Sb  Sb66  1  0.50198652  0.66480562  0.83820266  1
  Sb  Sb67  1  -0.00075335  0.32662080  0.33970130  1
  Sb  Sb68  1  0.33410865  0.83076008  0.82879473  1
  Sb  Sb69  1  0.16893946  0.16844799  0.32946009  1
  Sb  Sb70  1  0.17126165  0.66707965  0.16758938  1
  Sb  Sb71  1  0.50568911  0.33153038  0.83543165  1
  Sb  Sb72  1  0.66355646  0.00247377  0.66719943  1
  Sb  Sb73  1  0.33629997  0.66737922  0.00719439  1
  Sb  Sb74  1  0.33745209  0.00074381  0.00514298  1
  Sb  Sb75  1  0.33445972  0.83729477  0.17307031  1
  Sb  Sb76  1  0.00265903  0.00585593  0.66122246  1
  Sb  Sb77  1  -0.00136179  0.50134906  0.16893018  1
  Sb  Sb78  1  0.33576289  0.33079663  0.66353146  1
  Sb  Sb79  1  0.83014935  0.83729336  0.00771124  1
  Sb  Sb80  1  0.16978734  0.00480144  0.49333001  1
  Sb  Sb81  1  0.66598861  0.83063730  0.17250040  1
  Sb  Sb82  1  -0.00168130  0.83563185  0.83804948  1
  Sb  Sb83  1  0.16288316  0.49823254  0.00535921  1
  Sb  Sb84  1  0.66958143  0.33079006  -0.00007866  1
  Sb  Sb85  1  0.83226525  0.66378943  0.83278272  1
  Sb  Sb86  1  0.83477603  0.49801788  0.33282130  1
  Sb  Sb87  1  0.66963405  0.49507994  0.83272697  1
  Sb  Sb88  1  0.49855916  0.83478806  0.66024327  1
  Sb  Sb89  1  0.16240626  0.00217557  0.83894809  1
  Sb  Sb90  1  0.66761189  0.33756790  0.33600285  1
  Sb  Sb91  1  0.82799740  0.49636982  0.66563780  1
  Sb  Sb92  1  0.33943666  0.66795413  0.65762121  1
  Sb  Sb93  1  0.15970611  0.33222460  0.83290749  1
  Sb  Sb94  1  0.16963203  0.83414218  0.33194715  1
  Sb  Sb95  1  0.17092317  0.16443756  0.66596211  1
  Sb  Sb96  1  0.82856980  0.16874061  0.66755874  1
  Sb  Sb97  1  0.50331369  0.00286824  0.83514519  1
  Sb  Sb98  1  0.83509309  0.83455375  0.65795093  1
  Sb  Sb99  1  0.16486410  0.66234957  0.49862626  1
  Sb  Sb100  1  -0.00284665  0.67090392  0.33061094  1
  Sb  Sb101  1  -0.00088442  0.83608386  0.49494546  1
  Sb  Sb102  1  0.50476403  0.49828135  0.00295122  1
  Sb  Sb103  1  0.16565787  0.66598510  0.83495012  1
  Sb  Sb104  1  0.50620848  0.67043549  0.49257663  1
  Sb  Sb105  1  0.49693214  0.50198483  0.33426529  1
  Sb  Sb106  1  0.50127764  0.32968018  0.49555713  1
  Sb  Sb107  1  -0.00481148  -0.00075122  0.00734809  1
  Te  Te108  1  0.16563301  0.16747249  0.16484290  1
  Te  Te109  1  0.16778027  0.17252946  0.49930934  1
  Te  Te110  1  0.16435448  0.16725205  0.84113611  1
  Te  Te111  1  0.17039956  0.49621025  0.17058276  1
  Te  Te112  1  0.16896364  0.49591719  0.49718791  1
  Te  Te113  1  0.16523393  0.49838143  0.83389675  1
  Te  Te114  1  0.16500438  0.83654698  0.16384197  1
  Te  Te115  1  0.16953347  0.83311261  0.50193935  1
  Te  Te116  1  0.16629740  0.83420189  0.83980482  1
  Te  Te117  1  0.50044936  0.16540203  0.16780493  1
  Te  Te118  1  0.49896627  0.16380996  0.49836118  1
  Te  Te119  1  0.50212947  0.16745335  0.83521841  1
  Te  Te120  1  0.50012354  0.49695979  0.16711023  1
  Te  Te121  1  0.50152007  0.49838216  0.50113641  1
  Te  Te122  1  0.49566092  0.49791764  0.83084512  1
  Te  Te123  1  0.49948186  0.83572437  0.16879852  1
  Te  Te124  1  0.49908420  0.83692793  0.49665082  1
  Te  Te125  1  0.49934104  0.83380286  0.84227765  1
  Te  Te126  1  0.83249161  0.16638926  0.16604493  1
  Te  Te127  1  0.83368348  0.16715922  0.50065379  1
  Te  Te128  1  0.83348870  0.16702172  0.83186506  1
  Te  Te129  1  0.83061775  0.49753128  0.16426059  1
  Te  Te130  1  0.83187704  0.49671110  0.49907212  1
  Te  Te131  1  0.83766602  0.49630450  0.83792347  1
  Te  Te132  1  0.83571423  0.83678442  0.17325891  1
  Te  Te133  1  0.83293369  0.83738592  0.49405789  1
  Te  Te134  1  0.83384020  0.83884652  0.83273148  1
  Te  Te135  1  0.16643082  0.00081010  0.00632108  1
  Te  Te136  1  0.16678619  0.00000136  0.32630654  1
  Te  Te137  1  0.17121463  -0.00385245  0.66722016  1
  Te  Te138  1  0.16527588  0.32833872  0.00554615  1
  Te  Te139  1  0.16505578  0.33666849  0.33231782  1
  Te  Te140  1  0.16185910  0.33311252  0.66142308  1
  Te  Te141  1  0.16386135  0.67058595  0.00114275  1
  Te  Te142  1  0.16971590  0.66181974  0.33295610  1
  Te  Te143  1  0.16738098  0.67402872  0.66716120  1
  Te  Te144  1  0.50346537  0.00082162  0.00141032  1
  Te  Te145  1  0.50131913  -0.00000273  0.33420770  1
  Te  Te146  1  0.49574270  0.00214823  0.66510087  1
  Te  Te147  1  0.50178661  0.32676186  0.00641656  1
  Te  Te148  1  0.50156996  0.32306161  0.32673378  1
  Te  Te149  1  0.50380827  0.33241556  0.66704340  1
  Te  Te150  1  0.50424945  0.66825918  0.00637563  1
  Te  Te151  1  0.50100829  0.66859778  0.32908176  1
  Te  Te152  1  0.50712504  0.66547936  0.66851113  1
  Te  Te153  1  0.82987359  0.00306296  0.00282633  1
  Te  Te154  1  0.82990456  0.00166882  0.33220097  1
  Te  Te155  1  0.83328651  -0.00038649  0.66314611  1
  Te  Te156  1  0.83345741  0.33053253  0.00274734  1
  Te  Te157  1  0.83321095  0.32761131  0.33212883  1
  Te  Te158  1  0.83293034  0.33395144  0.66353293  1
  Te  Te159  1  0.83144395  0.66714314  0.00096324  1
  Te  Te160  1  0.83009274  0.66901763  0.33765751  1
  Te  Te161  1  0.82675149  0.66660715  0.66147835  1
  Te  Te162  1  -0.00300663  0.16573610  -0.00334854  1
  Te  Te163  1  -0.00444744  0.16045010  0.33822652  1
  Te  Te164  1  0.00362622  0.17162514  0.66515491  1
  Te  Te165  1  -0.00443009  0.50398857  -0.00010177  1
  Te  Te166  1  0.00403795  0.50292790  0.33916640  1
  Te  Te167  1  0.00178125  0.49646209  0.66445083  1
  Te  Te168  1  0.00129139  0.83027228  0.00386616  1
  Te  Te169  1  -0.00086653  0.83810235  0.32839484  1
  Te  Te170  1  0.00688192  0.83172417  0.66789743  1
  Te  Te171  1  0.33527692  0.16586493  0.00388496  1
  Te  Te172  1  0.33481187  0.16294201  0.33237162  1
  Te  Te173  1  0.33852229  0.16315057  0.66574978  1
  Te  Te174  1  0.33333626  0.50154127  0.00173690  1
  Te  Te175  1  0.33331636  0.50044942  0.33301081  1
  Te  Te176  1  0.33879251  0.50039629  0.66223508  1
  Te  Te177  1  0.33353720  0.83249303  -0.00150909  1
  Te  Te178  1  0.33623866  0.83443527  0.33765182  1
  Te  Te179  1  0.33085957  0.83584117  0.66122326  1
  Te  Te180  1  0.66888200  0.16502394  -0.00227541  1
  Te  Te181  1  0.66856174  0.16898440  0.33375617  1
  Te  Te182  1  0.65892713  0.16994962  0.67077829  1
  Te  Te183  1  0.67132485  0.50242749  0.00107038  1
  Te  Te184  1  0.66646478  0.50599160  0.33451347  1
  Te  Te185  1  0.66256666  0.49919147  0.66585976  1
  Te  Te186  1  0.66266627  0.83302953  -0.00125500  1
  Te  Te187  1  0.66483882  0.82905826  0.33786479  1
  Te  Te188  1  0.66664992  0.82821865  0.66043673  1
  Te  Te189  1  -0.00228852  -0.00175879  0.17084973  1
  Te  Te190  1  -0.00234692  0.00428146  0.49489504  1
  Te  Te191  1  -0.00539722  0.00529483  0.83081306  1
  Te  Te192  1  -0.00265278  0.33345288  0.16761657  1
  Te  Te193  1  -0.00142228  0.33309957  0.50132438  1
  Te  Te194  1  -0.00502295  0.33262038  0.82987921  1
  Te  Te195  1  -0.00017939  0.67141659  0.16240122  1
  Te  Te196  1  -0.00729029  0.66334942  0.49998266  1
  Te  Te197  1  -0.00179417  0.66153062  0.83848177  1
  Te  Te198  1  0.33590274  0.00406277  0.16968877  1
  Te  Te199  1  0.33277157  0.00247981  0.49631952  1
  Te  Te200  1  0.33148103  -0.00019732  0.82745635  1
  Te  Te201  1  0.33251518  0.33196035  0.16671242  1
  Te  Te202  1  0.33071191  0.33521582  0.50001080  1
  Te  Te203  1  0.33203621  0.34014833  0.83230548  1
  Te  Te204  1  0.33871834  0.66279346  0.17287647  1
  Te  Te205  1  0.33289644  0.66080802  0.49374633  1
  Te  Te206  1  0.33369377  0.65960052  0.83143802  1
  Te  Te207  1  0.66639065  -0.00246055  0.16108494  1
  Te  Te208  1  0.66707811  -0.00320403  0.50187644  1
  Te  Te209  1  0.67172159  0.00437611  0.83671911  1
  Te  Te210  1  0.66941975  0.34104505  0.16692105  1
  Te  Te211  1  0.66957984  0.33806038  0.50367286  1
  Te  Te212  1  0.67317434  0.32871612  0.82810182  1
  Te  Te213  1  0.66316450  0.66374179  0.16612681  1
  Te  Te214  1  0.66719464  0.66571942  0.49718902  1
  Te  Te215  1  0.66771627  0.66705461  0.83973046  1
