# generated using pymatgen
data_AgSbTe2
_symmetry_space_group_name_H-M   'P 1'
_cell_length_a   18.33557247
_cell_length_b   18.32788775
_cell_length_c   18.33672744
_cell_angle_alpha   89.99890685
_cell_angle_beta   89.99971471
_cell_angle_gamma   89.99563435
_symmetry_Int_Tables_number   1
_chemical_formula_structural   AgSbTe2
_chemical_formula_sum   'Ag54 Sb54 Te108'
_cell_volume   6162.09966875
_cell_formula_units_Z   54
loop_
 _symmetry_equiv_pos_site_id
 _symmetry_equiv_pos_as_xyz
  1  'x, y, z'
loop_
 _atom_site_type_symbol
 _atom_site_label
 _atom_site_symmetry_multiplicity
 _atom_site_fract_x
 _atom_site_fract_y
 _atom_site_fract_z
 _atom_site_occupancy
  Ag  Ag0  1  0.83312960  0.32506882  0.16492385  1
  Ag  Ag1  1  0.67242774  0.16163200  0.16715013  1
  Ag  Ag2  1  0.33435140  0.67377570  0.66008123  1
  Ag  Ag3  1  0.50102839  0.15617473  0.67169083  1
  Ag  Ag4  1  -0.00184928  0.33142658  -0.00174316  1
  Ag  Ag5  1  0.50128406  0.67241425  0.16953415  1
  Ag  Ag6  1  -0.00371327  0.16508927  0.49534120  1
  Ag  Ag7  1  0.00135192  0.66612608  0.65462147  1
  Ag  Ag8  1  0.17067223  -0.00501067  0.50246455  1
  Ag  Ag9  1  0.83496099  0.33380131  0.49846081  1
  Ag  Ag10  1  0.33292827  0.50628821  0.49978913  1
  Ag  Ag11  1  0.17756704  0.00393201  0.83063331  1
  Ag  Ag12  1  0.83817867  0.32963960  0.83986582  1
  Ag  Ag13  1  0.50093053  0.83252848  0.32642133  1
  Ag  Ag14  1  0.16530484  0.50496762  0.66551244  1
  Ag  Ag15  1  -0.00422971  0.83418140  0.17052814  1
  Ag  Ag16  1  0.33304381  0.15459378  0.83703004  1
  Ag  Ag17  1  0.00009923  -0.00726952  0.33671209  1
  Ag  Ag18  1  0.66549928  0.67491806  0.00400087  1
  Ag  Ag19  1  0.32869665  0.32038443  -0.00259695  1
  Ag  Ag20  1  0.49345323  0.15487903  -0.00230184  1
  Ag  Ag21  1  0.00027489  0.66836224  0.00162069  1
  Ag  Ag22  1  0.00172796  0.50016829  0.82783176  1
  Ag  Ag23  1  0.17211277  0.16699905  -0.00300758  1
  Ag  Ag24  1  0.33920383  -0.00702299  0.33621444  1
  Ag  Ag25  1  0.49104720  -0.00462393  0.82970336  1
  Ag  Ag26  1  0.66992832  0.32784482  0.33274032  1
  Ag  Ag27  1  0.49941205  0.83536115  0.00111189  1
  Ag  Ag28  1  0.15786353  0.67052965  0.50238599  1
  Ag  Ag29  1  -0.00077850  0.51112271  0.50280354  1
  Ag  Ag30  1  0.83295855  0.16804262  0.32921944  1
  Ag  Ag31  1  0.16342848  0.32773382  0.83532281  1
  Ag  Ag32  1  -0.00231974  0.82293630  0.48888485  1
  Ag  Ag33  1  0.33737115  -0.00645556  0.67600237  1
  Ag  Ag34  1  0.66198141  0.83223252  0.16408808  1
  Ag  Ag35  1  0.33561128  0.67605053  -0.00015561  1
  Ag  Ag36  1  0.34238026  0.67506961  0.33724873  1
  Ag  Ag37  1  0.83476353  0.16646599  0.00580859  1
  Ag  Ag38  1  0.65711238  0.83235751  0.84383432  1
  Ag  Ag39  1  0.82466769  0.83412829  0.00137003  1
  Ag  Ag40  1  0.49080363  -0.00112328  0.50308231  1
  Ag  Ag41  1  -0.00153472  0.67385282  0.34342156  1
  Ag  Ag42  1  0.83210121  0.16711110  0.66336492  1
  Ag  Ag43  1  0.49871872  0.83640199  0.66844495  1
  Ag  Ag44  1  0.33588459  -0.00383623  -0.01251317  1
  Ag  Ag45  1  0.66726744  0.50485680  0.49642888  1
  Ag  Ag46  1  0.34578237  0.83218702  0.15998182  1
  Ag  Ag47  1  0.66234973  -0.00640846  0.33311386  1
  Ag  Ag48  1  0.50247018  0.51521518  0.33724900  1
  Ag  Ag49  1  -0.00921895  0.16274509  0.16750410  1
  Ag  Ag50  1  0.33929036  0.84268526  0.84153681  1
  Ag  Ag51  1  0.84459589  0.66406863  0.49887665  1
  Ag  Ag52  1  0.66480168  0.66962489  0.65513679  1
  Ag  Ag53  1  0.66043044  0.67060079  0.33469896  1
  Sb  Sb54  1  0.83083152  0.66603713  0.16992796  1
  Sb  Sb55  1  -0.00642068  0.33401392  0.33125416  1
  Sb  Sb56  1  0.00638132  -0.00454811  0.65974708  1
  Sb  Sb57  1  0.83147991  0.83551689  0.32771119  1
  Sb  Sb58  1  0.16165608  0.32896653  0.15915510  1
  Sb  Sb59  1  0.83788640  0.49916392  0.66343078  1
  Sb  Sb60  1  0.32982237  0.16405343  0.50347981  1
  Sb  Sb61  1  0.66627111  0.50345543  0.17243314  1
  Sb  Sb62  1  0.49858084  0.32398537  0.83573936  1
  Sb  Sb63  1  0.00531477  0.00141269  0.00407105  1
  Sb  Sb64  1  0.34066516  0.33366402  0.32853328  1
  Sb  Sb65  1  -0.00163097  0.50203227  0.16952662  1
  Sb  Sb66  1  0.67167466  0.50634610  0.82825382  1
  Sb  Sb67  1  0.50342169  0.33514076  0.16621836  1
  Sb  Sb68  1  0.16977092  0.50375586  0.34228900  1
  Sb  Sb69  1  0.49845081  0.67380402  0.49511613  1
  Sb  Sb70  1  0.17183555  0.83623324  -0.00048241  1
  Sb  Sb71  1  0.83453217  0.66517012  0.83090715  1
  Sb  Sb72  1  0.50396380  0.32906195  0.49914452  1
  Sb  Sb73  1  0.33264701  0.83186371  0.49889411  1
  Sb  Sb74  1  0.16712587  0.66886800  0.82912879  1
  Sb  Sb75  1  0.49636356  0.50672121  0.66018578  1
  Sb  Sb76  1  0.83262632  0.00410043  0.16733702  1
  Sb  Sb77  1  0.50601013  0.15787087  0.32984865  1
  Sb  Sb78  1  -0.00153092  0.33723953  0.67086219  1
  Sb  Sb79  1  0.16849605  0.66839662  0.17034463  1
  Sb  Sb80  1  0.65824899  -0.00404748  0.66157228  1
  Sb  Sb81  1  0.49915578  -0.00741202  0.16608691  1
  Sb  Sb82  1  0.83535730  -0.00021119  0.49831810  1
  Sb  Sb83  1  0.32972354  0.50241214  0.82961091  1
  Sb  Sb84  1  0.16789581  -0.00094954  0.16689185  1
  Sb  Sb85  1  0.67157526  0.16799495  0.49588259  1
  Sb  Sb86  1  0.33311173  0.33233393  0.67091883  1
  Sb  Sb87  1  0.49862295  0.50609679  0.00216103  1
  Sb  Sb88  1  0.82865349  0.49809072  0.33774821  1
  Sb  Sb89  1  0.16006720  0.33482811  0.50530866  1
  Sb  Sb90  1  0.00226361  0.82975196  0.83617296  1
  Sb  Sb91  1  0.66080383  -0.00455931  0.00434853  1
  Sb  Sb92  1  0.33524341  0.50812107  0.17066952  1
  Sb  Sb93  1  0.16651379  0.49702721  -0.00694746  1
  Sb  Sb94  1  0.83399149  0.50077561  -0.00076448  1
  Sb  Sb95  1  0.66919265  0.33648339  0.66280971  1
  Sb  Sb96  1  0.83328951  0.00304935  0.83501785  1
  Sb  Sb97  1  0.66882521  0.82956906  0.49554834  1
  Sb  Sb98  1  0.33693522  0.15876071  0.16026660  1
  Sb  Sb99  1  0.17275281  0.83029783  0.66507230  1
  Sb  Sb100  1  0.49910030  0.67514074  0.83684643  1
  Sb  Sb101  1  0.16634252  0.16647474  0.67137863  1
  Sb  Sb102  1  0.15977090  0.16411426  0.33004222  1
  Sb  Sb103  1  0.17041544  0.83414051  0.33526532  1
  Sb  Sb104  1  0.00260580  0.16981752  0.83633593  1
  Sb  Sb105  1  0.66953473  0.33324146  0.00335539  1
  Sb  Sb106  1  0.66365846  0.16105403  0.83776253  1
  Sb  Sb107  1  0.82910110  0.83529778  0.66977641  1
  Te  Te108  1  0.16075653  0.16528821  0.15857868  1
  Te  Te109  1  0.16069458  0.16530913  0.50031313  1
  Te  Te110  1  0.16953586  0.16651560  0.83594399  1
  Te  Te111  1  0.16686705  0.49796569  0.16767242  1
  Te  Te112  1  0.16500445  0.50146812  0.50555807  1
  Te  Te113  1  0.16195372  0.49731333  0.82694000  1
  Te  Te114  1  0.15464874  0.83339212  0.16656528  1
  Te  Te115  1  0.15765385  0.83393675  0.50073768  1
  Te  Te116  1  0.17297791  0.84008208  0.83211044  1
  Te  Te117  1  0.50510489  0.16734933  0.16088283  1
  Te  Te118  1  0.49927901  0.16051912  0.50229791  1
  Te  Te119  1  0.49703453  0.15987634  0.83621782  1
  Te  Te120  1  0.50040361  0.50758105  0.17399724  1
  Te  Te121  1  0.49989730  0.49649513  0.49662411  1
  Te  Te122  1  0.50127118  0.49578278  0.83100599  1
  Te  Te123  1  0.50137585  0.83018099  0.16679058  1
  Te  Te124  1  0.50160514  0.84052589  0.50215507  1
  Te  Te125  1  0.49900197  0.83510584  0.83596309  1
  Te  Te126  1  0.83278860  0.16727966  0.16626526  1
  Te  Te127  1  0.83514509  0.16709398  0.49942429  1
  Te  Te128  1  0.83212961  0.16982102  0.83521318  1
  Te  Te129  1  0.83351255  0.48756385  0.16751652  1
  Te  Te130  1  0.83481906  0.50129850  0.50081650  1
  Te  Te131  1  0.83993409  0.49180802  0.83125422  1
  Te  Te132  1  0.83505796  0.83144885  0.16086792  1
  Te  Te133  1  0.83840928  0.82854090  0.50137033  1
  Te  Te134  1  0.83077206  0.83413300  0.83988606  1
  Te  Te135  1  0.17301451  0.00510218  -0.00298638  1
  Te  Te136  1  0.16309541  0.00072906  0.33976470  1
  Te  Te137  1  0.17361985  0.00025134  0.66477669  1
  Te  Te138  1  0.16549552  0.33021086  -0.00527546  1
  Te  Te139  1  0.16952531  0.33369006  0.33311798  1
  Te  Te140  1  0.16659185  0.33734101  0.67378089  1
  Te  Te141  1  0.16791891  0.66607816  0.00043624  1
  Te  Te142  1  0.16360801  0.66739767  0.33949929  1
  Te  Te143  1  0.16730297  0.66514980  0.66307404  1
  Te  Te144  1  0.49650204  -0.00253584  -0.00122894  1
  Te  Te145  1  0.50089971  -0.00487100  0.33510266  1
  Te  Te146  1  0.49735808  -0.00161465  0.66640882  1
  Te  Te147  1  0.49734095  0.33368656  0.00060340  1
  Te  Te148  1  0.50881182  0.33292478  0.33284489  1
  Te  Te149  1  0.50062101  0.32423819  0.66692218  1
  Te  Te150  1  0.49808399  0.67054655  0.00371522  1
  Te  Te151  1  0.49925708  0.67173396  0.33266191  1
  Te  Te152  1  0.49820468  0.67172749  0.66761794  1
  Te  Te153  1  0.83467285  0.00070755  -0.00090728  1
  Te  Te154  1  0.83564056  0.00506646  0.33410625  1
  Te  Te155  1  0.83320724  0.00593787  0.66706088  1
  Te  Te156  1  0.83440492  0.33223913  -0.00027259  1
  Te  Te157  1  0.82951027  0.33060355  0.33739588  1
  Te  Te158  1  0.83279193  0.32746245  0.66121365  1
  Te  Te159  1  0.83226788  0.66889254  0.00017181  1
  Te  Te160  1  0.83601902  0.66711721  0.33698001  1
  Te  Te161  1  0.83235338  0.66782091  0.66281554  1
  Te  Te162  1  -0.00433915  0.16724598  0.00277026  1
  Te  Te163  1  -0.00453915  0.16769780  0.33038904  1
  Te  Te164  1  -0.00345268  0.16521511  0.66429436  1
  Te  Te165  1  0.00035727  0.49938871  0.00072057  1
  Te  Te166  1  0.00072735  0.50494100  0.33850330  1
  Te  Te167  1  0.00213984  0.50441659  0.66534614  1
  Te  Te168  1  0.00042663  0.83291900  0.00089667  1
  Te  Te169  1  -0.00299294  0.83390211  0.33205283  1
  Te  Te170  1  -0.00213903  0.82677124  0.66748581  1
  Te  Te171  1  0.33460266  0.16320676  -0.00039491  1
  Te  Te172  1  0.33385564  0.16427884  0.33043628  1
  Te  Te173  1  0.33562548  0.16472142  0.67092160  1
  Te  Te174  1  0.33362372  0.50780234  0.00012819  1
  Te  Te175  1  0.33917115  0.50132291  0.33822338  1
  Te  Te176  1  0.32981469  0.50341821  0.66169209  1
  Te  Te177  1  0.33434432  0.83542614  0.00132186  1
  Te  Te178  1  0.33588680  0.83270971  0.33339109  1
  Te  Te179  1  0.33803016  0.83303813  0.66479603  1
  Te  Te180  1  0.67008199  0.16634264  0.00500279  1
  Te  Te181  1  0.67011566  0.16657168  0.32921414  1
  Te  Te182  1  0.66576903  0.16667353  0.66808386  1
  Te  Te183  1  0.66541749  0.50959123  -0.00145870  1
  Te  Te184  1  0.66355838  0.50882304  0.33708015  1
  Te  Te185  1  0.66514467  0.50802869  0.66031391  1
  Te  Te186  1  0.66519581  0.83395034  0.00282363  1
  Te  Te187  1  0.66628152  0.83275733  0.32950343  1
  Te  Te188  1  0.66261769  0.82858436  0.66715204  1
  Te  Te189  1  0.00145049  -0.00074305  0.17253344  1
  Te  Te190  1  0.00226356  0.00459499  0.49658650  1
  Te  Te191  1  0.00507829  -0.00059138  0.83065101  1
  Te  Te192  1  -0.00466195  0.33129734  0.16255940  1
  Te  Te193  1  -0.00451661  0.32757396  0.49999729  1
  Te  Te194  1  -0.00043759  0.33575964  0.83699021  1
  Te  Te195  1  -0.00061578  0.66932172  0.16154646  1
  Te  Te196  1  0.00134787  0.66656104  0.49945589  1
  Te  Te197  1  0.00074957  0.66165826  0.84248267  1
  Te  Te198  1  0.33229648  -0.00770815  0.17777247  1
  Te  Te199  1  0.33091472  0.00049180  0.49500022  1
  Te  Te200  1  0.33461422  -0.00105376  0.83131119  1
  Te  Te201  1  0.33355523  0.33326135  0.15894054  1
  Te  Te202  1  0.33208302  0.33738823  0.49918628  1
  Te  Te203  1  0.33067752  0.33405809  0.83860958  1
  Te  Te204  1  0.33460317  0.67286318  0.16894184  1
  Te  Te205  1  0.33343732  0.66639750  0.49882494  1
  Te  Te206  1  0.33230897  0.66939487  0.83375681  1
  Te  Te207  1  0.66595363  -0.00224406  0.17245020  1
  Te  Te208  1  0.66432587  -0.00059674  0.49351232  1
  Te  Te209  1  0.66427045  -0.00700054  0.83189094  1
  Te  Te210  1  0.67041755  0.33303703  0.17095788  1
  Te  Te211  1  0.67146008  0.33812409  0.49516724  1
  Te  Te212  1  0.67284837  0.33564813  0.83311357  1
  Te  Te213  1  0.66614935  0.66979963  0.16798056  1
  Te  Te214  1  0.66409761  0.66538313  0.49742306  1
  Te  Te215  1  0.66766584  0.67142413  0.83731057  1
