# generated using pymatgen
data_AgSbTe2
_symmetry_space_group_name_H-M   'P 1'
_cell_length_a   18.34454940
_cell_length_b   18.33800632
_cell_length_c   18.34292000
_cell_angle_alpha   89.99894732
_cell_angle_beta   89.99822365
_cell_angle_gamma   90.00249954
_symmetry_Int_Tables_number   1
_chemical_formula_structural   AgSbTe2
_chemical_formula_sum   'Ag54 Sb54 Te108'
_cell_volume   6170.60345422
_cell_formula_units_Z   54
loop_
 _symmetry_equiv_pos_site_id
 _symmetry_equiv_pos_as_xyz
  1  'x, y, z'
loop_
 _atom_site_type_symbol
 _atom_site_label
 _atom_site_symmetry_multiplicity
 _atom_site_fract_x
 _atom_site_fract_y
 _atom_site_fract_z
 _atom_site_occupancy
  Ag  Ag0  1  0.32182135  0.00310854  0.00706701  1
  Ag  Ag1  1  0.16183731  0.15910128  0.66651773  1
  Ag  Ag2  1  0.49651228  0.16883510  0.00840679  1
  Ag  Ag3  1  0.33074675  0.16524435  0.83567477  1
  Ag  Ag4  1  0.82801285  0.33305529  0.49736200  1
  Ag  Ag5  1  0.16651394  0.49437963  0.34053776  1
  Ag  Ag6  1  0.33076423  0.00393805  0.33218526  1
  Ag  Ag7  1  0.66804487  0.33214240  0.33826860  1
  Ag  Ag8  1  0.83010010  0.16745720  0.33753941  1
  Ag  Ag9  1  0.66837932  0.33056849  0.65599304  1
  Ag  Ag10  1  0.16802787  0.16577249  -0.00277673  1
  Ag  Ag11  1  0.16280731  0.00090156  0.16691950  1
  Ag  Ag12  1  -0.00351293  0.33353936  0.33879116  1
  Ag  Ag13  1  0.67009921  0.16491470  0.16766405  1
  Ag  Ag14  1  0.00057565  0.83710783  0.82040106  1
  Ag  Ag15  1  0.83387171  -0.00316814  0.49937390  1
  Ag  Ag16  1  0.16156388  -0.00005605  0.50114837  1
  Ag  Ag17  1  -0.00195980  0.49831635  0.49902690  1
  Ag  Ag18  1  0.83332202  0.49043081  0.33735716  1
  Ag  Ag19  1  0.15738102  0.84324445  0.66047013  1
  Ag  Ag20  1  -0.00049282  0.00087921  0.66387301  1
  Ag  Ag21  1  -0.00699897  0.83784849  0.50188114  1
  Ag  Ag22  1  0.16391677  0.34039180  0.49729572  1
  Ag  Ag23  1  0.83485077  -0.00040455  0.17727993  1
  Ag  Ag24  1  0.83905092  0.83946026  0.65441311  1
  Ag  Ag25  1  0.83617515  0.15789702  0.65659235  1
  Ag  Ag26  1  -0.00136135  0.32545406  0.00369462  1
  Ag  Ag27  1  0.66531594  0.49729450  0.81942349  1
  Ag  Ag28  1  0.83274184  0.67975153  0.49579309  1
  Ag  Ag29  1  0.83787927  0.84015753  0.33845520  1
  Ag  Ag30  1  0.16853712  0.49730234  0.65775432  1
  Ag  Ag31  1  0.50751609  0.66946656  0.16760213  1
  Ag  Ag32  1  0.66902191  0.33288836  0.00066135  1
  Ag  Ag33  1  0.49995200  0.48925247  0.33944657  1
  Ag  Ag34  1  0.34017709  0.32871385  0.33890275  1
  Ag  Ag35  1  0.82945361  0.67646090  0.17760883  1
  Ag  Ag36  1  0.50968321  0.33862826  0.49563183  1
  Ag  Ag37  1  0.15923111  0.84315267  0.34323536  1
  Ag  Ag38  1  0.32988946  0.49529707  0.49734218  1
  Ag  Ag39  1  0.00322807  0.00347034  -0.00077253  1
  Ag  Ag40  1  0.50483285  0.83758484  0.66254325  1
  Ag  Ag41  1  0.16531200  0.00065406  0.82686385  1
  Ag  Ag42  1  0.50211422  0.49998559  0.65637213  1
  Ag  Ag43  1  0.49805105  0.48983214  0.00534774  1
  Ag  Ag44  1  0.50445191  0.17065975  0.33108025  1
  Ag  Ag45  1  0.50157356  0.00181226  0.17541837  1
  Ag  Ag46  1  0.67791983  0.83714257  0.50255485  1
  Ag  Ag47  1  0.67937855  0.00562257  0.66378677  1
  Ag  Ag48  1  0.50433790  0.00377926  0.49656263  1
  Ag  Ag49  1  0.66931955  0.49227693  0.50027465  1
  Ag  Ag50  1  0.16804462  0.49025089  -0.00023161  1
  Ag  Ag51  1  -0.00420378  0.16427726  0.16652995  1
  Ag  Ag52  1  0.83502105  0.83790848  0.00395027  1
  Ag  Ag53  1  0.16559633  0.67305936  0.83204511  1
  Sb  Sb54  1  0.33197105  0.66894019  0.00091363  1
  Sb  Sb55  1  -0.00038439  0.50272076  0.82925052  1
  Sb  Sb56  1  0.66856898  0.16698385  0.49607788  1
  Sb  Sb57  1  -0.00192991  0.32891799  0.66256739  1
  Sb  Sb58  1  0.16183541  0.66459816  0.50262019  1
  Sb  Sb59  1  0.50126218  0.33352887  0.82988039  1
  Sb  Sb60  1  0.16100007  0.84184986  -0.00143239  1
  Sb  Sb61  1  0.49474330  0.00200723  0.83020020  1
  Sb  Sb62  1  0.50274237  0.83584234  0.33754708  1
  Sb  Sb63  1  0.49978792  0.16693760  0.66182503  1
  Sb  Sb64  1  0.83856920  -0.00074740  0.82850562  1
  Sb  Sb65  1  -0.00138094  0.16565441  0.49585553  1
  Sb  Sb66  1  0.66309938  0.16957169  0.83516603  1
  Sb  Sb67  1  0.67034967  0.66037479  0.33368742  1
  Sb  Sb68  1  0.67029606  0.83957132  0.17488302  1
  Sb  Sb69  1  0.33214418  0.16949368  0.50057501  1
  Sb  Sb70  1  0.33312352  0.83754166  0.16884136  1
  Sb  Sb71  1  0.16398082  0.32856848  0.17137053  1
  Sb  Sb72  1  0.66832133  0.66465104  0.66259117  1
  Sb  Sb73  1  0.33457161  0.49522725  0.83030471  1
  Sb  Sb74  1  0.83328876  0.32767975  0.17590346  1
  Sb  Sb75  1  0.83341089  0.50056445  0.65615367  1
  Sb  Sb76  1  0.00108155  0.67406770  0.66376785  1
  Sb  Sb77  1  0.50450015  0.83685636  -0.00124614  1
  Sb  Sb78  1  0.32841520  0.00072391  0.66189083  1
  Sb  Sb79  1  0.83517754  0.16469375  0.00375869  1
  Sb  Sb80  1  0.16608434  0.32912563  0.82734018  1
  Sb  Sb81  1  0.33373761  0.49968799  0.17104226  1
  Sb  Sb82  1  0.00037527  0.49484022  0.17169068  1
  Sb  Sb83  1  0.50204523  0.32903206  0.17349991  1
  Sb  Sb84  1  0.32660925  0.83915394  0.83159746  1
  Sb  Sb85  1  0.50529275  0.66261249  0.49650243  1
  Sb  Sb86  1  0.33082904  0.83342865  0.49947041  1
  Sb  Sb87  1  0.66711276  0.66135207  0.00186309  1
  Sb  Sb88  1  0.49762870  0.66418596  0.83360429  1
  Sb  Sb89  1  0.33364999  0.32867413  0.00546112  1
  Sb  Sb90  1  0.83167955  0.33383131  0.82823703  1
  Sb  Sb91  1  0.67178976  0.83182826  0.82530354  1
  Sb  Sb92  1  0.33440969  0.33358262  0.65944775  1
  Sb  Sb93  1  0.67021651  0.00281737  -0.00176302  1
  Sb  Sb94  1  0.83352895  0.49838487  0.00830989  1
  Sb  Sb95  1  0.33435829  0.66646485  0.33465441  1
  Sb  Sb96  1  0.33076331  0.66593547  0.66544107  1
  Sb  Sb97  1  0.33435479  0.16320357  0.16647972  1
  Sb  Sb98  1  0.16591565  0.16649883  0.33443194  1
  Sb  Sb99  1  0.00279759  0.16216798  0.83668999  1
  Sb  Sb100  1  0.66695128  0.00716779  0.33939614  1
  Sb  Sb101  1  -0.00390284  0.66283193  0.33534451  1
  Sb  Sb102  1  0.16388449  0.67045133  0.16626711  1
  Sb  Sb103  1  0.00019256  0.00483045  0.33481742  1
  Sb  Sb104  1  -0.00195013  0.83977939  0.17208117  1
  Sb  Sb105  1  0.83632350  0.66799927  0.83075848  1
  Sb  Sb106  1  0.66639715  0.49386942  0.17198312  1
  Sb  Sb107  1  0.00055208  0.66925723  -0.00015522  1
  Te  Te108  1  0.16323544  0.16041737  0.16399392  1
  Te  Te109  1  0.16698836  0.16271949  0.50370157  1
  Te  Te110  1  0.16829131  0.16382629  0.83343922  1
  Te  Te111  1  0.16598639  0.50275923  0.16300070  1
  Te  Te112  1  0.16308754  0.50311584  0.49950488  1
  Te  Te113  1  0.16641933  0.49787765  0.83618550  1
  Te  Te114  1  0.16630175  0.83817969  0.17093984  1
  Te  Te115  1  0.16575514  0.83233363  0.50114989  1
  Te  Te116  1  0.16184761  0.83690112  0.83149573  1
  Te  Te117  1  0.50029284  0.16221174  0.16871214  1
  Te  Te118  1  0.49744219  0.16395180  0.49577348  1
  Te  Te119  1  0.49555419  0.16684006  0.83930251  1
  Te  Te120  1  0.50079226  0.49987640  0.16437153  1
  Te  Te121  1  0.50531559  0.50044528  0.49818606  1
  Te  Te122  1  0.50311291  0.50068123  0.83504325  1
  Te  Te123  1  0.50210121  0.83810235  0.16683013  1
  Te  Te124  1  0.49759127  0.83356075  0.50351673  1
  Te  Te125  1  0.50018983  0.83226047  0.82607475  1
  Te  Te126  1  0.83329491  0.16099930  0.16868920  1
  Te  Te127  1  0.83481964  0.16739874  0.49888614  1
  Te  Te128  1  0.83126809  0.16744969  0.82505041  1
  Te  Te129  1  0.83393343  0.50527802  0.17582116  1
  Te  Te130  1  0.83361820  0.49145052  0.49732395  1
  Te  Te131  1  0.82873980  0.50156545  0.83381991  1
  Te  Te132  1  0.83183004  0.83774350  0.16716237  1
  Te  Te133  1  0.83439836  0.83613000  0.49802554  1
  Te  Te134  1  0.83995474  0.83195130  0.83793086  1
  Te  Te135  1  0.16490074  0.00160525  0.00460285  1
  Te  Te136  1  0.16707816  0.00036697  0.33693055  1
  Te  Te137  1  0.16675456  0.00041347  0.66313891  1
  Te  Te138  1  0.16620859  0.33036045  0.00200694  1
  Te  Te139  1  0.16091938  0.33505265  0.33605885  1
  Te  Te140  1  0.16646522  0.33645793  0.65971467  1
  Te  Te141  1  0.16735409  0.66246623  -0.00227573  1
  Te  Te142  1  0.16749911  0.66285069  0.32972426  1
  Te  Te143  1  0.16624321  0.66100191  0.67138058  1
  Te  Te144  1  0.50170063  0.00397391  -0.00006783  1
  Te  Te145  1  0.50112432  0.00027541  0.33556834  1
  Te  Te146  1  0.49692815  -0.00065641  0.66133997  1
  Te  Te147  1  0.49944106  0.33074745  -0.00067380  1
  Te  Te148  1  0.50180355  0.33172039  0.33529567  1
  Te  Te149  1  0.50449593  0.33633966  0.66157844  1
  Te  Te150  1  0.49944925  0.66701288  0.00533329  1
  Te  Te151  1  0.50053512  0.66669220  0.32660256  1
  Te  Te152  1  0.49979904  0.66153027  0.66775201  1
  Te  Te153  1  0.83710081  -0.00160515  -0.00123272  1
  Te  Te154  1  0.83306028  0.00319197  0.33686731  1
  Te  Te155  1  0.83555080  0.00033040  0.66526673  1
  Te  Te156  1  0.83411520  0.33371745  -0.00099543  1
  Te  Te157  1  0.83367704  0.33132005  0.33457445  1
  Te  Te158  1  0.83063452  0.33091690  0.66116953  1
  Te  Te159  1  0.83302127  0.66979623  -0.00030091  1
  Te  Te160  1  0.83278173  0.66924488  0.33470791  1
  Te  Te161  1  0.83355354  0.67521482  0.66281741  1
  Te  Te162  1  0.00127522  0.16543953  0.00188253  1
  Te  Te163  1  -0.00354481  0.17245858  0.32759010  1
  Te  Te164  1  0.00048520  0.16217257  0.66839770  1
  Te  Te165  1  0.00340300  0.49856381  -0.00111328  1
  Te  Te166  1  0.00171258  0.49571404  0.33643528  1
  Te  Te167  1  0.00287818  0.49696144  0.66190663  1
  Te  Te168  1  -0.00457232  0.83636752  0.00401354  1
  Te  Te169  1  0.00045669  0.83215058  0.33948006  1
  Te  Te170  1  -0.00002022  0.83673454  0.66307927  1
  Te  Te171  1  0.33226904  0.16419283  0.00019476  1
  Te  Te172  1  0.33729407  0.16585579  0.33377934  1
  Te  Te173  1  0.32916881  0.16746283  0.67255956  1
  Te  Te174  1  0.33414852  0.50123387  -0.00156125  1
  Te  Te175  1  0.33299239  0.49978950  0.33704006  1
  Te  Te176  1  0.33399425  0.49976614  0.66293515  1
  Te  Te177  1  0.33545413  0.84053828  -0.00053910  1
  Te  Te178  1  0.32818779  0.83792100  0.33389916  1
  Te  Te179  1  0.33718644  0.83282660  0.66733965  1
  Te  Te180  1  0.66545682  0.17044055  0.00198824  1
  Te  Te181  1  0.66687420  0.17086861  0.32896739  1
  Te  Te182  1  0.66845805  0.16814695  0.66948278  1
  Te  Te183  1  0.66462913  0.49384744  0.00506272  1
  Te  Te184  1  0.66530151  0.49375260  0.33663012  1
  Te  Te185  1  0.66748935  0.49734912  0.66365469  1
  Te  Te186  1  0.67303163  0.83261001  -0.00369945  1
  Te  Te187  1  0.67182566  0.83310873  0.34239809  1
  Te  Te188  1  0.66521382  0.83328360  0.66275934  1
  Te  Te189  1  -0.00214150  0.00326473  0.16679921  1
  Te  Te190  1  0.00055836  -0.00120706  0.50136730  1
  Te  Te191  1  0.00426998  -0.00304618  0.83457663  1
  Te  Te192  1  -0.00139820  0.32716318  0.16269186  1
  Te  Te193  1  0.00381257  0.33399981  0.49844532  1
  Te  Te194  1  -0.00032578  0.33463175  0.84236860  1
  Te  Te195  1  -0.00806570  0.66743633  0.16634292  1
  Te  Te196  1  -0.00709791  0.66193195  0.50009270  1
  Te  Te197  1  0.00608762  0.67177948  0.83274919  1
  Te  Te198  1  0.33451285  -0.00056813  0.16906665  1
  Te  Te199  1  0.33278850  -0.00147292  0.49292520  1
  Te  Te200  1  0.32706759  0.00485102  0.83805575  1
  Te  Te201  1  0.33147219  0.33425395  0.17858335  1
  Te  Te202  1  0.32785042  0.33691472  0.49518506  1
  Te  Te203  1  0.33332399  0.32600018  0.83387437  1
  Te  Te204  1  0.34098528  0.66822690  0.16685947  1
  Te  Te205  1  0.33535265  0.65629646  0.49984392  1
  Te  Te206  1  0.32471118  0.66590272  0.83372253  1
  Te  Te207  1  0.66722362  0.00544682  0.16387520  1
  Te  Te208  1  0.66682155  -0.00015540  0.50476472  1
  Te  Te209  1  0.66547701  -0.00023125  0.82392547  1
  Te  Te210  1  0.66768875  0.32634000  0.16188587  1
  Te  Te211  1  0.66619757  0.33234942  0.49939812  1
  Te  Te212  1  0.66626979  0.33890753  0.83859465  1
  Te  Te213  1  0.66836176  0.67146674  0.16706823  1
  Te  Te214  1  0.67282776  0.66848334  0.49897554  1
  Te  Te215  1  0.66536254  0.65825406  0.83418677  1
