# generated using pymatgen
data_AgSbTe2
_symmetry_space_group_name_H-M   'P 1'
_cell_length_a   18.32820169
_cell_length_b   18.32613153
_cell_length_c   18.32785127
_cell_angle_alpha   90.00161500
_cell_angle_beta   89.99788149
_cell_angle_gamma   90.00382476
_symmetry_Int_Tables_number   1
_chemical_formula_structural   AgSbTe2
_chemical_formula_sum   'Ag54 Sb54 Te108'
_cell_volume   6156.05094141
_cell_formula_units_Z   54
loop_
 _symmetry_equiv_pos_site_id
 _symmetry_equiv_pos_as_xyz
  1  'x, y, z'
loop_
 _atom_site_type_symbol
 _atom_site_label
 _atom_site_symmetry_multiplicity
 _atom_site_fract_x
 _atom_site_fract_y
 _atom_site_fract_z
 _atom_site_occupancy
  Ag  Ag0  1  0.82768126  0.66445180  0.49366960  1
  Ag  Ag1  1  0.66589676  0.65935162  0.00028217  1
  Ag  Ag2  1  0.01457487  -0.00019373  0.66640558  1
  Ag  Ag3  1  -0.00297199  0.49965545  0.83107787  1
  Ag  Ag4  1  -0.00335203  0.33448116  0.33427858  1
  Ag  Ag5  1  0.66237154  0.49831292  0.83641063  1
  Ag  Ag6  1  0.49751949  0.49622012  0.67281565  1
  Ag  Ag7  1  0.34250132  0.66952955  -0.00443367  1
  Ag  Ag8  1  0.15982393  0.49832988  0.33883547  1
  Ag  Ag9  1  0.49538416  0.15800284  0.33398433  1
  Ag  Ag10  1  0.33883375  0.33451526  0.67265365  1
  Ag  Ag11  1  0.65890450  0.34129741  0.00156836  1
  Ag  Ag12  1  0.66201539  0.16414045  0.16877561  1
  Ag  Ag13  1  0.17244565  0.15595789  0.00221083  1
  Ag  Ag14  1  0.50779740  0.50633113  -0.00960270  1
  Ag  Ag15  1  0.17440666  0.00224486  0.84949982  1
  Ag  Ag16  1  0.50421811  0.84167448  0.33096530  1
  Ag  Ag17  1  0.83485028  0.50420753  0.32980597  1
  Ag  Ag18  1  0.16665946  0.84502959  0.32789135  1
  Ag  Ag19  1  0.32904243  0.00281738  0.33300738  1
  Ag  Ag20  1  0.49409408  -0.00118625  0.49259942  1
  Ag  Ag21  1  0.82946674  0.83011674  0.32827587  1
  Ag  Ag22  1  0.49842434  0.65860235  0.83607668  1
  Ag  Ag23  1  0.83104452  0.66445782  0.16472490  1
  Ag  Ag24  1  -0.00256484  0.50087649  0.49994896  1
  Ag  Ag25  1  0.32958880  0.00439847  0.67278088  1
  Ag  Ag26  1  0.66819718  0.33102974  0.32899593  1
  Ag  Ag27  1  0.49905179  0.34161347  0.83050471  1
  Ag  Ag28  1  0.33714357  0.66327143  0.67335239  1
  Ag  Ag29  1  0.01382762  -0.00718941  -0.00097816  1
  Ag  Ag30  1  0.49228161  0.00058032  0.83179877  1
  Ag  Ag31  1  0.82886558  0.34035130  0.16847442  1
  Ag  Ag32  1  0.34036787  0.32600184  -0.00592790  1
  Ag  Ag33  1  0.16793600  0.00080742  0.16636526  1
  Ag  Ag34  1  0.33314451  0.16425361  0.83860493  1
  Ag  Ag35  1  -0.00818023  0.67030084  -0.00199172  1
  Ag  Ag36  1  0.17453049  0.49575494  0.66464642  1
  Ag  Ag37  1  0.17282976  0.00037551  0.48583679  1
  Ag  Ag38  1  0.66585756  0.49959221  0.50292693  1
  Ag  Ag39  1  0.32836956  0.00391629  -0.00231422  1
  Ag  Ag40  1  0.65713180  0.33730831  0.66508012  1
  Ag  Ag41  1  0.83044829  0.82597633  0.00681249  1
  Ag  Ag42  1  0.83197833  0.83211198  0.66389991  1
  Ag  Ag43  1  0.50229395  0.34094519  0.50613688  1
  Ag  Ag44  1  0.66823230  0.83866082  0.16720430  1
  Ag  Ag45  1  0.01396013  0.00109606  0.33420154  1
  Ag  Ag46  1  0.49757857  0.82887304  0.00129761  1
  Ag  Ag47  1  0.50349815  0.66171936  0.50497493  1
  Ag  Ag48  1  0.65786468  0.00212800  0.33227133  1
  Ag  Ag49  1  0.16900028  0.84314486  0.00497902  1
  Ag  Ag50  1  0.17248625  0.15783218  0.66672564  1
  Ag  Ag51  1  0.17226526  0.15628406  0.33155719  1
  Ag  Ag52  1  0.33423879  0.16337391  0.16152654  1
  Ag  Ag53  1  0.82578432  0.50705810  0.00516917  1
  Sb  Sb54  1  0.50216842  0.83080413  0.66714894  1
  Sb  Sb55  1  -0.00556558  0.83440279  0.16579665  1
  Sb  Sb56  1  0.00925874  0.16857584  0.83434220  1
  Sb  Sb57  1  0.17375487  0.66924029  0.83472630  1
  Sb  Sb58  1  0.82712360  0.34269878  0.49322922  1
  Sb  Sb59  1  0.82913736  0.66477487  0.83708997  1
  Sb  Sb60  1  -0.00071204  0.83133613  0.49902319  1
  Sb  Sb61  1  0.33492640  0.67191717  0.33145826  1
  Sb  Sb62  1  0.66029946  0.00459972  0.66147918  1
  Sb  Sb63  1  0.33346807  0.16368198  0.50132064  1
  Sb  Sb64  1  0.50323070  0.49933616  0.33606925  1
  Sb  Sb65  1  0.66886431  0.49824371  0.16426045  1
  Sb  Sb66  1  0.66786247  0.66595083  0.32847537  1
  Sb  Sb67  1  0.16879500  0.66874555  0.50024182  1
  Sb  Sb68  1  0.00265083  0.16457928  0.16761091  1
  Sb  Sb69  1  0.33590410  0.49965650  0.50257481  1
  Sb  Sb70  1  0.49257837  0.16505224  0.00338118  1
  Sb  Sb71  1  0.16606646  0.83979234  0.66715465  1
  Sb  Sb72  1  0.33485925  0.83664935  0.49835828  1
  Sb  Sb73  1  0.83619219  0.16631063  0.00356542  1
  Sb  Sb74  1  0.16712716  0.50171303  -0.00234781  1
  Sb  Sb75  1  0.66194447  -0.00057598  0.00456759  1
  Sb  Sb76  1  0.50507709  0.33158778  0.16481935  1
  Sb  Sb77  1  0.83298901  0.16676360  0.33110730  1
  Sb  Sb78  1  0.33683866  0.83892670  0.16395206  1
  Sb  Sb79  1  0.00239387  0.16782399  0.49749147  1
  Sb  Sb80  1  0.83014759  0.50373069  0.66518423  1
  Sb  Sb81  1  0.17358488  0.33055587  0.83275811  1
  Sb  Sb82  1  0.49329675  0.17249336  0.66299939  1
  Sb  Sb83  1  0.00202406  0.33307160  0.66213412  1
  Sb  Sb84  1  0.17185613  0.33075720  0.49925635  1
  Sb  Sb85  1  -0.00210324  0.49972803  0.16876675  1
  Sb  Sb86  1  -0.00256184  0.66707936  0.33053982  1
  Sb  Sb87  1  0.16440939  0.32715000  0.16827266  1
  Sb  Sb88  1  0.16334647  0.67312416  0.16458514  1
  Sb  Sb89  1  0.00309277  0.66850412  0.67024091  1
  Sb  Sb90  1  0.33463873  0.84181814  0.83726533  1
  Sb  Sb91  1  0.66207140  0.17318997  0.49377985  1
  Sb  Sb92  1  0.66448373  0.82905491  0.83991524  1
  Sb  Sb93  1  0.33574778  0.32611468  0.33374490  1
  Sb  Sb94  1  0.33306789  0.49396971  0.16414465  1
  Sb  Sb95  1  0.65529439  0.17202150  0.83882369  1
  Sb  Sb96  1  0.83307575  -0.00756818  0.49659191  1
  Sb  Sb97  1  0.49434044  0.00049493  0.16894532  1
  Sb  Sb98  1  0.82534631  0.33708221  0.83828172  1
  Sb  Sb99  1  0.83402691  -0.00265958  0.83467882  1
  Sb  Sb100  1  0.33729829  0.49572942  0.83233457  1
  Sb  Sb101  1  0.50528469  0.66920932  0.16128195  1
  Sb  Sb102  1  0.83728161  0.16325048  0.66724258  1
  Sb  Sb103  1  0.83560412  -0.00289476  0.16874566  1
  Sb  Sb104  1  0.00057359  0.83127167  0.83677986  1
  Sb  Sb105  1  0.66203417  0.66180485  0.66993555  1
  Sb  Sb106  1  -0.00059716  0.33487986  0.00343510  1
  Sb  Sb107  1  0.66546228  0.82793182  0.49451070  1
  Te  Te108  1  0.16885455  0.16344139  0.16823358  1
  Te  Te109  1  0.16644810  0.16189658  0.49861903  1
  Te  Te110  1  0.17220390  0.16333876  0.83194096  1
  Te  Te111  1  0.16537756  0.50018139  0.17305532  1
  Te  Te112  1  0.16405929  0.50068364  0.50154417  1
  Te  Te113  1  0.16183454  0.50055691  0.82801499  1
  Te  Te114  1  0.16738806  0.83787931  0.16689245  1
  Te  Te115  1  0.16586933  0.83819209  0.49413910  1
  Te  Te116  1  0.16564479  0.84016467  0.83936146  1
  Te  Te117  1  0.49983366  0.16659577  0.17404799  1
  Te  Te118  1  0.50032210  0.16117699  0.49345150  1
  Te  Te119  1  0.49309092  0.16125973  0.83252762  1
  Te  Te120  1  0.49972318  0.50070872  0.16089720  1
  Te  Te121  1  0.50315143  0.50098581  0.50159759  1
  Te  Te122  1  0.50107632  0.49939207  0.83298546  1
  Te  Te123  1  0.50671255  0.83386178  0.16746262  1
  Te  Te124  1  0.50127962  0.83555439  0.49632008  1
  Te  Te125  1  0.50122464  0.83566268  0.83712682  1
  Te  Te126  1  0.82619108  0.17170768  0.16650069  1
  Te  Te127  1  0.83249170  0.16756227  0.50081513  1
  Te  Te128  1  0.83270637  0.16749816  0.83426535  1
  Te  Te129  1  0.83340341  0.50249239  0.16757576  1
  Te  Te130  1  0.83179911  0.50551343  0.49797597  1
  Te  Te131  1  0.83141108  0.49980676  0.83736435  1
  Te  Te132  1  0.82889688  0.83089251  0.16697859  1
  Te  Te133  1  0.83246303  0.82508034  0.49524712  1
  Te  Te134  1  0.83237256  0.83258347  0.83580316  1
  Te  Te135  1  0.16848329  0.00000458  0.00492315  1
  Te  Te136  1  0.16930969  0.00053420  0.32956944  1
  Te  Te137  1  0.16953921  -0.00175240  0.66421809  1
  Te  Te138  1  0.17033936  0.33144649  0.00086533  1
  Te  Te139  1  0.16514823  0.33860684  0.33410467  1
  Te  Te140  1  0.17076976  0.33541004  0.66556907  1
  Te  Te141  1  0.16798928  0.66970640  0.00002796  1
  Te  Te142  1  0.16684435  0.66219124  0.33292739  1
  Te  Te143  1  0.17268018  0.66560948  0.66657792  1
  Te  Te144  1  0.49571788  -0.00368551  -0.00231559  1
  Te  Te145  1  0.50076010  -0.00131459  0.33321614  1
  Te  Te146  1  0.49545541  -0.00034187  0.66674725  1
  Te  Te147  1  0.49977657  0.33096023  -0.00152467  1
  Te  Te148  1  0.50388328  0.33322332  0.33645568  1
  Te  Te149  1  0.49915069  0.33408940  0.66670888  1
  Te  Te150  1  0.50171780  0.66755006  -0.00074797  1
  Te  Te151  1  0.49963910  0.66960086  0.33788524  1
  Te  Te152  1  0.49703511  0.66512445  0.66625185  1
  Te  Te153  1  0.83431035  -0.00474082  0.00043793  1
  Te  Te154  1  0.82989385  -0.00501473  0.33355336  1
  Te  Te155  1  0.83231609  -0.00546202  0.66568627  1
  Te  Te156  1  0.83164262  0.33540380  0.00560255  1
  Te  Te157  1  0.83216995  0.33375816  0.33045674  1
  Te  Te158  1  0.83065440  0.33287953  0.66646630  1
  Te  Te159  1  0.83183312  0.66653977  -0.00116021  1
  Te  Te160  1  0.83335378  0.66691735  0.33218512  1
  Te  Te161  1  0.83383063  0.67204825  0.66526095  1
  Te  Te162  1  0.00678655  0.16217639  -0.00020567  1
  Te  Te163  1  0.00482073  0.16509660  0.33314230  1
  Te  Te164  1  0.00640755  0.16116869  0.66631065  1
  Te  Te165  1  -0.00119504  0.50122860  -0.00380481  1
  Te  Te166  1  -0.00361683  0.50065799  0.33583533  1
  Te  Te167  1  0.00055284  0.49997362  0.66598509  1
  Te  Te168  1  -0.00049512  0.83359046  -0.00006451  1
  Te  Te169  1  0.00119511  0.83667694  0.33270711  1
  Te  Te170  1  -0.00467165  0.83829180  0.66758448  1
  Te  Te171  1  0.33207050  0.16568215  0.00122492  1
  Te  Te172  1  0.33299772  0.16407443  0.33052768  1
  Te  Te173  1  0.33013693  0.16442932  0.66854046  1
  Te  Te174  1  0.33561193  0.50125266  -0.00019046  1
  Te  Te175  1  0.32951096  0.49940647  0.33309027  1
  Te  Te176  1  0.33477666  0.49954364  0.66682166  1
  Te  Te177  1  0.33545441  0.83249441  0.00110039  1
  Te  Te178  1  0.33318211  0.83839150  0.33087465  1
  Te  Te179  1  0.33389167  0.83226655  0.66678560  1
  Te  Te180  1  0.66713928  0.16997100  0.00662876  1
  Te  Te181  1  0.66662519  0.16826206  0.32951779  1
  Te  Te182  1  0.66815838  0.17473797  0.66853269  1
  Te  Te183  1  0.66671098  0.49900479  0.00053187  1
  Te  Te184  1  0.67024220  0.49671462  0.33599551  1
  Te  Te185  1  0.66414633  0.49656916  0.66698116  1
  Te  Te186  1  0.66710472  0.83460589  0.00452756  1
  Te  Te187  1  0.66673672  0.83273380  0.32964323  1
  Te  Te188  1  0.67257982  0.83483987  0.66717883  1
  Te  Te189  1  0.00447976  0.00051859  0.16801631  1
  Te  Te190  1  0.00142224  -0.00012062  0.49904705  1
  Te  Te191  1  0.00206749  0.00100042  0.83320751  1
  Te  Te192  1  -0.00702159  0.33184109  0.17336801  1
  Te  Te193  1  -0.00040431  0.33965392  0.49402971  1
  Te  Te194  1  -0.00111615  0.33853513  0.83265964  1
  Te  Te195  1  -0.00628105  0.66643520  0.15814638  1
  Te  Te196  1  -0.00171872  0.66031586  0.50167503  1
  Te  Te197  1  0.00225602  0.66046106  0.83801418  1
  Te  Te198  1  0.32928901  0.00357223  0.16571226  1
  Te  Te199  1  0.33361831  -0.00048951  0.49725478  1
  Te  Te200  1  0.33322304  0.00319923  0.83379050  1
  Te  Te201  1  0.33325204  0.32582237  0.16157708  1
  Te  Te202  1  0.34163845  0.33271946  0.50543394  1
  Te  Te203  1  0.33823604  0.32872270  0.83347416  1
  Te  Te204  1  0.33241977  0.66547463  0.15982040  1
  Te  Te205  1  0.33895097  0.66742083  0.50305264  1
  Te  Te206  1  0.33917187  0.66651013  0.83429619  1
  Te  Te207  1  0.66834435  0.00127540  0.17162301  1
  Te  Te208  1  0.66353469  0.00063157  0.49411792  1
  Te  Te209  1  0.66133299  0.00244847  0.83195526  1
  Te  Te210  1  0.66903704  0.33161579  0.16764499  1
  Te  Te211  1  0.66217439  0.33826847  0.49960786  1
  Te  Te212  1  0.65962662  0.33722994  0.83700525  1
  Te  Te213  1  0.67138198  0.67158577  0.16060228  1
  Te  Te214  1  0.66534436  0.66150378  0.50138173  1
  Te  Te215  1  0.65980426  0.66176679  0.83827924  1
