# generated using pymatgen
data_AgSbTe2
_symmetry_space_group_name_H-M   'P 1'
_cell_length_a   18.34915422
_cell_length_b   18.34452670
_cell_length_c   18.34188933
_cell_angle_alpha   90.00401058
_cell_angle_beta   89.99680986
_cell_angle_gamma   90.00269950
_symmetry_Int_Tables_number   1
_chemical_formula_structural   AgSbTe2
_chemical_formula_sum   'Ag54 Sb54 Te108'
_cell_volume   6174.00004588
_cell_formula_units_Z   54
loop_
 _symmetry_equiv_pos_site_id
 _symmetry_equiv_pos_as_xyz
  1  'x, y, z'
loop_
 _atom_site_type_symbol
 _atom_site_label
 _atom_site_symmetry_multiplicity
 _atom_site_fract_x
 _atom_site_fract_y
 _atom_site_fract_z
 _atom_site_occupancy
  Ag  Ag0  1  0.67118080  0.32885038  0.66240691  1
  Ag  Ag1  1  0.83057076  0.33288179  0.16547002  1
  Ag  Ag2  1  0.67616197  0.00856481  0.66327969  1
  Ag  Ag3  1  0.83157737  0.33739131  0.83024203  1
  Ag  Ag4  1  0.67209446  0.49708180  0.83455114  1
  Ag  Ag5  1  0.34300773  0.33299603  0.33016661  1
  Ag  Ag6  1  0.15203067  0.83961744  0.33558725  1
  Ag  Ag7  1  0.51342441  -0.00574609  0.17000518  1
  Ag  Ag8  1  0.83130948  -0.00087445  0.17017909  1
  Ag  Ag9  1  -0.00291360  0.84118638  0.49643649  1
  Ag  Ag10  1  0.82954285  0.66814385  0.16382960  1
  Ag  Ag11  1  0.50131186  0.49880506  0.33164696  1
  Ag  Ag12  1  -0.01121000  -0.00020838  0.67337325  1
  Ag  Ag13  1  0.83925658  0.49826332  -0.00419179  1
  Ag  Ag14  1  0.83513644  0.00297718  0.50708955  1
  Ag  Ag15  1  -0.00230092  0.00075271  -0.01311268  1
  Ag  Ag16  1  -0.00158419  0.84466179  0.83101296  1
  Ag  Ag17  1  0.67119521  0.00287029  0.32901081  1
  Ag  Ag18  1  0.16343615  0.16958414  -0.00530729  1
  Ag  Ag19  1  0.16276040  0.50131997  0.33072826  1
  Ag  Ag20  1  -0.00332198  0.50152629  0.50248845  1
  Ag  Ag21  1  0.50843865  0.66881911  0.16301244  1
  Ag  Ag22  1  0.84180117  0.00498225  0.81933623  1
  Ag  Ag23  1  0.51192389  0.33522214  0.50046384  1
  Ag  Ag24  1  0.15242330  0.00463796  0.83010307  1
  Ag  Ag25  1  0.50850704  0.34044850  0.83161204  1
  Ag  Ag26  1  0.50455476  0.50336979  -0.00460093  1
  Ag  Ag27  1  0.32147480  0.16439460  0.83446110  1
  Ag  Ag28  1  0.50056047  0.65697819  0.84529146  1
  Ag  Ag29  1  -0.00324924  0.65826308  -0.00010612  1
  Ag  Ag30  1  -0.00191911  0.33893756  -0.00466492  1
  Ag  Ag31  1  0.50352433  0.83354907  0.33060039  1
  Ag  Ag32  1  0.33255061  -0.00120732  0.33275868  1
  Ag  Ag33  1  -0.00153409  0.67475262  0.32942841  1
  Ag  Ag34  1  0.51028260  0.49673365  0.68113703  1
  Ag  Ag35  1  0.15875904  0.49670441  -0.00249821  1
  Ag  Ag36  1  0.83450893  0.16070001  0.66835595  1
  Ag  Ag37  1  -0.01037116  -0.00735216  0.33842425  1
  Ag  Ag38  1  0.34372303  0.65655075  -0.00103959  1
  Ag  Ag39  1  0.83564446  0.83926438  0.33421422  1
  Ag  Ag40  1  0.66871407  0.84003226  0.16901261  1
  Ag  Ag41  1  0.82997238  0.32901162  0.50936430  1
  Ag  Ag42  1  0.83094945  0.49632835  0.67668365  1
  Ag  Ag43  1  0.15123535  0.00107188  0.50145022  1
  Ag  Ag44  1  0.66646866  0.32969703  0.33886221  1
  Ag  Ag45  1  0.00195786  0.15743739  0.83399401  1
  Ag  Ag46  1  -0.00899432  0.49883107  0.83677713  1
  Ag  Ag47  1  0.67035453  0.16983281  0.49675984  1
  Ag  Ag48  1  0.66591663  0.66293134  0.00194767  1
  Ag  Ag49  1  0.32941799  0.33808575  -0.00054201  1
  Ag  Ag50  1  0.66926900  0.16083642  0.17151612  1
  Ag  Ag51  1  0.83553445  0.84607169  0.66364853  1
  Ag  Ag52  1  0.32770294  0.84001020  0.83442280  1
  Ag  Ag53  1  0.15521635  0.16315084  0.67612058  1
  Sb  Sb54  1  0.16359987  0.83365818  0.00198434  1
  Sb  Sb55  1  0.67247609  0.17125590  0.83315815  1
  Sb  Sb56  1  0.66988424  0.66285226  0.67333908  1
  Sb  Sb57  1  0.50705933  0.00417157  0.49375941  1
  Sb  Sb58  1  0.34106155  0.33211179  0.67089333  1
  Sb  Sb59  1  0.33553340  0.49944810  0.16478734  1
  Sb  Sb60  1  -0.01059212  0.32736878  0.67336648  1
  Sb  Sb61  1  0.16108835  -0.00049615  0.16742902  1
  Sb  Sb62  1  0.50678603  0.17093181  0.66817390  1
  Sb  Sb63  1  0.16129652  0.33278140  0.16437446  1
  Sb  Sb64  1  -0.00765640  0.83337616  0.16900464  1
  Sb  Sb65  1  0.16104653  0.49175792  0.66984737  1
  Sb  Sb66  1  0.66725330  0.49975102  0.16271220  1
  Sb  Sb67  1  0.16254867  0.67124981  0.49717978  1
  Sb  Sb68  1  0.50802032  0.82966178  0.66277400  1
  Sb  Sb69  1  -0.00214035  0.67033486  0.67017892  1
  Sb  Sb70  1  0.33699834  0.66663364  0.67751466  1
  Sb  Sb71  1  0.49709154  0.17400705  -0.00170997  1
  Sb  Sb72  1  0.83745919  0.17018267  -0.00504073  1
  Sb  Sb73  1  0.32923279  0.83687550  0.50071425  1
  Sb  Sb74  1  0.83202740  0.66391716  0.84043492  1
  Sb  Sb75  1  0.50121972  0.65842255  0.49521454  1
  Sb  Sb76  1  0.16413081  0.66731830  0.16437851  1
  Sb  Sb77  1  0.50400087  0.00063319  0.83737893  1
  Sb  Sb78  1  -0.00782409  0.16389901  0.15934574  1
  Sb  Sb79  1  0.67426930  0.84230482  0.49300841  1
  Sb  Sb80  1  0.16676880  0.16324495  0.33295330  1
  Sb  Sb81  1  0.50585532  0.33561877  0.16624764  1
  Sb  Sb82  1  0.33915767  0.83425366  0.16451498  1
  Sb  Sb83  1  0.83232287  0.15940942  0.33810345  1
  Sb  Sb84  1  0.15869143  0.84073855  0.66480505  1
  Sb  Sb85  1  0.33236435  0.00140676  0.66544016  1
  Sb  Sb86  1  0.66969106  0.33813227  -0.00075099  1
  Sb  Sb87  1  0.67126872  0.83054326  0.83587059  1
  Sb  Sb88  1  0.83608182  0.83023487  0.00133427  1
  Sb  Sb89  1  0.16778743  0.67055677  0.83677145  1
  Sb  Sb90  1  0.83284128  0.50139083  0.33125107  1
  Sb  Sb91  1  0.16155316  0.32850443  0.49824474  1
  Sb  Sb92  1  0.50314396  0.16750837  0.33256264  1
  Sb  Sb93  1  0.32948292  0.49741615  0.49750756  1
  Sb  Sb94  1  0.33711095  0.16741347  0.50326849  1
  Sb  Sb95  1  0.16256220  0.32680555  0.83546148  1
  Sb  Sb96  1  -0.00297157  0.50101107  0.16333852  1
  Sb  Sb97  1  0.33803638  0.16638747  0.16377238  1
  Sb  Sb98  1  0.67446357  -0.00279791  0.00297822  1
  Sb  Sb99  1  0.33479075  0.49539283  0.83751431  1
  Sb  Sb100  1  0.83469500  0.66841009  0.49599209  1
  Sb  Sb101  1  0.49987961  0.82696924  0.00342064  1
  Sb  Sb102  1  -0.00628481  0.16193725  0.50601842  1
  Sb  Sb103  1  0.67232981  0.49296939  0.50496234  1
  Sb  Sb104  1  0.67029742  0.66805131  0.32668346  1
  Sb  Sb105  1  -0.00558616  0.33353792  0.33104826  1
  Sb  Sb106  1  0.32949322  0.00166664  0.00242287  1
  Sb  Sb107  1  0.33128971  0.66712983  0.32597600  1
  Te  Te108  1  0.16728507  0.16566402  0.15844559  1
  Te  Te109  1  0.16813068  0.16040998  0.50195954  1
  Te  Te110  1  0.16342195  0.16431619  0.83442786  1
  Te  Te111  1  0.16688863  0.50001259  0.16933487  1
  Te  Te112  1  0.15925249  0.49843664  0.50002325  1
  Te  Te113  1  0.16360523  0.50044922  0.83622395  1
  Te  Te114  1  0.16886237  0.83370695  0.17639498  1
  Te  Te115  1  0.16189867  0.84022307  0.49600091  1
  Te  Te116  1  0.16371766  0.83903725  0.83271379  1
  Te  Te117  1  0.50631356  0.16100492  0.16508313  1
  Te  Te118  1  0.50657798  0.17493508  0.50146645  1
  Te  Te119  1  0.49831056  0.17108412  0.83339803  1
  Te  Te120  1  0.50124836  0.50375359  0.16834374  1
  Te  Te121  1  0.49785843  0.49402456  0.49276216  1
  Te  Te122  1  0.49608604  0.49884657  0.83635416  1
  Te  Te123  1  0.50461439  0.83269082  0.16920058  1
  Te  Te124  1  0.49942099  0.83118544  0.49408478  1
  Te  Te125  1  0.50063218  0.83150360  0.83080975  1
  Te  Te126  1  0.82849309  0.16801607  0.16426654  1
  Te  Te127  1  0.83037253  0.16788178  0.50440492  1
  Te  Te128  1  0.83662783  0.16732090  0.82991608  1
  Te  Te129  1  0.83195404  0.49951643  0.16216472  1
  Te  Te130  1  0.83757020  0.49828357  0.49900713  1
  Te  Te131  1  0.83159448  0.50156150  0.83604877  1
  Te  Te132  1  0.82958456  0.83240892  0.16847169  1
  Te  Te133  1  0.83791012  0.83494451  0.49893892  1
  Te  Te134  1  0.83708292  0.83474915  0.83088261  1
  Te  Te135  1  0.16167874  0.00143395  -0.00233335  1
  Te  Te136  1  0.16906057  -0.00135614  0.33425211  1
  Te  Te137  1  0.16723805  0.00400367  0.66709368  1
  Te  Te138  1  0.16673207  0.33550761  0.00085060  1
  Te  Te139  1  0.16704925  0.33691892  0.33220776  1
  Te  Te140  1  0.16914907  0.32472957  0.66486557  1
  Te  Te141  1  0.15920020  0.66245837  0.00126947  1
  Te  Te142  1  0.16269635  0.66314984  0.33164367  1
  Te  Te143  1  0.16805871  0.66506893  0.66624136  1
  Te  Te144  1  0.49994891  0.00007201  0.00679331  1
  Te  Te145  1  0.50452228  -0.00159266  0.33051139  1
  Te  Te146  1  0.50611330  -0.00138081  0.66556761  1
  Te  Te147  1  0.49765062  0.33986915  -0.00169141  1
  Te  Te148  1  0.50199119  0.33519041  0.33214889  1
  Te  Te149  1  0.50557429  0.33725987  0.66797169  1
  Te  Te150  1  0.50072148  0.66421697  0.00215484  1
  Te  Te151  1  0.49926254  0.66558828  0.32809134  1
  Te  Te152  1  0.50185020  0.65874911  0.66760255  1
  Te  Te153  1  0.83910682  0.00019453  0.00713829  1
  Te  Te154  1  0.83028157  -0.00105345  0.33138562  1
  Te  Te155  1  0.83212048  0.00125183  0.66385687  1
  Te  Te156  1  0.83476512  0.33628245  -0.00352244  1
  Te  Te157  1  0.82902680  0.33342411  0.32983511  1
  Te  Te158  1  0.83080375  0.33714066  0.66823205  1
  Te  Te159  1  0.83626837  0.66357662  0.00394387  1
  Te  Te160  1  0.83762710  0.67036872  0.32825551  1
  Te  Te161  1  0.83387486  0.65643406  0.66571776  1
  Te  Te162  1  0.00264091  0.16524022  -0.00507149  1
  Te  Te163  1  0.00195589  0.16343824  0.33160664  1
  Te  Te164  1  -0.00320020  0.16224173  0.67127012  1
  Te  Te165  1  -0.00022326  0.49908617  0.00036767  1
  Te  Te166  1  0.00144641  0.49975395  0.33544497  1
  Te  Te167  1  -0.00195498  0.50093484  0.66704927  1
  Te  Te168  1  0.00152661  0.83747539  -0.00444290  1
  Te  Te169  1  -0.00340737  0.83288322  0.33287673  1
  Te  Te170  1  -0.00465319  0.83661869  0.66686053  1
  Te  Te171  1  0.32874216  0.17021158  -0.00364309  1
  Te  Te172  1  0.33350263  0.16890941  0.33339603  1
  Te  Te173  1  0.33227514  0.16645903  0.67278505  1
  Te  Te174  1  0.33020574  0.49841372  -0.00001048  1
  Te  Te175  1  0.33312867  0.49725955  0.33236476  1
  Te  Te176  1  0.33577430  0.49952317  0.66597330  1
  Te  Te177  1  0.33149102  0.83234269  -0.00594171  1
  Te  Te178  1  0.34048421  0.83516918  0.33310509  1
  Te  Te179  1  0.33489092  0.83355613  0.67308924  1
  Te  Te180  1  0.66541622  0.16649010  0.00529183  1
  Te  Te181  1  0.66762939  0.16715277  0.33366794  1
  Te  Te182  1  0.67178406  0.16815385  0.66686987  1
  Te  Te183  1  0.66428700  0.50262083  -0.00356267  1
  Te  Te184  1  0.66392331  0.49785263  0.33496468  1
  Te  Te185  1  0.66756496  0.49666554  0.67045350  1
  Te  Te186  1  0.66758460  0.82593599  0.00513641  1
  Te  Te187  1  0.66668155  0.83472811  0.32903526  1
  Te  Te188  1  0.67427454  0.83448976  0.66550605  1
  Te  Te189  1  -0.00591087  -0.00053210  0.17710930  1
  Te  Te190  1  -0.00447341  0.00120048  0.49760848  1
  Te  Te191  1  -0.00318331  0.00041435  0.83158328  1
  Te  Te192  1  -0.00839369  0.33140087  0.16021623  1
  Te  Te193  1  -0.00648641  0.33492976  0.49972051  1
  Te  Te194  1  -0.00310580  0.33976000  0.83566375  1
  Te  Te195  1  -0.00442059  0.66748979  0.16526181  1
  Te  Te196  1  0.00002216  0.66697317  0.49591240  1
  Te  Te197  1  0.00029135  0.65995600  0.83748378  1
  Te  Te198  1  0.33316135  0.00048025  0.17267550  1
  Te  Te199  1  0.33669944  0.00120449  0.49329883  1
  Te  Te200  1  0.33597162  0.00114976  0.83392759  1
  Te  Te201  1  0.33436102  0.33145730  0.16784971  1
  Te  Te202  1  0.33387532  0.33161539  0.49420675  1
  Te  Te203  1  0.33367090  0.32868579  0.83709045  1
  Te  Te204  1  0.33861802  0.66821094  0.15782120  1
  Te  Te205  1  0.33201917  0.66765865  0.50036200  1
  Te  Te206  1  0.33662110  0.67107963  0.84066355  1
  Te  Te207  1  0.67035481  -0.00015940  0.16622684  1
  Te  Te208  1  0.67102819  0.00635040  0.49892243  1
  Te  Te209  1  0.67248959  0.00006513  0.83116450  1
  Te  Te210  1  0.67056057  0.33053770  0.16973886  1
  Te  Te211  1  0.66984889  0.33223010  0.50029550  1
  Te  Te212  1  0.66786491  0.33611969  0.83285097  1
  Te  Te213  1  0.66827566  0.66648416  0.16328827  1
  Te  Te214  1  0.66610397  0.66794805  0.50066873  1
  Te  Te215  1  0.66170376  0.66223400  0.83961895  1
