# generated using pymatgen
data_AgSbTe2
_symmetry_space_group_name_H-M   'P 1'
_cell_length_a   18.33823499
_cell_length_b   18.33366160
_cell_length_c   18.33672460
_cell_angle_alpha   89.99570424
_cell_angle_beta   90.00087169
_cell_angle_gamma   90.00156046
_symmetry_Int_Tables_number   1
_chemical_formula_structural   AgSbTe2
_chemical_formula_sum   'Ag54 Sb54 Te108'
_cell_volume   6164.93505013
_cell_formula_units_Z   54
loop_
 _symmetry_equiv_pos_site_id
 _symmetry_equiv_pos_as_xyz
  1  'x, y, z'
loop_
 _atom_site_type_symbol
 _atom_site_label
 _atom_site_symmetry_multiplicity
 _atom_site_fract_x
 _atom_site_fract_y
 _atom_site_fract_z
 _atom_site_occupancy
  Ag  Ag0  1  0.49600385  0.16806334  -0.00987041  1
  Ag  Ag1  1  0.16447588  0.83317925  0.00209192  1
  Ag  Ag2  1  0.33846572  0.32503158  0.66343632  1
  Ag  Ag3  1  0.66896138  0.66965632  0.65827650  1
  Ag  Ag4  1  0.83816594  0.33078944  0.49976439  1
  Ag  Ag5  1  0.49419140  0.49114862  -0.00204291  1
  Ag  Ag6  1  0.15675877  0.66181436  0.16116540  1
  Ag  Ag7  1  0.33026003  0.00571316  -0.00449954  1
  Ag  Ag8  1  0.17178695  0.00139648  0.83841972  1
  Ag  Ag9  1  0.34007749  0.16958369  0.15954987  1
  Ag  Ag10  1  0.82976683  0.33378808  0.82646588  1
  Ag  Ag11  1  0.66075964  0.00528723  -0.01009205  1
  Ag  Ag12  1  0.66746235  0.33288621  0.33528421  1
  Ag  Ag13  1  0.83885955  0.66097914  0.82933734  1
  Ag  Ag14  1  0.32760659  0.83192055  0.16464148  1
  Ag  Ag15  1  0.16554449  0.50309431  0.00654345  1
  Ag  Ag16  1  0.15870079  0.33011579  0.49666568  1
  Ag  Ag17  1  0.32729480  0.49764095  0.16556315  1
  Ag  Ag18  1  0.50162699  0.32276470  0.83521149  1
  Ag  Ag19  1  0.49372462  0.01098052  0.82904448  1
  Ag  Ag20  1  -0.00262478  0.49419866  0.48908226  1
  Ag  Ag21  1  0.49731147  0.32944433  0.16510105  1
  Ag  Ag22  1  0.65571469  0.16512430  0.82770234  1
  Ag  Ag23  1  0.15954177  0.66605197  0.84331316  1
  Ag  Ag24  1  0.00732140  0.50720732  0.17596010  1
  Ag  Ag25  1  0.00361420  0.66552574  0.00891290  1
  Ag  Ag26  1  0.51291977  0.66609627  0.50062591  1
  Ag  Ag27  1  0.84348885  0.50713123  0.33552048  1
  Ag  Ag28  1  0.50340877  0.16672340  0.67623251  1
  Ag  Ag29  1  0.84649620  0.66625889  0.18219826  1
  Ag  Ag30  1  0.50247934  0.16965188  0.33246154  1
  Ag  Ag31  1  0.83228706  0.01069486  0.50287961  1
  Ag  Ag32  1  -0.00199916  0.34182366  0.33717159  1
  Ag  Ag33  1  0.67769840  0.65979894  0.33892873  1
  Ag  Ag34  1  0.65809366  0.16769184  0.16738938  1
  Ag  Ag35  1  0.00347164  0.81889515  0.16506125  1
  Ag  Ag36  1  0.33605739  0.33236348  0.33348746  1
  Ag  Ag37  1  0.17655784  0.15885478  -0.00061807  1
  Ag  Ag38  1  0.01121550  -0.00208721  -0.00055885  1
  Ag  Ag39  1  0.82355353  0.16423002  0.66200700  1
  Ag  Ag40  1  -0.01391517  0.65094959  0.31858008  1
  Ag  Ag41  1  0.34338084  0.16490545  0.83779465  1
  Ag  Ag42  1  0.49949616  0.48585126  0.66912365  1
  Ag  Ag43  1  0.34311999  0.00641496  0.67373104  1
  Ag  Ag44  1  0.50350829  0.00939798  0.50820953  1
  Ag  Ag45  1  0.66784477  0.16469281  0.50645172  1
  Ag  Ag46  1  0.00051438  0.50207424  0.83636727  1
  Ag  Ag47  1  0.83470034  0.82078506  0.33907665  1
  Ag  Ag48  1  0.16477542  0.00672532  0.50508712  1
  Ag  Ag49  1  0.83130483  0.66444378  0.49400548  1
  Ag  Ag50  1  0.15508505  0.49873531  0.32517200  1
  Ag  Ag51  1  0.66249685  0.00815079  0.66795692  1
  Ag  Ag52  1  -0.00709351  0.17180955  0.49938261  1
  Ag  Ag53  1  0.83148860  0.83431858  0.66083434  1
  Sb  Sb54  1  0.83927898  0.83304314  0.00058071  1
  Sb  Sb55  1  0.17263160  0.33943024  0.17142611  1
  Sb  Sb56  1  0.17081405  0.16552003  0.66849107  1
  Sb  Sb57  1  0.17054859  0.17263469  0.33147931  1
  Sb  Sb58  1  0.16222074  0.82815312  0.32692349  1
  Sb  Sb59  1  0.67046553  0.49778053  0.50014196  1
  Sb  Sb60  1  0.50213395  0.66299407  0.82940485  1
  Sb  Sb61  1  0.17036086  0.49923667  0.66744912  1
  Sb  Sb62  1  0.66395541  0.32866755  0.66272219  1
  Sb  Sb63  1  0.00004737  0.00093612  0.33195540  1
  Sb  Sb64  1  0.50048147  0.65962121  0.16989526  1
  Sb  Sb65  1  0.00133208  0.17097109  0.16980511  1
  Sb  Sb66  1  0.67213072  0.66983453  0.00002993  1
  Sb  Sb67  1  0.50241756  0.33067769  0.50034632  1
  Sb  Sb68  1  0.33162530  0.49352794  0.83910084  1
  Sb  Sb69  1  -0.00083649  0.82847447  0.83991092  1
  Sb  Sb70  1  0.16228038  0.83566360  0.67211072  1
  Sb  Sb71  1  -0.00001442  0.16966007  0.83041878  1
  Sb  Sb72  1  0.66703685  0.49621631  0.16795263  1
  Sb  Sb73  1  0.83312527  0.00203822  0.82780016  1
  Sb  Sb74  1  0.15987061  0.66440622  0.49733049  1
  Sb  Sb75  1  0.00129004  0.33384975  0.65974591  1
  Sb  Sb76  1  0.33023998  0.49645276  0.49606280  1
  Sb  Sb77  1  0.33220084  0.83686829  0.49568743  1
  Sb  Sb78  1  0.83380798  -0.00313744  0.17132269  1
  Sb  Sb79  1  0.33193267  0.66056328  0.33126680  1
  Sb  Sb80  1  0.83003925  0.33752260  0.17247701  1
  Sb  Sb81  1  0.50453850  0.84088471  0.66590888  1
  Sb  Sb82  1  0.83042059  0.16563433  -0.00459848  1
  Sb  Sb83  1  0.82840609  0.17039960  0.34040969  1
  Sb  Sb84  1  0.83708447  0.50159035  0.00278500  1
  Sb  Sb85  1  0.33415528  0.00676726  0.33163357  1
  Sb  Sb86  1  0.33950612  0.66716693  0.66745360  1
  Sb  Sb87  1  -0.00718301  0.66551154  0.66563279  1
  Sb  Sb88  1  0.33107837  0.84242241  0.83788118  1
  Sb  Sb89  1  0.49342922  0.83921134  0.00209851  1
  Sb  Sb90  1  0.66849096  0.83681179  0.16766411  1
  Sb  Sb91  1  -0.00381932  0.83297886  0.49399173  1
  Sb  Sb92  1  0.66938654  0.49354050  0.83226867  1
  Sb  Sb93  1  0.33405371  0.32703931  0.00261061  1
  Sb  Sb94  1  0.50059378  0.49376487  0.33429160  1
  Sb  Sb95  1  0.82981137  0.49886401  0.66202041  1
  Sb  Sb96  1  0.33651843  0.16757042  0.50201459  1
  Sb  Sb97  1  0.32500438  0.66901355  0.00068283  1
  Sb  Sb98  1  0.50456389  0.83717942  0.33302232  1
  Sb  Sb99  1  0.16791179  -0.00294480  0.16275323  1
  Sb  Sb100  1  0.66858787  0.83958775  0.83243770  1
  Sb  Sb101  1  0.67026718  0.83725066  0.49984237  1
  Sb  Sb102  1  0.66312551  0.32708110  0.00218932  1
  Sb  Sb103  1  0.66698661  0.00509391  0.33793412  1
  Sb  Sb104  1  0.49925235  0.01012292  0.16259736  1
  Sb  Sb105  1  -0.00251568  0.00184944  0.66890233  1
  Sb  Sb106  1  0.00127480  0.33605657  0.00420309  1
  Sb  Sb107  1  0.16883266  0.33184881  0.83117948  1
  Te  Te108  1  0.16996605  0.16749487  0.16152268  1
  Te  Te109  1  0.16635621  0.16650518  0.50000165  1
  Te  Te110  1  0.16752404  0.16356834  0.83733026  1
  Te  Te111  1  0.16718550  0.50014513  0.16628808  1
  Te  Te112  1  0.16114168  0.49761595  0.49960766  1
  Te  Te113  1  0.16456509  0.50203366  0.83530956  1
  Te  Te114  1  0.16604247  0.83026426  0.16347516  1
  Te  Te115  1  0.16423274  0.83877494  0.50013141  1
  Te  Te116  1  0.16520594  0.83348133  0.83910355  1
  Te  Te117  1  0.49976825  0.16956582  0.16886664  1
  Te  Te118  1  0.50282850  0.16659507  0.49749329  1
  Te  Te119  1  0.49967114  0.16648139  0.83381495  1
  Te  Te120  1  0.49704747  0.49404393  0.16351622  1
  Te  Te121  1  0.49863433  0.50312729  0.50498764  1
  Te  Te122  1  0.49969948  0.49676118  0.83390457  1
  Te  Te123  1  0.49318728  0.83285356  0.16791781  1
  Te  Te124  1  0.49943982  0.82930335  0.49826714  1
  Te  Te125  1  0.49975236  0.83702806  0.83478800  1
  Te  Te126  1  0.83052583  0.16737517  0.16632392  1
  Te  Te127  1  0.83142587  0.16874111  0.50134383  1
  Te  Te128  1  0.83234415  0.17044177  0.82749185  1
  Te  Te129  1  0.83558813  0.50509625  0.17011880  1
  Te  Te130  1  0.83642412  0.49848079  0.49800846  1
  Te  Te131  1  0.83574165  0.49704989  0.83348310  1
  Te  Te132  1  0.83651290  0.82857452  0.16875888  1
  Te  Te133  1  0.83444461  0.82699412  0.50038237  1
  Te  Te134  1  0.83371684  0.82953876  0.82809309  1
  Te  Te135  1  0.16874453  0.00123786  0.00045833  1
  Te  Te136  1  0.16737177  -0.00053612  0.34186925  1
  Te  Te137  1  0.16788646  -0.00024004  0.66698988  1
  Te  Te138  1  0.16645940  0.33762346  -0.00072734  1
  Te  Te139  1  0.16630107  0.33724923  0.33673500  1
  Te  Te140  1  0.17486164  0.33302718  0.66047721  1
  Te  Te141  1  0.16415336  0.66457928  0.00099451  1
  Te  Te142  1  0.16419806  0.66101785  0.33073300  1
  Te  Te143  1  0.16909850  0.66821032  0.67008820  1
  Te  Te144  1  0.49955824  0.00380701  -0.00321162  1
  Te  Te145  1  0.50062273  0.00507218  0.34200611  1
  Te  Te146  1  0.50208639  0.00286457  0.66722745  1
  Te  Te147  1  0.49957727  0.33114106  -0.00155568  1
  Te  Te148  1  0.50118962  0.33107386  0.33330114  1
  Te  Te149  1  0.49849385  0.32909855  0.66696878  1
  Te  Te150  1  0.50137502  0.66495258  -0.00086576  1
  Te  Te151  1  0.50107000  0.66671891  0.33878909  1
  Te  Te152  1  0.50623684  0.67120820  0.66332174  1
  Te  Te153  1  0.83094458  -0.00088822  0.00031308  1
  Te  Te154  1  0.83321431  -0.00338347  0.34087975  1
  Te  Te155  1  0.83046702  0.00109973  0.66307712  1
  Te  Te156  1  0.83192446  0.33430948  -0.00710974  1
  Te  Te157  1  0.83238316  0.33572313  0.33573284  1
  Te  Te158  1  0.83310470  0.33108570  0.66550891  1
  Te  Te159  1  0.83873589  0.66736775  -0.00953991  1
  Te  Te160  1  0.83293419  0.66520484  0.33742685  1
  Te  Te161  1  0.82863307  0.66599166  0.66928720  1
  Te  Te162  1  0.00165519  0.16479297  -0.00007615  1
  Te  Te163  1  0.00149370  0.16915744  0.33819357  1
  Te  Te164  1  -0.00429201  0.16717616  0.66037707  1
  Te  Te165  1  0.00203780  0.50235470  -0.00191884  1
  Te  Te166  1  -0.00004448  0.49762850  0.33431061  1
  Te  Te167  1  0.00135280  0.49976981  0.67462009  1
  Te  Te168  1  0.00402172  0.83338277  0.00528026  1
  Te  Te169  1  -0.00450350  0.83296046  0.32638199  1
  Te  Te170  1  -0.00768979  0.83378335  0.66640451  1
  Te  Te171  1  0.33490272  0.16581276  -0.00093912  1
  Te  Te172  1  0.33779405  0.17253057  0.32918380  1
  Te  Te173  1  0.33659281  0.16535385  0.66776800  1
  Te  Te174  1  0.33305633  0.50106678  0.00416344  1
  Te  Te175  1  0.33253369  0.49295718  0.32824128  1
  Te  Te176  1  0.33961949  0.49822322  0.66771530  1
  Te  Te177  1  0.32681647  0.83924979  0.00466726  1
  Te  Te178  1  0.33223178  0.83392341  0.32571468  1
  Te  Te179  1  0.33133266  0.84115732  0.66514395  1
  Te  Te180  1  0.66401937  0.16308871  0.00081911  1
  Te  Te181  1  0.66356682  0.16951232  0.33209064  1
  Te  Te182  1  0.66453902  0.16712894  0.66633642  1
  Te  Te183  1  0.65821452  0.50058983  0.00021552  1
  Te  Te184  1  0.66772440  0.49897264  0.33353138  1
  Te  Te185  1  0.65938161  0.50591949  0.66715428  1
  Te  Te186  1  0.66556920  0.84252597  0.00100970  1
  Te  Te187  1  0.67220482  0.82654030  0.33182755  1
  Te  Te188  1  0.67224050  0.83183287  0.66635956  1
  Te  Te189  1  -0.00038928  0.00239285  0.16033643  1
  Te  Te190  1  -0.00183574  0.00338361  0.50025496  1
  Te  Te191  1  0.00393059  0.00066229  0.83884120  1
  Te  Te192  1  -0.00128720  0.33833332  0.17284158  1
  Te  Te193  1  -0.00095178  0.33317263  0.49856945  1
  Te  Te194  1  -0.00107532  0.33766918  0.83354583  1
  Te  Te195  1  0.00125419  0.66349507  0.16473975  1
  Te  Te196  1  -0.00367456  0.66279899  0.49797276  1
  Te  Te197  1  0.00069041  0.66390924  0.83138266  1
  Te  Te198  1  0.33397165  0.00410152  0.16405658  1
  Te  Te199  1  0.33427766  0.00012029  0.50178320  1
  Te  Te200  1  0.33258797  0.00344335  0.83376985  1
  Te  Te201  1  0.33685972  0.33200895  0.16900462  1
  Te  Te202  1  0.33003790  0.33338255  0.49890222  1
  Te  Te203  1  0.33636996  0.32819236  0.82739817  1
  Te  Te204  1  0.33224053  0.66420656  0.16699913  1
  Te  Te205  1  0.33379213  0.66714782  0.50036416  1
  Te  Te206  1  0.32956582  0.66782804  0.83232598  1
  Te  Te207  1  0.66692203  0.00579073  0.16619200  1
  Te  Te208  1  0.66715264  0.00347886  0.50386023  1
  Te  Te209  1  0.66744028  0.00503862  0.83020109  1
  Te  Te210  1  0.66255870  0.32882043  0.17196575  1
  Te  Te211  1  0.67124724  0.32925502  0.49594986  1
  Te  Te212  1  0.66572540  0.32715103  0.83272878  1
  Te  Te213  1  0.66975026  0.66741319  0.16947512  1
  Te  Te214  1  0.66990022  0.66535080  0.49853561  1
  Te  Te215  1  0.67098022  0.66683610  0.83268447  1
