# generated using pymatgen
data_AgSbTe2
_symmetry_space_group_name_H-M   'P 1'
_cell_length_a   18.32104759
_cell_length_b   18.32210346
_cell_length_c   18.32717271
_cell_angle_alpha   89.99932713
_cell_angle_beta   89.99942244
_cell_angle_gamma   89.99832496
_symmetry_Int_Tables_number   1
_chemical_formula_structural   AgSbTe2
_chemical_formula_sum   'Ag54 Sb54 Te108'
_cell_volume   6152.06770476
_cell_formula_units_Z   54
loop_
 _symmetry_equiv_pos_site_id
 _symmetry_equiv_pos_as_xyz
  1  'x, y, z'
loop_
 _atom_site_type_symbol
 _atom_site_label
 _atom_site_symmetry_multiplicity
 _atom_site_fract_x
 _atom_site_fract_y
 _atom_site_fract_z
 _atom_site_occupancy
  Ag  Ag0  1  0.67604164  0.48789646  0.16289213  1
  Ag  Ag1  1  0.50419947  0.16802344  -0.00222756  1
  Ag  Ag2  1  0.83264994  0.49251088  0.00415875  1
  Ag  Ag3  1  0.32330506  0.83832159  0.16406062  1
  Ag  Ag4  1  -0.00361176  0.50115755  0.16166116  1
  Ag  Ag5  1  0.66785748  0.16648912  0.83080584  1
  Ag  Ag6  1  0.16657788  0.49601941  0.32963465  1
  Ag  Ag7  1  0.82546626  0.16484187  -0.00593749  1
  Ag  Ag8  1  0.49975298  0.49329944  -0.00643329  1
  Ag  Ag9  1  0.65910836  0.32800919  0.66872708  1
  Ag  Ag10  1  0.33839333  0.32623881  0.34035124  1
  Ag  Ag11  1  0.00379206  0.49339736  0.84192242  1
  Ag  Ag12  1  0.83741273  0.00062441  0.50987298  1
  Ag  Ag13  1  -0.00050989  0.32903905  0.33097028  1
  Ag  Ag14  1  0.33947402  0.16986044  0.50190861  1
  Ag  Ag15  1  0.16681722  0.00136938  0.50129846  1
  Ag  Ag16  1  0.16851014  0.84491624  0.00129757  1
  Ag  Ag17  1  0.83474968  0.84103158  0.00195061  1
  Ag  Ag18  1  0.49721267  0.65866681  0.50839282  1
  Ag  Ag19  1  0.83402862  0.66133742  0.16302015  1
  Ag  Ag20  1  0.33550899  0.65625825  0.66651207  1
  Ag  Ag21  1  0.49683079  0.33098679  0.50725844  1
  Ag  Ag22  1  0.33958197  0.33431914  0.66041152  1
  Ag  Ag23  1  0.33427402  0.48915153  0.50454045  1
  Ag  Ag24  1  0.49679558  0.84134924  -0.00141022  1
  Ag  Ag25  1  0.50046988  0.16882424  0.33367605  1
  Ag  Ag26  1  0.49810621  0.00621368  0.83332302  1
  Ag  Ag27  1  -0.00423270  0.16775720  0.83387606  1
  Ag  Ag28  1  0.00523465  0.00238298  0.33487305  1
  Ag  Ag29  1  0.33332054  0.00446541  0.66794929  1
  Ag  Ag30  1  0.16912217  -0.00099690  0.15979861  1
  Ag  Ag31  1  0.50318994  0.33152753  0.82757728  1
  Ag  Ag32  1  0.16984204  0.16420713  0.67242660  1
  Ag  Ag33  1  0.83388781  0.84607471  0.66688571  1
  Ag  Ag34  1  0.83474502  0.00447155  0.82897126  1
  Ag  Ag35  1  -0.00103919  0.83334367  0.16799619  1
  Ag  Ag36  1  0.17719070  0.49392681  0.66987321  1
  Ag  Ag37  1  0.49461961  0.49501108  0.67266887  1
  Ag  Ag38  1  0.16965890  0.15971804  -0.00637794  1
  Ag  Ag39  1  0.66483325  0.32887044  0.32537904  1
  Ag  Ag40  1  0.82229468  0.16263870  0.67373683  1
  Ag  Ag41  1  0.17081564  0.66442524  0.83327975  1
  Ag  Ag42  1  0.66819600  0.17025677  0.15816545  1
  Ag  Ag43  1  0.66533871  0.33005961  0.00387497  1
  Ag  Ag44  1  0.16789198  0.00437101  0.83513901  1
  Ag  Ag45  1  0.67101072  0.01040616  0.66922321  1
  Ag  Ag46  1  0.49562573  0.65850197  0.83092283  1
  Ag  Ag47  1  0.32962212  0.00137684  -0.00298349  1
  Ag  Ag48  1  0.16584349  0.49767880  -0.00359359  1
  Ag  Ag49  1  0.82903623  0.33616481  0.16465190  1
  Ag  Ag50  1  0.65919606  0.16817170  0.51055869  1
  Ag  Ag51  1  -0.00240797  0.83929376  0.49238358  1
  Ag  Ag52  1  0.32779126  0.00621202  0.33607050  1
  Ag  Ag53  1  0.83672301  0.83796119  0.32840431  1
  Sb  Sb54  1  0.33575992  0.16504169  0.82768285  1
  Sb  Sb55  1  0.50126563  0.83225124  0.67211645  1
  Sb  Sb56  1  0.83754187  0.00156158  0.16381795  1
  Sb  Sb57  1  0.33149283  0.49983623  0.82812001  1
  Sb  Sb58  1  0.00580743  0.66700897  0.66854654  1
  Sb  Sb59  1  0.50228463  0.84065824  0.32908059  1
  Sb  Sb60  1  0.33331946  0.83710714  0.83802073  1
  Sb  Sb61  1  0.83191583  0.49599544  0.67417301  1
  Sb  Sb62  1  0.00087718  0.66526916  -0.00044147  1
  Sb  Sb63  1  0.33887266  0.32873948  -0.00087552  1
  Sb  Sb64  1  0.33016566  0.83931275  0.49671315  1
  Sb  Sb65  1  0.66622294  0.65947230  0.33196837  1
  Sb  Sb66  1  0.17104085  0.33050486  0.83300416  1
  Sb  Sb67  1  0.16314334  0.32993733  0.16694917  1
  Sb  Sb68  1  0.66029465  0.49074374  0.49724352  1
  Sb  Sb69  1  0.83369297  0.67052189  0.83848695  1
  Sb  Sb70  1  -0.00126631  0.00139225  0.66403846  1
  Sb  Sb71  1  0.66696122  0.00808351  0.33848328  1
  Sb  Sb72  1  0.49602730  0.49144724  0.33372478  1
  Sb  Sb73  1  0.50304770  0.66586920  0.16261225  1
  Sb  Sb74  1  0.00084390  0.16162775  0.50318673  1
  Sb  Sb75  1  0.49766312  0.00569606  0.50703570  1
  Sb  Sb76  1  0.83829309  0.49973728  0.32602731  1
  Sb  Sb77  1  0.33641657  0.16321045  0.16948261  1
  Sb  Sb78  1  0.66937137  0.84107308  0.50157721  1
  Sb  Sb79  1  0.33332755  0.67086389  -0.00562700  1
  Sb  Sb80  1  0.00136024  0.33081533  0.66352238  1
  Sb  Sb81  1  0.00656572  0.50189993  0.49752682  1
  Sb  Sb82  1  0.16442462  0.83867903  0.67193957  1
  Sb  Sb83  1  0.82719638  0.32676688  0.49675527  1
  Sb  Sb84  1  0.67193970  0.83774091  0.16428017  1
  Sb  Sb85  1  0.82873049  0.67367539  0.49736330  1
  Sb  Sb86  1  0.66678625  0.84081372  0.83448562  1
  Sb  Sb87  1  0.16286500  0.83533947  0.32823625  1
  Sb  Sb88  1  0.82798433  0.32459852  0.83865859  1
  Sb  Sb89  1  0.66148892  0.66438069  0.66782773  1
  Sb  Sb90  1  0.66594862  0.49171557  0.83862883  1
  Sb  Sb91  1  -0.00315821  0.16632684  0.16255972  1
  Sb  Sb92  1  0.00081047  0.83797659  0.83661264  1
  Sb  Sb93  1  0.49435755  0.00138124  0.15910469  1
  Sb  Sb94  1  0.17157256  0.67018620  0.50581020  1
  Sb  Sb95  1  0.49994918  0.17275316  0.67114472  1
  Sb  Sb96  1  0.00036642  0.66893946  0.33176313  1
  Sb  Sb97  1  0.66575892  0.66023449  -0.00024566  1
  Sb  Sb98  1  0.16287994  0.66931371  0.16008451  1
  Sb  Sb99  1  0.00543392  0.00106200  0.00271425  1
  Sb  Sb100  1  0.50594179  0.33233123  0.16587305  1
  Sb  Sb101  1  0.33366947  0.66621146  0.33833670  1
  Sb  Sb102  1  0.17333830  0.32732328  0.49986453  1
  Sb  Sb103  1  0.17033371  0.16602864  0.33352810  1
  Sb  Sb104  1  0.33092212  0.50176550  0.16884138  1
  Sb  Sb105  1  -0.00491528  0.33392519  0.00242263  1
  Sb  Sb106  1  0.82939623  0.16390311  0.33257127  1
  Sb  Sb107  1  0.66362395  0.00880918  -0.00554732  1
  Te  Te108  1  0.16608129  0.16068259  0.16046516  1
  Te  Te109  1  0.16845330  0.16048773  0.50342080  1
  Te  Te110  1  0.16660118  0.16542114  0.83398241  1
  Te  Te111  1  0.16249244  0.50103610  0.16382910  1
  Te  Te112  1  0.17158207  0.50186098  0.50627405  1
  Te  Te113  1  0.16489700  0.49724724  0.83278759  1
  Te  Te114  1  0.16315910  0.83497426  0.16205999  1
  Te  Te115  1  0.16129053  0.83896361  0.50014522  1
  Te  Te116  1  0.16484081  0.83531720  0.84030998  1
  Te  Te117  1  0.50550054  0.16640236  0.16305298  1
  Te  Te118  1  0.49978133  0.16861818  0.49687809  1
  Te  Te119  1  0.50191797  0.16621612  0.83755319  1
  Te  Te120  1  0.50129789  0.50158559  0.16167314  1
  Te  Te121  1  0.49614922  0.49729269  0.50053299  1
  Te  Te122  1  0.50071795  0.49890018  0.83368396  1
  Te  Te123  1  0.50063468  0.83268441  0.15932038  1
  Te  Te124  1  0.50017803  0.83010684  0.49871981  1
  Te  Te125  1  0.50009069  0.83624788  0.84014405  1
  Te  Te126  1  0.82973706  0.17028882  0.16216683  1
  Te  Te127  1  0.83276892  0.16110907  0.50373996  1
  Te  Te128  1  0.83384832  0.16477642  0.83329052  1
  Te  Te129  1  0.83508064  0.49945529  0.16479769  1
  Te  Te130  1  0.83482627  0.50303774  0.50155151  1
  Te  Te131  1  0.83787719  0.50179356  0.84044097  1
  Te  Te132  1  0.83680608  0.83438550  0.16344132  1
  Te  Te133  1  0.83564612  0.83829321  0.50126159  1
  Te  Te134  1  0.83453046  0.83824232  0.83712811  1
  Te  Te135  1  0.16868281  0.00165681  -0.00142218  1
  Te  Te136  1  0.16726076  -0.00044276  0.33571845  1
  Te  Te137  1  0.16854602  0.00154995  0.66972122  1
  Te  Te138  1  0.16922684  0.33606659  0.00035629  1
  Te  Te139  1  0.16603505  0.33526309  0.33374999  1
  Te  Te140  1  0.16993788  0.33258620  0.66613873  1
  Te  Te141  1  0.16827511  0.65855951  -0.00711961  1
  Te  Te142  1  0.16778334  0.65905054  0.33414228  1
  Te  Te143  1  0.17293653  0.66652891  0.67280190  1
  Te  Te144  1  0.49725515  0.00094306  -0.00555807  1
  Te  Te145  1  0.49574584  0.00630992  0.33401104  1
  Te  Te146  1  0.49615356  -0.00317891  0.67267030  1
  Te  Te147  1  0.50261698  0.33211837  -0.00232898  1
  Te  Te148  1  0.49946421  0.32856741  0.33441787  1
  Te  Te149  1  0.49944264  0.33495126  0.66622967  1
  Te  Te150  1  0.49903036  0.66406023  -0.00582075  1
  Te  Te151  1  0.50003057  0.66754258  0.33726222  1
  Te  Te152  1  0.49613757  0.66473353  0.66897579  1
  Te  Te153  1  0.83346400  0.00302649  -0.00410394  1
  Te  Te154  1  0.83487887  -0.00278702  0.33353682  1
  Te  Te155  1  0.83446398  0.00269855  0.66815180  1
  Te  Te156  1  0.82923141  0.33277316  0.00337718  1
  Te  Te157  1  0.83203149  0.33232799  0.32913174  1
  Te  Te158  1  0.82937755  0.32770366  0.66574525  1
  Te  Te159  1  0.83220335  0.66888725  0.00327125  1
  Te  Te160  1  0.83259312  0.67324927  0.32847611  1
  Te  Te161  1  0.83172457  0.66808357  0.66761065  1
  Te  Te162  1  0.00229239  0.16813523  -0.00513557  1
  Te  Te163  1  0.00019572  0.16605993  0.33278858  1
  Te  Te164  1  0.00715611  0.16829320  0.67202184  1
  Te  Te165  1  -0.00011632  0.49839467  0.00130821  1
  Te  Te166  1  0.00491461  0.49725622  0.32992059  1
  Te  Te167  1  0.00216963  0.49868093  0.66851875  1
  Te  Te168  1  -0.00048123  0.83370316  0.00446879  1
  Te  Te169  1  -0.00217620  0.83572040  0.33078192  1
  Te  Te170  1  -0.00591252  0.83281905  0.66564437  1
  Te  Te171  1  0.33342569  0.16295536  0.00225902  1
  Te  Te172  1  0.33545252  0.16607647  0.33615335  1
  Te  Te173  1  0.33169329  0.16558405  0.66257634  1
  Te  Te174  1  0.33525323  0.49851581  0.00175884  1
  Te  Te175  1  0.32833915  0.49855689  0.33743508  1
  Te  Te176  1  0.33420956  0.49755232  0.66459363  1
  Te  Te177  1  0.33203945  0.83677871  0.00365609  1
  Te  Te178  1  0.33424346  0.83898109  0.32711507  1
  Te  Te179  1  0.33251560  0.84082253  0.66480644  1
  Te  Te180  1  0.66586055  0.16873019  -0.00261708  1
  Te  Te181  1  0.66334378  0.17118043  0.33430458  1
  Te  Te182  1  0.66404325  0.16703991  0.66905519  1
  Te  Te183  1  0.66702667  0.49438991  0.00335965  1
  Te  Te184  1  0.66669704  0.49169835  0.32748203  1
  Te  Te185  1  0.66227143  0.49421151  0.66666615  1
  Te  Te186  1  0.66817368  0.83245938  0.00086256  1
  Te  Te187  1  0.67251393  0.83351407  0.33309033  1
  Te  Te188  1  0.67318694  0.83618977  0.66668673  1
  Te  Te189  1  0.00462382  -0.00184351  0.17305311  1
  Te  Te190  1  -0.00012415  -0.00199600  0.49576789  1
  Te  Te191  1  0.00121156  0.00487865  0.83412034  1
  Te  Te192  1  -0.00431592  0.33598192  0.17106957  1
  Te  Te193  1  -0.00119478  0.33445842  0.49159355  1
  Te  Te194  1  -0.00091619  0.33248251  0.83223156  1
  Te  Te195  1  -0.00464235  0.66671790  0.16647016  1
  Te  Te196  1  -0.00107291  0.67581245  0.50034361  1
  Te  Te197  1  0.00490490  0.66041963  0.83259429  1
  Te  Te198  1  0.32904425  -0.00251198  0.16544550  1
  Te  Te199  1  0.33096471  0.00389438  0.50022667  1
  Te  Te200  1  0.33130873  0.00034668  0.83382466  1
  Te  Te201  1  0.33255171  0.33444404  0.17572223  1
  Te  Te202  1  0.33489078  0.33148854  0.49985826  1
  Te  Te203  1  0.34230554  0.33266818  0.82909258  1
  Te  Te204  1  0.33284735  0.67457173  0.16781076  1
  Te  Te205  1  0.33817423  0.66857160  0.50580613  1
  Te  Te206  1  0.33383738  0.66818565  0.82731380  1
  Te  Te207  1  0.66610048  0.00705910  0.16845686  1
  Te  Te208  1  0.66859664  0.00711753  0.50635129  1
  Te  Te209  1  0.66727949  0.00583533  0.82902100  1
  Te  Te210  1  0.66806794  0.33146227  0.16531412  1
  Te  Te211  1  0.66186226  0.32740350  0.50129792  1
  Te  Te212  1  0.66274198  0.32781015  0.83252384  1
  Te  Te213  1  0.67284123  0.66412197  0.16721709  1
  Te  Te214  1  0.65893973  0.66528509  0.49962400  1
  Te  Te215  1  0.65942314  0.66648747  0.83231304  1
