# generated using pymatgen
data_AgSbTe2
_symmetry_space_group_name_H-M   'P 1'
_cell_length_a   18.31452652
_cell_length_b   18.31298423
_cell_length_c   18.31173595
_cell_angle_alpha   89.99976016
_cell_angle_beta   90.00187804
_cell_angle_gamma   89.99900662
_symmetry_Int_Tables_number   1
_chemical_formula_structural   AgSbTe2
_chemical_formula_sum   'Ag54 Sb54 Te108'
_cell_volume   6141.63968338
_cell_formula_units_Z   54
loop_
 _symmetry_equiv_pos_site_id
 _symmetry_equiv_pos_as_xyz
  1  'x, y, z'
loop_
 _atom_site_type_symbol
 _atom_site_label
 _atom_site_symmetry_multiplicity
 _atom_site_fract_x
 _atom_site_fract_y
 _atom_site_fract_z
 _atom_site_occupancy
  Ag  Ag0  1  0.66390879  0.83066553  0.82839951  1
  Ag  Ag1  1  0.32203000  0.16820915  0.16569379  1
  Ag  Ag2  1  0.66805873  0.33614964  0.66555339  1
  Ag  Ag3  1  0.67047416  0.83375293  0.17720494  1
  Ag  Ag4  1  0.50768737  0.49731727  0.00245965  1
  Ag  Ag5  1  0.83058645  0.49356051  0.00067009  1
  Ag  Ag6  1  0.16436831  0.84314331  0.00986102  1
  Ag  Ag7  1  0.49834583  0.33383750  0.17458412  1
  Ag  Ag8  1  -0.00371621  0.32612950  0.00207276  1
  Ag  Ag9  1  0.33111160  0.66529424  0.33760657  1
  Ag  Ag10  1  0.16804031  0.16761643  0.67163139  1
  Ag  Ag11  1  0.33564336  0.83349811  0.83020090  1
  Ag  Ag12  1  0.50252146  0.82407961  0.33456577  1
  Ag  Ag13  1  0.83107297  0.00134402  0.83440116  1
  Ag  Ag14  1  0.83191610  0.49947894  0.33517565  1
  Ag  Ag15  1  0.16485305  0.00084328  0.16274238  1
  Ag  Ag16  1  0.00499062  0.16655013  0.15654040  1
  Ag  Ag17  1  0.00536617  0.01271069  0.00095014  1
  Ag  Ag18  1  0.83634724  0.17552109  0.32818300  1
  Ag  Ag19  1  -0.00564509  0.50086777  0.49816174  1
  Ag  Ag20  1  0.66946327  0.50357343  0.50310772  1
  Ag  Ag21  1  -0.00492364  0.17245452  0.84424531  1
  Ag  Ag22  1  0.84531712  0.17232424  0.00068975  1
  Ag  Ag23  1  0.50585866  0.66194539  0.50173635  1
  Ag  Ag24  1  0.83609264  0.82815540  0.33515187  1
  Ag  Ag25  1  0.67222201  0.16950572  0.83094505  1
  Ag  Ag26  1  0.15978897  0.82798768  0.32990083  1
  Ag  Ag27  1  0.15706914  0.16249655  0.00318711  1
  Ag  Ag28  1  0.66989106  0.82247256  0.49956799  1
  Ag  Ag29  1  0.67078918  0.49794204  0.82722519  1
  Ag  Ag30  1  0.00181080  0.33510758  0.66550649  1
  Ag  Ag31  1  -0.00779695  0.49366593  0.82988264  1
  Ag  Ag32  1  0.00537583  0.83698224  0.17162905  1
  Ag  Ag33  1  0.50612162  0.49851628  0.33523634  1
  Ag  Ag34  1  0.33753374  0.67121821  0.66205756  1
  Ag  Ag35  1  0.16237234  0.49559280  0.66478570  1
  Ag  Ag36  1  0.33295899  0.33799715  0.33193771  1
  Ag  Ag37  1  0.82742955  0.66588049  0.49750225  1
  Ag  Ag38  1  0.16505261  0.32817853  0.17201654  1
  Ag  Ag39  1  0.66042567  0.66617548  0.66284411  1
  Ag  Ag40  1  0.49920243  0.16924809  0.66724372  1
  Ag  Ag41  1  0.66275127  -0.00268633  0.66964796  1
  Ag  Ag42  1  0.50273571  0.34143238  0.49385699  1
  Ag  Ag43  1  0.67255128  0.33525140  0.00034937  1
  Ag  Ag44  1  0.33302404  -0.00433258  0.67196344  1
  Ag  Ag45  1  0.16885064  0.83398297  0.66472855  1
  Ag  Ag46  1  0.16471110  0.33529149  0.49537813  1
  Ag  Ag47  1  0.16566274  0.67448851  0.17069639  1
  Ag  Ag48  1  0.50244522  0.66681008  0.82315186  1
  Ag  Ag49  1  -0.00228646  0.82515219  0.48855497  1
  Ag  Ag50  1  0.32402109  -0.00025007  -0.00353055  1
  Ag  Ag51  1  0.00214838  0.66825244  0.33592430  1
  Ag  Ag52  1  0.66518228  0.33735143  0.33516042  1
  Ag  Ag53  1  0.00024269  0.33738428  0.33311185  1
  Sb  Sb54  1  0.83619946  0.83395187  0.00369848  1
  Sb  Sb55  1  -0.00029360  -0.00179307  0.32802419  1
  Sb  Sb56  1  0.33280240  0.16909917  0.49752271  1
  Sb  Sb57  1  0.82864459  0.66785364  0.82808167  1
  Sb  Sb58  1  0.00075409  0.49622361  0.17005598  1
  Sb  Sb59  1  0.83373569  0.33029897  0.83616459  1
  Sb  Sb60  1  0.49781259  0.82928108  0.00288577  1
  Sb  Sb61  1  0.49981695  0.83203064  0.66272727  1
  Sb  Sb62  1  0.16901427  0.66809530  0.83345392  1
  Sb  Sb63  1  0.83320082  -0.00479091  0.50268495  1
  Sb  Sb64  1  0.16290410  0.33213955  0.83153830  1
  Sb  Sb65  1  0.16620260  0.66329786  0.49741371  1
  Sb  Sb66  1  0.66612873  0.66108109  -0.00512707  1
  Sb  Sb67  1  0.33127552  -0.00083307  0.33259866  1
  Sb  Sb68  1  0.33108671  0.32855866  0.00727241  1
  Sb  Sb69  1  0.83434634  0.16693529  0.67031215  1
  Sb  Sb70  1  0.16386293  0.50061609  0.33766747  1
  Sb  Sb71  1  0.50362249  0.17358455  0.33626379  1
  Sb  Sb72  1  0.66590991  0.50071201  0.16861781  1
  Sb  Sb73  1  0.16530798  0.00196689  0.49838607  1
  Sb  Sb74  1  0.83475407  0.49941739  0.66435726  1
  Sb  Sb75  1  0.66931065  0.16732313  0.16298261  1
  Sb  Sb76  1  0.50203933  0.49888254  0.66315562  1
  Sb  Sb77  1  0.50366553  -0.00426911  0.83128554  1
  Sb  Sb78  1  0.33236797  0.83060632  0.50246037  1
  Sb  Sb79  1  0.16217280  0.16826009  0.32846281  1
  Sb  Sb80  1  0.16334761  0.49622453  -0.00328851  1
  Sb  Sb81  1  -0.00019123  0.83363846  0.83499349  1
  Sb  Sb82  1  0.32722603  0.83656085  0.16575898  1
  Sb  Sb83  1  0.66765322  0.17277379  0.50577066  1
  Sb  Sb84  1  0.50500453  0.33832099  0.83186430  1
  Sb  Sb85  1  0.50160028  -0.00231520  0.50221740  1
  Sb  Sb86  1  0.33214347  0.16139596  0.83518371  1
  Sb  Sb87  1  0.66647327  0.66367854  0.33981992  1
  Sb  Sb88  1  0.00054925  0.66412195  0.00587492  1
  Sb  Sb89  1  -0.00061459  0.17235420  0.49962469  1
  Sb  Sb90  1  0.66897279  0.00416513  -0.00548601  1
  Sb  Sb91  1  0.33244246  0.67008333  0.00119218  1
  Sb  Sb92  1  0.83275554  0.83279168  0.66169449  1
  Sb  Sb93  1  0.83884871  0.00018676  0.16253915  1
  Sb  Sb94  1  0.66796206  -0.00016832  0.33796196  1
  Sb  Sb95  1  0.49686867  0.66372714  0.17250164  1
  Sb  Sb96  1  0.33583106  0.50058396  0.49945394  1
  Sb  Sb97  1  0.33685864  0.50494622  0.83088553  1
  Sb  Sb98  1  0.50002787  0.17197290  -0.00345394  1
  Sb  Sb99  1  0.00200132  0.00367213  0.67164934  1
  Sb  Sb100  1  0.33300675  0.49554207  0.16929738  1
  Sb  Sb101  1  0.00184599  0.66258894  0.66081210  1
  Sb  Sb102  1  0.49575366  0.00302739  0.16654485  1
  Sb  Sb103  1  0.16317408  -0.00079445  0.83977972  1
  Sb  Sb104  1  0.83702869  0.66788342  0.17495156  1
  Sb  Sb105  1  0.83615429  0.33267072  0.16706830  1
  Sb  Sb106  1  0.33213121  0.33391346  0.66103718  1
  Sb  Sb107  1  0.83337879  0.34003724  0.49591528  1
  Te  Te108  1  0.16456947  0.16744034  0.16741070  1
  Te  Te109  1  0.16597001  0.17166917  0.50471321  1
  Te  Te110  1  0.16346005  0.16575355  0.83321228  1
  Te  Te111  1  0.16691285  0.49731448  0.16540586  1
  Te  Te112  1  0.16162797  0.49615921  0.50429448  1
  Te  Te113  1  0.16267416  0.50078024  0.82775703  1
  Te  Te114  1  0.16591247  0.83405871  0.16747745  1
  Te  Te115  1  0.16316632  0.83349281  0.49901509  1
  Te  Te116  1  0.16893965  0.83297814  0.82823636  1
  Te  Te117  1  0.49969475  0.17225307  0.16653237  1
  Te  Te118  1  0.50043619  0.17081791  0.50523591  1
  Te  Te119  1  0.50364893  0.16718982  0.82801224  1
  Te  Te120  1  0.49973079  0.49546038  0.16892313  1
  Te  Te121  1  0.50347883  0.50016283  0.49715778  1
  Te  Te122  1  0.50486409  0.50534656  0.83485772  1
  Te  Te123  1  0.50301492  0.83376280  0.17204289  1
  Te  Te124  1  0.50433936  0.83021883  0.49508226  1
  Te  Te125  1  0.50186982  0.82736510  0.83445238  1
  Te  Te126  1  0.83810224  0.16544932  0.16584066  1
  Te  Te127  1  0.83338352  0.16359904  0.49061093  1
  Te  Te128  1  0.83355344  0.16393492  0.83656534  1
  Te  Te129  1  0.83348892  0.50138788  0.16748629  1
  Te  Te130  1  0.83260211  0.50485741  0.49695224  1
  Te  Te131  1  0.83142687  0.50228966  0.83715304  1
  Te  Te132  1  0.83375057  0.83419070  0.17197069  1
  Te  Te133  1  0.83361168  0.82917747  0.49541938  1
  Te  Te134  1  0.82924809  0.83660234  0.83459854  1
  Te  Te135  1  0.16563156  0.00067214  0.00147150  1
  Te  Te136  1  0.16755411  -0.00586871  0.32850363  1
  Te  Te137  1  0.16921830  -0.00004228  0.66593291  1
  Te  Te138  1  0.16255427  0.32942957  0.00388062  1
  Te  Te139  1  0.16493570  0.33356369  0.33405519  1
  Te  Te140  1  0.16595688  0.33243660  0.66406864  1
  Te  Te141  1  0.16731356  0.66844693  0.00580657  1
  Te  Te142  1  0.16680047  0.66698726  0.33223668  1
  Te  Te143  1  0.17092255  0.67088271  0.66540744  1
  Te  Te144  1  0.49365720  0.00028834  -0.00001614  1
  Te  Te145  1  0.49917488  -0.00588680  0.33397485  1
  Te  Te146  1  0.50026336  0.00566493  0.66676697  1
  Te  Te147  1  0.50076900  0.33813198  0.00273592  1
  Te  Te148  1  0.50227957  0.33431663  0.33416410  1
  Te  Te149  1  0.50072921  0.33085471  0.66108363  1
  Te  Te150  1  0.49829946  0.65954904  0.00047833  1
  Te  Te151  1  0.49782096  0.66424545  0.33610109  1
  Te  Te152  1  0.49951782  0.66579161  0.66395777  1
  Te  Te153  1  0.83704130  0.00228944  -0.00404610  1
  Te  Te154  1  0.83256619  -0.00285623  0.33310536  1
  Te  Te155  1  0.82955553  0.00027987  0.67288968  1
  Te  Te156  1  0.83362279  0.33335568  0.00168276  1
  Te  Te157  1  0.83426886  0.33638628  0.33277012  1
  Te  Te158  1  0.83265118  0.33203704  0.66405834  1
  Te  Te159  1  0.83391083  0.66049646  0.00082052  1
  Te  Te160  1  0.83696374  0.66582116  0.33759724  1
  Te  Te161  1  0.82666791  0.66700762  0.65904704  1
  Te  Te162  1  0.00093947  0.16853298  0.00033079  1
  Te  Te163  1  -0.00479108  0.16952294  0.33290903  1
  Te  Te164  1  0.00421943  0.17195526  0.66780688  1
  Te  Te165  1  -0.00323518  0.49640273  -0.00314100  1
  Te  Te166  1  -0.00223781  0.49788197  0.33619236  1
  Te  Te167  1  0.00127329  0.49690436  0.66630084  1
  Te  Te168  1  0.00456208  0.83190094  0.00386908  1
  Te  Te169  1  0.00027235  0.83453693  0.33203621  1
  Te  Te170  1  0.00514029  0.83319429  0.66621396  1
  Te  Te171  1  0.33162588  0.16098978  0.00310544  1
  Te  Te172  1  0.33439675  0.16924527  0.32750773  1
  Te  Te173  1  0.33094833  0.16457889  0.66704205  1
  Te  Te174  1  0.33746835  0.49998211  -0.00150665  1
  Te  Te175  1  0.33745335  0.50024683  0.33417578  1
  Te  Te176  1  0.32580365  0.50505333  0.66675236  1
  Te  Te177  1  0.32981644  0.83763459  -0.00447186  1
  Te  Te178  1  0.33343650  0.83056505  0.33430551  1
  Te  Te179  1  0.33359910  0.83233271  0.66793843  1
  Te  Te180  1  0.66882941  0.17255266  -0.00558782  1
  Te  Te181  1  0.67239264  0.17016033  0.33307130  1
  Te  Te182  1  0.66759716  0.17051291  0.67079320  1
  Te  Te183  1  0.66806268  0.49545111  0.00130119  1
  Te  Te184  1  0.66823804  0.49782135  0.33463269  1
  Te  Te185  1  0.66650916  0.49748866  0.66630122  1
  Te  Te186  1  0.66693708  0.83416516  -0.00620723  1
  Te  Te187  1  0.66831231  0.83378580  0.33603924  1
  Te  Te188  1  0.66590861  0.83211981  0.66667434  1
  Te  Te189  1  0.00445028  0.00030859  0.16187441  1
  Te  Te190  1  -0.00022646  -0.00862581  0.50200054  1
  Te  Te191  1  -0.00568108  0.00274848  0.83851683  1
  Te  Te192  1  0.00271530  0.33087834  0.16884225  1
  Te  Te193  1  0.00166210  0.33721991  0.49979193  1
  Te  Te194  1  -0.00032876  0.33399754  0.83134726  1
  Te  Te195  1  0.00452694  0.67013806  0.17361798  1
  Te  Te196  1  -0.00014622  0.66522689  0.49625418  1
  Te  Te197  1  -0.00154911  0.66031356  0.83178672  1
  Te  Te198  1  0.32829545  0.00567346  0.16421077  1
  Te  Te199  1  0.33345555  0.00088844  0.50913336  1
  Te  Te200  1  0.33487670  -0.00527762  0.83186152  1
  Te  Te201  1  0.33200821  0.32967425  0.17189591  1
  Te  Te202  1  0.33234399  0.33451285  0.49223654  1
  Te  Te203  1  0.33465994  0.33365917  0.83367607  1
  Te  Te204  1  0.32796339  0.66746484  0.17230172  1
  Te  Te205  1  0.33879821  0.66637435  0.49886399  1
  Te  Te206  1  0.33751816  0.67227085  0.83051524  1
  Te  Te207  1  0.66535404  -0.00611990  0.16489702  1
  Te  Te208  1  0.66662802  -0.00544670  0.50810341  1
  Te  Te209  1  0.66873191  0.00042885  0.82975001  1
  Te  Te210  1  0.66180356  0.33265748  0.16759768  1
  Te  Te211  1  0.66516170  0.33739586  0.50013531  1
  Te  Te212  1  0.66686817  0.33678697  0.83069950  1
  Te  Te213  1  0.66584648  0.67539755  0.16450524  1
  Te  Te214  1  0.66594584  0.66450939  0.50100310  1
  Te  Te215  1  0.66377856  0.66520032  0.82808289  1
