# generated using pymatgen
data_AgSbTe2
_symmetry_space_group_name_H-M   'P 1'
_cell_length_a   18.34159868
_cell_length_b   18.33133222
_cell_length_c   18.33265170
_cell_angle_alpha   90.00037711
_cell_angle_beta   90.00195378
_cell_angle_gamma   90.00076703
_symmetry_Int_Tables_number   1
_chemical_formula_structural   AgSbTe2
_chemical_formula_sum   'Ag54 Sb54 Te108'
_cell_volume   6163.91302709
_cell_formula_units_Z   54
loop_
 _symmetry_equiv_pos_site_id
 _symmetry_equiv_pos_as_xyz
  1  'x, y, z'
loop_
 _atom_site_type_symbol
 _atom_site_label
 _atom_site_symmetry_multiplicity
 _atom_site_fract_x
 _atom_site_fract_y
 _atom_site_fract_z
 _atom_site_occupancy
  Ag  Ag0  1  0.50257768  0.83362300  -0.00893982  1
  Ag  Ag1  1  0.49825748  -0.00398310  0.16193661  1
  Ag  Ag2  1  0.65833985  0.33181375  0.33977124  1
  Ag  Ag3  1  0.16303378  0.66976586  0.15959988  1
  Ag  Ag4  1  0.00258042  0.48874025  0.49685787  1
  Ag  Ag5  1  0.83084332  0.01221140  0.49982038  1
  Ag  Ag6  1  0.83266029  -0.00295493  0.16268360  1
  Ag  Ag7  1  0.49597902  0.17337559  0.33744956  1
  Ag  Ag8  1  0.65977598  0.66963845  0.67061095  1
  Ag  Ag9  1  -0.00241750  0.33621202  0.00076855  1
  Ag  Ag10  1  0.83557275  0.67111302  0.15581361  1
  Ag  Ag11  1  0.34527211  0.83095050  0.83908029  1
  Ag  Ag12  1  0.49860781  0.33416745  0.82281551  1
  Ag  Ag13  1  0.67023230  0.67496693  -0.00579440  1
  Ag  Ag14  1  0.16609989  0.17388634  0.65927700  1
  Ag  Ag15  1  -0.00265596  0.82762462  0.83577346  1
  Ag  Ag16  1  0.33730892  0.83521267  0.15626177  1
  Ag  Ag17  1  0.00095645  0.33147054  0.34630594  1
  Ag  Ag18  1  0.33863088  0.33132366  0.34392636  1
  Ag  Ag19  1  -0.00195971  0.49607929  0.17014915  1
  Ag  Ag20  1  0.33915912  0.67059879  0.67092672  1
  Ag  Ag21  1  0.49987238  0.82895724  0.67766611  1
  Ag  Ag22  1  0.49965951  0.67537541  0.82682524  1
  Ag  Ag23  1  0.34260460  -0.00813415  -0.00022178  1
  Ag  Ag24  1  0.17470987  0.66874132  0.83725391  1
  Ag  Ag25  1  0.33070525  0.33351546  0.65595259  1
  Ag  Ag26  1  0.66208209  -0.00808036  0.00092630  1
  Ag  Ag27  1  0.82481307  0.83166026  -0.00171833  1
  Ag  Ag28  1  0.82449758  0.66579921  0.50268833  1
  Ag  Ag29  1  0.83435951  0.15877694  -0.00058585  1
  Ag  Ag30  1  -0.00192055  0.17690254  0.49685184  1
  Ag  Ag31  1  0.48398934  0.33559163  0.49802013  1
  Ag  Ag32  1  0.67238190  0.50307709  0.16883328  1
  Ag  Ag33  1  0.00903787  0.33200073  0.65779682  1
  Ag  Ag34  1  0.33721907  0.67478343  -0.00763346  1
  Ag  Ag35  1  0.82894002  0.67150860  0.83936673  1
  Ag  Ag36  1  0.49771982  -0.01281558  0.83882477  1
  Ag  Ag37  1  0.49960055  0.49282833  0.33575935  1
  Ag  Ag38  1  0.16781148  0.33091642  0.50086187  1
  Ag  Ag39  1  -0.00114401  0.17157046  0.17212598  1
  Ag  Ag40  1  0.16923471  0.17090476  0.34028068  1
  Ag  Ag41  1  0.66440874  0.83072928  0.50429482  1
  Ag  Ag42  1  0.16933789  0.49497554  0.66301019  1
  Ag  Ag43  1  0.66961749  0.16923772  0.49951992  1
  Ag  Ag44  1  0.65813808  0.83026599  0.83664647  1
  Ag  Ag45  1  0.50043211  0.83302045  0.33314132  1
  Ag  Ag46  1  0.33272279  0.48818979  0.50250431  1
  Ag  Ag47  1  -0.00438372  0.66662933  -0.00069414  1
  Ag  Ag48  1  0.50371987  0.66720483  0.50549277  1
  Ag  Ag49  1  0.17096387  -0.00290882  0.16544214  1
  Ag  Ag50  1  0.33562894  -0.00121073  0.66828145  1
  Ag  Ag51  1  0.85173464  0.32719913  0.50073256  1
  Ag  Ag52  1  0.33249876  0.17490593  0.50061534  1
  Ag  Ag53  1  0.83680842  0.16651948  0.65677597  1
  Sb  Sb54  1  0.50057820  0.67183377  0.16555592  1
  Sb  Sb55  1  0.17190264  0.83111695  -0.00067492  1
  Sb  Sb56  1  0.34186235  0.83331112  0.50236403  1
  Sb  Sb57  1  0.66250448  -0.00437915  0.66855699  1
  Sb  Sb58  1  0.33578486  0.66392979  0.33624684  1
  Sb  Sb59  1  0.66242827  0.83120194  0.16276869  1
  Sb  Sb60  1  0.33496698  0.16143298  0.82553285  1
  Sb  Sb61  1  0.16952268  0.66107660  0.50190863  1
  Sb  Sb62  1  0.82974077  0.49832035  0.33395167  1
  Sb  Sb63  1  0.66432023  0.66457558  0.33306937  1
  Sb  Sb64  1  0.17316924  -0.00554502  0.83684211  1
  Sb  Sb65  1  0.66480067  0.00346220  0.33097752  1
  Sb  Sb66  1  0.49519768  0.50561549  0.65959957  1
  Sb  Sb67  1  0.82769047  0.83268661  0.33000832  1
  Sb  Sb68  1  0.16520885  0.50319899  -0.00263356  1
  Sb  Sb69  1  0.66346960  0.50934861  0.83666403  1
  Sb  Sb70  1  0.00063225  0.00733367  0.33167866  1
  Sb  Sb71  1  0.83025323  0.33618444  0.82881361  1
  Sb  Sb72  1  0.66422478  0.49906419  0.49631348  1
  Sb  Sb73  1  0.82820125  -0.00581494  0.83511771  1
  Sb  Sb74  1  -0.00867589  0.83243669  0.50492088  1
  Sb  Sb75  1  0.67082844  0.16785867  0.17142325  1
  Sb  Sb76  1  0.00155388  0.83137688  0.16150002  1
  Sb  Sb77  1  0.50038414  0.32949947  0.17291894  1
  Sb  Sb78  1  -0.00231142  -0.00431573  0.00143963  1
  Sb  Sb79  1  0.83673291  0.33263321  0.17114130  1
  Sb  Sb80  1  0.16473403  0.00894302  0.49798690  1
  Sb  Sb81  1  0.83421900  0.50526213  0.00176697  1
  Sb  Sb82  1  -0.00073090  0.16492883  0.83233602  1
  Sb  Sb83  1  0.83441861  0.16824497  0.33631327  1
  Sb  Sb84  1  0.00100826  0.66228867  0.67016446  1
  Sb  Sb85  1  0.66363039  0.33653580  0.65893105  1
  Sb  Sb86  1  0.33131409  0.50595090  0.17216649  1
  Sb  Sb87  1  0.16913316  0.49487158  0.33742343  1
  Sb  Sb88  1  0.50399403  -0.00041926  0.50024951  1
  Sb  Sb89  1  0.33448233  0.50932374  0.82558543  1
  Sb  Sb90  1  0.00003541  0.65936304  0.32879597  1
  Sb  Sb91  1  0.32892089  0.16121094  0.17211881  1
  Sb  Sb92  1  0.50431180  0.15935555  0.00397289  1
  Sb  Sb93  1  0.00079768  0.50367637  0.83279481  1
  Sb  Sb94  1  0.83734777  0.49869551  0.66221160  1
  Sb  Sb95  1  0.66527037  0.16206234  0.82941788  1
  Sb  Sb96  1  0.17432978  0.83206558  0.66818788  1
  Sb  Sb97  1  0.82717569  0.83398841  0.67054058  1
  Sb  Sb98  1  0.66986110  0.33319306  0.00266922  1
  Sb  Sb99  1  0.16975586  0.33774129  0.82504982  1
  Sb  Sb100  1  0.16290621  0.33318839  0.17315803  1
  Sb  Sb101  1  0.33642810  0.00451888  0.33472074  1
  Sb  Sb102  1  0.17229690  0.83825805  0.33152145  1
  Sb  Sb103  1  0.50025218  0.50781888  0.00396890  1
  Sb  Sb104  1  0.00338903  0.00591283  0.66638779  1
  Sb  Sb105  1  0.16273249  0.16538333  0.00128358  1
  Sb  Sb106  1  0.33140879  0.33261935  -0.00249234  1
  Sb  Sb107  1  0.49900000  0.16518790  0.65995468  1
  Te  Te108  1  0.16079181  0.16440725  0.16854402  1
  Te  Te109  1  0.16425224  0.16770770  0.50041371  1
  Te  Te110  1  0.16630133  0.16635973  0.82706892  1
  Te  Te111  1  0.16201282  0.50562098  0.16698282  1
  Te  Te112  1  0.16661962  0.49761689  0.50253591  1
  Te  Te113  1  0.16717113  0.50774684  0.82603498  1
  Te  Te114  1  0.17139811  0.83376707  0.16741813  1
  Te  Te115  1  0.16346812  0.83537998  0.49914275  1
  Te  Te116  1  0.16147191  0.82750698  0.83275590  1
  Te  Te117  1  0.50080815  0.16000133  0.17291220  1
  Te  Te118  1  0.50042914  0.16700299  0.49672806  1
  Te  Te119  1  0.50093004  0.17282583  0.83402157  1
  Te  Te120  1  0.50038734  0.50020928  0.17326130  1
  Te  Te121  1  0.49803649  0.49908546  0.49590877  1
  Te  Te122  1  0.49979622  0.49392127  0.83576571  1
  Te  Te123  1  0.49759316  0.83615705  0.17002457  1
  Te  Te124  1  0.50466544  0.83219817  0.49722773  1
  Te  Te125  1  0.50141730  0.83139210  0.83412026  1
  Te  Te126  1  0.83706302  0.16447385  0.16436385  1
  Te  Te127  1  0.83459382  0.16887989  0.49874997  1
  Te  Te128  1  0.83238155  0.16610366  0.83608805  1
  Te  Te129  1  0.83644193  0.50476388  0.16800223  1
  Te  Te130  1  0.83779505  0.50168658  0.49917629  1
  Te  Te131  1  0.83200463  0.50875304  0.83146070  1
  Te  Te132  1  0.83300309  0.83264616  0.16318373  1
  Te  Te133  1  0.82669997  0.82782408  0.49985836  1
  Te  Te134  1  0.83196949  0.83029894  0.83691428  1
  Te  Te135  1  0.17161788  0.00069127  0.00566239  1
  Te  Te136  1  0.16807212  0.00766370  0.32616886  1
  Te  Te137  1  0.17309392  0.00357555  0.66721913  1
  Te  Te138  1  0.16184712  0.33380172  -0.00246532  1
  Te  Te139  1  0.16467466  0.32984177  0.33708983  1
  Te  Te140  1  0.16842168  0.33327019  0.66515996  1
  Te  Te141  1  0.16567578  0.66641531  -0.00090547  1
  Te  Te142  1  0.16756372  0.66789537  0.32636378  1
  Te  Te143  1  0.17023874  0.66458478  0.66994456  1
  Te  Te144  1  0.50116269  -0.00259840  0.00022220  1
  Te  Te145  1  0.50060985  -0.00369308  0.32888417  1
  Te  Te146  1  0.49610524  -0.00289672  0.66991025  1
  Te  Te147  1  0.49977407  0.33276209  0.00080800  1
  Te  Te148  1  0.49883685  0.33272070  0.33547852  1
  Te  Te149  1  0.49608163  0.33392748  0.66179111  1
  Te  Te150  1  0.49945729  0.67107720  -0.00168451  1
  Te  Te151  1  0.49948301  0.66877457  0.33781999  1
  Te  Te152  1  0.49958518  0.66668971  0.66648547  1
  Te  Te153  1  0.83133625  -0.00233535  0.00070239  1
  Te  Te154  1  0.83298391  -0.00085641  0.33051556  1
  Te  Te155  1  0.83379698  0.00420924  0.66401495  1
  Te  Te156  1  0.83636815  0.33072980  -0.00169612  1
  Te  Te157  1  0.83739172  0.33355310  0.33995949  1
  Te  Te158  1  0.83348707  0.32910479  0.66263452  1
  Te  Te159  1  0.83184206  0.66837739  -0.00078524  1
  Te  Te160  1  0.83279680  0.66653546  0.33876992  1
  Te  Te161  1  0.83282092  0.66687867  0.66270600  1
  Te  Te162  1  -0.00421551  0.16608226  0.00066686  1
  Te  Te163  1  0.00141601  0.17175750  0.33360101  1
  Te  Te164  1  -0.00059138  0.17036229  0.66550885  1
  Te  Te165  1  -0.00015664  0.50200146  0.00441815  1
  Te  Te166  1  0.00131012  0.49294036  0.33311926  1
  Te  Te167  1  0.00448565  0.49429009  0.66293826  1
  Te  Te168  1  -0.00401694  0.82820687  -0.00253130  1
  Te  Te169  1  0.00139863  0.83330877  0.33404106  1
  Te  Te170  1  0.00025319  0.83343329  0.67294822  1
  Te  Te171  1  0.33283796  0.16257312  -0.00006172  1
  Te  Te172  1  0.33325361  0.17037009  0.33729437  1
  Te  Te173  1  0.33230648  0.16903859  0.66188983  1
  Te  Te174  1  0.33300338  0.50491909  0.00175830  1
  Te  Te175  1  0.33692360  0.49548208  0.33947467  1
  Te  Te176  1  0.33028059  0.49808152  0.66180011  1
  Te  Te177  1  0.33519237  0.83256170  -0.00109394  1
  Te  Te178  1  0.33906515  0.83317212  0.33200825  1
  Te  Te179  1  0.33838117  0.83214229  0.66911197  1
  Te  Te180  1  0.67279275  0.16466759  0.00013341  1
  Te  Te181  1  0.66249927  0.17085630  0.33815173  1
  Te  Te182  1  0.67163196  0.16664533  0.66183867  1
  Te  Te183  1  0.66676790  0.50236501  0.00850497  1
  Te  Te184  1  0.66160603  0.49541264  0.32910285  1
  Te  Te185  1  0.66706233  0.50814850  0.66749073  1
  Te  Te186  1  0.66480403  0.83244276  0.00130337  1
  Te  Te187  1  0.66169140  0.83436339  0.33958718  1
  Te  Te188  1  0.66197721  0.82971996  0.66580428  1
  Te  Te189  1  -0.00313093  0.00246482  0.16541557  1
  Te  Te190  1  -0.00823078  0.00138320  0.49956331  1
  Te  Te191  1  0.00187722  -0.00761384  0.83369995  1
  Te  Te192  1  -0.00050970  0.33391814  0.16010906  1
  Te  Te193  1  0.00679375  0.33242750  0.50226634  1
  Te  Te194  1  -0.00080665  0.33464354  0.83895994  1
  Te  Te195  1  -0.00179157  0.66466102  0.16359105  1
  Te  Te196  1  -0.00059046  0.66431423  0.49903730  1
  Te  Te197  1  -0.00376827  0.66788311  0.83689223  1
  Te  Te198  1  0.33434884  -0.00299295  0.16639267  1
  Te  Te199  1  0.33308920  0.00235821  0.50610172  1
  Te  Te200  1  0.33685170  -0.00470710  0.83333585  1
  Te  Te201  1  0.33138348  0.33418465  0.16746771  1
  Te  Te202  1  0.32862465  0.33134382  0.49974506  1
  Te  Te203  1  0.33752244  0.33339899  0.83240568  1
  Te  Te204  1  0.33069247  0.67097883  0.16515974  1
  Te  Te205  1  0.33655004  0.66566748  0.50530297  1
  Te  Te206  1  0.33615740  0.66986736  0.83257196  1
  Te  Te207  1  0.67024047  0.00074796  0.16196132  1
  Te  Te208  1  0.67152787  0.00219986  0.50042639  1
  Te  Te209  1  0.66064182  -0.00501402  0.83684757  1
  Te  Te210  1  0.66834645  0.33843975  0.17246547  1
  Te  Te211  1  0.66411974  0.33188620  0.49758761  1
  Te  Te212  1  0.66109369  0.33475252  0.83270993  1
  Te  Te213  1  0.66998346  0.66460113  0.16447922  1
  Te  Te214  1  0.66419175  0.66572495  0.49930336  1
  Te  Te215  1  0.66415194  0.67001149  0.83402921  1
