# generated using pymatgen
data_AgSbTe2
_symmetry_space_group_name_H-M   'P 1'
_cell_length_a   18.31954732
_cell_length_b   18.32452695
_cell_length_c   18.32290720
_cell_angle_alpha   89.99953269
_cell_angle_beta   90.00316499
_cell_angle_gamma   89.99785325
_symmetry_Int_Tables_number   1
_chemical_formula_structural   AgSbTe2
_chemical_formula_sum   'Ag54 Sb54 Te108'
_cell_volume   6150.94567126
_cell_formula_units_Z   54
loop_
 _symmetry_equiv_pos_site_id
 _symmetry_equiv_pos_as_xyz
  1  'x, y, z'
loop_
 _atom_site_type_symbol
 _atom_site_label
 _atom_site_symmetry_multiplicity
 _atom_site_fract_x
 _atom_site_fract_y
 _atom_site_fract_z
 _atom_site_occupancy
  Ag  Ag0  1  0.66812829  0.16610320  0.15785949  1
  Ag  Ag1  1  0.83721858  -0.00658812  0.51025697  1
  Ag  Ag2  1  0.16113055  0.51001304  0.34033471  1
  Ag  Ag3  1  0.33257865  0.66795468  0.65867314  1
  Ag  Ag4  1  0.66405653  0.83895505  0.17026288  1
  Ag  Ag5  1  0.50753270  0.66810994  0.83141953  1
  Ag  Ag6  1  0.15839683  -0.00634710  0.49817142  1
  Ag  Ag7  1  0.16300251  0.82918144  0.65679595  1
  Ag  Ag8  1  0.33435631  0.83156146  0.17557143  1
  Ag  Ag9  1  0.51017149  0.00114121  0.83214194  1
  Ag  Ag10  1  0.83516005  0.33383247  0.50170468  1
  Ag  Ag11  1  0.16421622  0.67201037  0.17164094  1
  Ag  Ag12  1  -0.00407424  0.00182990  0.66672779  1
  Ag  Ag13  1  -0.00231845  0.32986182  0.66149936  1
  Ag  Ag14  1  0.83094159  0.67241747  0.83067226  1
  Ag  Ag15  1  0.00011234  0.83196022  0.50103346  1
  Ag  Ag16  1  0.49495678  0.83452932  0.33975060  1
  Ag  Ag17  1  0.00114033  0.49548255  0.17121754  1
  Ag  Ag18  1  -0.00478152  0.17119646  0.15968501  1
  Ag  Ag19  1  0.16693018  0.50958896  0.65807903  1
  Ag  Ag20  1  0.50490130  0.16461789  0.32841128  1
  Ag  Ag21  1  0.15276536  0.16625052  0.00177897  1
  Ag  Ag22  1  0.50764124  0.16385977  0.67273688  1
  Ag  Ag23  1  0.50416446  0.33042363  0.16268353  1
  Ag  Ag24  1  0.66866799  0.16669392  0.83947600  1
  Ag  Ag25  1  0.32539165  0.82731655  0.49617993  1
  Ag  Ag26  1  0.50719034  0.49075718  -0.00520261  1
  Ag  Ag27  1  0.83696042  0.67441238  0.50651330  1
  Ag  Ag28  1  0.34900571  0.33266661  0.00291123  1
  Ag  Ag29  1  0.49738044  0.50358043  0.67123214  1
  Ag  Ag30  1  0.83456002  0.83784019  0.66245662  1
  Ag  Ag31  1  0.16302386  -0.00510177  0.16841350  1
  Ag  Ag32  1  -0.00506814  0.32743297  0.00351213  1
  Ag  Ag33  1  0.17101680  0.82835913  0.33845071  1
  Ag  Ag34  1  0.66647806  0.49570346  0.83697544  1
  Ag  Ag35  1  -0.00595144  0.00721915  -0.00366687  1
  Ag  Ag36  1  0.66630222  0.32577405  0.00466349  1
  Ag  Ag37  1  -0.00928821  0.16404310  0.83966908  1
  Ag  Ag38  1  0.51031058  0.17130180  -0.00055466  1
  Ag  Ag39  1  0.32491229  0.67013350  0.34144580  1
  Ag  Ag40  1  -0.00300950  0.66522268  0.00494598  1
  Ag  Ag41  1  0.66900690  0.16214190  0.50262659  1
  Ag  Ag42  1  -0.00336245  0.33875952  0.33289458  1
  Ag  Ag43  1  0.49977793  0.83266394  0.66165086  1
  Ag  Ag44  1  0.83366719  0.50227314  -0.00362943  1
  Ag  Ag45  1  0.32063834  0.50955673  0.50123114  1
  Ag  Ag46  1  0.00255277  0.50572705  0.49583305  1
  Ag  Ag47  1  0.83194179  -0.00135415  0.82991497  1
  Ag  Ag48  1  0.67305012  0.84001123  0.49807212  1
  Ag  Ag49  1  0.83162474  0.15733883  0.66525226  1
  Ag  Ag50  1  0.00601200  0.66099945  0.33166486  1
  Ag  Ag51  1  0.66931506  0.32976882  0.32833319  1
  Ag  Ag52  1  0.83453106  0.83241618  -0.00626019  1
  Ag  Ag53  1  0.67346110  0.00677018  -0.00119372  1
  Sb  Sb54  1  0.16022157  0.83767793  0.00339100  1
  Sb  Sb55  1  -0.00010225  0.83356530  0.17104977  1
  Sb  Sb56  1  0.00228794  0.66753821  0.66474279  1
  Sb  Sb57  1  0.49628661  0.66537226  0.16245530  1
  Sb  Sb58  1  0.33356610  -0.00811581  0.33346991  1
  Sb  Sb59  1  0.83255131  0.33142766  0.16595113  1
  Sb  Sb60  1  0.66663319  0.00401301  0.33028496  1
  Sb  Sb61  1  0.66410145  0.66900044  0.66733014  1
  Sb  Sb62  1  0.82858478  0.16866627  0.34015001  1
  Sb  Sb63  1  0.83645242  0.00003100  0.16223956  1
  Sb  Sb64  1  -0.00532798  0.49680548  0.83312656  1
  Sb  Sb65  1  -0.00609886  0.16542099  0.49997710  1
  Sb  Sb66  1  0.84026607  0.49970152  0.33164865  1
  Sb  Sb67  1  0.66747274  0.66570646  0.33457273  1
  Sb  Sb68  1  0.16241840  0.16397586  0.66965345  1
  Sb  Sb69  1  0.83237877  0.16534562  -0.00703792  1
  Sb  Sb70  1  0.50528618  0.83455888  -0.00141127  1
  Sb  Sb71  1  0.49610827  0.50203652  0.33380834  1
  Sb  Sb72  1  0.49998916  0.66934551  0.50523267  1
  Sb  Sb73  1  0.33857320  0.16673165  0.83457371  1
  Sb  Sb74  1  0.15973712  0.33293897  0.49925685  1
  Sb  Sb75  1  0.67247708  0.66673329  -0.00090029  1
  Sb  Sb76  1  0.34057767  0.50144469  0.82874421  1
  Sb  Sb77  1  0.67021954  0.33000583  0.66716306  1
  Sb  Sb78  1  0.33612311  0.83180160  0.83024789  1
  Sb  Sb79  1  0.66922142  0.83711807  0.83166486  1
  Sb  Sb80  1  0.49933279  0.00278402  0.16276305  1
  Sb  Sb81  1  0.33110319  0.33888606  0.66884660  1
  Sb  Sb82  1  0.33517258  0.16392241  0.16481216  1
  Sb  Sb83  1  0.33008976  -0.00664612  0.66537832  1
  Sb  Sb84  1  0.33923001  0.16304856  0.50006606  1
  Sb  Sb85  1  0.83401611  0.83225673  0.33872536  1
  Sb  Sb86  1  0.16775906  0.16497282  0.32907247  1
  Sb  Sb87  1  0.16200812  0.66700325  0.83547106  1
  Sb  Sb88  1  0.33310521  0.33857120  0.33044899  1
  Sb  Sb89  1  0.16298411  0.33317216  0.83445870  1
  Sb  Sb90  1  0.50362142  0.33246922  0.83792514  1
  Sb  Sb91  1  -0.00340459  0.83732693  0.82839079  1
  Sb  Sb92  1  0.67073351  0.49735144  0.16180533  1
  Sb  Sb93  1  0.32825076  0.50342556  0.17007412  1
  Sb  Sb94  1  0.16246198  0.49548078  0.00070152  1
  Sb  Sb95  1  0.33311632  0.00310271  0.00088180  1
  Sb  Sb96  1  0.00037104  -0.00061959  0.33491068  1
  Sb  Sb97  1  0.50515314  0.33223108  0.49666058  1
  Sb  Sb98  1  0.67075298  0.49903368  0.50352480  1
  Sb  Sb99  1  0.32947173  0.66326926  0.00009324  1
  Sb  Sb100  1  0.16129712  0.67343288  0.49295211  1
  Sb  Sb101  1  0.50456972  -0.00293734  0.50575135  1
  Sb  Sb102  1  0.16118937  0.00016441  0.83308206  1
  Sb  Sb103  1  0.67360294  0.00111633  0.67137986  1
  Sb  Sb104  1  0.83392066  0.50149909  0.66988317  1
  Sb  Sb105  1  0.83908537  0.66804487  0.16552726  1
  Sb  Sb106  1  0.16489366  0.33271977  0.16568080  1
  Sb  Sb107  1  0.83345531  0.32974571  0.83152857  1
  Te  Te108  1  0.16507310  0.16226330  0.16346251  1
  Te  Te109  1  0.16974979  0.15858513  0.49930952  1
  Te  Te110  1  0.16443309  0.16549438  0.83935270  1
  Te  Te111  1  0.16156707  0.50333812  0.16924767  1
  Te  Te112  1  0.16317181  0.49797062  0.50053142  1
  Te  Te113  1  0.16759751  0.50143117  0.82489587  1
  Te  Te114  1  0.16683588  0.83380736  0.16795046  1
  Te  Te115  1  0.16549503  0.83396109  0.49928614  1
  Te  Te116  1  0.16743546  0.83361185  0.82338870  1
  Te  Te117  1  0.50273923  0.16785301  0.16476161  1
  Te  Te118  1  0.50609942  0.16454531  0.50156862  1
  Te  Te119  1  0.50454545  0.16461165  0.83387749  1
  Te  Te120  1  0.49979516  0.49659592  0.16317022  1
  Te  Te121  1  0.50109490  0.50062100  0.50426945  1
  Te  Te122  1  0.50455808  0.50100341  0.83363407  1
  Te  Te123  1  0.50041182  0.83407555  0.16784232  1
  Te  Te124  1  0.50264412  0.83375102  0.50094528  1
  Te  Te125  1  0.50263880  0.83266244  0.82924030  1
  Te  Te126  1  0.83147439  0.16487944  0.17113790  1
  Te  Te127  1  0.82917569  0.16772160  0.50594520  1
  Te  Te128  1  0.83126210  0.16360068  0.82696096  1
  Te  Te129  1  0.83976837  0.50052177  0.15827892  1
  Te  Te130  1  0.83748578  0.49873472  0.50172583  1
  Te  Te131  1  0.82804180  0.50486694  0.83638556  1
  Te  Te132  1  0.82719327  0.83467927  0.16487496  1
  Te  Te133  1  0.83388537  0.83328827  0.50119299  1
  Te  Te134  1  0.83245679  0.83360387  0.83181103  1
  Te  Te135  1  0.16269921  0.00471401  0.00145083  1
  Te  Te136  1  0.16660167  -0.00383738  0.33312380  1
  Te  Te137  1  0.16049368  -0.00397477  0.66459683  1
  Te  Te138  1  0.15536583  0.32738673  0.00075685  1
  Te  Te139  1  0.16292171  0.33625942  0.33228861  1
  Te  Te140  1  0.16157810  0.33475697  0.66692019  1
  Te  Te141  1  0.16084652  0.66678041  0.00437710  1
  Te  Te142  1  0.16560795  0.66786186  0.33204371  1
  Te  Te143  1  0.16993141  0.66838063  0.66978910  1
  Te  Te144  1  0.50158092  0.00352999  -0.00505933  1
  Te  Te145  1  0.50039534  -0.00141041  0.33405267  1
  Te  Te146  1  0.49785721  0.00019610  0.67104781  1
  Te  Te147  1  0.50524439  0.33306101  0.00116501  1
  Te  Te148  1  0.50157142  0.33208942  0.32850668  1
  Te  Te149  1  0.49902503  0.33175904  0.66600230  1
  Te  Te150  1  0.49876516  0.66383172  -0.00675470  1
  Te  Te151  1  0.49804817  0.67158941  0.33171647  1
  Te  Te152  1  0.49813757  0.66722718  0.67047818  1
  Te  Te153  1  0.83358431  -0.00263560  -0.00285735  1
  Te  Te154  1  0.83402303  0.00049249  0.34329443  1
  Te  Te155  1  0.83640108  -0.00146076  0.66878672  1
  Te  Te156  1  0.83376713  0.33800827  -0.00116661  1
  Te  Te157  1  0.83488267  0.33417615  0.33779742  1
  Te  Te158  1  0.83773555  0.33365190  0.66339767  1
  Te  Te159  1  0.83735815  0.66888976  -0.00119911  1
  Te  Te160  1  0.83875397  0.66579616  0.33787910  1
  Te  Te161  1  0.83392120  0.67068970  0.66794894  1
  Te  Te162  1  -0.00503503  0.16603487  0.00067305  1
  Te  Te163  1  0.00158090  0.17193861  0.32765593  1
  Te  Te164  1  -0.00121397  0.16692575  0.66724484  1
  Te  Te165  1  -0.00103775  0.50051770  -0.00011128  1
  Te  Te166  1  0.00160395  0.49947864  0.33348432  1
  Te  Te167  1  0.00210145  0.49716225  0.66457465  1
  Te  Te168  1  -0.00439228  0.83270490  0.00043389  1
  Te  Te169  1  0.00354414  0.83117345  0.33889392  1
  Te  Te170  1  -0.00147226  0.83455808  0.66246355  1
  Te  Te171  1  0.33723303  0.17140494  0.00022766  1
  Te  Te172  1  0.34253383  0.16899146  0.33318099  1
  Te  Te173  1  0.33788866  0.16870933  0.66687511  1
  Te  Te174  1  0.33349733  0.49446646  0.00092443  1
  Te  Te175  1  0.32754943  0.50629463  0.33840242  1
  Te  Te176  1  0.33438647  0.50298652  0.66212282  1
  Te  Te177  1  0.33167350  0.83292038  0.00400763  1
  Te  Te178  1  0.33397265  0.82971339  0.33511837  1
  Te  Te179  1  0.33751264  0.82883489  0.66350089  1
  Te  Te180  1  0.66891989  0.16646367  0.00032683  1
  Te  Te181  1  0.66286180  0.17000416  0.33342020  1
  Te  Te182  1  0.66688823  0.16668214  0.66493813  1
  Te  Te183  1  0.66666372  0.50028416  -0.00182856  1
  Te  Te184  1  0.66614321  0.49290712  0.33200247  1
  Te  Te185  1  0.66084360  0.49799491  0.67220244  1
  Te  Te186  1  0.67117882  0.83574861  0.00273057  1
  Te  Te187  1  0.66318527  0.83316798  0.33421094  1
  Te  Te188  1  0.66563560  0.83493920  0.66151805  1
  Te  Te189  1  0.00244148  0.00302363  0.16410443  1
  Te  Te190  1  -0.00169037  -0.00102171  0.50173042  1
  Te  Te191  1  -0.00389255  0.00349596  0.83390995  1
  Te  Te192  1  -0.00079704  0.33259360  0.16683111  1
  Te  Te193  1  -0.00403327  0.33269851  0.49967990  1
  Te  Te194  1  -0.00191735  0.32733934  0.83493375  1
  Te  Te195  1  0.00316326  0.66642185  0.16813463  1
  Te  Te196  1  -0.00340070  0.66591760  0.49910884  1
  Te  Te197  1  -0.00618249  0.66604057  0.83901146  1
  Te  Te198  1  0.32627611  -0.00693067  0.16589420  1
  Te  Te199  1  0.32768515  -0.00620241  0.50049185  1
  Te  Te200  1  0.34133123  -0.00042614  0.83352197  1
  Te  Te201  1  0.33751890  0.33414973  0.16269828  1
  Te  Te202  1  0.33329814  0.33799513  0.49967726  1
  Te  Te203  1  0.33145237  0.33399024  0.84241369  1
  Te  Te204  1  0.32836660  0.67116288  0.16815796  1
  Te  Te205  1  0.33530977  0.66745035  0.50061025  1
  Te  Te206  1  0.33702006  0.66680577  0.83111190  1
  Te  Te207  1  0.66685625  0.00132537  0.16117290  1
  Te  Te208  1  0.67120434  0.00052277  0.49771730  1
  Te  Te209  1  0.66963752  0.00274819  0.83782503  1
  Te  Te210  1  0.66603402  0.33106504  0.16615191  1
  Te  Te211  1  0.67219966  0.33069536  0.49634050  1
  Te  Te212  1  0.66858944  0.33082545  0.83843042  1
  Te  Te213  1  0.66616256  0.67339181  0.16756411  1
  Te  Te214  1  0.67515890  0.66952274  0.49943549  1
  Te  Te215  1  0.66845746  0.66445316  0.83361380  1
