# generated using pymatgen
data_AgSbTe2
_symmetry_space_group_name_H-M   'P 1'
_cell_length_a   18.33625075
_cell_length_b   18.33675392
_cell_length_c   18.33626422
_cell_angle_alpha   90.00226804
_cell_angle_beta   90.00310372
_cell_angle_gamma   89.99844017
_symmetry_Int_Tables_number   1
_chemical_formula_structural   AgSbTe2
_chemical_formula_sum   'Ag54 Sb54 Te108'
_cell_volume   6165.15292050
_cell_formula_units_Z   54
loop_
 _symmetry_equiv_pos_site_id
 _symmetry_equiv_pos_as_xyz
  1  'x, y, z'
loop_
 _atom_site_type_symbol
 _atom_site_label
 _atom_site_symmetry_multiplicity
 _atom_site_fract_x
 _atom_site_fract_y
 _atom_site_fract_z
 _atom_site_occupancy
  Ag  Ag0  1  0.83529976  0.51165176  0.67491346  1
  Ag  Ag1  1  0.66660688  0.16433250  0.16617161  1
  Ag  Ag2  1  0.33084581  0.82733205  0.16576136  1
  Ag  Ag3  1  0.49230894  0.50322423  -0.00544099  1
  Ag  Ag4  1  0.83778936  0.66911184  0.83609331  1
  Ag  Ag5  1  0.00081273  0.66983113  -0.00482588  1
  Ag  Ag6  1  0.32769729  0.16792186  0.49646473  1
  Ag  Ag7  1  -0.00153617  0.33044828  0.34121215  1
  Ag  Ag8  1  0.49441230  0.32998361  0.50031759  1
  Ag  Ag9  1  0.83859768  0.83386110  0.32880355  1
  Ag  Ag10  1  0.84029914  0.67338735  0.15194805  1
  Ag  Ag11  1  -0.00503739  0.00051864  0.66553930  1
  Ag  Ag12  1  0.67349193  0.32859882  0.33427306  1
  Ag  Ag13  1  0.83410419  0.83412817  0.67994577  1
  Ag  Ag14  1  0.16462551  0.33196599  0.50138925  1
  Ag  Ag15  1  0.16178986  -0.00018880  0.49871154  1
  Ag  Ag16  1  0.83496221  0.51342586  -0.00752916  1
  Ag  Ag17  1  0.84340040  0.66788354  0.50502800  1
  Ag  Ag18  1  0.50417933  0.16548734  0.33751821  1
  Ag  Ag19  1  0.16230463  0.82731815  0.32836158  1
  Ag  Ag20  1  -0.00211925  0.66557202  0.67307367  1
  Ag  Ag21  1  -0.00552882  0.50416897  0.83340837  1
  Ag  Ag22  1  -0.00080988  0.33441440  0.66232046  1
  Ag  Ag23  1  0.33097801  0.34730070  0.00162712  1
  Ag  Ag24  1  0.67415699  0.83383970  0.83671177  1
  Ag  Ag25  1  0.83215493  0.15610703  0.66425414  1
  Ag  Ag26  1  0.33273712  0.51118475  0.16016113  1
  Ag  Ag27  1  -0.00703185  -0.00785100  -0.00111012  1
  Ag  Ag28  1  0.16468169  0.34150341  0.83199026  1
  Ag  Ag29  1  0.50086476  0.83544163  0.33269570  1
  Ag  Ag30  1  -0.00260047  -0.00417410  0.33682846  1
  Ag  Ag31  1  0.68668945  0.67163929  -0.00303087  1
  Ag  Ag32  1  0.00178169  0.67195607  0.33524366  1
  Ag  Ag33  1  0.31464192  0.66540335  0.00585998  1
  Ag  Ag34  1  0.31918334  0.67104365  0.32459108  1
  Ag  Ag35  1  0.83704002  0.82792071  -0.00268301  1
  Ag  Ag36  1  0.32977987  -0.00503901  0.00295687  1
  Ag  Ag37  1  0.83408355  -0.00785610  0.15654743  1
  Ag  Ag38  1  0.16492237  0.66918628  0.15944140  1
  Ag  Ag39  1  0.68002171  0.00320293  0.67428294  1
  Ag  Ag40  1  0.16870699  0.51363345  -0.00254121  1
  Ag  Ag41  1  0.67581060  0.50463436  0.83675295  1
  Ag  Ag42  1  0.15850322  0.82615297  0.00349819  1
  Ag  Ag43  1  0.33678883  0.16439135  0.16931102  1
  Ag  Ag44  1  0.67717752  -0.00662083  -0.00607857  1
  Ag  Ag45  1  0.83253309  -0.00888884  0.83656750  1
  Ag  Ag46  1  0.50605833  0.17038462  0.65950822  1
  Ag  Ag47  1  0.50487462  0.49857384  0.67221975  1
  Ag  Ag48  1  0.32239779  0.66592593  0.66808730  1
  Ag  Ag49  1  0.15730134  0.66333853  0.84668933  1
  Ag  Ag50  1  0.00226391  0.16633793  0.49989603  1
  Ag  Ag51  1  0.67008092  0.16295176  0.83423785  1
  Ag  Ag52  1  0.83445255  0.15999614  0.33672488  1
  Ag  Ag53  1  0.16227849  0.66720211  0.49664606  1
  Sb  Sb54  1  -0.00698572  0.82538542  0.83520910  1
  Sb  Sb55  1  0.00228639  0.50413236  0.16101905  1
  Sb  Sb56  1  0.32978672  0.33410365  0.33117234  1
  Sb  Sb57  1  0.33745315  0.16656769  0.83295555  1
  Sb  Sb58  1  0.49997198  0.16960142  0.00083689  1
  Sb  Sb59  1  0.16247071  -0.00684844  0.16833288  1
  Sb  Sb60  1  0.15684205  -0.00463836  0.83307065  1
  Sb  Sb61  1  0.83991008  -0.00358724  0.50306454  1
  Sb  Sb62  1  0.00075481  0.50041183  0.50592483  1
  Sb  Sb63  1  0.50535433  0.83274605  0.66242050  1
  Sb  Sb64  1  0.16544587  0.50786672  0.32880739  1
  Sb  Sb65  1  0.33172387  0.49807481  0.49829858  1
  Sb  Sb66  1  0.67013345  0.16615222  0.50002196  1
  Sb  Sb67  1  0.67407484  0.00342611  0.33259706  1
  Sb  Sb68  1  0.49673613  0.66242322  0.50071070  1
  Sb  Sb69  1  0.83185683  0.16216679  -0.00075250  1
  Sb  Sb70  1  -0.00587210  0.17032064  0.82664570  1
  Sb  Sb71  1  0.50341748  0.00023607  0.16624367  1
  Sb  Sb72  1  0.67143812  0.83390762  0.50275670  1
  Sb  Sb73  1  0.33025552  0.33739529  0.66858502  1
  Sb  Sb74  1  0.33081553  0.83486506  0.49471731  1
  Sb  Sb75  1  0.83733585  0.33512413  0.50121370  1
  Sb  Sb76  1  0.16779367  0.16427277  0.00104943  1
  Sb  Sb77  1  -0.00170789  0.16405410  0.17248540  1
  Sb  Sb78  1  0.83536817  0.50382650  0.33263742  1
  Sb  Sb79  1  0.49466366  0.00704634  0.49947954  1
  Sb  Sb80  1  0.33076567  0.50285284  0.83876030  1
  Sb  Sb81  1  0.32982458  -0.00283473  0.66955082  1
  Sb  Sb82  1  0.67567797  0.66849997  0.67461085  1
  Sb  Sb83  1  0.33671643  0.83059928  0.84128507  1
  Sb  Sb84  1  0.16330679  0.50290681  0.67304220  1
  Sb  Sb85  1  0.83366876  0.33316991  0.16775768  1
  Sb  Sb86  1  0.16820060  0.33868176  0.16735939  1
  Sb  Sb87  1  0.15954682  0.82875594  0.66874249  1
  Sb  Sb88  1  0.83698526  0.33778891  0.83136668  1
  Sb  Sb89  1  0.51039983  0.00089818  0.83453280  1
  Sb  Sb90  1  0.49930871  0.49853482  0.33248817  1
  Sb  Sb91  1  0.00417952  0.33687124  -0.00240778  1
  Sb  Sb92  1  0.32824163  -0.00354434  0.32880795  1
  Sb  Sb93  1  0.66852975  0.83651374  0.16210305  1
  Sb  Sb94  1  0.67087163  0.33023591  0.66434625  1
  Sb  Sb95  1  0.16309933  0.16766809  0.66431066  1
  Sb  Sb96  1  0.66360426  0.33468755  0.00128905  1
  Sb  Sb97  1  0.66422462  0.49895506  0.15910076  1
  Sb  Sb98  1  0.00024951  0.83422460  0.49798562  1
  Sb  Sb99  1  0.66779416  0.49927144  0.50583058  1
  Sb  Sb100  1  0.50327733  0.66467021  0.83462965  1
  Sb  Sb101  1  0.49858957  0.33235585  0.17066700  1
  Sb  Sb102  1  0.67289150  0.66494731  0.32653757  1
  Sb  Sb103  1  0.16417817  0.16257746  0.33550551  1
  Sb  Sb104  1  0.00090573  0.83053875  0.16612584  1
  Sb  Sb105  1  0.49521156  0.66705964  0.16516381  1
  Sb  Sb106  1  0.49722988  0.33530819  0.82933653  1
  Sb  Sb107  1  0.50168918  0.82851415  0.00435922  1
  Te  Te108  1  0.17419328  0.16614064  0.16798211  1
  Te  Te109  1  0.16562462  0.16793942  0.49986679  1
  Te  Te110  1  0.16727770  0.17001029  0.83237604  1
  Te  Te111  1  0.17173951  0.50540292  0.15965673  1
  Te  Te112  1  0.16788548  0.49903127  0.50054296  1
  Te  Te113  1  0.16526935  0.50255778  0.83744649  1
  Te  Te114  1  0.17117242  0.82979647  0.16595374  1
  Te  Te115  1  0.16755196  0.83262182  0.49789138  1
  Te  Te116  1  0.16887981  0.82683336  0.83922392  1
  Te  Te117  1  0.50078003  0.16646228  0.17167668  1
  Te  Te118  1  0.49964948  0.17032042  0.49881218  1
  Te  Te119  1  0.50618652  0.16782588  0.82642824  1
  Te  Te120  1  0.49466959  0.49926152  0.16082720  1
  Te  Te121  1  0.49984013  0.49311629  0.50524346  1
  Te  Te122  1  0.50540824  0.49868382  0.83270356  1
  Te  Te123  1  0.49378555  0.83397585  0.17330817  1
  Te  Te124  1  0.49961067  0.83360062  0.49279847  1
  Te  Te125  1  0.51042400  0.83319383  0.83184868  1
  Te  Te126  1  0.83076970  0.16526170  0.17124826  1
  Te  Te127  1  0.83826304  0.16710113  0.49907213  1
  Te  Te128  1  0.82898947  0.16699566  0.82982621  1
  Te  Te129  1  0.83233927  0.50544429  0.16269170  1
  Te  Te130  1  0.83286806  0.50663091  0.50570574  1
  Te  Te131  1  0.83393390  0.49962030  0.83221649  1
  Te  Te132  1  0.83220945  0.83320161  0.16668674  1
  Te  Te133  1  0.83326872  0.82691052  0.49116682  1
  Te  Te134  1  0.83097238  0.83212647  0.83680755  1
  Te  Te135  1  0.16474326  -0.00530709  -0.00043058  1
  Te  Te136  1  0.16043608  -0.00636909  0.33639619  1
  Te  Te137  1  0.16018242  -0.00289079  0.66295079  1
  Te  Te138  1  0.17067176  0.33219911  -0.00174275  1
  Te  Te139  1  0.16164433  0.33456142  0.33755977  1
  Te  Te140  1  0.16228176  0.33493687  0.66566678  1
  Te  Te141  1  0.16001189  0.66909050  0.00253330  1
  Te  Te142  1  0.16362252  0.66848042  0.33603128  1
  Te  Te143  1  0.16326239  0.66707161  0.65801305  1
  Te  Te144  1  0.49548995  -0.00073884  -0.00027120  1
  Te  Te145  1  0.50138044  0.00230235  0.33381193  1
  Te  Te146  1  0.49830135  0.00342161  0.66687235  1
  Te  Te147  1  0.49418718  0.33891244  -0.00070721  1
  Te  Te148  1  0.49816253  0.32985996  0.33843241  1
  Te  Te149  1  0.49888715  0.33293711  0.66253792  1
  Te  Te150  1  0.49664702  0.66153152  -0.00029955  1
  Te  Te151  1  0.50262245  0.66946922  0.33383884  1
  Te  Te152  1  0.49849037  0.66269550  0.66635491  1
  Te  Te153  1  0.83411563  0.00083738  -0.00097064  1
  Te  Te154  1  0.83699409  -0.00034140  0.33627601  1
  Te  Te155  1  0.83622374  -0.00178773  0.66466077  1
  Te  Te156  1  0.83400264  0.33731518  0.00077089  1
  Te  Te157  1  0.83548416  0.33222726  0.33441531  1
  Te  Te158  1  0.83898517  0.33085282  0.66526897  1
  Te  Te159  1  0.84181898  0.66834427  -0.00318917  1
  Te  Te160  1  0.83631481  0.66910138  0.33788171  1
  Te  Te161  1  0.83557102  0.67008679  0.66847851  1
  Te  Te162  1  0.00064633  0.16411817  0.00056139  1
  Te  Te163  1  -0.00271106  0.16485460  0.33693631  1
  Te  Te164  1  -0.00323346  0.16562441  0.66223141  1
  Te  Te165  1  0.00023200  0.50034125  -0.00455788  1
  Te  Te166  1  -0.00068147  0.49922116  0.33292272  1
  Te  Te167  1  -0.00260673  0.50303461  0.67144899  1
  Te  Te168  1  -0.00156664  0.83410406  0.00034529  1
  Te  Te169  1  -0.00036771  0.83277427  0.33182152  1
  Te  Te170  1  -0.00621844  0.83342760  0.66622864  1
  Te  Te171  1  0.33509981  0.15931661  0.00259349  1
  Te  Te172  1  0.33538281  0.16592087  0.33449226  1
  Te  Te173  1  0.33799904  0.16639149  0.66305407  1
  Te  Te174  1  0.33165522  0.50472384  0.00031905  1
  Te  Te175  1  0.33438515  0.50634036  0.32633937  1
  Te  Te176  1  0.33770616  0.50495484  0.66720726  1
  Te  Te177  1  0.33580129  0.83056594  0.00465817  1
  Te  Te178  1  0.33021925  0.83070538  0.32924423  1
  Te  Te179  1  0.33525173  0.82725388  0.66755055  1
  Te  Te180  1  0.66452979  0.16496768  0.00091362  1
  Te  Te181  1  0.66839045  0.16794973  0.33245808  1
  Te  Te182  1  0.66920366  0.16542769  0.66671011  1
  Te  Te183  1  0.67048447  0.50019097  -0.00351307  1
  Te  Te184  1  0.66596488  0.49204479  0.33133976  1
  Te  Te185  1  0.66853193  0.49902187  0.67258723  1
  Te  Te186  1  0.66847173  0.83380448  -0.00246965  1
  Te  Te187  1  0.66738220  0.83439131  0.33270859  1
  Te  Te188  1  0.67144904  0.83829040  0.67111579  1
  Te  Te189  1  -0.00551821  0.00123939  0.16568643  1
  Te  Te190  1  0.00292950  0.00394634  0.49984553  1
  Te  Te191  1  -0.00606756  0.00327052  0.83240971  1
  Te  Te192  1  0.00135242  0.33316372  0.17467096  1
  Te  Te193  1  0.00242501  0.33225840  0.50138089  1
  Te  Te194  1  0.00578403  0.33760421  0.83006920  1
  Te  Te195  1  0.00029759  0.66482731  0.17021514  1
  Te  Te196  1  0.00094332  0.66549978  0.49741944  1
  Te  Te197  1  -0.00084326  0.66414407  0.83226727  1
  Te  Te198  1  0.33259041  0.00353696  0.16349322  1
  Te  Te199  1  0.32521873  0.00625655  0.50071351  1
  Te  Te200  1  0.33023237  -0.00053603  0.83934313  1
  Te  Te201  1  0.33267636  0.32620768  0.16250032  1
  Te  Te202  1  0.32961483  0.32966861  0.50002729  1
  Te  Te203  1  0.32584931  0.33259373  0.83869851  1
  Te  Te204  1  0.33188275  0.66763284  0.16604193  1
  Te  Te205  1  0.32922051  0.66631928  0.50050706  1
  Te  Te206  1  0.33002960  0.66743574  0.83279742  1
  Te  Te207  1  0.67240177  0.00404326  0.16343591  1
  Te  Te208  1  0.66310588  -0.00022654  0.50871508  1
  Te  Te209  1  0.67160151  0.00191056  0.83430621  1
  Te  Te210  1  0.66623531  0.32678985  0.17222926  1
  Te  Te211  1  0.66288700  0.33343191  0.49415937  1
  Te  Te212  1  0.66605335  0.33024040  0.83325312  1
  Te  Te213  1  0.67284839  0.66666144  0.15824094  1
  Te  Te214  1  0.66866430  0.66568942  0.49848474  1
  Te  Te215  1  0.66978383  0.66481874  0.83865478  1
