# generated using pymatgen
data_AgSbTe2
_symmetry_space_group_name_H-M   'P 1'
_cell_length_a   18.32139300
_cell_length_b   18.32424724
_cell_length_c   18.32321861
_cell_angle_alpha   89.99905983
_cell_angle_beta   90.00030883
_cell_angle_gamma   90.00332790
_symmetry_Int_Tables_number   1
_chemical_formula_structural   AgSbTe2
_chemical_formula_sum   'Ag54 Sb54 Te108'
_cell_volume   6151.57602843
_cell_formula_units_Z   54
loop_
 _symmetry_equiv_pos_site_id
 _symmetry_equiv_pos_as_xyz
  1  'x, y, z'
loop_
 _atom_site_type_symbol
 _atom_site_label
 _atom_site_symmetry_multiplicity
 _atom_site_fract_x
 _atom_site_fract_y
 _atom_site_fract_z
 _atom_site_occupancy
  Ag  Ag0  1  0.83057328  0.83717480  0.66601117  1
  Ag  Ag1  1  0.48722882  0.00069440  0.50465499  1
  Ag  Ag2  1  0.33864372  0.16382548  0.83481241  1
  Ag  Ag3  1  0.83973090  0.16146990  0.32658657  1
  Ag  Ag4  1  0.16818591  0.00129640  0.83469315  1
  Ag  Ag5  1  0.17229203  0.00150742  0.49650395  1
  Ag  Ag6  1  0.16865707  0.16184180  0.33397062  1
  Ag  Ag7  1  0.50690778  0.32958996  0.83378140  1
  Ag  Ag8  1  0.66868699  0.66371556  0.67040374  1
  Ag  Ag9  1  0.50296790  0.66151186  0.83356757  1
  Ag  Ag10  1  0.66790005  0.66745019  0.33260024  1
  Ag  Ag11  1  0.00889971  0.49794036  0.16624568  1
  Ag  Ag12  1  0.32962312  0.50167124  0.16774478  1
  Ag  Ag13  1  0.66971597  0.33486556  0.67357083  1
  Ag  Ag14  1  -0.00372787  0.32666741  -0.00313596  1
  Ag  Ag15  1  0.00789206  0.00455197  0.00375897  1
  Ag  Ag16  1  0.83273888  0.84068609  0.33253198  1
  Ag  Ag17  1  0.33370725  0.15859828  0.16893112  1
  Ag  Ag18  1  -0.00494834  0.65680615  0.66869976  1
  Ag  Ag19  1  0.16918573  -0.00235985  0.16695690  1
  Ag  Ag20  1  0.66070563  0.17339864  0.82989493  1
  Ag  Ag21  1  0.32988578  0.00250426  0.65578973  1
  Ag  Ag22  1  0.82826423  0.33210603  0.83294669  1
  Ag  Ag23  1  0.33538060  0.83865847  0.16410493  1
  Ag  Ag24  1  0.32749190  -0.00195617  0.00318597  1
  Ag  Ag25  1  0.83296589  0.16601587  -0.00069793  1
  Ag  Ag26  1  0.84203388  0.00523988  0.16863656  1
  Ag  Ag27  1  0.83454515  0.16572187  0.67060384  1
  Ag  Ag28  1  0.15944093  0.50249074  0.66460321  1
  Ag  Ag29  1  0.17478207  0.67075723  0.16602526  1
  Ag  Ag30  1  0.17511540  0.83869934  0.00350203  1
  Ag  Ag31  1  0.33248912  0.32102113  0.32793241  1
  Ag  Ag32  1  0.50013630  0.16563169  0.67344092  1
  Ag  Ag33  1  0.82621625  0.65961008  0.83017988  1
  Ag  Ag34  1  0.00432855  0.16530893  0.50194947  1
  Ag  Ag35  1  0.50072543  0.83640007  0.67176805  1
  Ag  Ag36  1  0.66888393  0.49365388  0.82890897  1
  Ag  Ag37  1  0.16586927  0.49616675  0.33209853  1
  Ag  Ag38  1  0.49260119  0.83651767  -0.00074055  1
  Ag  Ag39  1  0.65848103  0.83250644  0.16744011  1
  Ag  Ag40  1  0.33542654  0.67907758  0.00399369  1
  Ag  Ag41  1  0.00800566  0.00397387  0.33205726  1
  Ag  Ag42  1  0.49151943  0.66736376  0.15945818  1
  Ag  Ag43  1  0.00460447  0.49331666  0.51160834  1
  Ag  Ag44  1  0.32937457  0.15774952  0.49718757  1
  Ag  Ag45  1  0.49676965  0.16358336  -0.00707156  1
  Ag  Ag46  1  -0.00529565  0.33556465  0.67216444  1
  Ag  Ag47  1  0.33522276  0.84503796  0.49377648  1
  Ag  Ag48  1  0.32563461  0.00409601  0.34103160  1
  Ag  Ag49  1  -0.00282934  0.49705484  0.82813403  1
  Ag  Ag50  1  0.00532129  0.00404341  0.66485961  1
  Ag  Ag51  1  0.49790647  0.49873885  0.67054318  1
  Ag  Ag52  1  0.83263456  0.32432227  0.15998067  1
  Ag  Ag53  1  0.49776378  0.33402219  0.15948892  1
  Sb  Sb54  1  0.16843835  0.15955456  0.00417005  1
  Sb  Sb55  1  0.16738739  0.50353613  0.00204011  1
  Sb  Sb56  1  0.66487626  0.16378272  0.16310657  1
  Sb  Sb57  1  0.66951993  0.33121189  -0.00687610  1
  Sb  Sb58  1  0.49850649  0.67060944  0.50280345  1
  Sb  Sb59  1  0.66238751  0.83400330  0.49864428  1
  Sb  Sb60  1  0.83248048  0.84017691  -0.00049675  1
  Sb  Sb61  1  0.00289239  0.32896164  0.33221836  1
  Sb  Sb62  1  0.66284924  0.00080857  0.00068453  1
  Sb  Sb63  1  -0.00269137  0.66904722  0.33597822  1
  Sb  Sb64  1  0.83941538  0.49816277  0.33067203  1
  Sb  Sb65  1  0.33488127  0.84077665  0.83762895  1
  Sb  Sb66  1  0.33456803  0.67102382  0.32546764  1
  Sb  Sb67  1  0.66560829  0.00026306  0.66782407  1
  Sb  Sb68  1  0.83595476  0.49750557  0.66966154  1
  Sb  Sb69  1  0.66586296  0.16569792  0.50563519  1
  Sb  Sb70  1  0.16897631  0.83487153  0.66963377  1
  Sb  Sb71  1  0.66954837  0.50120338  0.50799853  1
  Sb  Sb72  1  0.66462845  0.33564321  0.33504386  1
  Sb  Sb73  1  0.83503376  0.66806243  0.50760399  1
  Sb  Sb74  1  0.00319995  0.66785747  -0.00303243  1
  Sb  Sb75  1  0.16615686  0.16475458  0.66250014  1
  Sb  Sb76  1  0.33548631  0.67108543  0.67258699  1
  Sb  Sb77  1  0.00216744  0.16720916  0.16881043  1
  Sb  Sb78  1  0.49426405  0.50048264  0.33521994  1
  Sb  Sb79  1  0.49324722  0.00459332  0.83064104  1
  Sb  Sb80  1  0.83673968  0.49364607  -0.00276500  1
  Sb  Sb81  1  0.00300725  0.83483686  0.16655525  1
  Sb  Sb82  1  0.49217982  -0.00074571  0.16705640  1
  Sb  Sb83  1  0.16620728  0.32660584  0.50005506  1
  Sb  Sb84  1  0.66420669  0.50281834  0.16296880  1
  Sb  Sb85  1  0.16918560  0.66917481  0.83688374  1
  Sb  Sb86  1  0.83328626  0.66880406  0.16216545  1
  Sb  Sb87  1  0.16703925  0.67102798  0.49576794  1
  Sb  Sb88  1  0.16581598  0.32892970  0.83242507  1
  Sb  Sb89  1  0.16571951  0.83930137  0.32830293  1
  Sb  Sb90  1  0.66372409  0.83356972  0.83455975  1
  Sb  Sb91  1  0.00053052  0.16973907  0.83016904  1
  Sb  Sb92  1  0.49531038  0.16576899  0.33255342  1
  Sb  Sb93  1  0.32765316  0.49778977  0.49661003  1
  Sb  Sb94  1  -0.00102015  0.83184507  0.83113972  1
  Sb  Sb95  1  0.16774104  0.33175640  0.16737339  1
  Sb  Sb96  1  0.50087702  0.83413372  0.33031502  1
  Sb  Sb97  1  0.83920758  0.00501788  0.83461399  1
  Sb  Sb98  1  0.66058809  0.66852967  -0.00383906  1
  Sb  Sb99  1  0.49786196  0.49890165  -0.00466652  1
  Sb  Sb100  1  0.00463985  0.83909135  0.50194417  1
  Sb  Sb101  1  0.33357248  0.49527830  0.83569963  1
  Sb  Sb102  1  0.33315433  0.32714616  0.66503151  1
  Sb  Sb103  1  0.83734119  0.00197022  0.49760659  1
  Sb  Sb104  1  0.83603567  0.33116089  0.50387464  1
  Sb  Sb105  1  0.49747869  0.32785383  0.50482748  1
  Sb  Sb106  1  0.66742637  -0.00208024  0.33063385  1
  Sb  Sb107  1  0.33143386  0.32785013  0.00438727  1
  Te  Te108  1  0.17118960  0.16302438  0.17293394  1
  Te  Te109  1  0.16703574  0.16142744  0.49644266  1
  Te  Te110  1  0.17308706  0.16130158  0.83275749  1
  Te  Te111  1  0.16829269  0.49866226  0.16787988  1
  Te  Te112  1  0.16265111  0.50229028  0.49910577  1
  Te  Te113  1  0.16381726  0.49996740  0.82922440  1
  Te  Te114  1  0.16942561  0.83389706  0.16414406  1
  Te  Te115  1  0.17339253  0.83950620  0.50009168  1
  Te  Te116  1  0.16669204  0.83842437  0.84034425  1
  Te  Te117  1  0.49793908  0.16934031  0.16388509  1
  Te  Te118  1  0.49631811  0.16282537  0.50358833  1
  Te  Te119  1  0.49984290  0.16702310  0.83322774  1
  Te  Te120  1  0.49716525  0.50054855  0.16666481  1
  Te  Te121  1  0.49843405  0.49941332  0.50821297  1
  Te  Te122  1  0.49921839  0.49941860  0.82915362  1
  Te  Te123  1  0.49839544  0.83241531  0.16432127  1
  Te  Te124  1  0.49510365  0.83707880  0.50370321  1
  Te  Te125  1  0.50098901  0.82870618  0.83373248  1
  Te  Te126  1  0.83196047  0.16579259  0.16441480  1
  Te  Te127  1  0.83737359  0.16639612  0.50504086  1
  Te  Te128  1  0.83431012  0.17052192  0.83182134  1
  Te  Te129  1  0.83424030  0.49627600  0.16503438  1
  Te  Te130  1  0.84349132  0.49942604  0.49807013  1
  Te  Te131  1  0.83440875  0.49800128  0.83314128  1
  Te  Te132  1  0.83292983  0.83564904  0.16731209  1
  Te  Te133  1  0.83299177  0.83435883  0.50244020  1
  Te  Te134  1  0.83121024  0.83096084  0.82816328  1
  Te  Te135  1  0.16569249  -0.00083392  0.00422996  1
  Te  Te136  1  0.16639655  0.00008234  0.33020585  1
  Te  Te137  1  0.16718762  -0.00146599  0.66771580  1
  Te  Te138  1  0.15694381  0.33259763  -0.00087120  1
  Te  Te139  1  0.17071509  0.33171625  0.33371651  1
  Te  Te140  1  0.16253975  0.34110148  0.66648675  1
  Te  Te141  1  0.17094567  0.67294616  0.00494146  1
  Te  Te142  1  0.16534651  0.66350403  0.32706713  1
  Te  Te143  1  0.16440969  0.66470149  0.66734424  1
  Te  Te144  1  0.49509628  0.00102367  -0.00066941  1
  Te  Te145  1  0.49665538  0.00005357  0.33814312  1
  Te  Te146  1  0.49839902  0.00040566  0.66645000  1
  Te  Te147  1  0.49948727  0.32912558  -0.00077122  1
  Te  Te148  1  0.49632767  0.33426377  0.32791702  1
  Te  Te149  1  0.49954779  0.32935367  0.67034408  1
  Te  Te150  1  0.49627488  0.66640819  0.00000104  1
  Te  Te151  1  0.50631213  0.66603611  0.33055060  1
  Te  Te152  1  0.50064670  0.66909584  0.66941742  1
  Te  Te153  1  0.83741906  0.00473088  0.00285334  1
  Te  Te154  1  0.83388002  0.00133431  0.33164864  1
  Te  Te155  1  0.83621778  0.00058187  0.66595289  1
  Te  Te156  1  0.83615884  0.32782848  -0.00135691  1
  Te  Te157  1  0.83221980  0.32746366  0.32946928  1
  Te  Te158  1  0.83384616  0.32968540  0.66990505  1
  Te  Te159  1  0.83374682  0.66962571  -0.00882829  1
  Te  Te160  1  0.82885444  0.66996128  0.33253239  1
  Te  Te161  1  0.83349668  0.66837549  0.67098512  1
  Te  Te162  1  -0.00236313  0.16553309  -0.00047783  1
  Te  Te163  1  -0.00022024  0.16419053  0.33591913  1
  Te  Te164  1  -0.00006703  0.16555286  0.66442551  1
  Te  Te165  1  0.00186382  0.49887608  0.00177406  1
  Te  Te166  1  0.00573763  0.49999834  0.32835264  1
  Te  Te167  1  -0.00039924  0.49879630  0.66798013  1
  Te  Te168  1  0.00185499  0.83979004  -0.00090982  1
  Te  Te169  1  -0.00724593  0.83846105  0.33460623  1
  Te  Te170  1  -0.00338906  0.83822665  0.66543628  1
  Te  Te171  1  0.33493976  0.16384019  0.00292770  1
  Te  Te172  1  0.33383562  0.16401941  0.33138825  1
  Te  Te173  1  0.33345052  0.16338179  0.66466554  1
  Te  Te174  1  0.33240065  0.50001587  0.00700639  1
  Te  Te175  1  0.32728856  0.50121303  0.32939030  1
  Te  Te176  1  0.33539328  0.49995034  0.66595799  1
  Te  Te177  1  0.33569154  0.83622383  0.00108559  1
  Te  Te178  1  0.33309446  0.83860139  0.33017356  1
  Te  Te179  1  0.33723247  0.83880206  0.66822405  1
  Te  Te180  1  0.66554252  0.16572142  -0.00547754  1
  Te  Te181  1  0.67473724  0.16863040  0.33548789  1
  Te  Te182  1  0.66701527  0.16783706  0.66927519  1
  Te  Te183  1  0.66669966  0.50098410  -0.00982463  1
  Te  Te184  1  0.66739880  0.50509660  0.33624773  1
  Te  Te185  1  0.66364293  0.50174767  0.67049713  1
  Te  Te186  1  0.66074071  0.83414344  0.00663516  1
  Te  Te187  1  0.67106031  0.83032419  0.32997422  1
  Te  Te188  1  0.66605566  0.82968364  0.66647470  1
  Te  Te189  1  0.00142027  0.00013180  0.16804142  1
  Te  Te190  1  0.00353576  0.00408259  0.50056187  1
  Te  Te191  1  0.00590933  0.00058524  0.83073067  1
  Te  Te192  1  -0.00382498  0.33551314  0.16501792  1
  Te  Te193  1  0.00038803  0.33136780  0.50465036  1
  Te  Te194  1  -0.00036478  0.33572675  0.83313526  1
  Te  Te195  1  0.00251721  0.66093830  0.16630325  1
  Te  Te196  1  0.00189294  0.66324205  0.50659773  1
  Te  Te197  1  0.00068421  0.66152429  0.82895204  1
  Te  Te198  1  0.33276943  -0.00071913  0.16424091  1
  Te  Te199  1  0.33027438  0.00108470  0.49916767  1
  Te  Te200  1  0.32924369  0.00539096  0.83881234  1
  Te  Te201  1  0.33535004  0.33355375  0.16773367  1
  Te  Te202  1  0.33329072  0.32861186  0.49176987  1
  Te  Te203  1  0.33761693  0.32654828  0.83438633  1
  Te  Te204  1  0.33409443  0.66844602  0.16512206  1
  Te  Te205  1  0.33289093  0.67190174  0.49942000  1
  Te  Te206  1  0.33799160  0.66426730  0.84110889  1
  Te  Te207  1  0.67363159  -0.00502876  0.16646003  1
  Te  Te208  1  0.65716332  -0.00005417  0.49886133  1
  Te  Te209  1  0.66909171  0.00738221  0.83398162  1
  Te  Te210  1  0.66593051  0.33438897  0.16720288  1
  Te  Te211  1  0.66633639  0.33453191  0.51017698  1
  Te  Te212  1  0.66694581  0.33366394  0.83043080  1
  Te  Te213  1  0.66517233  0.66893891  0.16756272  1
  Te  Te214  1  0.66696444  0.66633694  0.50194807  1
  Te  Te215  1  0.66457027  0.66713550  0.83008184  1
