# generated using pymatgen
data_AgSbTe2
_symmetry_space_group_name_H-M   'P 1'
_cell_length_a   18.34226806
_cell_length_b   18.33730124
_cell_length_c   18.33542434
_cell_angle_alpha   89.99715733
_cell_angle_beta   89.99946177
_cell_angle_gamma   89.99862879
_symmetry_Int_Tables_number   1
_chemical_formula_structural   AgSbTe2
_chemical_formula_sum   'Ag54 Sb54 Te108'
_cell_volume   6167.07769964
_cell_formula_units_Z   54
loop_
 _symmetry_equiv_pos_site_id
 _symmetry_equiv_pos_as_xyz
  1  'x, y, z'
loop_
 _atom_site_type_symbol
 _atom_site_label
 _atom_site_symmetry_multiplicity
 _atom_site_fract_x
 _atom_site_fract_y
 _atom_site_fract_z
 _atom_site_occupancy
  Ag  Ag0  1  0.66960770  0.48806679  0.83509444  1
  Ag  Ag1  1  0.66801309  0.84280583  0.49864443  1
  Ag  Ag2  1  0.50065430  0.01279406  0.84207566  1
  Ag  Ag3  1  0.17431160  0.32780377  0.50595371  1
  Ag  Ag4  1  0.15896704  0.00373098  0.16980821  1
  Ag  Ag5  1  0.83801918  0.83400136  0.33443870  1
  Ag  Ag6  1  -0.00032842  0.84328961  0.17158562  1
  Ag  Ag7  1  0.49524306  0.32619496  0.15304326  1
  Ag  Ag8  1  0.17905278  0.33475486  0.83017981  1
  Ag  Ag9  1  0.49702117  0.16842150  -0.00456285  1
  Ag  Ag10  1  0.82938837  0.33357147  0.83358161  1
  Ag  Ag11  1  0.83270297  0.16509074  0.32037356  1
  Ag  Ag12  1  0.33850783  0.01462627  0.00223406  1
  Ag  Ag13  1  -0.00251436  0.67761983  0.32688577  1
  Ag  Ag14  1  0.67854748  0.66538077  0.33434619  1
  Ag  Ag15  1  -0.00109549  -0.00354018  0.32685809  1
  Ag  Ag16  1  0.83023087  0.49333284  -0.00540102  1
  Ag  Ag17  1  -0.00358316  0.49981936  0.83614502  1
  Ag  Ag18  1  0.32937444  0.65841983  0.00187836  1
  Ag  Ag19  1  0.18249610  0.16625355  0.00065591  1
  Ag  Ag20  1  0.49848911  0.32808799  0.50603566  1
  Ag  Ag21  1  0.82835069  0.16990088  -0.00118448  1
  Ag  Ag22  1  0.66385166  0.16851869  0.50347865  1
  Ag  Ag23  1  0.83215349  0.49976869  0.32739082  1
  Ag  Ag24  1  0.66141134  0.00731533  0.00183996  1
  Ag  Ag25  1  -0.00207284  0.82895432  0.83662159  1
  Ag  Ag26  1  0.33502206  0.48605274  0.15776437  1
  Ag  Ag27  1  0.15842973  0.65715053  0.83723599  1
  Ag  Ag28  1  0.66388563  0.32868170  0.67133651  1
  Ag  Ag29  1  -0.00377481  0.16273855  0.16487497  1
  Ag  Ag30  1  0.34043383  0.32948988  0.68006188  1
  Ag  Ag31  1  0.66151369  0.17109035  0.83566765  1
  Ag  Ag32  1  0.49357671  0.32626476  0.83425263  1
  Ag  Ag33  1  0.83441724  0.84121332  0.66576980  1
  Ag  Ag34  1  -0.00202650  0.00507728  0.66592468  1
  Ag  Ag35  1  0.83857654  0.65634186  0.83634267  1
  Ag  Ag36  1  0.83962216  0.00626229  0.16835626  1
  Ag  Ag37  1  0.34461014  0.16971290  0.15945453  1
  Ag  Ag38  1  0.66291842  0.16504926  0.15331151  1
  Ag  Ag39  1  0.66746126  0.49111280  0.50409748  1
  Ag  Ag40  1  -0.00299587  0.32690225  0.67254110  1
  Ag  Ag41  1  0.50733098  0.17024063  0.68137821  1
  Ag  Ag42  1  0.33442317  0.33436758  0.32460156  1
  Ag  Ag43  1  0.50099982  0.01197521  0.49888253  1
  Ag  Ag44  1  0.82795204  0.16810583  0.67186497  1
  Ag  Ag45  1  0.49379173  0.48606240  -0.00167981  1
  Ag  Ag46  1  0.50010349  0.00932844  0.15914718  1
  Ag  Ag47  1  0.00191861  0.66561101  -0.00362371  1
  Ag  Ag48  1  0.33063462  0.66163203  0.32580191  1
  Ag  Ag49  1  0.15649020  0.83596053  0.33274823  1
  Ag  Ag50  1  0.16717021  0.00631740  0.49288393  1
  Ag  Ag51  1  0.33617288  0.32902616  -0.00516068  1
  Ag  Ag52  1  0.33689983  0.48773704  0.84107576  1
  Ag  Ag53  1  0.34992970  0.17839723  0.84771336  1
  Sb  Sb54  1  0.33713941  0.83556361  0.49660867  1
  Sb  Sb55  1  0.33932914  0.49389337  0.49910284  1
  Sb  Sb56  1  -0.00395459  0.16568678  0.49866313  1
  Sb  Sb57  1  0.66854889  0.66221730  0.66418481  1
  Sb  Sb58  1  0.50291319  0.49699417  0.32877158  1
  Sb  Sb59  1  0.33865208  0.16914958  0.49847540  1
  Sb  Sb60  1  -0.00260974  0.66725297  0.67243035  1
  Sb  Sb61  1  0.50165393  0.48819275  0.67354519  1
  Sb  Sb62  1  0.16634390  0.16922816  0.67072410  1
  Sb  Sb63  1  0.50023849  0.65950577  0.83608600  1
  Sb  Sb64  1  0.32830397  0.83406657  0.83460766  1
  Sb  Sb65  1  0.49893075  0.84187178  -0.00114968  1
  Sb  Sb66  1  0.33294278  0.65775673  0.67169040  1
  Sb  Sb67  1  0.67278173  0.84125253  0.17054425  1
  Sb  Sb68  1  0.83275800  0.00199953  0.49616100  1
  Sb  Sb69  1  0.33187902  0.00797789  0.67127314  1
  Sb  Sb70  1  0.33027503  0.00368801  0.32729698  1
  Sb  Sb71  1  -0.00482541  0.83618043  0.49644911  1
  Sb  Sb72  1  0.67148972  0.01033678  0.66850452  1
  Sb  Sb73  1  0.16451113  0.83783724  0.00344871  1
  Sb  Sb74  1  0.00212093  0.33064917  0.33647289  1
  Sb  Sb75  1  0.00003162  0.00081469  0.00272060  1
  Sb  Sb76  1  0.83561198  0.83554585  0.00060469  1
  Sb  Sb77  1  -0.00233021  0.16933547  0.83714813  1
  Sb  Sb78  1  0.16607518  0.66738757  0.50013998  1
  Sb  Sb79  1  0.16283863  0.16322780  0.32808383  1
  Sb  Sb80  1  0.50265493  0.66275638  0.49772286  1
  Sb  Sb81  1  0.66804781  0.66698468  0.00304651  1
  Sb  Sb82  1  0.67164370  0.00110034  0.33072874  1
  Sb  Sb83  1  0.00196504  0.49786123  0.16152193  1
  Sb  Sb84  1  0.49754821  0.66553088  0.16442452  1
  Sb  Sb85  1  -0.00555730  0.49719723  0.50342790  1
  Sb  Sb86  1  0.50311983  0.83464323  0.33270097  1
  Sb  Sb87  1  0.50525482  0.16856269  0.32733515  1
  Sb  Sb88  1  0.17171606  0.49525130  -0.00239249  1
  Sb  Sb89  1  0.82927971  0.33186623  0.50517376  1
  Sb  Sb90  1  0.83096611  0.00533525  0.83760788  1
  Sb  Sb91  1  0.83197255  0.49504258  0.67338639  1
  Sb  Sb92  1  0.66444054  0.33363268  0.33852959  1
  Sb  Sb93  1  0.65792796  0.32520733  -0.00919328  1
  Sb  Sb94  1  0.83288768  0.66703462  0.49958808  1
  Sb  Sb95  1  0.82668012  0.32612247  0.16043906  1
  Sb  Sb96  1  0.16581450  0.49571535  0.67067251  1
  Sb  Sb97  1  0.50721159  0.84699409  0.66650637  1
  Sb  Sb98  1  0.16395020  0.50277433  0.33309014  1
  Sb  Sb99  1  0.16624838  0.67112186  0.16180952  1
  Sb  Sb100  1  0.16810306  0.00433575  0.83661498  1
  Sb  Sb101  1  0.15965698  0.83727788  0.66341618  1
  Sb  Sb102  1  0.83443301  0.66921287  0.16527800  1
  Sb  Sb103  1  0.67323797  0.83581092  0.82897719  1
  Sb  Sb104  1  0.17409073  0.32514750  0.16301375  1
  Sb  Sb105  1  0.32888658  0.83872135  0.16644235  1
  Sb  Sb106  1  0.00350235  0.33498254  -0.00566561  1
  Sb  Sb107  1  0.66329422  0.49242132  0.16250264  1
  Te  Te108  1  0.16131837  0.16232457  0.16250964  1
  Te  Te109  1  0.16699558  0.16661016  0.49968532  1
  Te  Te110  1  0.16590791  0.17080158  0.83863587  1
  Te  Te111  1  0.17425021  0.49923088  0.16682557  1
  Te  Te112  1  0.16656836  0.49486191  0.50111098  1
  Te  Te113  1  0.16483929  0.49755566  0.83478909  1
  Te  Te114  1  0.16100681  0.83904396  0.17159242  1
  Te  Te115  1  0.16839162  0.83683503  0.49493253  1
  Te  Te116  1  0.15983444  0.83360190  0.83212262  1
  Te  Te117  1  0.50285856  0.16678093  0.16684373  1
  Te  Te118  1  0.50307902  0.16908466  0.49311960  1
  Te  Te119  1  0.50272671  0.16697651  0.83557467  1
  Te  Te120  1  0.49520999  0.49670577  0.15969177  1
  Te  Te121  1  0.50734970  0.49501233  0.50104823  1
  Te  Te122  1  0.50159101  0.49642226  0.83866684  1
  Te  Te123  1  0.50189576  0.84212004  0.16661509  1
  Te  Te124  1  0.50736108  0.83505412  0.50061568  1
  Te  Te125  1  0.50118039  0.83669337  0.83138409  1
  Te  Te126  1  0.83057768  0.16549052  0.16410123  1
  Te  Te127  1  0.82821245  0.16659871  0.50888670  1
  Te  Te128  1  0.83247538  0.16935700  0.83322258  1
  Te  Te129  1  0.83250061  0.49829707  0.16617787  1
  Te  Te130  1  0.82683307  0.49967118  0.49447655  1
  Te  Te131  1  0.83175094  0.49826693  0.83411540  1
  Te  Te132  1  0.83918476  0.83803432  0.17106516  1
  Te  Te133  1  0.82825911  0.83417909  0.49867940  1
  Te  Te134  1  0.83790804  0.83489837  0.83111664  1
  Te  Te135  1  0.17055685  0.00500087  0.00446113  1
  Te  Te136  1  0.16382653  -0.00238531  0.33247588  1
  Te  Te137  1  0.16142487  0.00135878  0.66252423  1
  Te  Te138  1  0.17110796  0.32742748  -0.00427028  1
  Te  Te139  1  0.17027941  0.33421553  0.33746661  1
  Te  Te140  1  0.16444325  0.33214636  0.66837731  1
  Te  Te141  1  0.16438757  0.66772422  -0.00411149  1
  Te  Te142  1  0.16521788  0.67100602  0.33343289  1
  Te  Te143  1  0.16636914  0.66828281  0.67428217  1
  Te  Te144  1  0.49905925  0.00305420  0.00053444  1
  Te  Te145  1  0.49876357  -0.00042757  0.33953439  1
  Te  Te146  1  0.49930546  0.00993025  0.66079545  1
  Te  Te147  1  0.49762918  0.33029171  -0.00360781  1
  Te  Te148  1  0.49477231  0.33428300  0.34188888  1
  Te  Te149  1  0.50092130  0.32900948  0.66892086  1
  Te  Te150  1  0.49746581  0.66670400  0.00044224  1
  Te  Te151  1  0.49215070  0.66595069  0.33174619  1
  Te  Te152  1  0.49929592  0.67067400  0.66641932  1
  Te  Te153  1  0.83035199  0.00317727  0.00524771  1
  Te  Te154  1  0.83724506  0.00157680  0.33047895  1
  Te  Te155  1  0.83763563  0.00175563  0.66636696  1
  Te  Te156  1  0.83580557  0.33457671  -0.00396420  1
  Te  Te157  1  0.83380108  0.33137364  0.33365817  1
  Te  Te158  1  0.83323183  0.33008232  0.66991062  1
  Te  Te159  1  0.83547781  0.66603948  -0.00324348  1
  Te  Te160  1  0.83651592  0.66841199  0.33268667  1
  Te  Te161  1  0.83293807  0.67044830  0.67222811  1
  Te  Te162  1  -0.01186011  0.16664639  0.00434437  1
  Te  Te163  1  -0.00622469  0.16288646  0.32989088  1
  Te  Te164  1  -0.00346488  0.16618028  0.66730213  1
  Te  Te165  1  -0.00370949  0.50420546  -0.00318157  1
  Te  Te166  1  -0.00574849  0.50078121  0.33293115  1
  Te  Te167  1  -0.00119152  0.49548228  0.67209167  1
  Te  Te168  1  0.00011608  0.82816294  -0.00052458  1
  Te  Te169  1  -0.00241153  0.83575436  0.33351038  1
  Te  Te170  1  -0.00541488  0.83494208  0.66724530  1
  Te  Te171  1  0.33723716  0.16938930  0.00172910  1
  Te  Te172  1  0.33102468  0.17147719  0.32716974  1
  Te  Te173  1  0.33600241  0.17096644  0.66796542  1
  Te  Te174  1  0.33353542  0.49886956  -0.00116806  1
  Te  Te175  1  0.33276316  0.50001396  0.33172979  1
  Te  Te176  1  0.33450036  0.49182222  0.67334201  1
  Te  Te177  1  0.33216351  0.82008838  -0.00046958  1
  Te  Te178  1  0.33127723  0.82863024  0.33261658  1
  Te  Te179  1  0.33356642  0.83178470  0.66571038  1
  Te  Te180  1  0.66832711  0.16564681  -0.00329986  1
  Te  Te181  1  0.67486214  0.16646282  0.34121056  1
  Te  Te182  1  0.66650518  0.16903180  0.66831699  1
  Te  Te183  1  0.66970289  0.50330146  -0.00366379  1
  Te  Te184  1  0.67049628  0.50339043  0.33036771  1
  Te  Te185  1  0.66687687  0.49506939  0.66825616  1
  Te  Te186  1  0.66677485  0.84035695  0.00012329  1
  Te  Te187  1  0.67046192  0.82921687  0.33733687  1
  Te  Te188  1  0.67371409  0.83205313  0.66029294  1
  Te  Te189  1  -0.00050556  0.00089513  0.16556333  1
  Te  Te190  1  0.00432115  -0.00012288  0.50101613  1
  Te  Te191  1  0.00000843  -0.00385622  0.83081220  1
  Te  Te192  1  0.00100030  0.32840237  0.16756728  1
  Te  Te193  1  0.00640260  0.33372564  0.50613868  1
  Te  Te194  1  -0.00652034  0.33618627  0.83094335  1
  Te  Te195  1  0.00051522  0.66666249  0.16628078  1
  Te  Te196  1  0.00163417  0.66500460  0.49222520  1
  Te  Te197  1  -0.00132642  0.66472895  0.83365887  1
  Te  Te198  1  0.33658925  0.00365835  0.16307399  1
  Te  Te199  1  0.33276208  0.00085834  0.50005894  1
  Te  Te200  1  0.33700774  0.00139006  0.83897596  1
  Te  Te201  1  0.33560016  0.33019476  0.16600313  1
  Te  Te202  1  0.33418909  0.33376102  0.49898107  1
  Te  Te203  1  0.33394540  0.33236476  0.83497996  1
  Te  Te204  1  0.33288599  0.66843611  0.16618293  1
  Te  Te205  1  0.33313420  0.66429765  0.49694999  1
  Te  Te206  1  0.33121683  0.66420111  0.83672338  1
  Te  Te207  1  0.66428873  0.00497846  0.16496768  1
  Te  Te208  1  0.66386596  0.00266663  0.50039183  1
  Te  Te209  1  0.66233332  0.00284016  0.83656432  1
  Te  Te210  1  0.65825789  0.32619543  0.17036161  1
  Te  Te211  1  0.66381343  0.33142960  0.50478056  1
  Te  Te212  1  0.66871881  0.33154575  0.83199533  1
  Te  Te213  1  0.66524718  0.66753615  0.17393509  1
  Te  Te214  1  0.66612772  0.66157194  0.49434747  1
  Te  Te215  1  0.67164328  0.66649341  0.83313760  1
