# generated using pymatgen
data_AgSbTe2
_symmetry_space_group_name_H-M   'P 1'
_cell_length_a   18.33912920
_cell_length_b   18.33569204
_cell_length_c   18.33190888
_cell_angle_alpha   90.00459458
_cell_angle_beta   90.00167819
_cell_angle_gamma   89.99754827
_symmetry_Int_Tables_number   1
_chemical_formula_structural   AgSbTe2
_chemical_formula_sum   'Ag54 Sb54 Te108'
_cell_volume   6164.29911589
_cell_formula_units_Z   54
loop_
 _symmetry_equiv_pos_site_id
 _symmetry_equiv_pos_as_xyz
  1  'x, y, z'
loop_
 _atom_site_type_symbol
 _atom_site_label
 _atom_site_symmetry_multiplicity
 _atom_site_fract_x
 _atom_site_fract_y
 _atom_site_fract_z
 _atom_site_occupancy
  Ag  Ag0  1  0.32236417  0.65795957  0.33265986  1
  Ag  Ag1  1  0.49927118  0.66944175  0.49499904  1
  Ag  Ag2  1  0.32647043  0.00937585  0.00200643  1
  Ag  Ag3  1  0.16407458  -0.00404023  0.50053482  1
  Ag  Ag4  1  0.17040505  0.50919721  0.32690485  1
  Ag  Ag5  1  0.33948622  0.33645207  0.00369792  1
  Ag  Ag6  1  0.34081147  0.33060526  0.66512631  1
  Ag  Ag7  1  0.16317787  0.16913139  0.00380532  1
  Ag  Ag8  1  0.16426543  0.82045175  0.33656679  1
  Ag  Ag9  1  0.66290113  0.32742214  0.66912643  1
  Ag  Ag10  1  0.00156451  0.83474945  0.84351323  1
  Ag  Ag11  1  0.66093299  0.33683306  0.00258612  1
  Ag  Ag12  1  0.17057907  0.49797298  0.01033016  1
  Ag  Ag13  1  0.50172077  0.82484068  0.00324994  1
  Ag  Ag14  1  0.83281211  0.50125621  0.32216780  1
  Ag  Ag15  1  0.82726311  0.49504476  0.00997841  1
  Ag  Ag16  1  0.49637745  0.50195684  0.32610380  1
  Ag  Ag17  1  0.66557291  0.17019885  0.82523965  1
  Ag  Ag18  1  0.66701723  0.66350390  0.32588001  1
  Ag  Ag19  1  -0.00459636  0.82205818  0.16749573  1
  Ag  Ag20  1  0.84362593  0.65716571  0.16865628  1
  Ag  Ag21  1  0.50815672  0.00013372  0.50104443  1
  Ag  Ag22  1  0.66880184  0.83770632  0.49588299  1
  Ag  Ag23  1  0.83264578  0.49659911  0.66463412  1
  Ag  Ag24  1  0.67162824  0.00885427  0.65947656  1
  Ag  Ag25  1  0.83629612  -0.00105507  0.16929159  1
  Ag  Ag26  1  0.33312778  0.34064854  0.32674788  1
  Ag  Ag27  1  0.82948493  0.34654394  0.16721047  1
  Ag  Ag28  1  0.16789522  0.67589979  0.48737512  1
  Ag  Ag29  1  -0.00070557  0.16555938  0.16416006  1
  Ag  Ag30  1  -0.00131385  -0.00292737  0.66163188  1
  Ag  Ag31  1  0.01139408  0.66652747  0.32288813  1
  Ag  Ag32  1  0.83084921  0.00322800  0.49720000  1
  Ag  Ag33  1  0.67560754  0.50615062  0.16487270  1
  Ag  Ag34  1  0.00637388  0.83552261  0.49604503  1
  Ag  Ag35  1  -0.00234326  0.66992084  0.01144225  1
  Ag  Ag36  1  0.50514495  0.16984578  0.66265120  1
  Ag  Ag37  1  0.82984874  0.33103876  0.49527889  1
  Ag  Ag38  1  0.67332982  0.82154968  0.17015629  1
  Ag  Ag39  1  0.16290966  0.84119864  0.65473405  1
  Ag  Ag40  1  0.66980067  0.65474675  0.00984268  1
  Ag  Ag41  1  0.16634848  0.16820951  0.33209622  1
  Ag  Ag42  1  0.16988766  0.16326446  0.65828088  1
  Ag  Ag43  1  0.83633019  0.17224298  0.00557523  1
  Ag  Ag44  1  0.33335369  0.16689569  0.50142283  1
  Ag  Ag45  1  0.49999764  0.33428853  0.84314417  1
  Ag  Ag46  1  0.15535676  0.66158981  0.17341925  1
  Ag  Ag47  1  0.50068196  0.49746830  0.00948488  1
  Ag  Ag48  1  -0.01084409  0.51028404  0.16595993  1
  Ag  Ag49  1  0.66449297  0.16019809  0.50382687  1
  Ag  Ag50  1  0.33397890  0.49644712  0.84823905  1
  Ag  Ag51  1  0.33472328  0.49869795  0.16681113  1
  Ag  Ag52  1  0.50432646  0.33877034  0.16191791  1
  Ag  Ag53  1  0.00141985  -0.00379094  0.00424653  1
  Sb  Sb54  1  0.16649565  0.34216355  0.16717425  1
  Sb  Sb55  1  0.50064206  0.17256126  -0.00258850  1
  Sb  Sb56  1  0.66270380  0.49401448  0.84182629  1
  Sb  Sb57  1  0.00298201  0.50498135  0.84333033  1
  Sb  Sb58  1  0.17377206  0.33289033  0.83586101  1
  Sb  Sb59  1  0.00097640  -0.00638482  0.33113128  1
  Sb  Sb60  1  0.50391091  0.65690810  0.17105586  1
  Sb  Sb61  1  0.16529923  0.33116736  0.49756476  1
  Sb  Sb62  1  0.33354332  0.49420168  0.49283893  1
  Sb  Sb63  1  0.00343677  0.34018996  0.32989730  1
  Sb  Sb64  1  0.49655011  0.17283675  0.33862960  1
  Sb  Sb65  1  -0.00300448  0.16226508  0.83794407  1
  Sb  Sb66  1  0.83382210  0.66716337  0.49228213  1
  Sb  Sb67  1  0.50285075  0.33286372  0.49778595  1
  Sb  Sb68  1  0.50045979  0.00611935  0.83066820  1
  Sb  Sb69  1  0.66808134  0.50016864  0.49457585  1
  Sb  Sb70  1  0.32723678  0.17343640  0.16826959  1
  Sb  Sb71  1  0.16490402  0.49782089  0.66430561  1
  Sb  Sb72  1  0.33056781  0.00155251  0.33110106  1
  Sb  Sb73  1  0.49790769  0.82549136  0.33044415  1
  Sb  Sb74  1  0.83752062  0.82648116  0.33114364  1
  Sb  Sb75  1  0.00076708  0.15982452  0.49613476  1
  Sb  Sb76  1  0.49969599  0.66083240  0.83390838  1
  Sb  Sb77  1  0.16605685  0.66690428  0.83760195  1
  Sb  Sb78  1  0.83122096  0.16814045  0.66690923  1
  Sb  Sb79  1  0.83424871  0.00065767  0.83391835  1
  Sb  Sb80  1  -0.00235815  0.32762691  0.66416073  1
  Sb  Sb81  1  0.16625286  0.00049373  0.82965907  1
  Sb  Sb82  1  0.83737587  0.17244620  0.32950760  1
  Sb  Sb83  1  0.33214971  0.65977815  0.65759758  1
  Sb  Sb84  1  0.83307672  0.66380993  0.84320504  1
  Sb  Sb85  1  0.33231004  0.82682370  0.16694697  1
  Sb  Sb86  1  0.32907764  0.82924638  0.83599711  1
  Sb  Sb87  1  0.83231238  0.83186550  0.00554587  1
  Sb  Sb88  1  0.66817663  -0.00590010  0.33930145  1
  Sb  Sb89  1  0.33671338  0.17278510  0.83135271  1
  Sb  Sb90  1  0.66427160  0.33881940  0.33091294  1
  Sb  Sb91  1  -0.00139575  0.33441962  0.00355818  1
  Sb  Sb92  1  0.33282957  0.65907036  0.00850907  1
  Sb  Sb93  1  0.16559558  0.83251467  0.00471968  1
  Sb  Sb94  1  0.00058631  0.67184179  0.66367083  1
  Sb  Sb95  1  0.33089890  0.83748608  0.49941585  1
  Sb  Sb96  1  0.50241103  0.49319523  0.66599895  1
  Sb  Sb97  1  0.50516479  0.00310956  0.16929356  1
  Sb  Sb98  1  0.83799992  0.83213933  0.66163166  1
  Sb  Sb99  1  -0.00079763  0.50686172  0.49212424  1
  Sb  Sb100  1  0.67023600  0.83787037  0.83448267  1
  Sb  Sb101  1  0.16131781  -0.00248362  0.16971970  1
  Sb  Sb102  1  0.82648313  0.33270630  0.83817784  1
  Sb  Sb103  1  0.67270573  0.17044859  0.16756115  1
  Sb  Sb104  1  0.66939090  0.00386086  -0.00134208  1
  Sb  Sb105  1  0.33169778  0.00680649  0.66623663  1
  Sb  Sb106  1  0.66784010  0.66509022  0.66370801  1
  Sb  Sb107  1  0.49675003  0.83893061  0.66649621  1
  Te  Te108  1  0.16238160  0.16595006  0.16426751  1
  Te  Te109  1  0.16620953  0.16569034  0.50052366  1
  Te  Te110  1  0.16638328  0.16661243  0.84030294  1
  Te  Te111  1  0.16832864  0.50038902  0.16747982  1
  Te  Te112  1  0.16519954  0.50287431  0.49460798  1
  Te  Te113  1  0.17186049  0.50052888  0.83587056  1
  Te  Te114  1  0.16415199  0.82930971  0.17188639  1
  Te  Te115  1  0.16804132  0.83487220  0.49726876  1
  Te  Te116  1  0.16084014  0.83268385  0.82986923  1
  Te  Te117  1  0.50038322  0.17300607  0.16883041  1
  Te  Te118  1  0.50087726  0.16514302  0.50311967  1
  Te  Te119  1  0.50437298  0.17244197  0.82701000  1
  Te  Te120  1  0.49550098  0.49723072  0.16617990  1
  Te  Te121  1  0.50076562  0.50573922  0.49725817  1
  Te  Te122  1  0.49542311  0.49452558  0.83342540  1
  Te  Te123  1  0.50256844  0.83613822  0.16300650  1
  Te  Te124  1  0.50190116  0.83550626  0.49970127  1
  Te  Te125  1  0.50005237  0.83306921  0.83892886  1
  Te  Te126  1  0.83656062  0.15937184  0.16471464  1
  Te  Te127  1  0.83183536  0.16595802  0.49874505  1
  Te  Te128  1  0.82760483  0.16649432  0.84213390  1
  Te  Te129  1  0.83248434  0.50208461  0.16517282  1
  Te  Te130  1  0.83387496  0.49794900  0.50234338  1
  Te  Te131  1  0.83433831  0.49908082  0.83185437  1
  Te  Te132  1  0.83242163  0.83881188  0.16772057  1
  Te  Te133  1  0.82952884  0.83700863  0.49742121  1
  Te  Te134  1  0.84076356  0.83207117  0.83201186  1
  Te  Te135  1  0.16489916  0.00090296  0.00084662  1
  Te  Te136  1  0.16693330  0.00861473  0.33883005  1
  Te  Te137  1  0.16563461  0.00171945  0.66351572  1
  Te  Te138  1  0.17052568  0.33364671  0.00097279  1
  Te  Te139  1  0.17229974  0.32817699  0.33347189  1
  Te  Te140  1  0.16867101  0.32708498  0.66629936  1
  Te  Te141  1  0.16407385  0.66397422  0.00493905  1
  Te  Te142  1  0.16635447  0.66453963  0.33237180  1
  Te  Te143  1  0.16671132  0.66807887  0.66375977  1
  Te  Te144  1  0.49969769  0.00150459  -0.00007524  1
  Te  Te145  1  0.49824395  -0.00065210  0.34036509  1
  Te  Te146  1  0.50086408  0.00571243  0.66254065  1
  Te  Te147  1  0.50019588  0.33493779  0.00150327  1
  Te  Te148  1  0.49469742  0.33989039  0.33018410  1
  Te  Te149  1  0.50158626  0.32945041  0.66407380  1
  Te  Te150  1  0.50182113  0.66358387  -0.00165754  1
  Te  Te151  1  0.50595345  0.66269211  0.33664712  1
  Te  Te152  1  0.49961277  0.66774398  0.65950620  1
  Te  Te153  1  0.83764512  0.00299029  0.00191141  1
  Te  Te154  1  0.83448992  0.00215714  0.33576193  1
  Te  Te155  1  0.83493778  -0.00005329  0.66280744  1
  Te  Te156  1  0.83262143  0.33463669  0.00385560  1
  Te  Te157  1  0.83357842  0.33979542  0.33135343  1
  Te  Te158  1  0.82987653  0.33497778  0.66623892  1
  Te  Te159  1  0.83307183  0.66473087  0.00696907  1
  Te  Te160  1  0.82654567  0.66089757  0.32923039  1
  Te  Te161  1  0.83353043  0.65941566  0.66742502  1
  Te  Te162  1  0.00058047  0.16519252  0.00113701  1
  Te  Te163  1  0.00507906  0.16843548  0.32848825  1
  Te  Te164  1  0.00434311  0.15938922  0.66858619  1
  Te  Te165  1  0.00249527  0.50254127  0.00484633  1
  Te  Te166  1  0.00124026  0.50550851  0.32748250  1
  Te  Te167  1  -0.00299523  0.49901751  0.66852453  1
  Te  Te168  1  -0.00002399  0.83345221  0.00541488  1
  Te  Te169  1  0.00298851  0.82847198  0.33091061  1
  Te  Te170  1  0.00325907  0.83747218  0.65802208  1
  Te  Te171  1  0.33072450  0.16963171  -0.00015508  1
  Te  Te172  1  0.32887998  0.16889549  0.33673161  1
  Te  Te173  1  0.33050834  0.17026406  0.66534853  1
  Te  Te174  1  0.33347700  0.49816233  0.00474169  1
  Te  Te175  1  0.33268934  0.49866965  0.33242554  1
  Te  Te176  1  0.33268355  0.49158079  0.66543907  1
  Te  Te177  1  0.33770540  0.83404662  -0.00059189  1
  Te  Te178  1  0.32719279  0.83024394  0.33243810  1
  Te  Te179  1  0.32581631  0.83316787  0.66915999  1
  Te  Te180  1  0.66967301  0.17140041  -0.00021322  1
  Te  Te181  1  0.66588485  0.16695187  0.34096140  1
  Te  Te182  1  0.66932299  0.16752651  0.66376296  1
  Te  Te183  1  0.66617833  0.49763128  0.00233404  1
  Te  Te184  1  0.66664303  0.50243878  0.32842642  1
  Te  Te185  1  0.67045810  0.49601984  0.66777937  1
  Te  Te186  1  0.66340300  0.83520496  0.00065437  1
  Te  Te187  1  0.66576711  0.82804170  0.33219575  1
  Te  Te188  1  0.66602704  0.83559512  0.66404880  1
  Te  Te189  1  -0.00214209  0.00312875  0.16478716  1
  Te  Te190  1  0.00034645  -0.00412254  0.49929776  1
  Te  Te191  1  -0.00020309  -0.00544535  0.83613179  1
  Te  Te192  1  -0.00867545  0.32705899  0.16657204  1
  Te  Te193  1  -0.00977678  0.33350250  0.49845702  1
  Te  Te194  1  0.00027105  0.33445554  0.83193662  1
  Te  Te195  1  -0.00102524  0.66613199  0.16691855  1
  Te  Te196  1  0.00280136  0.67389897  0.49672353  1
  Te  Te197  1  0.00022784  0.67394726  0.83596608  1
  Te  Te198  1  0.33502062  0.00010702  0.16148471  1
  Te  Te199  1  0.32975713  0.00649720  0.49968470  1
  Te  Te200  1  0.33430324  -0.00127328  0.84314132  1
  Te  Te201  1  0.33388035  0.33705390  0.16613588  1
  Te  Te202  1  0.33336534  0.32720297  0.50215413  1
  Te  Te203  1  0.33917328  0.33696924  0.83499144  1
  Te  Te204  1  0.32965096  0.66161929  0.17285905  1
  Te  Te205  1  0.33302105  0.66709424  0.49345430  1
  Te  Te206  1  0.33349166  0.65804434  0.83054857  1
  Te  Te207  1  0.67219580  -0.00198144  0.16732704  1
  Te  Te208  1  0.66780149  -0.00083199  0.50111148  1
  Te  Te209  1  0.66659226  0.00617503  0.82514576  1
  Te  Te210  1  0.66795824  0.33537969  0.16446740  1
  Te  Te211  1  0.66997738  0.33247320  0.50169748  1
  Te  Te212  1  0.66133833  0.32966099  0.83236692  1
  Te  Te213  1  0.66313461  0.66612312  0.16497433  1
  Te  Te214  1  0.66532399  0.67127482  0.49886491  1
  Te  Te215  1  0.66565733  0.66846032  0.83911437  1
