# generated using pymatgen
data_AgSbTe2
_symmetry_space_group_name_H-M   'P 1'
_cell_length_a   18.35194601
_cell_length_b   18.34692503
_cell_length_c   18.34408021
_cell_angle_alpha   89.99984238
_cell_angle_beta   89.99878045
_cell_angle_gamma   89.99616065
_symmetry_Int_Tables_number   1
_chemical_formula_structural   AgSbTe2
_chemical_formula_sum   'Ag54 Sb54 Te108'
_cell_volume   6176.48439894
_cell_formula_units_Z   54
loop_
 _symmetry_equiv_pos_site_id
 _symmetry_equiv_pos_as_xyz
  1  'x, y, z'
loop_
 _atom_site_type_symbol
 _atom_site_label
 _atom_site_symmetry_multiplicity
 _atom_site_fract_x
 _atom_site_fract_y
 _atom_site_fract_z
 _atom_site_occupancy
  Ag  Ag0  1  0.17306770  0.00906918  0.82716315  1
  Ag  Ag1  1  0.50296440  0.66519062  0.16611434  1
  Ag  Ag2  1  0.50594230  0.01327206  0.50221796  1
  Ag  Ag3  1  0.67258090  0.84236813  0.49786634  1
  Ag  Ag4  1  0.65520682  0.33452519  -0.00550907  1
  Ag  Ag5  1  0.34057055  0.48953399  0.49399520  1
  Ag  Ag6  1  0.17249745  0.17052847  -0.00288155  1
  Ag  Ag7  1  0.32849040  0.33523158  0.33801343  1
  Ag  Ag8  1  0.82672684  0.00831470  0.50089108  1
  Ag  Ag9  1  -0.00170352  0.17141171  0.49801847  1
  Ag  Ag10  1  0.82734196  0.66681124  0.16492255  1
  Ag  Ag11  1  -0.00498606  0.83579600  0.17725300  1
  Ag  Ag12  1  0.17838799  0.48772436  0.33755857  1
  Ag  Ag13  1  0.17119840  0.17077374  0.34019530  1
  Ag  Ag14  1  0.49126267  0.17468233  0.00070301  1
  Ag  Ag15  1  0.16204166  0.83413870  0.34099095  1
  Ag  Ag16  1  0.33622922  0.49085049  0.17899007  1
  Ag  Ag17  1  0.83164308  0.17627622  0.65916823  1
  Ag  Ag18  1  0.17267345  0.16905391  0.66181240  1
  Ag  Ag19  1  0.49696172  0.00059214  0.82140108  1
  Ag  Ag20  1  0.34462731  0.17092689  0.49676436  1
  Ag  Ag21  1  0.16710822  0.32683366  0.83130051  1
  Ag  Ag22  1  0.50273108  0.49163905  0.00564223  1
  Ag  Ag23  1  0.00892831  0.33036833  0.34119810  1
  Ag  Ag24  1  0.48958120  0.17524043  0.34525667  1
  Ag  Ag25  1  0.66646273  0.48816271  0.50184521  1
  Ag  Ag26  1  0.83187579  0.32705092  0.50270914  1
  Ag  Ag27  1  -0.01104594  0.83492361  0.49897184  1
  Ag  Ag28  1  0.16628081  0.84027753  0.66287366  1
  Ag  Ag29  1  0.49273101  0.49365885  0.33555954  1
  Ag  Ag30  1  0.16919172  0.66622883  0.83122969  1
  Ag  Ag31  1  0.82424742  0.49782433  -0.00562979  1
  Ag  Ag32  1  0.82910475  0.66490706  0.82932313  1
  Ag  Ag33  1  0.33480006  0.33080418  0.65668889  1
  Ag  Ag34  1  0.00195109  0.33214868  0.00105469  1
  Ag  Ag35  1  0.83036537  0.83156872  0.65787426  1
  Ag  Ag36  1  -0.00280331  0.48928734  0.49866821  1
  Ag  Ag37  1  0.33558215  0.01155180  0.66457579  1
  Ag  Ag38  1  0.33699655  0.33197476  0.00264951  1
  Ag  Ag39  1  -0.00413827  0.33103574  0.65800460  1
  Ag  Ag40  1  0.00595857  0.16886464  0.17790141  1
  Ag  Ag41  1  0.33092055  0.17202178  0.17726928  1
  Ag  Ag42  1  0.49239829  0.16365255  0.65838010  1
  Ag  Ag43  1  0.83048909  0.49638734  0.66200561  1
  Ag  Ag44  1  0.66793907  0.66248248  0.66458236  1
  Ag  Ag45  1  0.33348024  0.65169195  0.33329516  1
  Ag  Ag46  1  0.83882082  0.83295703  0.34155866  1
  Ag  Ag47  1  0.66473435  -0.00066078  0.34056056  1
  Ag  Ag48  1  0.50066717  0.66711920  0.83188545  1
  Ag  Ag49  1  0.65937200  0.16828865  0.49982312  1
  Ag  Ag50  1  0.67252861  0.82990715  0.17769245  1
  Ag  Ag51  1  0.50352284  0.84344354  0.66408807  1
  Ag  Ag52  1  0.66945832  0.33364287  0.66051995  1
  Ag  Ag53  1  0.49723574  0.33014726  0.50249004  1
  Sb  Sb54  1  0.33391606  0.49762897  0.83029135  1
  Sb  Sb55  1  0.00417767  0.16988699  0.82742173  1
  Sb  Sb56  1  0.66315944  0.16673310  0.82362487  1
  Sb  Sb57  1  0.16926432  0.49287651  0.00217680  1
  Sb  Sb58  1  0.33301164  0.83269053  0.17200084  1
  Sb  Sb59  1  0.66631531  0.66318992  -0.00256628  1
  Sb  Sb60  1  -0.00076931  0.00247276  0.33880907  1
  Sb  Sb61  1  0.33532438  0.83651408  0.50207103  1
  Sb  Sb62  1  0.83477123  0.16483972  0.34178025  1
  Sb  Sb63  1  -0.00069413  0.66213791  0.00089617  1
  Sb  Sb64  1  0.16391460  0.49613133  0.66083823  1
  Sb  Sb65  1  0.83672055  0.33591419  0.82503603  1
  Sb  Sb66  1  -0.00105734  0.49779625  0.82881078  1
  Sb  Sb67  1  0.83166426  0.66667514  0.50200390  1
  Sb  Sb68  1  0.00085717  0.83304807  0.82794932  1
  Sb  Sb69  1  0.83096022  -0.00372511  0.82337059  1
  Sb  Sb70  1  0.33648316  0.00742180  0.33883278  1
  Sb  Sb71  1  0.00213837  0.66642199  0.33436692  1
  Sb  Sb72  1  -0.00411539  0.66407467  0.66591977  1
  Sb  Sb73  1  0.33389727  0.01082360  -0.00601319  1
  Sb  Sb74  1  0.49762422  0.33552283  0.17095277  1
  Sb  Sb75  1  0.66459973  0.33059375  0.33959741  1
  Sb  Sb76  1  0.33311104  0.16956366  0.82507971  1
  Sb  Sb77  1  0.83537954  0.33563731  0.17088629  1
  Sb  Sb78  1  0.16926254  0.00287981  0.50372345  1
  Sb  Sb79  1  0.33598679  0.66288336  0.66261888  1
  Sb  Sb80  1  0.66555612  0.83180555  0.82559871  1
  Sb  Sb81  1  0.83317222  0.82782309  0.00118529  1
  Sb  Sb82  1  0.66522431  0.00570046  0.00556523  1
  Sb  Sb83  1  0.16806027  0.66653537  0.16724787  1
  Sb  Sb84  1  0.66707182  0.49956206  0.82797238  1
  Sb  Sb85  1  0.33559040  0.65882733  0.00412196  1
  Sb  Sb86  1  0.83396085  0.17690619  -0.00365137  1
  Sb  Sb87  1  0.50056013  0.66302951  0.50007008  1
  Sb  Sb88  1  0.16942008  0.33013112  0.16603850  1
  Sb  Sb89  1  0.83195196  0.50277332  0.33760861  1
  Sb  Sb90  1  0.16807165  0.66741630  0.50009836  1
  Sb  Sb91  1  0.16789603  0.32942526  0.50362893  1
  Sb  Sb92  1  0.49971862  -0.00149726  0.16988554  1
  Sb  Sb93  1  0.49996975  0.83319300  0.33860290  1
  Sb  Sb94  1  0.50316589  0.49614217  0.66275641  1
  Sb  Sb95  1  0.66403674  0.66923633  0.33868872  1
  Sb  Sb96  1  0.66044657  0.00214411  0.65839559  1
  Sb  Sb97  1  0.66241548  0.50288134  0.17117043  1
  Sb  Sb98  1  0.49619404  0.33252693  0.82926653  1
  Sb  Sb99  1  0.16669478  0.00415471  0.16573230  1
  Sb  Sb100  1  0.83402979  -0.00355519  0.17315888  1
  Sb  Sb101  1  0.66476925  0.16582093  0.17385892  1
  Sb  Sb102  1  0.00060876  0.00660348  0.00090708  1
  Sb  Sb103  1  0.00445711  0.00481333  0.66293777  1
  Sb  Sb104  1  0.16495292  0.83856492  -0.00222207  1
  Sb  Sb105  1  0.50140343  0.83317770  -0.00396580  1
  Sb  Sb106  1  0.33330315  0.83404146  0.83306038  1
  Sb  Sb107  1  0.00330862  0.49728943  0.17246104  1
  Te  Te108  1  0.16566041  0.16515536  0.17026726  1
  Te  Te109  1  0.15758385  0.16286973  0.50076659  1
  Te  Te110  1  0.16671175  0.16720361  0.82969992  1
  Te  Te111  1  0.17230768  0.50205781  0.17435287  1
  Te  Te112  1  0.16106012  0.50331780  0.49443779  1
  Te  Te113  1  0.16603351  0.50417855  0.83405004  1
  Te  Te114  1  0.16151376  0.83493446  0.16756001  1
  Te  Te115  1  0.16844434  0.83593995  0.50224932  1
  Te  Te116  1  0.16634789  0.83064457  0.82893982  1
  Te  Te117  1  0.49879649  0.16588232  0.16051268  1
  Te  Te118  1  0.50119728  0.17012505  0.50082999  1
  Te  Te119  1  0.49967833  0.16366849  0.84036579  1
  Te  Te120  1  0.49772366  0.50180002  0.16778128  1
  Te  Te121  1  0.50087495  0.49691091  0.49684951  1
  Te  Te122  1  0.50020244  0.50403444  0.83833963  1
  Te  Te123  1  0.50298711  0.82930178  0.16626968  1
  Te  Te124  1  0.50260606  0.83145722  0.50614461  1
  Te  Te125  1  0.49958754  0.83273549  0.82758131  1
  Te  Te126  1  0.83603206  0.16528693  0.16581124  1
  Te  Te127  1  0.83940866  0.16727753  0.50138612  1
  Te  Te128  1  0.83286845  0.16420482  0.82279878  1
  Te  Te129  1  0.83409395  0.50493734  0.16675786  1
  Te  Te130  1  0.83299236  0.49941748  0.50288990  1
  Te  Te131  1  0.83340596  0.50514873  0.83253503  1
  Te  Te132  1  0.83368735  0.83088399  0.16735549  1
  Te  Te133  1  0.83128599  0.82903267  0.49972196  1
  Te  Te134  1  0.83306164  0.82715713  0.82993502  1
  Te  Te135  1  0.16681494  0.00837464  -0.00830443  1
  Te  Te136  1  0.16759168  -0.00145262  0.33351661  1
  Te  Te137  1  0.17048221  0.00022111  0.66877692  1
  Te  Te138  1  0.16685264  0.33039610  -0.00224865  1
  Te  Te139  1  0.16635749  0.33135768  0.33133864  1
  Te  Te140  1  0.16813131  0.33173122  0.67089081  1
  Te  Te141  1  0.16756307  0.66762590  -0.00591310  1
  Te  Te142  1  0.17161443  0.67373961  0.33160084  1
  Te  Te143  1  0.16720098  0.66739766  0.67246709  1
  Te  Te144  1  0.50091415  0.00228777  -0.00159471  1
  Te  Te145  1  0.50359704  0.00264777  0.33755193  1
  Te  Te146  1  0.49842571  0.00237013  0.66395165  1
  Te  Te147  1  0.49974571  0.33400251  -0.00291927  1
  Te  Te148  1  0.49946505  0.33301384  0.33656248  1
  Te  Te149  1  0.49914111  0.32932119  0.66447958  1
  Te  Te150  1  0.50014384  0.66656236  -0.00098651  1
  Te  Te151  1  0.49626023  0.66513904  0.32970681  1
  Te  Te152  1  0.50311402  0.66418988  0.67084476  1
  Te  Te153  1  0.83251619  0.00126059  -0.00479991  1
  Te  Te154  1  0.82902662  -0.00505956  0.33879668  1
  Te  Te155  1  0.83541533  -0.00605118  0.66235426  1
  Te  Te156  1  0.83794070  0.33982239  -0.00126285  1
  Te  Te157  1  0.83592354  0.33425626  0.34074062  1
  Te  Te158  1  0.83361070  0.33485869  0.66384446  1
  Te  Te159  1  0.83292567  0.65960408  -0.00205059  1
  Te  Te160  1  0.83349144  0.67219128  0.32557138  1
  Te  Te161  1  0.83114580  0.66674098  0.66885208  1
  Te  Te162  1  0.00108971  0.17176020  0.00102126  1
  Te  Te163  1  0.00083262  0.16838051  0.33451493  1
  Te  Te164  1  0.00151844  0.17101055  0.66265542  1
  Te  Te165  1  0.00003408  0.49398204  0.00298549  1
  Te  Te166  1  0.00053708  0.49583118  0.33803644  1
  Te  Te167  1  -0.00348611  0.49459212  0.66106728  1
  Te  Te168  1  -0.00043008  0.83421744  0.00296182  1
  Te  Te169  1  0.00012175  0.83326991  0.33469315  1
  Te  Te170  1  0.00171163  0.83267693  0.66276012  1
  Te  Te171  1  0.33176110  0.17048898  0.00135283  1
  Te  Te172  1  0.33254655  0.16909359  0.33533058  1
  Te  Te173  1  0.33350376  0.16980904  0.66387126  1
  Te  Te174  1  0.33759878  0.49383882  0.00104070  1
  Te  Te175  1  0.33451800  0.49593110  0.33536290  1
  Te  Te176  1  0.33299589  0.49363197  0.65942946  1
  Te  Te177  1  0.33203891  0.83529139  0.00251049  1
  Te  Te178  1  0.32728554  0.83768630  0.33420228  1
  Te  Te179  1  0.33052746  0.82912006  0.66731653  1
  Te  Te180  1  0.66721907  0.17351715  0.00182402  1
  Te  Te181  1  0.66428598  0.16252828  0.33781281  1
  Te  Te182  1  0.66799379  0.17020672  0.66113453  1
  Te  Te183  1  0.66550944  0.49639140  0.00192399  1
  Te  Te184  1  0.66254509  0.50109922  0.34048596  1
  Te  Te185  1  0.66825670  0.49718597  0.66193914  1
  Te  Te186  1  0.66771841  0.83466674  0.00373657  1
  Te  Te187  1  0.66558229  0.83384347  0.33638243  1
  Te  Te188  1  0.66615396  0.83339944  0.66265929  1
  Te  Te189  1  -0.00070013  0.00073542  0.16726422  1
  Te  Te190  1  -0.00780547  -0.00598601  0.50078331  1
  Te  Te191  1  0.00426744  0.00010545  0.83407768  1
  Te  Te192  1  -0.00199636  0.32897507  0.16608117  1
  Te  Te193  1  0.00297787  0.33281307  0.50038237  1
  Te  Te194  1  0.00581428  0.33424050  0.83745588  1
  Te  Te195  1  -0.00372572  0.67048568  0.16603690  1
  Te  Te196  1  0.00056822  0.67328753  0.50022728  1
  Te  Te197  1  0.00073424  0.66573481  0.83469536  1
  Te  Te198  1  0.33384496  0.00745453  0.16479811  1
  Te  Te199  1  0.33950824  0.00415878  0.50555723  1
  Te  Te200  1  0.33481018  -0.00061252  0.82672126  1
  Te  Te201  1  0.33510970  0.33123526  0.16694803  1
  Te  Te202  1  0.33241714  0.33149725  0.49875337  1
  Te  Te203  1  0.32743639  0.33528933  0.83880005  1
  Te  Te204  1  0.33736301  0.66471136  0.17136841  1
  Te  Te205  1  0.33351213  0.66212004  0.49387039  1
  Te  Te206  1  0.33632680  0.66530115  0.83373022  1
  Te  Te207  1  0.66744497  -0.00674461  0.17452166  1
  Te  Te208  1  0.66637528  0.00194766  0.49986148  1
  Te  Te209  1  0.65984791  -0.00078905  0.83825118  1
  Te  Te210  1  0.66907248  0.33372350  0.16066200  1
  Te  Te211  1  0.66750950  0.32979632  0.50080213  1
  Te  Te212  1  0.66840484  0.33331100  0.83351365  1
  Te  Te213  1  0.66551188  0.67016005  0.16553158  1
  Te  Te214  1  0.66571583  0.66734915  0.50638556  1
  Te  Te215  1  0.66500365  0.66552535  0.82779522  1
