# generated using pymatgen
data_AgSbTe2
_symmetry_space_group_name_H-M   'P 1'
_cell_length_a   18.32836944
_cell_length_b   18.32592672
_cell_length_c   18.31901988
_cell_angle_alpha   90.00286768
_cell_angle_beta   90.00073511
_cell_angle_gamma   89.99970701
_symmetry_Int_Tables_number   1
_chemical_formula_structural   AgSbTe2
_chemical_formula_sum   'Ag54 Sb54 Te108'
_cell_volume   6153.07216980
_cell_formula_units_Z   54
loop_
 _symmetry_equiv_pos_site_id
 _symmetry_equiv_pos_as_xyz
  1  'x, y, z'
loop_
 _atom_site_type_symbol
 _atom_site_label
 _atom_site_symmetry_multiplicity
 _atom_site_fract_x
 _atom_site_fract_y
 _atom_site_fract_z
 _atom_site_occupancy
  Ag  Ag0  1  0.33489092  0.33173421  0.00372126  1
  Ag  Ag1  1  -0.01046669  0.50331321  0.83015833  1
  Ag  Ag2  1  0.67229419  0.50466758  0.50328902  1
  Ag  Ag3  1  0.83104916  0.00075841  0.84396841  1
  Ag  Ag4  1  0.83120431  0.34540381  0.84133240  1
  Ag  Ag5  1  0.33213033  0.83764715  0.50143773  1
  Ag  Ag6  1  0.33401664  -0.00313251  0.65822316  1
  Ag  Ag7  1  0.83400600  0.66464943  0.50183237  1
  Ag  Ag8  1  0.49430178  0.32942898  0.49472437  1
  Ag  Ag9  1  0.83038670  0.32780025  0.16229252  1
  Ag  Ag10  1  0.82860116  0.50100621  0.67742822  1
  Ag  Ag11  1  0.33893776  -0.00581137  0.00081604  1
  Ag  Ag12  1  0.00102057  0.15897392  0.49862815  1
  Ag  Ag13  1  0.49403266  0.00255665  0.49525195  1
  Ag  Ag14  1  0.33231662  0.67333049  -0.00356082  1
  Ag  Ag15  1  0.67191189  0.16574440  0.83522939  1
  Ag  Ag16  1  0.49899163  0.32782181  0.17052590  1
  Ag  Ag17  1  0.17553598  0.33386732  0.17480960  1
  Ag  Ag18  1  0.17030255  0.83605011  0.66353470  1
  Ag  Ag19  1  0.50423212  0.00509136  0.16195558  1
  Ag  Ag20  1  0.33196611  0.66969328  0.66136794  1
  Ag  Ag21  1  0.66704749  0.83386258  0.49897864  1
  Ag  Ag22  1  0.83015887  0.15705550  0.00041651  1
  Ag  Ag23  1  0.67661839  0.49803004  0.82865007  1
  Ag  Ag24  1  0.16865997  0.15972017  0.66312650  1
  Ag  Ag25  1  -0.00555009  0.50380504  0.50143468  1
  Ag  Ag26  1  0.33080841  0.66766596  0.33794858  1
  Ag  Ag27  1  0.33502032  0.33164169  0.33684396  1
  Ag  Ag28  1  0.17273781  0.33093322  0.49680312  1
  Ag  Ag29  1  0.16667426  0.83279615  -0.00517906  1
  Ag  Ag30  1  0.66335023  -0.00069903  0.66437116  1
  Ag  Ag31  1  0.33347824  0.33396545  0.65653281  1
  Ag  Ag32  1  0.67731896  0.67298688  -0.00246775  1
  Ag  Ag33  1  -0.00774809  0.67221149  -0.00500545  1
  Ag  Ag34  1  0.17283137  -0.00116006  0.50126384  1
  Ag  Ag35  1  0.00059638  0.83329575  0.49816647  1
  Ag  Ag36  1  0.83590217  0.65776043  0.83869571  1
  Ag  Ag37  1  0.82652797  0.00580918  0.15792399  1
  Ag  Ag38  1  0.50501022  0.49858526  0.66353898  1
  Ag  Ag39  1  0.67242345  0.66622699  0.33827651  1
  Ag  Ag40  1  0.50185082  0.84293899  0.00142576  1
  Ag  Ag41  1  0.16104551  0.66636260  0.83654161  1
  Ag  Ag42  1  -0.00381401  0.66900651  0.33829358  1
  Ag  Ag43  1  0.83314238  0.84138063  -0.00275639  1
  Ag  Ag44  1  0.16625763  0.49914894  0.33678248  1
  Ag  Ag45  1  0.50772724  0.15829449  0.00066154  1
  Ag  Ag46  1  0.66400704  0.33258124  0.33543314  1
  Ag  Ag47  1  0.83271006  0.50345202  -0.00921402  1
  Ag  Ag48  1  -0.00562471  -0.00345986  0.33657056  1
  Ag  Ag49  1  0.67140764  -0.00471726  -0.00095430  1
  Ag  Ag50  1  -0.01503843  -0.00720005  0.00382682  1
  Ag  Ag51  1  0.66926366  0.00117311  0.33485457  1
  Ag  Ag52  1  0.83239639  0.16367005  0.32866114  1
  Ag  Ag53  1  0.33631116  -0.00038922  0.34153126  1
  Sb  Sb54  1  0.00323210  0.33471216  0.66398958  1
  Sb  Sb55  1  0.67101392  0.16432212  0.50203881  1
  Sb  Sb56  1  0.50407278  0.33361988  0.83395564  1
  Sb  Sb57  1  0.33354763  0.49741818  0.16727276  1
  Sb  Sb58  1  0.49698749  0.83307457  0.66656285  1
  Sb  Sb59  1  0.00023418  0.33428671  0.33570337  1
  Sb  Sb60  1  0.83508557  0.49816224  0.33279561  1
  Sb  Sb61  1  0.66712031  0.83666447  0.16726874  1
  Sb  Sb62  1  0.66816702  0.49824703  0.16720370  1
  Sb  Sb63  1  -0.00089525  0.83448021  0.16679227  1
  Sb  Sb64  1  0.33329731  0.50125415  0.83167314  1
  Sb  Sb65  1  0.33382315  0.83516395  0.16680375  1
  Sb  Sb66  1  0.16792959  0.00449388  0.16958094  1
  Sb  Sb67  1  0.50586903  0.16574283  0.32969509  1
  Sb  Sb68  1  0.16685222  0.83128706  0.33548267  1
  Sb  Sb69  1  0.16464804  0.16256951  -0.00470639  1
  Sb  Sb70  1  0.83298850  -0.00494382  0.49901095  1
  Sb  Sb71  1  0.66497209  0.66779056  0.66664942  1
  Sb  Sb72  1  -0.00087240  0.82884600  0.83378738  1
  Sb  Sb73  1  0.00284310  0.66608144  0.66687397  1
  Sb  Sb74  1  0.66966941  0.83346828  0.83354848  1
  Sb  Sb75  1  0.16287187  -0.00429261  0.83057513  1
  Sb  Sb76  1  0.49747921  0.16752185  0.66870592  1
  Sb  Sb77  1  0.33677222  0.16632438  0.83415064  1
  Sb  Sb78  1  -0.00147402  0.49998035  0.16740301  1
  Sb  Sb79  1  0.83224054  0.33868346  0.49902513  1
  Sb  Sb80  1  0.50309584  0.66531305  0.83440600  1
  Sb  Sb81  1  0.16331589  0.66867652  0.50223564  1
  Sb  Sb82  1  0.16333329  0.33816653  0.83136125  1
  Sb  Sb83  1  0.33145269  0.83298215  0.83166643  1
  Sb  Sb84  1  0.49892875  0.49676876  0.33834032  1
  Sb  Sb85  1  0.00046079  -0.00166418  0.66414477  1
  Sb  Sb86  1  0.16695699  0.66386754  0.16410358  1
  Sb  Sb87  1  0.50025972  0.66677908  0.16518610  1
  Sb  Sb88  1  0.33388989  0.50086618  0.50032002  1
  Sb  Sb89  1  -0.00189914  0.33352391  0.00053435  1
  Sb  Sb90  1  0.16312613  0.50341680  0.00209846  1
  Sb  Sb91  1  0.83559591  0.83003720  0.66798837  1
  Sb  Sb92  1  0.66239155  0.33375496  0.66280181  1
  Sb  Sb93  1  0.83479249  0.16933410  0.66793665  1
  Sb  Sb94  1  0.83293966  0.66727007  0.16283170  1
  Sb  Sb95  1  0.50537645  0.00052675  0.83663301  1
  Sb  Sb96  1  0.16618343  0.50209151  0.66258254  1
  Sb  Sb97  1  0.66679276  0.33118564  0.00319915  1
  Sb  Sb98  1  0.33404766  0.16737285  0.16649096  1
  Sb  Sb99  1  0.83291041  0.83701514  0.33068974  1
  Sb  Sb100  1  0.50495183  0.49890168  -0.00412650  1
  Sb  Sb101  1  0.50293619  0.66775113  0.49929783  1
  Sb  Sb102  1  -0.00591035  0.16865061  0.83054560  1
  Sb  Sb103  1  0.32876421  0.16285955  0.50085527  1
  Sb  Sb104  1  0.16277853  0.16866404  0.33952537  1
  Sb  Sb105  1  0.50037383  0.83698553  0.33188472  1
  Sb  Sb106  1  0.66813194  0.16487465  0.16122065  1
  Sb  Sb107  1  -0.00346681  0.16554431  0.17206402  1
  Te  Te108  1  0.16392989  0.17594450  0.16504287  1
  Te  Te109  1  0.16232423  0.16613531  0.50337803  1
  Te  Te110  1  0.16366808  0.16841193  0.82448056  1
  Te  Te111  1  0.16549401  0.49208756  0.17313063  1
  Te  Te112  1  0.16366677  0.49840837  0.49739429  1
  Te  Te113  1  0.16110445  0.50622579  0.83243298  1
  Te  Te114  1  0.16649660  0.83455625  0.15650035  1
  Te  Te115  1  0.16848813  0.83555269  0.50046596  1
  Te  Te116  1  0.16508862  0.82739319  0.83234142  1
  Te  Te117  1  0.50061659  0.16648018  0.16040370  1
  Te  Te118  1  0.50223073  0.16618169  0.50036505  1
  Te  Te119  1  0.50806808  0.16795810  0.84014053  1
  Te  Te120  1  0.50092928  0.48968359  0.16595431  1
  Te  Te121  1  0.50380308  0.49700791  0.50402914  1
  Te  Te122  1  0.50691170  0.49906594  0.82536333  1
  Te  Te123  1  0.50037952  0.84028616  0.15964944  1
  Te  Te124  1  0.49989068  0.83860842  0.49993399  1
  Te  Te125  1  0.50100307  0.83220370  0.84262377  1
  Te  Te126  1  0.83318707  0.16624992  0.16638396  1
  Te  Te127  1  0.83973489  0.16935817  0.49897220  1
  Te  Te128  1  0.83140721  0.16229510  0.83469999  1
  Te  Te129  1  0.83333771  0.49337305  0.16184050  1
  Te  Te130  1  0.83284554  0.50401965  0.49806505  1
  Te  Te131  1  0.83304618  0.50116755  0.83323196  1
  Te  Te132  1  0.83332536  0.84128266  0.15846080  1
  Te  Te133  1  0.83299382  0.82587409  0.50016253  1
  Te  Te134  1  0.83409999  0.83555196  0.83599165  1
  Te  Te135  1  0.17577467  -0.00344839  -0.00067822  1
  Te  Te136  1  0.16820630  0.00046090  0.33696244  1
  Te  Te137  1  0.16774499  -0.00250440  0.66407845  1
  Te  Te138  1  0.17095189  0.33270617  0.00104927  1
  Te  Te139  1  0.16764257  0.33415654  0.33546385  1
  Te  Te140  1  0.17352577  0.33400160  0.66330859  1
  Te  Te141  1  0.16831390  0.66866698  -0.00143470  1
  Te  Te142  1  0.16928082  0.66373015  0.33215388  1
  Te  Te143  1  0.17245599  0.66966610  0.67087736  1
  Te  Te144  1  0.49876651  0.00154170  0.00008950  1
  Te  Te145  1  0.49889219  0.00154590  0.33472775  1
  Te  Te146  1  0.49838256  0.00007845  0.66371255  1
  Te  Te147  1  0.49705597  0.33225429  0.00273928  1
  Te  Te148  1  0.49849191  0.33122732  0.33384501  1
  Te  Te149  1  0.49442831  0.33467399  0.66313002  1
  Te  Te150  1  0.49514320  0.66779705  0.00179354  1
  Te  Te151  1  0.49719833  0.66636881  0.33126871  1
  Te  Te152  1  0.49226937  0.66350165  0.66704078  1
  Te  Te153  1  0.82939228  0.00010786  0.00151382  1
  Te  Te154  1  0.83292566  0.00178117  0.33330428  1
  Te  Te155  1  0.82813015  -0.00033082  0.66854412  1
  Te  Te156  1  0.83290026  0.33437301  0.00096924  1
  Te  Te157  1  0.83119847  0.32978509  0.33108426  1
  Te  Te158  1  0.83131687  0.33802588  0.66985185  1
  Te  Te159  1  0.83389934  0.66451204  0.00159394  1
  Te  Te160  1  0.83283846  0.66780706  0.33162417  1
  Te  Te161  1  0.83224021  0.66312549  0.66658649  1
  Te  Te162  1  -0.00470044  0.16047728  -0.00108522  1
  Te  Te163  1  -0.00497307  0.16122353  0.33909066  1
  Te  Te164  1  0.00559373  0.16670565  0.65983403  1
  Te  Te165  1  -0.00393496  0.50424483  -0.00161326  1
  Te  Te166  1  0.00264912  0.50502246  0.33676487  1
  Te  Te167  1  -0.00472800  0.50103214  0.66431097  1
  Te  Te168  1  -0.00021511  0.83258774  -0.00015895  1
  Te  Te169  1  0.00016190  0.83268355  0.33801237  1
  Te  Te170  1  0.00625867  0.83311019  0.65818941  1
  Te  Te171  1  0.33328493  0.16842681  -0.00146761  1
  Te  Te172  1  0.33269908  0.16593102  0.33369523  1
  Te  Te173  1  0.32985898  0.16553231  0.66806085  1
  Te  Te174  1  0.33387040  0.50069291  -0.00094983  1
  Te  Te175  1  0.32993250  0.50018821  0.33414641  1
  Te  Te176  1  0.33656380  0.49993581  0.66704675  1
  Te  Te177  1  0.33190935  0.83246400  0.00002851  1
  Te  Te178  1  0.33342701  0.83494122  0.33806893  1
  Te  Te179  1  0.33177871  0.83507433  0.66390405  1
  Te  Te180  1  0.66925336  0.16529802  -0.00409589  1
  Te  Te181  1  0.67212664  0.16479682  0.33591564  1
  Te  Te182  1  0.66639210  0.16005723  0.67296271  1
  Te  Te183  1  0.67033363  0.50325412  -0.00254882  1
  Te  Te184  1  0.66659551  0.50220401  0.33798584  1
  Te  Te185  1  0.66717323  0.50097197  0.66442299  1
  Te  Te186  1  0.66792312  0.83263633  -0.00030134  1
  Te  Te187  1  0.66640119  0.83157771  0.33913312  1
  Te  Te188  1  0.66564603  0.83853319  0.66059772  1
  Te  Te189  1  -0.00092723  -0.00009759  0.16823022  1
  Te  Te190  1  0.00045197  -0.00284521  0.49827069  1
  Te  Te191  1  -0.00515552  0.00011101  0.83890125  1
  Te  Te192  1  -0.00475139  0.33268583  0.16725490  1
  Te  Te193  1  0.00492140  0.33987131  0.49930582  1
  Te  Te194  1  -0.00590791  0.33996739  0.83279766  1
  Te  Te195  1  0.00058505  0.66721902  0.17296748  1
  Te  Te196  1  -0.00224769  0.66611056  0.49970021  1
  Te  Te197  1  -0.00268707  0.66411212  0.83491442  1
  Te  Te198  1  0.33692858  0.00069174  0.16586387  1
  Te  Te199  1  0.33328356  -0.00058295  0.50017060  1
  Te  Te200  1  0.33237282  0.00089050  0.83521255  1
  Te  Te201  1  0.33493590  0.33295663  0.16871307  1
  Te  Te202  1  0.33349873  0.33484070  0.49805227  1
  Te  Te203  1  0.33265982  0.33381109  0.83727013  1
  Te  Te204  1  0.33370673  0.66673711  0.17057397  1
  Te  Te205  1  0.33369313  0.67006479  0.49916956  1
  Te  Te206  1  0.33189812  0.66592510  0.83677381  1
  Te  Te207  1  0.66539020  -0.00008926  0.17016035  1
  Te  Te208  1  0.66628019  -0.00121379  0.49684010  1
  Te  Te209  1  0.66988315  -0.00025077  0.83666231  1
  Te  Te210  1  0.66588110  0.33235609  0.17370867  1
  Te  Te211  1  0.66377742  0.33485631  0.49618378  1
  Te  Te212  1  0.67108070  0.33509758  0.83250726  1
  Te  Te213  1  0.66586144  0.66648596  0.17041294  1
  Te  Te214  1  0.66844928  0.66642771  0.49950622  1
  Te  Te215  1  0.67126067  0.66347810  0.83568289  1
