# generated using pymatgen
data_AgSbTe2
_symmetry_space_group_name_H-M   'P 1'
_cell_length_a   18.35068991
_cell_length_b   18.34528206
_cell_length_c   18.34735368
_cell_angle_alpha   89.99707643
_cell_angle_beta   90.00460351
_cell_angle_gamma   90.00117282
_symmetry_Int_Tables_number   1
_chemical_formula_structural   AgSbTe2
_chemical_formula_sum   'Ag54 Sb54 Te108'
_cell_volume   6176.61058003
_cell_formula_units_Z   54
loop_
 _symmetry_equiv_pos_site_id
 _symmetry_equiv_pos_as_xyz
  1  'x, y, z'
loop_
 _atom_site_type_symbol
 _atom_site_label
 _atom_site_symmetry_multiplicity
 _atom_site_fract_x
 _atom_site_fract_y
 _atom_site_fract_z
 _atom_site_occupancy
  Ag  Ag0  1  0.83781976  0.33155278  0.17521341  1
  Ag  Ag1  1  0.83646863  0.65767703  0.49720095  1
  Ag  Ag2  1  0.83174353  0.49278990  0.00076263  1
  Ag  Ag3  1  0.67553657  0.32363505  0.33278243  1
  Ag  Ag4  1  0.33752735  0.33211772  0.00612161  1
  Ag  Ag5  1  0.50228381  0.33123489  0.49988964  1
  Ag  Ag6  1  -0.00563386  0.84059710  0.82422466  1
  Ag  Ag7  1  0.51309525  0.16378217  0.33680238  1
  Ag  Ag8  1  0.82888062  0.83925055  0.33446130  1
  Ag  Ag9  1  0.83493408  0.17052151  0.01447540  1
  Ag  Ag10  1  0.00038342  0.83337471  0.49670134  1
  Ag  Ag11  1  0.16278393  0.65484532  0.49397662  1
  Ag  Ag12  1  0.16193022  0.17352623  0.33295315  1
  Ag  Ag13  1  -0.00314782  0.32736060  0.33311205  1
  Ag  Ag14  1  0.16529028  0.66040511  0.17866422  1
  Ag  Ag15  1  -0.00228363  0.17014741  0.17071148  1
  Ag  Ag16  1  0.15641995  0.33096595  0.17484202  1
  Ag  Ag17  1  0.33137491  0.83419309  0.49547904  1
  Ag  Ag18  1  0.67335555  0.49219083  0.49655802  1
  Ag  Ag19  1  0.82957290  0.16931607  0.33271708  1
  Ag  Ag20  1  0.32721526  0.00133884  0.65997368  1
  Ag  Ag21  1  0.83076928  0.83394899  0.01264104  1
  Ag  Ag22  1  0.16518327  0.49795136  0.33680554  1
  Ag  Ag23  1  0.50142696  0.83214629  0.65432284  1
  Ag  Ag24  1  0.50159624  0.50068404  0.65910991  1
  Ag  Ag25  1  0.33554088  0.83880160  0.17669593  1
  Ag  Ag26  1  0.32472772  0.67607129  0.33595458  1
  Ag  Ag27  1  -0.00583637  0.00674312  0.33696939  1
  Ag  Ag28  1  0.17129466  0.82759620  0.33460344  1
  Ag  Ag29  1  0.66846575  0.33413781  0.00970223  1
  Ag  Ag30  1  0.16000402  0.49900047  0.65313899  1
  Ag  Ag31  1  0.16229084  0.33879039  0.49111207  1
  Ag  Ag32  1  0.15581432  0.17117903  0.01577367  1
  Ag  Ag33  1  0.83243715  0.00690580  0.49568566  1
  Ag  Ag34  1  0.83372425  0.49329018  0.65411657  1
  Ag  Ag35  1  0.50364650  0.33159168  0.82247381  1
  Ag  Ag36  1  0.67332014  0.00787166  0.33589087  1
  Ag  Ag37  1  0.00386753  0.50151184  0.49750654  1
  Ag  Ag38  1  0.67036855  0.17229931  0.49220903  1
  Ag  Ag39  1  -0.00188928  0.16442977  0.83804834  1
  Ag  Ag40  1  0.50123150  0.00496262  0.49548751  1
  Ag  Ag41  1  0.67045665  0.83433314  0.17191875  1
  Ag  Ag42  1  0.67652646  0.17009857  0.17689915  1
  Ag  Ag43  1  0.33920797  0.16749102  0.49349245  1
  Ag  Ag44  1  0.32408582  0.16609865  0.17543858  1
  Ag  Ag45  1  0.66625246  0.66965882  0.33321725  1
  Ag  Ag46  1  -0.00034140  0.48925306  0.18102289  1
  Ag  Ag47  1  0.67341304  0.83285085  0.84056051  1
  Ag  Ag48  1  0.50224286  0.83876525  0.33694354  1
  Ag  Ag49  1  0.00135129  0.00164512  0.65534445  1
  Ag  Ag50  1  0.67166974  0.66187250  0.01157737  1
  Ag  Ag51  1  0.83579438  0.17092039  0.64909024  1
  Ag  Ag52  1  0.83133529  0.33248057  0.49388089  1
  Ag  Ag53  1  0.31958621  0.49297415  0.49826676  1
  Sb  Sb54  1  -0.00215181  0.83491574  0.17587778  1
  Sb  Sb55  1  0.33673644  0.66254305  0.01239915  1
  Sb  Sb56  1  0.67011300  0.00210386  0.00870036  1
  Sb  Sb57  1  0.50402103  0.16682267  0.65616013  1
  Sb  Sb58  1  0.16203306  0.16918077  0.65713594  1
  Sb  Sb59  1  0.33283450  0.83373852  0.82753859  1
  Sb  Sb60  1  0.50205781  0.33013432  0.17502143  1
  Sb  Sb61  1  0.16765681  0.83125841  0.65663160  1
  Sb  Sb62  1  0.33282734  0.66699231  0.65616553  1
  Sb  Sb63  1  0.67153992  0.49660779  0.17380298  1
  Sb  Sb64  1  0.16573861  0.00176479  0.49522749  1
  Sb  Sb65  1  0.66950707  -0.00075612  0.65625013  1
  Sb  Sb66  1  0.50158437  0.00032296  0.17625287  1
  Sb  Sb67  1  0.16168147  0.83575006  0.00987116  1
  Sb  Sb68  1  0.32639584  0.49613670  0.17568414  1
  Sb  Sb69  1  -0.00128934  0.49642582  0.82657916  1
  Sb  Sb70  1  0.32923710  0.32922743  0.33359219  1
  Sb  Sb71  1  0.83825171  0.49601733  0.33659614  1
  Sb  Sb72  1  -0.00574766  0.66745267  0.00165559  1
  Sb  Sb73  1  0.83036055  0.83393671  0.65839159  1
  Sb  Sb74  1  0.66697326  0.33419347  0.65865675  1
  Sb  Sb75  1  0.16459887  0.66790648  0.83020237  1
  Sb  Sb76  1  -0.00495496  0.33179309  0.00904744  1
  Sb  Sb77  1  -0.00091012  0.66840295  0.66140921  1
  Sb  Sb78  1  0.67027397  0.16576004  0.83557833  1
  Sb  Sb79  1  0.49959495  0.66534161  0.49670800  1
  Sb  Sb80  1  0.00102579  0.66647691  0.33600942  1
  Sb  Sb81  1  -0.00317318  0.00341825  0.00424502  1
  Sb  Sb82  1  0.16259979  0.00109535  0.83288269  1
  Sb  Sb83  1  0.49751210  0.49630092  0.33975173  1
  Sb  Sb84  1  0.83700491  0.66282903  0.17313743  1
  Sb  Sb85  1  0.50406793  0.16846922  0.00838348  1
  Sb  Sb86  1  0.16236381  0.49441866  0.00771547  1
  Sb  Sb87  1  0.50076199  0.66822624  0.17214957  1
  Sb  Sb88  1  0.83279595  0.00738763  0.17646977  1
  Sb  Sb89  1  0.16679457  0.00656904  0.17229652  1
  Sb  Sb90  1  0.66783053  0.50077379  0.82963607  1
  Sb  Sb91  1  0.50332805  0.66632141  0.83254313  1
  Sb  Sb92  1  0.83336911  0.00034727  0.82557434  1
  Sb  Sb93  1  -0.00374512  0.16646035  0.49230294  1
  Sb  Sb94  1  0.33365970  -0.00202950  0.33932322  1
  Sb  Sb95  1  0.50527908  0.83325493  0.00471912  1
  Sb  Sb96  1  0.33359708  0.33144131  0.66072612  1
  Sb  Sb97  1  0.66718231  0.83419696  0.49094247  1
  Sb  Sb98  1  0.33504535  0.49697181  0.82545477  1
  Sb  Sb99  1  0.33069730  0.16902443  0.83287810  1
  Sb  Sb100  1  0.83058266  0.33067292  0.83414264  1
  Sb  Sb101  1  0.16716345  0.33154907  0.83368096  1
  Sb  Sb102  1  -0.00116606  0.32933203  0.65742589  1
  Sb  Sb103  1  0.50549537  0.49592598  -0.00411162  1
  Sb  Sb104  1  0.83194206  0.66928222  0.83071828  1
  Sb  Sb105  1  0.66718275  0.66746338  0.65964408  1
  Sb  Sb106  1  0.33222745  0.00337709  -0.00068268  1
  Sb  Sb107  1  0.50275016  0.00301318  0.82066837  1
  Te  Te108  1  0.16736335  0.16972808  0.16986080  1
  Te  Te109  1  0.17232619  0.17324860  0.49468747  1
  Te  Te110  1  0.16032094  0.16747096  0.83338107  1
  Te  Te111  1  0.16065206  0.49652693  0.17131929  1
  Te  Te112  1  0.16411905  0.49807476  0.49789257  1
  Te  Te113  1  0.16632171  0.50074555  0.82894511  1
  Te  Te114  1  0.16694531  0.83215800  0.17239814  1
  Te  Te115  1  0.16543940  0.83471965  0.49577176  1
  Te  Te116  1  0.16190693  0.83318586  0.83636568  1
  Te  Te117  1  0.49878477  0.16503611  0.17519168  1
  Te  Te118  1  0.49914943  0.16766050  0.49778861  1
  Te  Te119  1  0.49989320  0.17179899  0.83035759  1
  Te  Te120  1  0.49767159  0.50046658  0.16508185  1
  Te  Te121  1  0.50717165  0.49821909  0.50177935  1
  Te  Te122  1  0.50087162  0.49366242  0.82484362  1
  Te  Te123  1  0.49889033  0.83432126  0.17204695  1
  Te  Te124  1  0.49984317  0.83079833  0.49766501  1
  Te  Te125  1  0.50227529  0.83495099  0.83448384  1
  Te  Te126  1  0.83433728  0.16917970  0.17179308  1
  Te  Te127  1  0.83249659  0.17002173  0.49361643  1
  Te  Te128  1  0.83762443  0.16520150  0.83843500  1
  Te  Te129  1  0.83869145  0.49500870  0.16283141  1
  Te  Te130  1  0.83348735  0.49675449  0.49703957  1
  Te  Te131  1  0.83407671  0.50092071  0.83602024  1
  Te  Te132  1  0.83084384  0.83084504  0.16987963  1
  Te  Te133  1  0.83492654  0.83426837  0.49619242  1
  Te  Te134  1  0.83433495  0.83410859  0.82717334  1
  Te  Te135  1  0.16645740  0.00864950  0.00021304  1
  Te  Te136  1  0.15754864  -0.00255329  0.33309019  1
  Te  Te137  1  0.16461465  -0.00027074  0.66625742  1
  Te  Te138  1  0.16892435  0.33004314  0.00158515  1
  Te  Te139  1  0.16987035  0.33434766  0.33305880  1
  Te  Te140  1  0.16641180  0.33878127  0.66530643  1
  Te  Te141  1  0.16807202  0.66539024  0.00187395  1
  Te  Te142  1  0.16483512  0.66930079  0.33477613  1
  Te  Te143  1  0.16718085  0.66001448  0.66136765  1
  Te  Te144  1  0.49979522  0.00015919  -0.00473037  1
  Te  Te145  1  0.50242334  -0.00021077  0.33918906  1
  Te  Te146  1  0.49822724  -0.00388738  0.65686202  1
  Te  Te147  1  0.50217034  0.33287039  0.00246644  1
  Te  Te148  1  0.50486018  0.32895221  0.34028694  1
  Te  Te149  1  0.49986425  0.33611190  0.66288854  1
  Te  Te150  1  0.50800162  0.66483894  0.00045322  1
  Te  Te151  1  0.50298626  0.67360376  0.33258937  1
  Te  Te152  1  0.49993317  0.66833897  0.66809833  1
  Te  Te153  1  0.83297566  -0.00242410  -0.00195048  1
  Te  Te154  1  0.83343217  0.00024773  0.33589257  1
  Te  Te155  1  0.83800679  0.00309484  0.65893811  1
  Te  Te156  1  0.82906609  0.33207560  -0.00054760  1
  Te  Te157  1  0.83396821  0.33380894  0.33308142  1
  Te  Te158  1  0.83371835  0.33197525  0.66558545  1
  Te  Te159  1  0.82764306  0.67164506  -0.00047384  1
  Te  Te160  1  0.83174785  0.67047922  0.33709264  1
  Te  Te161  1  0.83239798  0.66021340  0.65948107  1
  Te  Te162  1  -0.00218326  0.16688276  0.00351107  1
  Te  Te163  1  0.00122918  0.16739324  0.33248854  1
  Te  Te164  1  -0.00316694  0.16327921  0.66908324  1
  Te  Te165  1  -0.00705553  0.49992469  -0.00602162  1
  Te  Te166  1  0.00392463  0.49717718  0.33727117  1
  Te  Te167  1  -0.00332728  0.49945632  0.66139515  1
  Te  Te168  1  -0.00579328  0.83519509  0.00027007  1
  Te  Te169  1  -0.00491692  0.83420306  0.33742286  1
  Te  Te170  1  0.00006361  0.83805750  0.66293354  1
  Te  Te171  1  0.33587065  0.17056624  0.00045972  1
  Te  Te172  1  0.32514087  0.16374719  0.33416581  1
  Te  Te173  1  0.33175893  0.16202938  0.66341037  1
  Te  Te174  1  0.33320191  0.49466727  0.00034748  1
  Te  Te175  1  0.33014633  0.50474999  0.33981276  1
  Te  Te176  1  0.33759673  0.49948693  0.65735094  1
  Te  Te177  1  0.33210535  0.83182493  0.00307776  1
  Te  Te178  1  0.33282565  0.83697901  0.33411323  1
  Te  Te179  1  0.33631080  0.83597669  0.66289052  1
  Te  Te180  1  0.67162750  0.17040896  0.00365206  1
  Te  Te181  1  0.66824043  0.16716371  0.33487316  1
  Te  Te182  1  0.67562425  0.16624691  0.66656147  1
  Te  Te183  1  0.67145997  0.49940963  0.00078894  1
  Te  Te184  1  0.66281187  0.50684171  0.33802944  1
  Te  Te185  1  0.66914183  0.50092331  0.66177590  1
  Te  Te186  1  0.67008391  0.83461637  0.00575660  1
  Te  Te187  1  0.66729582  0.82922311  0.33192413  1
  Te  Te188  1  0.66206301  0.83259418  0.67251731  1
  Te  Te189  1  -0.00023346  0.00615469  0.17322613  1
  Te  Te190  1  -0.00117511  -0.00061494  0.49843873  1
  Te  Te191  1  -0.00137150  0.00025721  0.83064443  1
  Te  Te192  1  -0.00124046  0.33217304  0.16901447  1
  Te  Te193  1  -0.00021031  0.33489001  0.49485192  1
  Te  Te194  1  0.00007796  0.32617993  0.83226724  1
  Te  Te195  1  0.00629897  0.66357242  0.16505278  1
  Te  Te196  1  -0.00049416  0.66713847  0.50229487  1
  Te  Te197  1  0.00021435  0.67487881  0.83313035  1
  Te  Te198  1  0.33510161  -0.00042831  0.16258385  1
  Te  Te199  1  0.33295125  -0.00122783  0.50167058  1
  Te  Te200  1  0.33374753  -0.00007012  0.82462443  1
  Te  Te201  1  0.33468262  0.32860013  0.16468797  1
  Te  Te202  1  0.33565479  0.33345356  0.49943870  1
  Te  Te203  1  0.33881925  0.33370299  0.83874760  1
  Te  Te204  1  0.32822254  0.66937460  0.17406094  1
  Te  Te205  1  0.33149766  0.67205381  0.49500047  1
  Te  Te206  1  0.33351626  0.66600432  0.83740980  1
  Te  Te207  1  0.66654148  -0.00067047  0.17501648  1
  Te  Te208  1  0.66766355  0.00279314  0.49545571  1
  Te  Te209  1  0.66643720  -0.00633184  0.83389864  1
  Te  Te210  1  0.66896455  0.33134731  0.17076143  1
  Te  Te211  1  0.66913251  0.33215154  0.49831614  1
  Te  Te212  1  0.66164267  0.33339256  0.83886201  1
  Te  Te213  1  0.66913811  0.66589799  0.16857128  1
  Te  Te214  1  0.67157519  0.66427304  0.49580446  1
  Te  Te215  1  0.66661279  0.67163003  0.83744659  1
