# generated using pymatgen
data_AgSbTe2
_symmetry_space_group_name_H-M   'P 1'
_cell_length_a   18.31102285
_cell_length_b   18.31002458
_cell_length_c   18.31095470
_cell_angle_alpha   90.00021267
_cell_angle_beta   89.99738599
_cell_angle_gamma   89.99962227
_symmetry_Int_Tables_number   1
_chemical_formula_structural   AgSbTe2
_chemical_formula_sum   'Ag54 Sb54 Te108'
_cell_volume   6139.21042911
_cell_formula_units_Z   54
loop_
 _symmetry_equiv_pos_site_id
 _symmetry_equiv_pos_as_xyz
  1  'x, y, z'
loop_
 _atom_site_type_symbol
 _atom_site_label
 _atom_site_symmetry_multiplicity
 _atom_site_fract_x
 _atom_site_fract_y
 _atom_site_fract_z
 _atom_site_occupancy
  Ag  Ag0  1  0.83242749  0.49491187  0.00015238  1
  Ag  Ag1  1  0.00086149  0.16430429  0.84245782  1
  Ag  Ag2  1  0.49792239  0.50639491  0.33520893  1
  Ag  Ag3  1  0.67126490  0.82773579  0.16291708  1
  Ag  Ag4  1  0.83672970  0.00311053  0.49902664  1
  Ag  Ag5  1  0.49874618  0.82857016  0.66651008  1
  Ag  Ag6  1  0.16127906  0.83306393  0.67157993  1
  Ag  Ag7  1  0.16445202  0.00267728  0.83743946  1
  Ag  Ag8  1  0.83681397  0.66506794  0.49799419  1
  Ag  Ag9  1  0.00200523  0.83894566  0.83900697  1
  Ag  Ag10  1  -0.00116234  0.33040121  0.66483008  1
  Ag  Ag11  1  0.33131333  0.16476093  0.16621898  1
  Ag  Ag12  1  0.15802777  0.33036215  0.16089828  1
  Ag  Ag13  1  0.50819695  0.50634706  0.66056998  1
  Ag  Ag14  1  0.83619964  0.16890580  0.32730498  1
  Ag  Ag15  1  0.33079306  0.66897141  0.00789461  1
  Ag  Ag16  1  0.50326302  0.66589239  0.49072010  1
  Ag  Ag17  1  0.67225081  0.66846377  0.00966588  1
  Ag  Ag18  1  0.83247029  0.49845417  0.66382251  1
  Ag  Ag19  1  0.15678046  0.66764218  0.49540406  1
  Ag  Ag20  1  -0.00465304  0.67460055  0.00787702  1
  Ag  Ag21  1  0.32881690  0.00111957  0.32594753  1
  Ag  Ag22  1  0.33370769  0.16638561  0.49145617  1
  Ag  Ag23  1  0.15902915  0.83679919  -0.00280789  1
  Ag  Ag24  1  0.67364594  0.16634698  0.49335034  1
  Ag  Ag25  1  0.66441470  0.66462323  0.32949999  1
  Ag  Ag26  1  0.84069090  0.33199421  0.84302114  1
  Ag  Ag27  1  0.83870046  0.17031973  0.00691472  1
  Ag  Ag28  1  0.83657646  0.33312129  0.49823012  1
  Ag  Ag29  1  0.33394207  0.00257079  0.00504088  1
  Ag  Ag30  1  0.32938329  0.32755660  0.00113651  1
  Ag  Ag31  1  0.83674005  0.32880055  0.16189444  1
  Ag  Ag32  1  0.67651437  0.16720337  0.16561891  1
  Ag  Ag33  1  0.16081749  0.16551584  0.00158649  1
  Ag  Ag34  1  0.33820505  0.66746950  0.33004162  1
  Ag  Ag35  1  0.50072426  -0.00328468  0.16391821  1
  Ag  Ag36  1  0.50574121  0.67026983  0.17150568  1
  Ag  Ag37  1  -0.00227227  0.33324335  0.33325238  1
  Ag  Ag38  1  -0.00105193  0.82735536  0.49869914  1
  Ag  Ag39  1  0.49492237  -0.00127322  0.84303549  1
  Ag  Ag40  1  0.66512418  0.66609476  0.65817325  1
  Ag  Ag41  1  0.16374882  0.50281618  0.33323245  1
  Ag  Ag42  1  -0.00009196  -0.00040535  0.66462548  1
  Ag  Ag43  1  0.66733703  0.50748943  0.16550521  1
  Ag  Ag44  1  0.84037141  0.83130348  0.00184429  1
  Ag  Ag45  1  -0.00342783  0.50623335  0.49694189  1
  Ag  Ag46  1  0.67835657  0.33119685  0.00434881  1
  Ag  Ag47  1  -0.00443248  0.16670579  0.16336723  1
  Ag  Ag48  1  -0.00052847  0.66585696  0.33501315  1
  Ag  Ag49  1  0.66594481  0.00073629  0.00467109  1
  Ag  Ag50  1  0.00074336  0.00077724  0.33483694  1
  Ag  Ag51  1  -0.00393239  0.83497951  0.16088402  1
  Ag  Ag52  1  0.15799025  0.32705132  0.84072690  1
  Ag  Ag53  1  0.32549263  0.33279363  0.66962303  1
  Sb  Sb54  1  -0.00198778  0.33191898  0.00122528  1
  Sb  Sb55  1  0.67292574  0.50066617  0.49535033  1
  Sb  Sb56  1  -0.00531414  0.49840906  0.17035252  1
  Sb  Sb57  1  0.50349018  0.16945436  0.33088557  1
  Sb  Sb58  1  0.50055963  0.82757699  0.33398505  1
  Sb  Sb59  1  0.49987238  0.32905116  0.83370308  1
  Sb  Sb60  1  0.66879189  -0.00161783  0.32658878  1
  Sb  Sb61  1  0.00053407  -0.00257498  0.00225903  1
  Sb  Sb62  1  0.83694759  0.83574562  0.32750089  1
  Sb  Sb63  1  0.67235351  0.33789234  0.66879106  1
  Sb  Sb64  1  0.50415666  0.33771884  0.50021201  1
  Sb  Sb65  1  0.16367968  0.66749898  0.83231502  1
  Sb  Sb66  1  0.32729898  0.33257796  0.33088659  1
  Sb  Sb67  1  0.83561309  0.49749487  0.33312695  1
  Sb  Sb68  1  0.32929528  0.00382408  0.66739905  1
  Sb  Sb69  1  0.83575968  0.17229510  0.66477660  1
  Sb  Sb70  1  0.49859052  0.16638097  0.66507796  1
  Sb  Sb71  1  0.67261362  0.83455491  0.83993832  1
  Sb  Sb72  1  -0.00199568  0.49786639  0.83143290  1
  Sb  Sb73  1  0.16038604  -0.00344910  0.50255217  1
  Sb  Sb74  1  0.32635414  0.16660619  0.84053465  1
  Sb  Sb75  1  0.50279803  0.33354609  0.16598735  1
  Sb  Sb76  1  0.16083298  0.49837214  0.00451511  1
  Sb  Sb77  1  0.50041582  0.16427538  0.00240236  1
  Sb  Sb78  1  0.33344461  0.49860156  0.83432554  1
  Sb  Sb79  1  0.33222009  0.83657831  0.16490763  1
  Sb  Sb80  1  0.50186358  0.83475138  -0.00104525  1
  Sb  Sb81  1  0.16225827  0.83010795  0.32989893  1
  Sb  Sb82  1  0.67266927  0.83151142  0.49549840  1
  Sb  Sb83  1  0.16705187  0.66357903  0.17032862  1
  Sb  Sb84  1  0.67407509  0.33663126  0.32727969  1
  Sb  Sb85  1  0.82923911  0.66286312  0.16823981  1
  Sb  Sb86  1  0.83985043  0.00410959  0.83351568  1
  Sb  Sb87  1  0.67052573  -0.00398365  0.66936600  1
  Sb  Sb88  1  0.83711416  0.82854180  0.66905826  1
  Sb  Sb89  1  0.33778878  0.66326203  0.66336936  1
  Sb  Sb90  1  0.50619946  0.50259879  0.00197738  1
  Sb  Sb91  1  0.50106250  0.67169357  0.83469676  1
  Sb  Sb92  1  0.83522815  0.66334643  0.83508547  1
  Sb  Sb93  1  0.50326593  -0.00446850  0.49642880  1
  Sb  Sb94  1  -0.00397384  0.66734143  0.66137327  1
  Sb  Sb95  1  0.67411857  0.16623638  0.83989009  1
  Sb  Sb96  1  0.16038543  0.33538964  0.49922041  1
  Sb  Sb97  1  0.16088537  0.16949231  0.32621679  1
  Sb  Sb98  1  0.32844749  0.83458799  0.49893872  1
  Sb  Sb99  1  0.32773674  0.83488251  0.83548319  1
  Sb  Sb100  1  0.16422091  0.16500239  0.67132313  1
  Sb  Sb101  1  -0.00209855  0.16638880  0.49571109  1
  Sb  Sb102  1  0.83223108  0.00557620  0.16676334  1
  Sb  Sb103  1  0.33765212  0.49770428  0.16691594  1
  Sb  Sb104  1  0.33088022  0.49826648  0.49809744  1
  Sb  Sb105  1  0.16306577  0.50211210  0.66206848  1
  Sb  Sb106  1  0.16792843  0.00419029  0.16115973  1
  Sb  Sb107  1  0.66855491  0.49976335  0.83858561  1
  Te  Te108  1  0.16543358  0.17044547  0.16159163  1
  Te  Te109  1  0.17282914  0.16622224  0.49922570  1
  Te  Te110  1  0.16126023  0.16697185  0.83858321  1
  Te  Te111  1  0.16686909  0.49230492  0.17217530  1
  Te  Te112  1  0.16137634  0.50485850  0.49520125  1
  Te  Te113  1  0.16575958  0.49185805  0.83240431  1
  Te  Te114  1  0.15988506  0.83236642  0.15959184  1
  Te  Te115  1  0.16122276  0.82892755  0.50324187  1
  Te  Te116  1  0.16186323  0.83385341  0.83523617  1
  Te  Te117  1  0.49757587  0.16237510  0.16757956  1
  Te  Te118  1  0.50077013  0.16551589  0.49861352  1
  Te  Te119  1  0.50053390  0.15864015  0.83152329  1
  Te  Te120  1  0.50571292  0.50426652  0.16946797  1
  Te  Te121  1  0.50124422  0.50512991  0.50029637  1
  Te  Te122  1  0.50110140  0.49923059  0.82433186  1
  Te  Te123  1  0.50307843  0.83275457  0.16631404  1
  Te  Te124  1  0.50095955  0.82737564  0.50547454  1
  Te  Te125  1  0.50101865  0.83952698  0.82790654  1
  Te  Te126  1  0.83527187  0.16794863  0.16679895  1
  Te  Te127  1  0.83262595  0.16796526  0.49876092  1
  Te  Te128  1  0.84025688  0.17158111  0.83759933  1
  Te  Te129  1  0.82766103  0.49237329  0.16350983  1
  Te  Te130  1  0.83627831  0.49983595  0.50033443  1
  Te  Te131  1  0.83362910  0.49253313  0.83353735  1
  Te  Te132  1  0.83512973  0.83420532  0.16112064  1
  Te  Te133  1  0.83849882  0.83115359  0.50058626  1
  Te  Te134  1  0.84141062  0.83434697  0.83984816  1
  Te  Te135  1  0.16811976  0.00098177  -0.00272214  1
  Te  Te136  1  0.16728328  -0.00020021  0.33339941  1
  Te  Te137  1  0.16180062  -0.00473115  0.67177517  1
  Te  Te138  1  0.16671116  0.33309328  0.00070630  1
  Te  Te139  1  0.15997502  0.33738288  0.33043428  1
  Te  Te140  1  0.16392990  0.33383603  0.66828717  1
  Te  Te141  1  0.16720823  0.66657351  0.00095120  1
  Te  Te142  1  0.16325212  0.66472218  0.33579360  1
  Te  Te143  1  0.16919066  0.67103510  0.66201405  1
  Te  Te144  1  0.49777364  -0.00115543  0.00253101  1
  Te  Te145  1  0.49572587  -0.00010969  0.32853726  1
  Te  Te146  1  0.49990983  -0.00505124  0.66635957  1
  Te  Te147  1  0.49324907  0.33488398  -0.00176815  1
  Te  Te148  1  0.49868630  0.34310847  0.33387959  1
  Te  Te149  1  0.49919194  0.33858079  0.66732185  1
  Te  Te150  1  0.50057014  0.66740563  0.00312448  1
  Te  Te151  1  0.49968589  0.66599994  0.33194050  1
  Te  Te152  1  0.50190329  0.66650493  0.66812931  1
  Te  Te153  1  0.82861248  0.00217713  -0.00110224  1
  Te  Te154  1  0.83602376  0.00411755  0.33804001  1
  Te  Te155  1  0.83844421  0.00005908  0.66242099  1
  Te  Te156  1  0.83550405  0.33213515  0.00138772  1
  Te  Te157  1  0.83770178  0.33113681  0.33502989  1
  Te  Te158  1  0.83645644  0.33812788  0.66286556  1
  Te  Te159  1  0.83272387  0.66792051  0.00073750  1
  Te  Te160  1  0.83660735  0.66630315  0.33746780  1
  Te  Te161  1  0.82820684  0.66120235  0.66470184  1
  Te  Te162  1  0.00036469  0.16505726  0.00275968  1
  Te  Te163  1  -0.00326471  0.16629343  0.32964703  1
  Te  Te164  1  0.00022987  0.16701753  0.66959665  1
  Te  Te165  1  -0.00692073  0.51032515  -0.00044588  1
  Te  Te166  1  0.00124167  0.50186726  0.33574447  1
  Te  Te167  1  -0.00408635  0.49709243  0.66293751  1
  Te  Te168  1  0.00038369  0.83487453  0.00257735  1
  Te  Te169  1  -0.00033974  0.83292297  0.33488430  1
  Te  Te170  1  0.00116994  0.83444670  0.66393113  1
  Te  Te171  1  0.33205821  0.16609366  0.00442192  1
  Te  Te172  1  0.33349529  0.16467279  0.32983226  1
  Te  Te173  1  0.33276595  0.17281181  0.66357503  1
  Te  Te174  1  0.33286454  0.50115094  0.00060595  1
  Te  Te175  1  0.33266562  0.50434560  0.33339964  1
  Te  Te176  1  0.33417417  0.49366943  0.66633917  1
  Te  Te177  1  0.32754569  0.83389467  0.00029753  1
  Te  Te178  1  0.33173628  0.83334802  0.33289802  1
  Te  Te179  1  0.33197369  0.83330291  0.66686216  1
  Te  Te180  1  0.66798494  0.16678278  0.00364714  1
  Te  Te181  1  0.67107645  0.16684909  0.33127403  1
  Te  Te182  1  0.66667448  0.16656623  0.66243539  1
  Te  Te183  1  0.67092399  0.50088984  0.00462638  1
  Te  Te184  1  0.66409001  0.50397070  0.32868945  1
  Te  Te185  1  0.66845541  0.50450563  0.66677909  1
  Te  Te186  1  0.66824412  0.83236699  0.00406269  1
  Te  Te187  1  0.66835538  0.82721816  0.32577475  1
  Te  Te188  1  0.66514373  0.82771595  0.66759951  1
  Te  Te189  1  0.00079831  0.00060208  0.17268505  1
  Te  Te190  1  -0.00352306  -0.00070481  0.49823262  1
  Te  Te191  1  0.00357357  0.00053188  0.83109626  1
  Te  Te192  1  -0.00109090  0.33238540  0.16883634  1
  Te  Te193  1  -0.00328898  0.33318687  0.50058735  1
  Te  Te194  1  -0.00001373  0.33188269  0.83210788  1
  Te  Te195  1  -0.00084740  0.66804329  0.16904942  1
  Te  Te196  1  -0.00214418  0.66679779  0.49955647  1
  Te  Te197  1  0.00028339  0.67250931  0.83826760  1
  Te  Te198  1  0.33495679  0.00204546  0.16640971  1
  Te  Te199  1  0.33375761  0.00432149  0.49756777  1
  Te  Te200  1  0.33171105  0.00113867  0.83629711  1
  Te  Te201  1  0.33394829  0.32853375  0.16309209  1
  Te  Te202  1  0.33397627  0.32817912  0.50115425  1
  Te  Te203  1  0.33101072  0.33171452  0.83503850  1
  Te  Te204  1  0.33695567  0.66705593  0.16823252  1
  Te  Te205  1  0.33725533  0.66641395  0.49490558  1
  Te  Te206  1  0.33265808  0.66655378  0.84284421  1
  Te  Te207  1  0.66390139  0.00270071  0.16370432  1
  Te  Te208  1  0.67222003  0.00301317  0.49943805  1
  Te  Te209  1  0.66211840  0.00096374  0.83849471  1
  Te  Te210  1  0.66793303  0.32688991  0.16246370  1
  Te  Te211  1  0.67291570  0.32843345  0.49979610  1
  Te  Te212  1  0.67105754  0.33192068  0.84103114  1
  Te  Te213  1  0.66737745  0.66774714  0.16809280  1
  Te  Te214  1  0.66718240  0.66686434  0.49804756  1
  Te  Te215  1  0.66681696  0.66752239  0.83600774  1
