# generated using pymatgen
data_AgSbTe2
_symmetry_space_group_name_H-M   'P 1'
_cell_length_a   18.33163322
_cell_length_b   18.32341940
_cell_length_c   18.32602162
_cell_angle_alpha   90.00262393
_cell_angle_beta   89.99610138
_cell_angle_gamma   90.00046383
_symmetry_Int_Tables_number   1
_chemical_formula_structural   AgSbTe2
_chemical_formula_sum   'Ag54 Sb54 Te108'
_cell_volume   6155.67772555
_cell_formula_units_Z   54
loop_
 _symmetry_equiv_pos_site_id
 _symmetry_equiv_pos_as_xyz
  1  'x, y, z'
loop_
 _atom_site_type_symbol
 _atom_site_label
 _atom_site_symmetry_multiplicity
 _atom_site_fract_x
 _atom_site_fract_y
 _atom_site_fract_z
 _atom_site_occupancy
  Ag  Ag0  1  0.49965678  0.50008777  0.00355573  1
  Ag  Ag1  1  0.00053748  0.16916060  0.49621617  1
  Ag  Ag2  1  0.33470521  0.83027908  0.50040539  1
  Ag  Ag3  1  0.83940863  0.67179709  0.16987036  1
  Ag  Ag4  1  0.16075797  0.34428093  0.84009493  1
  Ag  Ag5  1  -0.00014151  0.82553879  0.49887827  1
  Ag  Ag6  1  0.50397498  -0.00191276  0.16971045  1
  Ag  Ag7  1  0.33830849  0.33594942  0.32945067  1
  Ag  Ag8  1  0.33490565  0.66919603  0.66394865  1
  Ag  Ag9  1  0.50006202  0.50832322  0.66406158  1
  Ag  Ag10  1  -0.00167730  0.82422688  0.82418688  1
  Ag  Ag11  1  0.33846832  0.50232776  0.16210816  1
  Ag  Ag12  1  -0.00216072  0.83019563  0.17383445  1
  Ag  Ag13  1  0.00478476  0.50460039  0.82912025  1
  Ag  Ag14  1  0.33197407  0.66146504  0.00219541  1
  Ag  Ag15  1  0.50546671  -0.00328793  0.83417065  1
  Ag  Ag16  1  0.15706181  0.66598804  0.50044155  1
  Ag  Ag17  1  0.66914133  0.00188302  0.32764323  1
  Ag  Ag18  1  0.50058447  0.49695091  0.32964734  1
  Ag  Ag19  1  0.33751229  -0.01110630  0.66475021  1
  Ag  Ag20  1  0.00012478  0.51058735  0.50370953  1
  Ag  Ag21  1  0.66604046  0.00145700  0.01051851  1
  Ag  Ag22  1  0.16498208  0.17021473  0.33113513  1
  Ag  Ag23  1  0.50001819  0.34463173  0.49042071  1
  Ag  Ag24  1  0.00008216  0.34612284  0.66117792  1
  Ag  Ag25  1  0.00148401  0.66416605  0.65695729  1
  Ag  Ag26  1  0.49384173  0.34447303  0.17283060  1
  Ag  Ag27  1  0.83280760  0.83013042  0.66543684  1
  Ag  Ag28  1  0.65774585  0.33472357  0.32665613  1
  Ag  Ag29  1  0.83478824  -0.00893086  0.49655275  1
  Ag  Ag30  1  0.82489559  -0.00813751  0.17062167  1
  Ag  Ag31  1  0.32935653  0.50337234  0.84207299  1
  Ag  Ag32  1  0.16594386  0.66514462  0.16622727  1
  Ag  Ag33  1  0.17305114  0.50227956  -0.00100339  1
  Ag  Ag34  1  0.17018872  -0.00713377  0.16830049  1
  Ag  Ag35  1  0.66608500  0.34317029  0.00738771  1
  Ag  Ag36  1  -0.00486747  -0.00724395  0.33411534  1
  Ag  Ag37  1  0.16543683  0.66148773  0.83237762  1
  Ag  Ag38  1  0.82957181  0.50061645  -0.00173350  1
  Ag  Ag39  1  0.17485246  0.34029393  0.16835730  1
  Ag  Ag40  1  0.00218835  0.33704375  0.33657531  1
  Ag  Ag41  1  0.83916770  0.34312255  0.83312321  1
  Ag  Ag42  1  0.66710199  0.83293574  0.16521404  1
  Ag  Ag43  1  0.00043430  0.66633804  0.34360070  1
  Ag  Ag44  1  0.50055910  0.82636469  0.66256634  1
  Ag  Ag45  1  0.66582662  0.50024854  0.84296132  1
  Ag  Ag46  1  0.50256229  -0.00501545  0.49808895  1
  Ag  Ag47  1  0.84501617  0.67097871  0.49987886  1
  Ag  Ag48  1  0.49807777  0.66638651  0.50424436  1
  Ag  Ag49  1  0.65825704  0.50136389  0.16149241  1
  Ag  Ag50  1  0.33303245  0.82973419  0.17201021  1
  Ag  Ag51  1  0.33200653  0.17476984  0.16899435  1
  Ag  Ag52  1  0.66230089  0.66676807  0.66520552  1
  Ag  Ag53  1  0.83068374  -0.00256168  0.83443105  1
  Sb  Sb54  1  0.16759957  0.50399787  0.67398893  1
  Sb  Sb55  1  0.83142423  0.50071202  0.32922029  1
  Sb  Sb56  1  0.16838063  0.49747571  0.32693441  1
  Sb  Sb57  1  0.00485994  0.66519878  0.00004874  1
  Sb  Sb58  1  0.33393550  0.00266874  0.33121052  1
  Sb  Sb59  1  0.00066119  0.50518900  0.16736303  1
  Sb  Sb60  1  0.83249233  0.82840772  0.00045674  1
  Sb  Sb61  1  0.83559962  0.16027698  0.66526368  1
  Sb  Sb62  1  0.83161091  0.33529455  0.16441642  1
  Sb  Sb63  1  0.83479198  0.33685609  0.50325145  1
  Sb  Sb64  1  0.66990063  0.66640118  0.33414690  1
  Sb  Sb65  1  -0.00193124  0.33789957  0.00067789  1
  Sb  Sb66  1  0.66937499  0.83001545  0.83572155  1
  Sb  Sb67  1  0.33034523  0.33949157  0.66337997  1
  Sb  Sb68  1  0.00139495  -0.00733232  0.66078308  1
  Sb  Sb69  1  0.16466296  -0.00627280  0.49380867  1
  Sb  Sb70  1  0.66327957  -0.00744213  0.66469704  1
  Sb  Sb71  1  0.66635249  0.50210025  0.49799556  1
  Sb  Sb72  1  0.83931710  0.66532179  0.83238039  1
  Sb  Sb73  1  0.33234507  0.50668202  0.49950495  1
  Sb  Sb74  1  0.33007282  0.16303830  0.49476310  1
  Sb  Sb75  1  0.83334232  0.50787375  0.67058244  1
  Sb  Sb76  1  0.66630588  0.16974969  0.83424620  1
  Sb  Sb77  1  0.16476729  0.16769477  0.66065704  1
  Sb  Sb78  1  0.49839528  0.16487647  0.66495760  1
  Sb  Sb79  1  0.66761944  0.83212074  0.49689347  1
  Sb  Sb80  1  0.16716237  0.82908690  0.66480296  1
  Sb  Sb81  1  0.50032248  0.83080452  0.33683361  1
  Sb  Sb82  1  0.66269052  0.16622922  0.16778600  1
  Sb  Sb83  1  0.16612149  0.33996903  0.49580607  1
  Sb  Sb84  1  0.66957700  0.34371408  0.66735156  1
  Sb  Sb85  1  0.33059576  0.82650813  0.83003614  1
  Sb  Sb86  1  0.50058062  0.82850813  -0.00126689  1
  Sb  Sb87  1  0.33718341  0.34312734  0.00863085  1
  Sb  Sb88  1  0.83495682  0.83462452  0.33692521  1
  Sb  Sb89  1  0.66282423  0.66183385  -0.00122783  1
  Sb  Sb90  1  0.49544368  0.17172968  0.33178964  1
  Sb  Sb91  1  0.49541711  0.66527105  0.82659145  1
  Sb  Sb92  1  0.33271462  0.17139382  0.83777098  1
  Sb  Sb93  1  0.83284798  0.16921947  0.00105916  1
  Sb  Sb94  1  0.49968887  0.33837711  0.83442147  1
  Sb  Sb95  1  0.16446901  -0.00308597  0.83843934  1
  Sb  Sb96  1  0.32838629  0.66250611  0.33414269  1
  Sb  Sb97  1  0.49734991  0.66368180  0.17103156  1
  Sb  Sb98  1  0.00022582  0.17053078  0.82584732  1
  Sb  Sb99  1  0.83906836  0.16404549  0.33339767  1
  Sb  Sb100  1  0.16811839  0.17447389  0.00826295  1
  Sb  Sb101  1  0.16411964  0.83450537  0.33083750  1
  Sb  Sb102  1  0.49949569  0.17071905  0.00351084  1
  Sb  Sb103  1  0.16744417  0.82648489  0.00385185  1
  Sb  Sb104  1  0.33851169  -0.00780494  0.00140087  1
  Sb  Sb105  1  -0.00517524  -0.00283489  0.00819308  1
  Sb  Sb106  1  0.00619283  0.16256244  0.17521674  1
  Sb  Sb107  1  0.66899501  0.16548090  0.49709638  1
  Te  Te108  1  0.17209649  0.17168223  0.17065362  1
  Te  Te109  1  0.16198487  0.16672579  0.49349863  1
  Te  Te110  1  0.16740591  0.17231693  0.83451996  1
  Te  Te111  1  0.16705034  0.50105698  0.16190539  1
  Te  Te112  1  0.16269854  0.50627870  0.49883241  1
  Te  Te113  1  0.16650440  0.50093253  0.83547039  1
  Te  Te114  1  0.16609460  0.83039052  0.16643171  1
  Te  Te115  1  0.16772118  0.82680585  0.49890553  1
  Te  Te116  1  0.15931415  0.82836816  0.83461933  1
  Te  Te117  1  0.49237750  0.16133694  0.16669997  1
  Te  Te118  1  0.49938440  0.15862090  0.49926900  1
  Te  Te119  1  0.49846567  0.15657193  0.83364374  1
  Te  Te120  1  0.49998985  0.50166368  0.16718026  1
  Te  Te121  1  0.49968010  0.50073880  0.50163327  1
  Te  Te122  1  0.50044058  0.49930929  0.83455113  1
  Te  Te123  1  0.50015528  0.83441303  0.16719486  1
  Te  Te124  1  0.50051447  0.83444046  0.50262688  1
  Te  Te125  1  0.49967928  0.83846601  0.82802593  1
  Te  Te126  1  0.83554723  0.15552861  0.16618893  1
  Te  Te127  1  0.83985893  0.16061212  0.50028402  1
  Te  Te128  1  0.83320522  0.15967676  0.83312629  1
  Te  Te129  1  0.83217176  0.50294955  0.16131532  1
  Te  Te130  1  0.83714540  0.50574867  0.50080706  1
  Te  Te131  1  0.83348096  0.49991586  0.83569583  1
  Te  Te132  1  0.83523610  0.83279106  0.16522586  1
  Te  Te133  1  0.83328436  0.83094433  0.50363708  1
  Te  Te134  1  0.83676594  0.83572760  0.83097786  1
  Te  Te135  1  0.16704301  0.00213994  0.00775342  1
  Te  Te136  1  0.16367727  0.00499857  0.32721826  1
  Te  Te137  1  0.17427378  0.00035928  0.66906139  1
  Te  Te138  1  0.16695189  0.34062868  0.00243639  1
  Te  Te139  1  0.16283873  0.33278262  0.33065619  1
  Te  Te140  1  0.16130870  0.33413108  0.66798603  1
  Te  Te141  1  0.17147582  0.66134055  0.00308487  1
  Te  Te142  1  0.16110752  0.66476719  0.33063845  1
  Te  Te143  1  0.16606881  0.66624847  0.66532611  1
  Te  Te144  1  0.50472005  -0.00086620  0.00247846  1
  Te  Te145  1  0.50192437  0.00026812  0.33230081  1
  Te  Te146  1  0.49801930  -0.00109567  0.66219776  1
  Te  Te147  1  0.50616904  0.33795361  0.00311941  1
  Te  Te148  1  0.50027179  0.33465123  0.33246203  1
  Te  Te149  1  0.49957965  0.33532386  0.66304483  1
  Te  Te150  1  0.49428957  0.66068401  -0.00144255  1
  Te  Te151  1  0.50125380  0.66022106  0.34143255  1
  Te  Te152  1  0.49789166  0.66702953  0.66600761  1
  Te  Te153  1  0.82812147  -0.00023093  -0.00081961  1
  Te  Te154  1  0.83347320  -0.00003617  0.33391933  1
  Te  Te155  1  0.83229510  -0.00682129  0.66505789  1
  Te  Te156  1  0.82774519  0.33655227  -0.00404124  1
  Te  Te157  1  0.83680756  0.33232740  0.33413323  1
  Te  Te158  1  0.83811329  0.33213079  0.67214496  1
  Te  Te159  1  0.83107056  0.66111232  0.00537050  1
  Te  Te160  1  0.83780350  0.66667426  0.33312534  1
  Te  Te161  1  0.83839973  0.67046240  0.66539740  1
  Te  Te162  1  0.00065802  0.16634093  -0.00197412  1
  Te  Te163  1  0.00420634  0.16902824  0.33831062  1
  Te  Te164  1  0.00057369  0.17078490  0.65765131  1
  Te  Te165  1  -0.00360270  0.49963255  -0.00592329  1
  Te  Te166  1  -0.00024841  0.50154651  0.33582043  1
  Te  Te167  1  -0.00049018  0.50291516  0.66790648  1
  Te  Te168  1  0.00007567  0.83325852  0.00058075  1
  Te  Te169  1  0.00002387  0.83224249  0.33390271  1
  Te  Te170  1  -0.00121883  0.82938046  0.66463442  1
  Te  Te171  1  0.33337989  0.16465723  0.00843511  1
  Te  Te172  1  0.32736698  0.17228160  0.32835493  1
  Te  Te173  1  0.33180900  0.16336440  0.66726277  1
  Te  Te174  1  0.33438158  0.50251193  0.00065369  1
  Te  Te175  1  0.33788177  0.49528899  0.33032759  1
  Te  Te176  1  0.33926727  0.50438949  0.66778240  1
  Te  Te177  1  0.33446566  0.82375203  0.00527571  1
  Te  Te178  1  0.33336949  0.83359386  0.33401887  1
  Te  Te179  1  0.33604573  0.83058637  0.66459327  1
  Te  Te180  1  0.66654832  0.16364655  -0.00030999  1
  Te  Te181  1  0.66698050  0.16837065  0.33329842  1
  Te  Te182  1  0.66726815  0.16896488  0.66613734  1
  Te  Te183  1  0.66497856  0.50063398  0.00145336  1
  Te  Te184  1  0.66334163  0.49683152  0.32773017  1
  Te  Te185  1  0.66203175  0.50620178  0.66886411  1
  Te  Te186  1  0.66592433  0.83944560  0.00541501  1
  Te  Te187  1  0.66637856  0.83856989  0.32429348  1
  Te  Te188  1  0.66588929  0.82671393  0.66747141  1
  Te  Te189  1  0.00265855  -0.00451523  0.17215206  1
  Te  Te190  1  -0.00066400  -0.00675596  0.49608859  1
  Te  Te191  1  -0.00262066  -0.00135669  0.83217497  1
  Te  Te192  1  0.00101646  0.33210094  0.17195081  1
  Te  Te193  1  -0.00087212  0.33533148  0.49936023  1
  Te  Te194  1  -0.00031027  0.33582489  0.83330960  1
  Te  Te195  1  0.00085195  0.66959682  0.16615075  1
  Te  Te196  1  0.00077633  0.66752403  0.50001244  1
  Te  Te197  1  0.00430274  0.66582761  0.83429796  1
  Te  Te198  1  0.33310304  -0.00934032  0.16630990  1
  Te  Te199  1  0.33351554  -0.00467012  0.50153828  1
  Te  Te200  1  0.33384592  -0.00053926  0.83164523  1
  Te  Te201  1  0.33483060  0.33859510  0.16836938  1
  Te  Te202  1  0.33759766  0.33199360  0.49467873  1
  Te  Te203  1  0.32879552  0.33974289  0.83204101  1
  Te  Te204  1  0.33061878  0.66590967  0.16883365  1
  Te  Te205  1  0.33757067  0.67062421  0.50101125  1
  Te  Te206  1  0.32882766  0.66321322  0.82956293  1
  Te  Te207  1  0.66545129  0.00266769  0.16842107  1
  Te  Te208  1  0.66777025  -0.00073062  0.49615248  1
  Te  Te209  1  0.66723622  -0.00074007  0.83241474  1
  Te  Te210  1  0.66734334  0.33431240  0.16709734  1
  Te  Te211  1  0.66330766  0.33336560  0.49572622  1
  Te  Te212  1  0.66943088  0.33769698  0.83553712  1
  Te  Te213  1  0.66911642  0.66717995  0.16718111  1
  Te  Te214  1  0.66128824  0.66693327  0.50305396  1
  Te  Te215  1  0.66777241  0.66171910  0.82930604  1
