# generated using pymatgen
data_AgSbTe2
_symmetry_space_group_name_H-M   'P 1'
_cell_length_a   18.31764359
_cell_length_b   18.32452617
_cell_length_c   18.32179526
_cell_angle_alpha   89.99817416
_cell_angle_beta   89.99610640
_cell_angle_gamma   89.99845584
_symmetry_Int_Tables_number   1
_chemical_formula_structural   AgSbTe2
_chemical_formula_sum   'Ag54 Sb54 Te108'
_cell_volume   6149.93297427
_cell_formula_units_Z   54
loop_
 _symmetry_equiv_pos_site_id
 _symmetry_equiv_pos_as_xyz
  1  'x, y, z'
loop_
 _atom_site_type_symbol
 _atom_site_label
 _atom_site_symmetry_multiplicity
 _atom_site_fract_x
 _atom_site_fract_y
 _atom_site_fract_z
 _atom_site_occupancy
  Ag  Ag0  1  0.50124005  0.33902893  0.16446173  1
  Ag  Ag1  1  0.32510514  0.50120342  0.83306271  1
  Ag  Ag2  1  0.67235455  0.00733184  0.66481566  1
  Ag  Ag3  1  0.32981606  0.17324129  0.50213804  1
  Ag  Ag4  1  0.16950475  0.67048189  0.16907975  1
  Ag  Ag5  1  0.65926884  0.66388476  0.00282208  1
  Ag  Ag6  1  0.82888101  0.16422899  0.66360997  1
  Ag  Ag7  1  0.66809358  0.16330726  0.83661631  1
  Ag  Ag8  1  0.83167340  0.67267195  0.16928272  1
  Ag  Ag9  1  0.67604519  0.17030839  0.50447987  1
  Ag  Ag10  1  0.49811604  0.82952010  -0.00074663  1
  Ag  Ag11  1  0.16525703  0.50010554  -0.00596038  1
  Ag  Ag12  1  0.66848381  0.16600679  0.15747074  1
  Ag  Ag13  1  0.15971295  -0.00745539  0.17043536  1
  Ag  Ag14  1  0.66798978  0.83775795  0.83399872  1
  Ag  Ag15  1  0.33370876  0.83001485  0.84232316  1
  Ag  Ag16  1  0.33731061  0.16670695  0.83469645  1
  Ag  Ag17  1  0.33896405  0.67087438  0.00475400  1
  Ag  Ag18  1  0.67363415  0.49430758  0.50066985  1
  Ag  Ag19  1  0.83501995  0.50310879  0.33515656  1
  Ag  Ag20  1  0.66956260  0.32583068  0.66629472  1
  Ag  Ag21  1  0.66688593  0.66579906  0.66690057  1
  Ag  Ag22  1  0.83646629  -0.00347436  0.17476457  1
  Ag  Ag23  1  0.83582096  0.00730818  0.49345214  1
  Ag  Ag24  1  0.33169628  -0.01040423  -0.00007730  1
  Ag  Ag25  1  0.16574466  0.34030136  0.82945439  1
  Ag  Ag26  1  0.15959800  0.00435238  0.49682291  1
  Ag  Ag27  1  0.15899805  0.33765613  0.50316558  1
  Ag  Ag28  1  0.82546898  0.16605801  -0.00367763  1
  Ag  Ag29  1  0.66988106  0.32776375  -0.00128045  1
  Ag  Ag30  1  0.33513767  0.66396152  0.32495533  1
  Ag  Ag31  1  -0.00720670  0.17411714  0.49872940  1
  Ag  Ag32  1  0.67610203  -0.00227748  0.33630474  1
  Ag  Ag33  1  0.32706536  0.34121738  0.33683323  1
  Ag  Ag34  1  0.00579837  0.49908618  0.83556958  1
  Ag  Ag35  1  0.32786728  0.82871975  0.16088719  1
  Ag  Ag36  1  -0.00316530  0.33547916  0.00371680  1
  Ag  Ag37  1  0.83319564  0.83530240  0.33030089  1
  Ag  Ag38  1  0.49935912  0.66855719  0.84409952  1
  Ag  Ag39  1  0.66857784  0.66924049  0.32991668  1
  Ag  Ag40  1  0.83131268  0.00221249  0.83430028  1
  Ag  Ag41  1  0.16577373  0.50165258  0.66652859  1
  Ag  Ag42  1  0.32089126  0.49524238  0.50004420  1
  Ag  Ag43  1  0.00346862  0.49277043  0.49534066  1
  Ag  Ag44  1  0.49931373  0.66449729  0.16192108  1
  Ag  Ag45  1  0.00055057  0.33453292  0.33697119  1
  Ag  Ag46  1  0.00262612  0.82969425  0.16330988  1
  Ag  Ag47  1  0.84006349  0.32601535  0.49781551  1
  Ag  Ag48  1  0.16639115  0.82767774  0.66823236  1
  Ag  Ag49  1  0.00122721  0.83077619  0.84005645  1
  Ag  Ag50  1  0.00027138  0.50306766  0.16954446  1
  Ag  Ag51  1  0.50719283  0.16490416  -0.00043535  1
  Ag  Ag52  1  -0.00571942  0.00266922  0.33362240  1
  Ag  Ag53  1  0.16772952  0.65379593  0.49698917  1
  Sb  Sb54  1  0.33538928  0.00023232  0.66942827  1
  Sb  Sb55  1  -0.00576544  0.16624999  0.17060987  1
  Sb  Sb56  1  0.49773570  0.50076821  0.66725964  1
  Sb  Sb57  1  0.16187071  0.83150964  0.33177743  1
  Sb  Sb58  1  0.50456029  -0.00322208  0.83701614  1
  Sb  Sb59  1  -0.00250193  0.16789311  0.83049570  1
  Sb  Sb60  1  0.66662916  0.00270675  -0.00029490  1
  Sb  Sb61  1  0.50734233  0.16676554  0.67255810  1
  Sb  Sb62  1  0.83210463  0.16389743  0.33535688  1
  Sb  Sb63  1  0.50348900  0.00367589  0.49943549  1
  Sb  Sb64  1  0.66822822  0.83425155  0.50375142  1
  Sb  Sb65  1  0.32663231  0.50681505  0.16721999  1
  Sb  Sb66  1  0.16743158  0.33531283  0.16823659  1
  Sb  Sb67  1  -0.00158753  0.66643745  0.66669543  1
  Sb  Sb68  1  -0.00384317  -0.00059540  0.66099527  1
  Sb  Sb69  1  0.83499223  0.83752274  0.66506065  1
  Sb  Sb70  1  0.50290291  -0.00283732  0.16273583  1
  Sb  Sb71  1  0.83618474  0.32986483  0.83071619  1
  Sb  Sb72  1  0.33384889  0.66585686  0.66884783  1
  Sb  Sb73  1  0.50273107  0.49999754  0.33234625  1
  Sb  Sb74  1  -0.00195862  0.66468442  0.33061781  1
  Sb  Sb75  1  0.66883362  0.83373505  0.16216933  1
  Sb  Sb76  1  0.16588643  0.16695382  0.33543206  1
  Sb  Sb77  1  0.83675210  0.49690444  0.00378699  1
  Sb  Sb78  1  0.49592035  0.50315470  0.00034661  1
  Sb  Sb79  1  0.00138074  0.66184403  0.00274285  1
  Sb  Sb80  1  -0.00246043  0.33412202  0.66331316  1
  Sb  Sb81  1  0.33380480  0.33652150  0.00257702  1
  Sb  Sb82  1  0.50057974  0.33252112  0.49441011  1
  Sb  Sb83  1  0.33566316  0.33332969  0.66359741  1
  Sb  Sb84  1  0.33115931  -0.00221074  0.32999762  1
  Sb  Sb85  1  0.00033724  0.83339281  0.49604343  1
  Sb  Sb86  1  0.16656567  0.17126575  -0.00122087  1
  Sb  Sb87  1  0.50392479  0.83075864  0.32576509  1
  Sb  Sb88  1  0.50291583  0.16721328  0.32759033  1
  Sb  Sb89  1  0.17100967  0.66158209  0.83485669  1
  Sb  Sb90  1  0.00252015  0.00310567  0.00507855  1
  Sb  Sb91  1  0.16190565  0.50148744  0.33587530  1
  Sb  Sb92  1  0.66747656  0.50005193  0.83010041  1
  Sb  Sb93  1  0.83599957  0.49595641  0.66084614  1
  Sb  Sb94  1  0.49856835  0.83085691  0.67544793  1
  Sb  Sb95  1  0.83002210  0.83714284  0.00352422  1
  Sb  Sb96  1  0.67056241  0.33315760  0.33416799  1
  Sb  Sb97  1  0.82880024  0.67073898  0.83928503  1
  Sb  Sb98  1  0.49769663  0.66545034  0.49744706  1
  Sb  Sb99  1  0.67218735  0.50076096  0.16956698  1
  Sb  Sb100  1  0.49803055  0.33595358  0.83907752  1
  Sb  Sb101  1  0.32737508  0.83180443  0.49909923  1
  Sb  Sb102  1  0.17161350  0.82736777  -0.00115828  1
  Sb  Sb103  1  0.33739335  0.16350803  0.16432429  1
  Sb  Sb104  1  0.83574829  0.66501492  0.49441779  1
  Sb  Sb105  1  0.83168430  0.33139272  0.17077793  1
  Sb  Sb106  1  0.16408954  0.00056226  0.83315768  1
  Sb  Sb107  1  0.16320156  0.16844477  0.66333688  1
  Te  Te108  1  0.16712549  0.15934837  0.16610124  1
  Te  Te109  1  0.16931471  0.16761677  0.50131020  1
  Te  Te110  1  0.17000662  0.17143896  0.83077725  1
  Te  Te111  1  0.15991012  0.50297201  0.16394539  1
  Te  Te112  1  0.16441928  0.49796582  0.49992275  1
  Te  Te113  1  0.16634284  0.50041186  0.83134260  1
  Te  Te114  1  0.16474720  0.83260890  0.16563911  1
  Te  Te115  1  0.16496522  0.83787391  0.50474196  1
  Te  Te116  1  0.16546439  0.83271988  0.83066342  1
  Te  Te117  1  0.50544829  0.16719098  0.16023426  1
  Te  Te118  1  0.49466537  0.16697236  0.50054380  1
  Te  Te119  1  0.49947787  0.16800081  0.83901664  1
  Te  Te120  1  0.50007137  0.50209598  0.16624444  1
  Te  Te121  1  0.50262787  0.50020487  0.50029939  1
  Te  Te122  1  0.49426777  0.50637439  0.83296620  1
  Te  Te123  1  0.49644584  0.82835942  0.15942794  1
  Te  Te124  1  0.49759938  0.83390507  0.50053431  1
  Te  Te125  1  0.49895302  0.82952328  0.83903565  1
  Te  Te126  1  0.82856520  0.16344692  0.16211534  1
  Te  Te127  1  0.83264648  0.16638889  0.49979233  1
  Te  Te128  1  0.83114750  0.16415928  0.83382998  1
  Te  Te129  1  0.83975198  0.50154897  0.17142810  1
  Te  Te130  1  0.83402088  0.49948578  0.49653878  1
  Te  Te131  1  0.84149896  0.50111695  0.83211475  1
  Te  Te132  1  0.83554471  0.83448818  0.16888672  1
  Te  Te133  1  0.83447355  0.83899916  0.49424517  1
  Te  Te134  1  0.83268959  0.83827350  0.83367520  1
  Te  Te135  1  0.17093942  0.00128919  0.00225461  1
  Te  Te136  1  0.16332610  -0.00143194  0.33390782  1
  Te  Te137  1  0.16650586  -0.00211485  0.66264869  1
  Te  Te138  1  0.16346291  0.33884335  -0.00043941  1
  Te  Te139  1  0.16611126  0.33335257  0.33725122  1
  Te  Te140  1  0.16772279  0.33662263  0.66527698  1
  Te  Te141  1  0.16954087  0.66098328  0.00385613  1
  Te  Te142  1  0.17123184  0.66804671  0.33224567  1
  Te  Te143  1  0.16606313  0.66565636  0.66263677  1
  Te  Te144  1  0.49234258  0.00160636  0.00020571  1
  Te  Te145  1  0.50815901  -0.00134648  0.33152241  1
  Te  Te146  1  0.51097145  -0.00164840  0.66716826  1
  Te  Te147  1  0.50342399  0.33139650  0.00493356  1
  Te  Te148  1  0.49427110  0.33345093  0.32458115  1
  Te  Te149  1  0.51042149  0.33408502  0.66780835  1
  Te  Te150  1  0.50041945  0.66640599  0.00225220  1
  Te  Te151  1  0.50151493  0.66679302  0.32756292  1
  Te  Te152  1  0.50816511  0.66686885  0.66805908  1
  Te  Te153  1  0.83446686  0.00479668  -0.00083266  1
  Te  Te154  1  0.83385365  0.00033187  0.33344493  1
  Te  Te155  1  0.83028344  0.00234060  0.66653969  1
  Te  Te156  1  0.83228614  0.32951074  0.00058284  1
  Te  Te157  1  0.83765147  0.33866303  0.33781173  1
  Te  Te158  1  0.82798925  0.32884178  0.66166505  1
  Te  Te159  1  0.82793459  0.66626161  0.00769988  1
  Te  Te160  1  0.83117584  0.66768356  0.32982534  1
  Te  Te161  1  0.82597490  0.66813153  0.66621370  1
  Te  Te162  1  -0.00219977  0.17415583  0.00012049  1
  Te  Te163  1  -0.00023555  0.16868430  0.33832615  1
  Te  Te164  1  -0.00786924  0.16651658  0.66048653  1
  Te  Te165  1  0.00274879  0.49584073  -0.00141267  1
  Te  Te166  1  -0.00373612  0.49855643  0.33417451  1
  Te  Te167  1  0.00476233  0.50042450  0.66833762  1
  Te  Te168  1  -0.00050676  0.83416905  0.00093810  1
  Te  Te169  1  -0.00466069  0.83603757  0.32783148  1
  Te  Te170  1  0.00490811  0.83246499  0.67341747  1
  Te  Te171  1  0.33451076  0.16878168  -0.00382589  1
  Te  Te172  1  0.33508886  0.16750534  0.33738188  1
  Te  Te173  1  0.33537565  0.16553242  0.66908333  1
  Te  Te174  1  0.32853217  0.50412272  -0.00299642  1
  Te  Te175  1  0.33409402  0.50218036  0.33649600  1
  Te  Te176  1  0.32823769  0.49951723  0.66505439  1
  Te  Te177  1  0.33334959  0.83110788  -0.00010635  1
  Te  Te178  1  0.33488567  0.82835006  0.32848803  1
  Te  Te179  1  0.32833511  0.83414290  0.67210908  1
  Te  Te180  1  0.66691849  0.16542766  -0.00169621  1
  Te  Te181  1  0.66592329  0.16413044  0.33787430  1
  Te  Te182  1  0.66877513  0.16671635  0.66618500  1
  Te  Te183  1  0.66770568  0.49910484  -0.00045728  1
  Te  Te184  1  0.67159582  0.50250120  0.33748598  1
  Te  Te185  1  0.66765846  0.50224017  0.66235968  1
  Te  Te186  1  0.66241477  0.83173547  -0.00539148  1
  Te  Te187  1  0.67091306  0.83237989  0.33282737  1
  Te  Te188  1  0.66683486  0.83004184  0.67323744  1
  Te  Te189  1  -0.00094407  -0.00084732  0.17061167  1
  Te  Te190  1  -0.00038139  -0.00081878  0.49512790  1
  Te  Te191  1  -0.00481233  -0.00215014  0.83413269  1
  Te  Te192  1  0.00074377  0.33534024  0.16846956  1
  Te  Te193  1  -0.00004190  0.33318009  0.50001066  1
  Te  Te194  1  0.00407382  0.33547587  0.83536059  1
  Te  Te195  1  0.00018878  0.66811901  0.16671489  1
  Te  Te196  1  0.00635949  0.66241709  0.49869400  1
  Te  Te197  1  -0.00165595  0.66906009  0.83511410  1
  Te  Te198  1  0.33058056  -0.00439172  0.16471548  1
  Te  Te199  1  0.32939576  0.00334157  0.49969272  1
  Te  Te200  1  0.33327780  0.00035782  0.83669891  1
  Te  Te201  1  0.33590234  0.33338662  0.17272899  1
  Te  Te202  1  0.33374016  0.33441722  0.49785170  1
  Te  Te203  1  0.33008950  0.33478003  0.83341346  1
  Te  Te204  1  0.33187443  0.66711173  0.16591321  1
  Te  Te205  1  0.32961207  0.66307479  0.49906668  1
  Te  Te206  1  0.33617497  0.66703588  0.83416249  1
  Te  Te207  1  0.67058974  0.00225502  0.16910516  1
  Te  Te208  1  0.66952392  0.00190347  0.49931556  1
  Te  Te209  1  0.66979962  0.00152598  0.83328556  1
  Te  Te210  1  0.66416585  0.33085269  0.16478079  1
  Te  Te211  1  0.66647106  0.33227439  0.49940258  1
  Te  Te212  1  0.66660837  0.33124896  0.83589869  1
  Te  Te213  1  0.66782276  0.66660100  0.16709276  1
  Te  Te214  1  0.66637698  0.66544320  0.49593314  1
  Te  Te215  1  0.66401157  0.66535236  0.83713529  1
