# generated using pymatgen
data_AgSbTe2
_symmetry_space_group_name_H-M   'P 1'
_cell_length_a   18.34346636
_cell_length_b   18.33663651
_cell_length_c   18.33280861
_cell_angle_alpha   89.99988352
_cell_angle_beta   89.99931218
_cell_angle_gamma   89.99814747
_symmetry_Int_Tables_number   1
_chemical_formula_structural   AgSbTe2
_chemical_formula_sum   'Ag54 Sb54 Te108'
_cell_volume   6166.37721142
_cell_formula_units_Z   54
loop_
 _symmetry_equiv_pos_site_id
 _symmetry_equiv_pos_as_xyz
  1  'x, y, z'
loop_
 _atom_site_type_symbol
 _atom_site_label
 _atom_site_symmetry_multiplicity
 _atom_site_fract_x
 _atom_site_fract_y
 _atom_site_fract_z
 _atom_site_occupancy
  Ag  Ag0  1  0.00432902  0.66512759  0.65775381  1
  Ag  Ag1  1  0.83402174  0.66316284  0.83541876  1
  Ag  Ag2  1  0.48950014  -0.00643201  0.49927723  1
  Ag  Ag3  1  0.33104017  0.50093325  0.17145969  1
  Ag  Ag4  1  0.50432475  0.34230025  0.83752322  1
  Ag  Ag5  1  0.50013701  0.17713103  -0.00313499  1
  Ag  Ag6  1  0.66210286  0.66134967  0.00429566  1
  Ag  Ag7  1  0.34076306  0.66442450  -0.00085049  1
  Ag  Ag8  1  -0.00419940  0.33652921  0.00248809  1
  Ag  Ag9  1  0.00159175  0.66307668  0.34394877  1
  Ag  Ag10  1  0.50548715  0.50100092  0.00433811  1
  Ag  Ag11  1  -0.00219197  0.82213093  0.83011149  1
  Ag  Ag12  1  0.49504576  0.16962930  0.66681247  1
  Ag  Ag13  1  0.33032168  0.33768305  0.33088381  1
  Ag  Ag14  1  0.32705304  0.17966506  0.16893255  1
  Ag  Ag15  1  0.16588093  0.65347453  0.17281190  1
  Ag  Ag16  1  0.16872134  0.16842888  0.65683753  1
  Ag  Ag17  1  0.66641755  0.50342060  0.16189416  1
  Ag  Ag18  1  0.16351661  0.00222172  0.83088237  1
  Ag  Ag19  1  0.33084270  0.82210806  0.50107363  1
  Ag  Ag20  1  0.17016094  0.49710073  0.33004881  1
  Ag  Ag21  1  0.66873498  0.82757088  0.83398435  1
  Ag  Ag22  1  0.66691766  0.82063935  0.15808716  1
  Ag  Ag23  1  0.49488773  0.66688116  0.50048623  1
  Ag  Ag24  1  0.01024492  0.18158176  0.17100321  1
  Ag  Ag25  1  0.16987657  -0.00324506  0.49666580  1
  Ag  Ag26  1  0.00384276  0.81940968  0.50355770  1
  Ag  Ag27  1  0.16833783  0.17213047  0.33233734  1
  Ag  Ag28  1  0.83055863  0.65780518  0.15967564  1
  Ag  Ag29  1  0.48993649  0.50194118  0.32452908  1
  Ag  Ag30  1  0.16272351  0.33302953  0.83836496  1
  Ag  Ag31  1  0.00148518  0.49893313  0.16591378  1
  Ag  Ag32  1  0.16192856  0.33633397  0.16616914  1
  Ag  Ag33  1  0.50351938  0.66240884  0.84014663  1
  Ag  Ag34  1  0.83494408  0.34356566  0.49959143  1
  Ag  Ag35  1  0.32878073  0.00535078  0.33541469  1
  Ag  Ag36  1  0.84046000  -0.01001781  0.83499436  1
  Ag  Ag37  1  0.50251753  0.66017216  0.16164930  1
  Ag  Ag38  1  0.33210354  0.82681921  0.82838416  1
  Ag  Ag39  1  0.00334422  0.16980794  0.49711368  1
  Ag  Ag40  1  -0.00124808  0.50197003  0.84052762  1
  Ag  Ag41  1  0.84764838  0.66221795  0.50138768  1
  Ag  Ag42  1  0.83432569  0.34070763  0.84071786  1
  Ag  Ag43  1  0.32871582  0.50559033  0.49152956  1
  Ag  Ag44  1  0.66770906  0.16803724  0.50175512  1
  Ag  Ag45  1  0.16838386  0.00769564  0.17757898  1
  Ag  Ag46  1  0.67003061  0.34249554  -0.00280944  1
  Ag  Ag47  1  0.00356138  0.50653647  0.49540186  1
  Ag  Ag48  1  0.16276691  0.66636769  0.49545093  1
  Ag  Ag49  1  0.84120579  0.34239441  0.15837092  1
  Ag  Ag50  1  0.66626093  0.33201746  0.67554545  1
  Ag  Ag51  1  0.66364886  0.82961716  0.50221807  1
  Ag  Ag52  1  0.82932237  0.49877408  0.00496976  1
  Ag  Ag53  1  0.33174592  0.66562328  0.66015320  1
  Sb  Sb54  1  0.66578391  0.00392315  0.66629307  1
  Sb  Sb55  1  0.16564794  0.49767390  0.66198291  1
  Sb  Sb56  1  -0.00119374  0.65891582  -0.00021523  1
  Sb  Sb57  1  0.16998743  0.16907703  0.00611234  1
  Sb  Sb58  1  0.33426289  0.33901694  0.00420278  1
  Sb  Sb59  1  0.66977968  0.66536973  0.32790279  1
  Sb  Sb60  1  0.49863948  0.34175302  0.16134881  1
  Sb  Sb61  1  0.16486367  0.66498175  0.83200981  1
  Sb  Sb62  1  0.83348179  0.83030703  0.33430934  1
  Sb  Sb63  1  0.83692655  -0.00415645  0.50426547  1
  Sb  Sb64  1  0.49988302  0.49921935  0.66949443  1
  Sb  Sb65  1  0.50302004  0.33591489  0.50381689  1
  Sb  Sb66  1  0.49749593  0.82363920  0.33617734  1
  Sb  Sb67  1  0.00133939  0.00690324  -0.00173459  1
  Sb  Sb68  1  0.00209417  0.17170913  0.83301744  1
  Sb  Sb69  1  -0.00144837  0.82493292  0.16730411  1
  Sb  Sb70  1  0.16852627  0.82917169  0.33599426  1
  Sb  Sb71  1  0.16641514  0.49946567  0.00767043  1
  Sb  Sb72  1  0.83206894  0.82235427  -0.00306707  1
  Sb  Sb73  1  0.66613939  0.66259928  0.66886577  1
  Sb  Sb74  1  0.33244128  0.16460314  0.83786052  1
  Sb  Sb75  1  0.49407198  -0.00378578  0.17161986  1
  Sb  Sb76  1  0.66601891  0.17179767  0.16869852  1
  Sb  Sb77  1  0.65866322  -0.00006591  0.33576437  1
  Sb  Sb78  1  0.00734650  -0.00261229  0.33455011  1
  Sb  Sb79  1  0.00556954  0.34015733  0.32873226  1
  Sb  Sb80  1  0.83431476  0.49995674  0.67079921  1
  Sb  Sb81  1  0.16216845  0.33535504  0.49640416  1
  Sb  Sb82  1  0.50006881  0.82700787  -0.00076342  1
  Sb  Sb83  1  0.33477361  0.82510719  0.16981080  1
  Sb  Sb84  1  0.66593398  0.16926964  0.82966975  1
  Sb  Sb85  1  0.83543799  0.17015654  0.66562389  1
  Sb  Sb86  1  0.32981081  0.50473438  0.83681797  1
  Sb  Sb87  1  0.83393568  0.83049655  0.66820240  1
  Sb  Sb88  1  0.66850418  0.50294010  0.49342573  1
  Sb  Sb89  1  0.66319467  0.33596572  0.33043650  1
  Sb  Sb90  1  0.33484423  0.33712860  0.66434857  1
  Sb  Sb91  1  0.16600554  0.83078025  -0.00120645  1
  Sb  Sb92  1  0.33143753  -0.00360064  0.66208019  1
  Sb  Sb93  1  0.16690954  0.83404654  0.66464861  1
  Sb  Sb94  1  0.00314770  -0.00350882  0.66621918  1
  Sb  Sb95  1  0.49843913  -0.00250941  0.82926822  1
  Sb  Sb96  1  0.83747787  0.50063698  0.32696809  1
  Sb  Sb97  1  0.84224286  0.16984262  0.33466900  1
  Sb  Sb98  1  0.32830188  0.66153510  0.33659436  1
  Sb  Sb99  1  0.83891124  -0.00116975  0.16059193  1
  Sb  Sb100  1  0.33318841  -0.00373808  0.00293136  1
  Sb  Sb101  1  -0.00275069  0.33759222  0.66821899  1
  Sb  Sb102  1  0.66570139  -0.00079476  -0.00178047  1
  Sb  Sb103  1  0.49335141  0.17178735  0.33395680  1
  Sb  Sb104  1  0.33116767  0.16801709  0.49571354  1
  Sb  Sb105  1  0.83009342  0.17754924  -0.00041833  1
  Sb  Sb106  1  0.49902963  0.83346375  0.66488751  1
  Sb  Sb107  1  0.67185337  0.50254145  0.84148987  1
  Te  Te108  1  0.16797947  0.16737499  0.16781915  1
  Te  Te109  1  0.16621324  0.16828846  0.49736889  1
  Te  Te110  1  0.16679940  0.16638068  0.83437765  1
  Te  Te111  1  0.16578693  0.49701714  0.16837536  1
  Te  Te112  1  0.16504518  0.50179008  0.49624439  1
  Te  Te113  1  0.16073617  0.49559364  0.83307209  1
  Te  Te114  1  0.16567768  0.83965839  0.16686590  1
  Te  Te115  1  0.16619750  0.83271191  0.50047293  1
  Te  Te116  1  0.16562744  0.83489162  0.83177945  1
  Te  Te117  1  0.49691734  0.16490164  0.16471834  1
  Te  Te118  1  0.50232957  0.16760037  0.50204521  1
  Te  Te119  1  0.49959054  0.16643193  0.83218447  1
  Te  Te120  1  0.49738362  0.50219057  0.16453374  1
  Te  Te121  1  0.49945943  0.50435910  0.50077465  1
  Te  Te122  1  0.49786603  0.50185958  0.83707503  1
  Te  Te123  1  0.50670159  0.82719733  0.16835512  1
  Te  Te124  1  0.49787067  0.83324950  0.50058734  1
  Te  Te125  1  0.49886230  0.82949582  0.83214164  1
  Te  Te126  1  0.83743859  0.16825595  0.16724701  1
  Te  Te127  1  0.83273833  0.16416683  0.50050212  1
  Te  Te128  1  0.83355275  0.17271373  0.83313931  1
  Te  Te129  1  0.83645957  0.50079867  0.16643086  1
  Te  Te130  1  0.83597485  0.50250570  0.49781579  1
  Te  Te131  1  0.83757446  0.50044144  0.83668448  1
  Te  Te132  1  0.82754872  0.82952657  0.16628876  1
  Te  Te133  1  0.83705179  0.82879015  0.50154984  1
  Te  Te134  1  0.83445090  0.82852926  0.83356615  1
  Te  Te135  1  0.16773336  0.00037732  -0.00688910  1
  Te  Te136  1  0.16953262  0.00159934  0.33604293  1
  Te  Te137  1  0.16723639  0.00791795  0.66603271  1
  Te  Te138  1  0.16408389  0.33367465  -0.00055375  1
  Te  Te139  1  0.17014831  0.33430624  0.32980232  1
  Te  Te140  1  0.16689382  0.32840797  0.67189389  1
  Te  Te141  1  0.17193069  0.66618842  0.00592590  1
  Te  Te142  1  0.16330209  0.66350851  0.33280987  1
  Te  Te143  1  0.16710049  0.66511724  0.66282912  1
  Te  Te144  1  0.49972677  0.00685054  0.00019928  1
  Te  Te145  1  0.49204253  0.00275425  0.34003975  1
  Te  Te146  1  0.49866691  0.00924748  0.65997968  1
  Te  Te147  1  0.50059203  0.33619617  -0.00380518  1
  Te  Te148  1  0.49323839  0.33956986  0.33381358  1
  Te  Te149  1  0.50229216  0.32970544  0.67301362  1
  Te  Te150  1  0.50160542  0.66502026  0.00007126  1
  Te  Te151  1  0.50125263  0.66037169  0.33305260  1
  Te  Te152  1  0.49692410  0.66647907  0.66685249  1
  Te  Te153  1  0.83303898  0.00148735  -0.00750590  1
  Te  Te154  1  0.83255132  0.00097871  0.33185868  1
  Te  Te155  1  0.83383440  0.00220347  0.67702231  1
  Te  Te156  1  0.83223991  0.33806471  0.00011069  1
  Te  Te157  1  0.83201229  0.33344830  0.33891195  1
  Te  Te158  1  0.82768508  0.33359376  0.66453793  1
  Te  Te159  1  0.83139607  0.65950265  -0.00046588  1
  Te  Te160  1  0.83959128  0.66636461  0.33725690  1
  Te  Te161  1  0.83613102  0.66509581  0.66663423  1
  Te  Te162  1  -0.00095334  0.17442909  0.00622021  1
  Te  Te163  1  0.00760262  0.16467062  0.33195788  1
  Te  Te164  1  0.00658699  0.16736665  0.66243373  1
  Te  Te165  1  -0.00144594  0.49580148  0.00085418  1
  Te  Te166  1  0.00377116  0.50326484  0.33307145  1
  Te  Te167  1  -0.00001443  0.50486485  0.66078351  1
  Te  Te168  1  -0.00109747  0.83666833  -0.00744838  1
  Te  Te169  1  0.00038659  0.82674775  0.33914674  1
  Te  Te170  1  0.00055887  0.82766383  0.66726515  1
  Te  Te171  1  0.33968513  0.16502866  0.00643821  1
  Te  Te172  1  0.32894049  0.16931589  0.32891574  1
  Te  Te173  1  0.33221578  0.16829488  0.66764008  1
  Te  Te174  1  0.33794837  0.50505162  0.00438078  1
  Te  Te175  1  0.33060149  0.50053745  0.33242259  1
  Te  Te176  1  0.33267814  0.50554743  0.66012136  1
  Te  Te177  1  0.33357668  0.82654029  -0.00335855  1
  Te  Te178  1  0.33417172  0.84294674  0.33985277  1
  Te  Te179  1  0.33315263  0.82737390  0.66491324  1
  Te  Te180  1  0.66031601  0.17016151  0.00083693  1
  Te  Te181  1  0.66586894  0.16737455  0.34025492  1
  Te  Te182  1  0.66411961  0.17123960  0.66225939  1
  Te  Te183  1  0.66667665  0.50097346  0.00268317  1
  Te  Te184  1  0.65840299  0.49969042  0.32407772  1
  Te  Te185  1  0.66646581  0.49137782  0.66359566  1
  Te  Te186  1  0.66605129  0.82898230  -0.00215613  1
  Te  Te187  1  0.66558544  0.83404221  0.34130107  1
  Te  Te188  1  0.66590281  0.83326810  0.66587724  1
  Te  Te189  1  0.00596696  -0.00304091  0.16608885  1
  Te  Te190  1  0.00417892  0.00690584  0.50044042  1
  Te  Te191  1  0.00127384  -0.00012568  0.83255615  1
  Te  Te192  1  0.00032220  0.33697332  0.16756824  1
  Te  Te193  1  -0.00445530  0.33002490  0.50005307  1
  Te  Te194  1  -0.00181127  0.33687916  0.83495637  1
  Te  Te195  1  0.00131804  0.66368314  0.16472599  1
  Te  Te196  1  0.00275273  0.66432583  0.50136855  1
  Te  Te197  1  -0.00152837  0.66382787  0.83423321  1
  Te  Te198  1  0.32802826  -0.00566244  0.17043395  1
  Te  Te199  1  0.33038658  0.00202563  0.49776847  1
  Te  Te200  1  0.32910631  -0.00773880  0.83337508  1
  Te  Te201  1  0.33198288  0.33650184  0.16831556  1
  Te  Te202  1  0.33347513  0.33983180  0.49562531  1
  Te  Te203  1  0.33210106  0.33445592  0.83381053  1
  Te  Te204  1  0.33184769  0.66427522  0.16741853  1
  Te  Te205  1  0.33471696  0.66582326  0.49857369  1
  Te  Te206  1  0.33241386  0.66838407  0.83338434  1
  Te  Te207  1  0.66794509  -0.00340704  0.16720284  1
  Te  Te208  1  0.66782938  -0.00248184  0.50062528  1
  Te  Te209  1  0.66880614  -0.00775873  0.83344451  1
  Te  Te210  1  0.67223661  0.33579999  0.16212696  1
  Te  Te211  1  0.67136381  0.33231259  0.49862448  1
  Te  Te212  1  0.66621327  0.33406181  0.83581259  1
  Te  Te213  1  0.66860278  0.66399812  0.16578235  1
  Te  Te214  1  0.65862258  0.66912118  0.50072137  1
  Te  Te215  1  0.66652316  0.66794192  0.83287756  1
