# generated using pymatgen
data_AgSbTe2
_symmetry_space_group_name_H-M   'P 1'
_cell_length_a   18.34120086
_cell_length_b   18.35431127
_cell_length_c   18.34619593
_cell_angle_alpha   90.00187888
_cell_angle_beta   89.99876708
_cell_angle_gamma   90.00157681
_symmetry_Int_Tables_number   1
_chemical_formula_structural   AgSbTe2
_chemical_formula_sum   'Ag54 Sb54 Te108'
_cell_volume   6176.06540213
_cell_formula_units_Z   54
loop_
 _symmetry_equiv_pos_site_id
 _symmetry_equiv_pos_as_xyz
  1  'x, y, z'
loop_
 _atom_site_type_symbol
 _atom_site_label
 _atom_site_symmetry_multiplicity
 _atom_site_fract_x
 _atom_site_fract_y
 _atom_site_fract_z
 _atom_site_occupancy
  Ag  Ag0  1  0.49906032  0.32920352  0.50238615  1
  Ag  Ag1  1  0.00237204  -0.00231665  -0.00750154  1
  Ag  Ag2  1  0.68494933  -0.00375505  0.66315986  1
  Ag  Ag3  1  0.16490615  0.34448502  0.49974405  1
  Ag  Ag4  1  0.67097284  0.83775390  0.49958067  1
  Ag  Ag5  1  0.16262904  -0.00262451  0.51014903  1
  Ag  Ag6  1  0.84222256  -0.00229769  0.82632135  1
  Ag  Ag7  1  0.66920004  0.33731448  0.33744120  1
  Ag  Ag8  1  0.33145174  0.16326951  0.83447120  1
  Ag  Ag9  1  0.83425214  0.15324676  0.66014962  1
  Ag  Ag10  1  0.50381205  0.83239218  0.33884149  1
  Ag  Ag11  1  0.16446990  -0.00114414  0.16187739  1
  Ag  Ag12  1  0.15931296  0.83620520  0.66338329  1
  Ag  Ag13  1  0.32148475  0.50638490  0.50343197  1
  Ag  Ag14  1  0.50547495  0.00131460  0.50413973  1
  Ag  Ag15  1  0.16251405  0.65885676  0.50525302  1
  Ag  Ag16  1  0.83434756  0.15578075  -0.00098087  1
  Ag  Ag17  1  0.83524684  0.00574175  0.51074638  1
  Ag  Ag18  1  0.67152918  0.83404799  0.17553573  1
  Ag  Ag19  1  0.16286249  0.83678724  -0.00779227  1
  Ag  Ag20  1  0.17015804  0.50384536  0.66075573  1
  Ag  Ag21  1  0.66954362  0.67488060  0.65870203  1
  Ag  Ag22  1  0.83951504  0.83751394  0.66381819  1
  Ag  Ag23  1  0.33085103  0.32556827  0.00164260  1
  Ag  Ag24  1  0.83819177  0.67915053  0.82459492  1
  Ag  Ag25  1  0.84130688  0.83750600  -0.01070296  1
  Ag  Ag26  1  -0.00632155  0.16040366  0.50396968  1
  Ag  Ag27  1  0.83562129  0.50190011  -0.00110698  1
  Ag  Ag28  1  0.32737977  0.16380956  0.15876902  1
  Ag  Ag29  1  0.66736906  0.66873318  0.34071143  1
  Ag  Ag30  1  0.16672806  0.50185763  0.34500468  1
  Ag  Ag31  1  0.16982140  0.67373402  0.16673276  1
  Ag  Ag32  1  0.32366448  -0.00086643  -0.00660893  1
  Ag  Ag33  1  0.83120361  0.16552923  0.34545918  1
  Ag  Ag34  1  0.00417027  0.50044332  0.50248411  1
  Ag  Ag35  1  0.83729481  0.32257949  0.17219306  1
  Ag  Ag36  1  0.31562636  0.00215880  0.66634838  1
  Ag  Ag37  1  0.00035992  -0.00050731  0.66864280  1
  Ag  Ag38  1  0.32265080  0.83456634  0.50314000  1
  Ag  Ag39  1  0.67759256  0.15644250  0.50169934  1
  Ag  Ag40  1  0.83392852  0.32179905  0.49785276  1
  Ag  Ag41  1  0.49742548  0.33096945  0.81942871  1
  Ag  Ag42  1  0.32726512  0.67265440  -0.00046770  1
  Ag  Ag43  1  0.83919888  0.00279298  0.16261685  1
  Ag  Ag44  1  0.16592563  0.32968628  0.17199985  1
  Ag  Ag45  1  0.16136351  -0.00428330  0.82642560  1
  Ag  Ag46  1  0.83561197  0.67363774  0.50673114  1
  Ag  Ag47  1  -0.00022316  0.83774998  0.50556825  1
  Ag  Ag48  1  0.16369962  0.67664357  0.82395017  1
  Ag  Ag49  1  0.16780150  0.15330313  0.66227416  1
  Ag  Ag50  1  0.49448719  0.49319234  0.66314973  1
  Ag  Ag51  1  0.49508655  0.66947811  0.16792367  1
  Ag  Ag52  1  0.49879908  0.16358918  0.66338436  1
  Ag  Ag53  1  0.00150627  0.83793270  0.82559644  1
  Sb  Sb54  1  0.50053446  0.66909224  0.49901337  1
  Sb  Sb55  1  0.16440343  0.16721204  0.33835872  1
  Sb  Sb56  1  0.49759575  0.83394835  0.00482172  1
  Sb  Sb57  1  0.49908616  0.33528065  0.17157495  1
  Sb  Sb58  1  -0.00257452  0.33312983  0.33879204  1
  Sb  Sb59  1  0.83582810  0.49617851  0.33443567  1
  Sb  Sb60  1  0.00228257  0.32779277  0.00168681  1
  Sb  Sb61  1  0.16672430  0.15792691  -0.00265699  1
  Sb  Sb62  1  0.82934828  0.83784153  0.34190395  1
  Sb  Sb63  1  0.66880725  0.50132046  0.50100505  1
  Sb  Sb64  1  0.33107256  0.67102502  0.66751228  1
  Sb  Sb65  1  0.83436417  0.67088111  0.16703377  1
  Sb  Sb66  1  0.49864043  -0.00315171  0.17164107  1
  Sb  Sb67  1  0.66737029  0.66993131  -0.00024975  1
  Sb  Sb68  1  -0.00164501  0.66603684  0.33854122  1
  Sb  Sb69  1  0.66462851  0.33028226  0.65935756  1
  Sb  Sb70  1  0.67554757  0.83360659  0.82665733  1
  Sb  Sb71  1  0.82985566  0.32836482  0.83080226  1
  Sb  Sb72  1  0.17022325  0.32897506  0.83053803  1
  Sb  Sb73  1  0.33196771  0.49758697  0.82929698  1
  Sb  Sb74  1  0.33321197  0.33229504  0.33412940  1
  Sb  Sb75  1  0.67051145  0.16177956  0.17337613  1
  Sb  Sb76  1  0.00191776  0.15864994  0.82877696  1
  Sb  Sb77  1  0.49862661  0.66503165  0.83408947  1
  Sb  Sb78  1  -0.00129069  0.67517965  0.66277155  1
  Sb  Sb79  1  0.49996659  0.49936538  -0.00306205  1
  Sb  Sb80  1  0.33277292  0.83646195  0.16852076  1
  Sb  Sb81  1  0.00094406  0.50858285  0.82741197  1
  Sb  Sb82  1  0.00012582  0.16360297  0.17102195  1
  Sb  Sb83  1  0.33080223  0.49922151  0.16893064  1
  Sb  Sb84  1  -0.00171016  0.83642364  0.16708816  1
  Sb  Sb85  1  0.33028774  0.16340983  0.50458807  1
  Sb  Sb86  1  0.66980602  -0.00260357  0.34268531  1
  Sb  Sb87  1  0.83658410  0.50278168  0.66561028  1
  Sb  Sb88  1  0.32551472  0.83798271  0.82975321  1
  Sb  Sb89  1  0.50075188  0.83805116  0.66051987  1
  Sb  Sb90  1  0.33400475  0.66754260  0.33326268  1
  Sb  Sb91  1  0.16431169  0.50527587  -0.00222342  1
  Sb  Sb92  1  0.33423479  0.32622480  0.66801958  1
  Sb  Sb93  1  0.49794666  0.16594044  -0.00522250  1
  Sb  Sb94  1  0.00144457  0.32709684  0.66238023  1
  Sb  Sb95  1  0.50262823  0.16360834  0.34023966  1
  Sb  Sb96  1  0.16914645  0.83240768  0.34093304  1
  Sb  Sb97  1  0.33151837  -0.00062554  0.33952547  1
  Sb  Sb98  1  0.66800654  0.33101852  0.00426423  1
  Sb  Sb99  1  0.49482534  0.00342830  0.82493994  1
  Sb  Sb100  1  0.49681819  0.50290078  0.34010079  1
  Sb  Sb101  1  0.67306115  -0.00148551  -0.00491457  1
  Sb  Sb102  1  0.00138414  0.49932091  0.16839506  1
  Sb  Sb103  1  0.66535050  0.16426379  0.82479188  1
  Sb  Sb104  1  0.00326107  0.67186964  -0.00038733  1
  Sb  Sb105  1  0.66796037  0.50009390  0.83109385  1
  Sb  Sb106  1  0.66830021  0.50428521  0.16665653  1
  Sb  Sb107  1  -0.00165627  0.00074121  0.34116326  1
  Te  Te108  1  0.16734316  0.16926400  0.16854976  1
  Te  Te109  1  0.16586481  0.15783982  0.50216974  1
  Te  Te110  1  0.17046672  0.16314420  0.82748773  1
  Te  Te111  1  0.16655231  0.49602894  0.16544800  1
  Te  Te112  1  0.16597549  0.50110712  0.50185246  1
  Te  Te113  1  0.16602720  0.50434790  0.82874424  1
  Te  Te114  1  0.16657234  0.83316550  0.16963149  1
  Te  Te115  1  0.16534459  0.83811856  0.50115187  1
  Te  Te116  1  0.16500107  0.83436001  0.83278387  1
  Te  Te117  1  0.49911783  0.16775018  0.16722464  1
  Te  Te118  1  0.49753205  0.16601101  0.50322526  1
  Te  Te119  1  0.49722062  0.17040580  0.82797477  1
  Te  Te120  1  0.49978164  0.50671618  0.16650010  1
  Te  Te121  1  0.49928572  0.49742004  0.50388801  1
  Te  Te122  1  0.49983735  0.49475439  0.82743483  1
  Te  Te123  1  0.50144532  0.82961594  0.17152599  1
  Te  Te124  1  0.50610249  0.83569630  0.49783282  1
  Te  Te125  1  0.50308855  0.83261668  0.83567868  1
  Te  Te126  1  0.83366361  0.16580810  0.15989114  1
  Te  Te127  1  0.83334055  0.16566971  0.50223807  1
  Te  Te128  1  0.83306049  0.16218184  0.83420251  1
  Te  Te129  1  0.83473790  0.49809157  0.16277293  1
  Te  Te130  1  0.83976624  0.50732537  0.49922007  1
  Te  Te131  1  0.83486909  0.49866173  0.83861410  1
  Te  Te132  1  0.83153411  0.83632642  0.16970641  1
  Te  Te133  1  0.83315168  0.83292347  0.50186572  1
  Te  Te134  1  0.83625496  0.83585318  0.83140459  1
  Te  Te135  1  0.16638368  -0.00137078  0.00389871  1
  Te  Te136  1  0.16552022  0.00000780  0.32008305  1
  Te  Te137  1  0.16108840  -0.00235388  0.66685046  1
  Te  Te138  1  0.17045858  0.33322080  -0.00021489  1
  Te  Te139  1  0.16709578  0.33554999  0.33413975  1
  Te  Te140  1  0.16805574  0.34005662  0.66276490  1
  Te  Te141  1  0.16811536  0.67009825  0.00178852  1
  Te  Te142  1  0.16680588  0.66391444  0.33326851  1
  Te  Te143  1  0.16749556  0.66840233  0.66529269  1
  Te  Te144  1  0.49474553  -0.00015941  -0.00202633  1
  Te  Te145  1  0.49960049  -0.00533103  0.34122930  1
  Te  Te146  1  0.49913968  0.00479092  0.66214257  1
  Te  Te147  1  0.49482382  0.33417933  0.00223661  1
  Te  Te148  1  0.50609087  0.33323039  0.34049262  1
  Te  Te149  1  0.49955540  0.33185158  0.66285191  1
  Te  Te150  1  0.49479170  0.66604390  0.00314261  1
  Te  Te151  1  0.50358063  0.66896118  0.32904289  1
  Te  Te152  1  0.50371808  0.66492689  0.66895752  1
  Te  Te153  1  0.83293285  -0.00350417  0.00349874  1
  Te  Te154  1  0.83356798  0.00564031  0.32212168  1
  Te  Te155  1  0.83940084  -0.00252566  0.66607555  1
  Te  Te156  1  0.83310015  0.33231550  0.00107276  1
  Te  Te157  1  0.83130262  0.33127731  0.33461966  1
  Te  Te158  1  0.83243779  0.33263579  0.66110121  1
  Te  Te159  1  0.83443165  0.67199506  -0.00134778  1
  Te  Te160  1  0.82682501  0.66620175  0.33572794  1
  Te  Te161  1  0.83052549  0.66617021  0.66738754  1
  Te  Te162  1  -0.00433414  0.16069290  -0.00011447  1
  Te  Te163  1  -0.00720873  0.16689316  0.34110639  1
  Te  Te164  1  0.00050783  0.16276245  0.66339629  1
  Te  Te165  1  -0.00541277  0.49827821  -0.00130929  1
  Te  Te166  1  0.00680904  0.50000832  0.33801702  1
  Te  Te167  1  0.00509701  0.49681790  0.66210587  1
  Te  Te168  1  0.00138711  0.83798834  0.00181291  1
  Te  Te169  1  0.00155890  0.83281503  0.34266773  1
  Te  Te170  1  0.00031559  0.83501336  0.66631332  1
  Te  Te171  1  0.33332941  0.16458089  -0.00187189  1
  Te  Te172  1  0.33361032  0.16669138  0.32081786  1
  Te  Te173  1  0.33169889  0.16235597  0.66927233  1
  Te  Te174  1  0.33412963  0.50158066  -0.00065780  1
  Te  Te175  1  0.32818376  0.49977076  0.33945453  1
  Te  Te176  1  0.33408847  0.50129262  0.66265369  1
  Te  Te177  1  0.32876650  0.83489035  0.00131541  1
  Te  Te178  1  0.34060464  0.83290569  0.34034335  1
  Te  Te179  1  0.33251212  0.83861280  0.66301289  1
  Te  Te180  1  0.67043750  0.16649234  0.00102359  1
  Te  Te181  1  0.66992041  0.16921907  0.33964098  1
  Te  Te182  1  0.66791973  0.16391554  0.66085278  1
  Te  Te183  1  0.67326654  0.50035709  -0.00050267  1
  Te  Te184  1  0.66572317  0.50200551  0.33203764  1
  Te  Te185  1  0.66400243  0.50428661  0.66698458  1
  Te  Te186  1  0.66678576  0.83326911  0.00383194  1
  Te  Te187  1  0.66484864  0.83113767  0.33578643  1
  Te  Te188  1  0.66806437  0.83452686  0.66175845  1
  Te  Te189  1  0.00058031  0.00055863  0.16221368  1
  Te  Te190  1  -0.00204355  -0.00014659  0.50096764  1
  Te  Te191  1  0.00041792  -0.00141700  0.83437477  1
  Te  Te192  1  -0.00021822  0.33210498  0.16666625  1
  Te  Te193  1  0.00236829  0.33293437  0.49968554  1
  Te  Te194  1  -0.00148839  0.33610734  0.83438502  1
  Te  Te195  1  0.00870553  0.66678596  0.16848243  1
  Te  Te196  1  0.00134295  0.66755969  0.49856521  1
  Te  Te197  1  -0.00013390  0.67515781  0.83399544  1
  Te  Te198  1  0.33298341  0.00389433  0.16559463  1
  Te  Te199  1  0.32700596  -0.00311235  0.50397769  1
  Te  Te200  1  0.32990556  0.00335234  0.83189739  1
  Te  Te201  1  0.33110057  0.33074656  0.16375072  1
  Te  Te202  1  0.33025136  0.33436729  0.50030193  1
  Te  Te203  1  0.33730366  0.32974514  0.83807675  1
  Te  Te204  1  0.33185888  0.66697070  0.16392535  1
  Te  Te205  1  0.32938241  0.66900942  0.50075266  1
  Te  Te206  1  0.32894845  0.66718292  0.83815449  1
  Te  Te207  1  0.66498132  -0.00651871  0.16488613  1
  Te  Te208  1  0.67044166  -0.00072603  0.50201738  1
  Te  Te209  1  0.66961858  -0.00020457  0.82560831  1
  Te  Te210  1  0.67170353  0.33257075  0.17314507  1
  Te  Te211  1  0.66958398  0.33551948  0.49746210  1
  Te  Te212  1  0.65809024  0.33227052  0.83586399  1
  Te  Te213  1  0.66579994  0.67264604  0.16690642  1
  Te  Te214  1  0.66586411  0.66761379  0.50064585  1
  Te  Te215  1  0.67140052  0.66601101  0.83041217  1
