# generated using pymatgen
data_AgSbTe2
_symmetry_space_group_name_H-M   'P 1'
_cell_length_a   18.34866175
_cell_length_b   18.34956363
_cell_length_c   18.34545240
_cell_angle_alpha   90.00006823
_cell_angle_beta   90.00002850
_cell_angle_gamma   90.00216705
_symmetry_Int_Tables_number   1
_chemical_formula_structural   AgSbTe2
_chemical_formula_sum   'Ag54 Sb54 Te108'
_cell_volume   6176.72919641
_cell_formula_units_Z   54
loop_
 _symmetry_equiv_pos_site_id
 _symmetry_equiv_pos_as_xyz
  1  'x, y, z'
loop_
 _atom_site_type_symbol
 _atom_site_label
 _atom_site_symmetry_multiplicity
 _atom_site_fract_x
 _atom_site_fract_y
 _atom_site_fract_z
 _atom_site_occupancy
  Ag  Ag0  1  0.33590401  0.34148317  0.67504303  1
  Ag  Ag1  1  0.83186775  0.00198625  0.83690176  1
  Ag  Ag2  1  0.17019894  -0.00157048  0.51139977  1
  Ag  Ag3  1  0.33432400  0.50751835  0.83569807  1
  Ag  Ag4  1  0.65844281  0.33213566  0.67241590  1
  Ag  Ag5  1  0.66469561  0.00983826  0.32875445  1
  Ag  Ag6  1  0.00973184  0.50434245  0.15288930  1
  Ag  Ag7  1  0.01585273  0.66536416  0.68120378  1
  Ag  Ag8  1  0.16375562  0.67179847  0.15252434  1
  Ag  Ag9  1  0.33127428  0.49749354  0.15277865  1
  Ag  Ag10  1  0.32015811  0.65358852  -0.01226927  1
  Ag  Ag11  1  0.66028964  0.17113350  0.82865741  1
  Ag  Ag12  1  0.32917094  0.33944764  -0.00889083  1
  Ag  Ag13  1  0.01051134  0.34187079  -0.00163156  1
  Ag  Ag14  1  0.33349088  0.66512351  0.67361249  1
  Ag  Ag15  1  0.33176013  0.16793582  0.51213174  1
  Ag  Ag16  1  0.49843704  0.00199796  0.15965344  1
  Ag  Ag17  1  0.83732017  0.66165969  0.83450941  1
  Ag  Ag18  1  0.66841578  0.32925859  0.33599143  1
  Ag  Ag19  1  0.49123255  0.82768916  -0.00623481  1
  Ag  Ag20  1  0.48985293  0.50505249  -0.00498708  1
  Ag  Ag21  1  0.49819097  0.83519596  0.32398553  1
  Ag  Ag22  1  0.48822318  0.82676945  0.67535319  1
  Ag  Ag23  1  0.49611146  0.50474848  0.67611523  1
  Ag  Ag24  1  0.65908347  0.16630173  0.16612344  1
  Ag  Ag25  1  0.01157632  0.50157589  0.83529088  1
  Ag  Ag26  1  0.17324982  -0.00372293  0.83266221  1
  Ag  Ag27  1  0.49005831  -0.00634574  0.83677557  1
  Ag  Ag28  1  0.01156351  0.16882574  0.50516514  1
  Ag  Ag29  1  0.17012924  0.67251672  0.51606432  1
  Ag  Ag30  1  0.17013334  0.82952473  0.67569827  1
  Ag  Ag31  1  0.65745993  0.49730179  0.83222954  1
  Ag  Ag32  1  0.84436184  0.67089471  0.15604617  1
  Ag  Ag33  1  0.65668197  0.66170530  0.67135707  1
  Ag  Ag34  1  0.17149702  0.16128451  0.66947490  1
  Ag  Ag35  1  0.49715505  0.32576203  0.16440626  1
  Ag  Ag36  1  0.66337014  0.16779571  0.50744413  1
  Ag  Ag37  1  0.33219180  0.50548947  0.51474254  1
  Ag  Ag38  1  0.17437206  0.34252409  0.83425344  1
  Ag  Ag39  1  0.33257824  0.17066375  0.83155467  1
  Ag  Ag40  1  0.17400774  0.51124058  -0.00123596  1
  Ag  Ag41  1  0.33371631  0.82286554  0.83168403  1
  Ag  Ag42  1  0.83710567  0.16834782  0.67108690  1
  Ag  Ag43  1  0.00811885  0.66143455  -0.00347821  1
  Ag  Ag44  1  0.00649157  0.82199293  0.16435194  1
  Ag  Ag45  1  0.83622704  0.33563481  0.83186521  1
  Ag  Ag46  1  0.33189880  0.82571710  0.51321208  1
  Ag  Ag47  1  0.17449793  0.66406197  0.83615048  1
  Ag  Ag48  1  0.83247505  -0.00056044  0.16044595  1
  Ag  Ag49  1  0.33611007  0.17112178  0.15843422  1
  Ag  Ag50  1  0.17144472  0.82602015  -0.00703465  1
  Ag  Ag51  1  0.16922743  -0.00375532  0.16181303  1
  Ag  Ag52  1  0.49056301  0.66654982  0.83380061  1
  Ag  Ag53  1  -0.00219597  0.33412489  0.32426140  1
  Sb  Sb54  1  0.49288716  0.66747822  0.51101224  1
  Sb  Sb55  1  0.00955791  0.49827111  0.50478600  1
  Sb  Sb56  1  0.83566871  0.00354181  0.50191371  1
  Sb  Sb57  1  0.66555267  0.66531668  0.33642690  1
  Sb  Sb58  1  -0.00234015  0.00353695  0.33168696  1
  Sb  Sb59  1  0.66258574  0.33367487  -0.00467366  1
  Sb  Sb60  1  0.00332848  0.17180741  0.83019506  1
  Sb  Sb61  1  0.84000645  0.66626736  0.50890893  1
  Sb  Sb62  1  0.50160098  0.16350401  0.32991972  1
  Sb  Sb63  1  0.66581206  0.66472869  -0.00760648  1
  Sb  Sb64  1  0.83566777  0.83479052  0.67205426  1
  Sb  Sb65  1  0.33686637  -0.00118601  0.33129431  1
  Sb  Sb66  1  0.01008973  0.82512039  0.83668596  1
  Sb  Sb67  1  0.83008088  0.83520996  0.33052909  1
  Sb  Sb68  1  0.33018323  0.83239153  0.16042567  1
  Sb  Sb69  1  0.49486948  0.33890089  0.83632880  1
  Sb  Sb70  1  0.84090408  0.50097853  -0.00507791  1
  Sb  Sb71  1  0.00934951  0.83613837  0.49922426  1
  Sb  Sb72  1  0.66667540  0.83658380  0.16642509  1
  Sb  Sb73  1  0.65914949  0.49600826  0.50777430  1
  Sb  Sb74  1  0.17413361  0.50311069  0.67610687  1
  Sb  Sb75  1  0.33382894  0.66806335  0.33319930  1
  Sb  Sb76  1  0.16916269  0.33251370  0.50868080  1
  Sb  Sb77  1  0.00414594  -0.00189894  0.66996503  1
  Sb  Sb78  1  0.65734855  0.83639917  0.50231794  1
  Sb  Sb79  1  0.16961584  0.16642344  -0.00695117  1
  Sb  Sb80  1  0.83088353  0.16724186  0.33587455  1
  Sb  Sb81  1  0.16782923  0.49979334  0.32566691  1
  Sb  Sb82  1  0.82870987  0.49669752  0.67270459  1
  Sb  Sb83  1  0.66436913  0.00037172  0.00012701  1
  Sb  Sb84  1  0.49828728  0.50227871  0.33014148  1
  Sb  Sb85  1  0.49654302  0.16801888  -0.00120974  1
  Sb  Sb86  1  0.33303615  -0.00279105  -0.00341035  1
  Sb  Sb87  1  0.49893666  0.33273446  0.49879291  1
  Sb  Sb88  1  0.83325208  0.16712536  -0.00648078  1
  Sb  Sb89  1  0.33292935  -0.00306401  0.67045678  1
  Sb  Sb90  1  0.83202924  0.33223197  0.16088738  1
  Sb  Sb91  1  0.16675131  0.16683874  0.33827140  1
  Sb  Sb92  1  0.00219511  0.16857060  0.16803501  1
  Sb  Sb93  1  0.83738931  0.83140362  -0.00238427  1
  Sb  Sb94  1  0.00246998  0.66251162  0.32657001  1
  Sb  Sb95  1  0.66357256  0.49690676  0.15855938  1
  Sb  Sb96  1  0.17158543  0.33228393  0.15881319  1
  Sb  Sb97  1  0.66535894  0.00308097  0.66815449  1
  Sb  Sb98  1  0.00410062  0.33647436  0.67251961  1
  Sb  Sb99  1  0.65788787  0.83269565  0.83162888  1
  Sb  Sb100  1  0.00270251  -0.00211454  -0.00140282  1
  Sb  Sb101  1  0.83425119  0.49850626  0.32965976  1
  Sb  Sb102  1  0.33294145  0.33271227  0.33171994  1
  Sb  Sb103  1  0.49491018  0.16877082  0.67130419  1
  Sb  Sb104  1  0.17136823  0.83324182  0.33219651  1
  Sb  Sb105  1  0.83350285  0.33168810  0.50654358  1
  Sb  Sb106  1  0.49425067  0.00002428  0.50271602  1
  Sb  Sb107  1  0.49617198  0.66841274  0.15820974  1
  Te  Te108  1  0.17143483  0.16312590  0.16749074  1
  Te  Te109  1  0.16858078  0.16509876  0.50403237  1
  Te  Te110  1  0.16849660  0.15825565  0.82930248  1
  Te  Te111  1  0.16888116  0.49953237  0.16064241  1
  Te  Te112  1  0.17330340  0.50041914  0.49697867  1
  Te  Te113  1  0.17033843  0.50137624  0.83636385  1
  Te  Te114  1  0.16566314  0.83344539  0.16682328  1
  Te  Te115  1  0.17210681  0.83650437  0.49890955  1
  Te  Te116  1  0.16956687  0.83568871  0.83315173  1
  Te  Te117  1  0.49891852  0.16471641  0.16494883  1
  Te  Te118  1  0.49938814  0.16530898  0.49976418  1
  Te  Te119  1  0.50080302  0.15803920  0.83470575  1
  Te  Te120  1  0.49530928  0.50113255  0.16301475  1
  Te  Te121  1  0.49075326  0.50075162  0.50076004  1
  Te  Te122  1  0.49750035  0.49989951  0.83338019  1
  Te  Te123  1  0.49856338  0.83718003  0.16539843  1
  Te  Te124  1  0.49212741  0.83368961  0.50476205  1
  Te  Te125  1  0.49642190  0.83377564  0.83352230  1
  Te  Te126  1  0.83261186  0.16183742  0.16608450  1
  Te  Te127  1  0.82617820  0.16645470  0.50703871  1
  Te  Te128  1  0.83510745  0.16642437  0.82970517  1
  Te  Te129  1  0.83337850  0.50258082  0.16450947  1
  Te  Te130  1  0.83513464  0.50063587  0.49866695  1
  Te  Te131  1  0.82808838  0.50020084  0.83320859  1
  Te  Te132  1  0.83544591  0.83430811  0.16520663  1
  Te  Te133  1  0.83533872  0.83383985  0.50033745  1
  Te  Te134  1  0.83122398  0.83929230  0.83416762  1
  Te  Te135  1  0.16646298  -0.00308574  -0.00005722  1
  Te  Te136  1  0.16460119  -0.00016632  0.32521703  1
  Te  Te137  1  0.16652812  -0.00011388  0.66849454  1
  Te  Te138  1  0.16814920  0.33161535  -0.00618081  1
  Te  Te139  1  0.16086728  0.33318490  0.33219801  1
  Te  Te140  1  0.17187927  0.32853742  0.67459719  1
  Te  Te141  1  0.16494882  0.66838111  -0.00171358  1
  Te  Te142  1  0.16625418  0.66660524  0.33575057  1
  Te  Te143  1  0.17168137  0.66702557  0.67175609  1
  Te  Te144  1  0.49902201  -0.00401350  -0.00085734  1
  Te  Te145  1  0.50422501  -0.00358240  0.33162638  1
  Te  Te146  1  0.50140559  -0.00985943  0.67221190  1
  Te  Te147  1  0.49563553  0.33671951  0.00534785  1
  Te  Te148  1  0.50412619  0.33471788  0.32617744  1
  Te  Te149  1  0.49750849  0.33758658  0.66413960  1
  Te  Te150  1  0.49979199  0.66703633  -0.00522314  1
  Te  Te151  1  0.50285268  0.67322290  0.33263145  1
  Te  Te152  1  0.49684390  0.66547199  0.67127599  1
  Te  Te153  1  0.83464487  -0.00132856  0.00034809  1
  Te  Te154  1  0.82696481  0.00032051  0.32842882  1
  Te  Te155  1  0.83384665  0.00562104  0.67049082  1
  Te  Te156  1  0.83551616  0.33369470  -0.00804906  1
  Te  Te157  1  0.83214822  0.33261592  0.33194347  1
  Te  Te158  1  0.83047511  0.32917899  0.67272385  1
  Te  Te159  1  0.83393409  0.66673106  -0.00085973  1
  Te  Te160  1  0.83310914  0.66685014  0.33052206  1
  Te  Te161  1  0.83123743  0.66613633  0.67296487  1
  Te  Te162  1  0.00086713  0.17425191  -0.00011740  1
  Te  Te163  1  -0.00087722  0.17247974  0.33993911  1
  Te  Te164  1  0.00012710  0.16761966  0.66279058  1
  Te  Te165  1  0.00177642  0.50034311  -0.00321251  1
  Te  Te166  1  0.00020212  0.49243015  0.33459578  1
  Te  Te167  1  -0.00178569  0.50587586  0.67164874  1
  Te  Te168  1  0.00392356  0.83031623  0.00590092  1
  Te  Te169  1  -0.00182865  0.83433654  0.32602198  1
  Te  Te170  1  0.00482464  0.82583648  0.66505523  1
  Te  Te171  1  0.33330724  0.17615495  0.00097996  1
  Te  Te172  1  0.33388780  0.16664444  0.33173502  1
  Te  Te173  1  0.33157530  0.16735094  0.66965353  1
  Te  Te174  1  0.33233995  0.49806099  -0.00212977  1
  Te  Te175  1  0.33421188  0.49961477  0.33614582  1
  Te  Te176  1  0.33400000  0.49956392  0.67164425  1
  Te  Te177  1  0.33186445  0.83125380  -0.00433567  1
  Te  Te178  1  0.34022086  0.83457054  0.33814665  1
  Te  Te179  1  0.32994071  0.83333702  0.66976475  1
  Te  Te180  1  0.66721756  0.16661396  0.00115476  1
  Te  Te181  1  0.66637434  0.16897587  0.33005457  1
  Te  Te182  1  0.66196882  0.16996540  0.66833345  1
  Te  Te183  1  0.65675894  0.49904813  -0.00752220  1
  Te  Te184  1  0.66607593  0.49269455  0.33617310  1
  Te  Te185  1  0.66146920  0.49787454  0.67059959  1
  Te  Te186  1  0.65771704  0.83284890  -0.00007298  1
  Te  Te187  1  0.66082089  0.83462919  0.33563696  1
  Te  Te188  1  0.66739207  0.82842320  0.66441468  1
  Te  Te189  1  0.00058347  0.00168223  0.16620387  1
  Te  Te190  1  0.00581444  0.00586365  0.49941692  1
  Te  Te191  1  -0.00216001  -0.00060960  0.83361629  1
  Te  Te192  1  -0.00097586  0.33822969  0.16435710  1
  Te  Te193  1  0.00032956  0.32949599  0.50055179  1
  Te  Te194  1  -0.00101212  0.33895631  0.83606197  1
  Te  Te195  1  0.00153310  0.66402489  0.16473709  1
  Te  Te196  1  0.00851300  0.66702841  0.49882064  1
  Te  Te197  1  -0.00342764  0.66598400  0.83650412  1
  Te  Te198  1  0.33360830  0.00151015  0.16513635  1
  Te  Te199  1  0.32843093  0.00793106  0.49726375  1
  Te  Te200  1  0.33271485  0.01148667  0.83561104  1
  Te  Te201  1  0.33657609  0.33336637  0.16810395  1
  Te  Te202  1  0.33355270  0.32783027  0.50116153  1
  Te  Te203  1  0.33508330  0.32776504  0.83167637  1
  Te  Te204  1  0.32889084  0.66293633  0.16478879  1
  Te  Te205  1  0.32835831  0.66650420  0.49932954  1
  Te  Te206  1  0.33488549  0.66752878  0.83102789  1
  Te  Te207  1  0.66463203  0.00239576  0.16717251  1
  Te  Te208  1  0.66664296  0.00490953  0.49630287  1
  Te  Te209  1  0.67067499  0.00417337  0.83254053  1
  Te  Te210  1  0.66354885  0.32957317  0.16503868  1
  Te  Te211  1  0.66628040  0.32902741  0.50033835  1
  Te  Te212  1  0.66398055  0.33144077  0.83107224  1
  Te  Te213  1  0.67020063  0.66523040  0.16889304  1
  Te  Te214  1  0.67011908  0.66560927  0.50726998  1
  Te  Te215  1  0.67361396  0.66731645  0.82875380  1
