# generated using pymatgen
data_AgSbTe2
_symmetry_space_group_name_H-M   'P 1'
_cell_length_a   18.33751976
_cell_length_b   18.34772138
_cell_length_c   18.35051160
_cell_angle_alpha   90.00047431
_cell_angle_beta   89.99780843
_cell_angle_gamma   89.99744582
_symmetry_Int_Tables_number   1
_chemical_formula_structural   AgSbTe2
_chemical_formula_sum   'Ag54 Sb54 Te108'
_cell_volume   6174.06087165
_cell_formula_units_Z   54
loop_
 _symmetry_equiv_pos_site_id
 _symmetry_equiv_pos_as_xyz
  1  'x, y, z'
loop_
 _atom_site_type_symbol
 _atom_site_label
 _atom_site_symmetry_multiplicity
 _atom_site_fract_x
 _atom_site_fract_y
 _atom_site_fract_z
 _atom_site_occupancy
  Ag  Ag0  1  0.49591256  0.65595708  0.82758273  1
  Ag  Ag1  1  0.16313831  0.67221058  0.16117295  1
  Ag  Ag2  1  0.65450757  0.49489428  0.82814137  1
  Ag  Ag3  1  0.83044705  0.32981930  0.50132565  1
  Ag  Ag4  1  0.33635406  0.33739806  -0.01418453  1
  Ag  Ag5  1  0.83644834  0.66686231  0.49819709  1
  Ag  Ag6  1  0.66866262  0.16379905  0.16258167  1
  Ag  Ag7  1  0.50453135  0.66204253  0.51050843  1
  Ag  Ag8  1  0.16448560  0.66596205  0.83643512  1
  Ag  Ag9  1  0.50576847  0.17511260  0.66949990  1
  Ag  Ag10  1  0.67298167  0.83852491  0.16575837  1
  Ag  Ag11  1  0.67031617  0.84440900  0.83497527  1
  Ag  Ag12  1  -0.00189338  -0.00651860  -0.00536699  1
  Ag  Ag13  1  0.83850211  0.00648829  0.50784008  1
  Ag  Ag14  1  0.16030235  -0.01039056  0.16449777  1
  Ag  Ag15  1  0.50265601  0.82463110  0.66681556  1
  Ag  Ag16  1  0.34187052  0.49277102  0.83468187  1
  Ag  Ag17  1  0.83204705  0.16370501  0.34442600  1
  Ag  Ag18  1  0.67243896  -0.00195588  -0.01185774  1
  Ag  Ag19  1  0.00412481  0.67551246  -0.00391273  1
  Ag  Ag20  1  0.66654460  0.16691599  0.83241425  1
  Ag  Ag21  1  -0.00843939  0.50354721  0.50453874  1
  Ag  Ag22  1  0.50879369  0.34041623  0.51233498  1
  Ag  Ag23  1  0.83706215  0.00182006  0.82795982  1
  Ag  Ag24  1  0.18160080  0.33786135  0.83343604  1
  Ag  Ag25  1  -0.00267675  0.84227813  0.48638378  1
  Ag  Ag26  1  0.16403297  0.50762181  0.33334971  1
  Ag  Ag27  1  0.33403755  0.49807847  0.15683583  1
  Ag  Ag28  1  0.50423591  0.83231305  0.33947372  1
  Ag  Ag29  1  0.49527223  0.34313754  0.82965172  1
  Ag  Ag30  1  0.50615730  0.33500501  0.16456775  1
  Ag  Ag31  1  -0.00141961  0.83809407  0.83510311  1
  Ag  Ag32  1  0.00108134  0.83515184  0.17579211  1
  Ag  Ag33  1  0.33987675  0.65959541  0.67040251  1
  Ag  Ag34  1  0.49834985  0.49768798  -0.01578737  1
  Ag  Ag35  1  0.66917509  0.33333359  0.33631116  1
  Ag  Ag36  1  0.34190289  0.17915442  0.83067578  1
  Ag  Ag37  1  -0.00672845  0.15255261  0.50061495  1
  Ag  Ag38  1  0.66834238  0.49616491  0.50688987  1
  Ag  Ag39  1  -0.00216195  -0.01447388  0.34937470  1
  Ag  Ag40  1  0.82691447  0.33039707  0.17447227  1
  Ag  Ag41  1  0.49908480  0.49931626  0.67099905  1
  Ag  Ag42  1  0.15676505  -0.00931327  0.83437535  1
  Ag  Ag43  1  0.00114567  0.50508735  0.82927302  1
  Ag  Ag44  1  0.16049819  0.83321145  0.00185625  1
  Ag  Ag45  1  -0.00512153  -0.00120948  0.66163189  1
  Ag  Ag46  1  0.67467564  0.00160716  0.67184135  1
  Ag  Ag47  1  0.15217718  -0.00234327  0.50233012  1
  Ag  Ag48  1  0.84257452  0.83943804  0.33658679  1
  Ag  Ag49  1  0.83009618  0.16306123  0.66458964  1
  Ag  Ag50  1  0.15418368  0.83032087  0.32740501  1
  Ag  Ag51  1  0.00222717  0.67631525  0.33535887  1
  Ag  Ag52  1  0.33972439  0.33703322  0.67398684  1
  Ag  Ag53  1  0.82936333  0.32700678  0.82835814  1
  Sb  Sb54  1  0.49566755  0.66331821  0.16562479  1
  Sb  Sb55  1  0.33306116  0.00177784  0.66976826  1
  Sb  Sb56  1  0.83178717  0.83902369  0.66283777  1
  Sb  Sb57  1  0.50891051  0.16647368  0.33886380  1
  Sb  Sb58  1  0.49892203  0.82919531  -0.00382747  1
  Sb  Sb59  1  0.32750037  0.82793768  0.16681840  1
  Sb  Sb60  1  0.83724268  0.49938572  0.33715630  1
  Sb  Sb61  1  0.33130715  0.16834551  0.50695010  1
  Sb  Sb62  1  0.32296310  -0.00195966  0.33260635  1
  Sb  Sb63  1  0.16707476  0.33555431  0.16246296  1
  Sb  Sb64  1  0.67066068  0.67104086  -0.00288181  1
  Sb  Sb65  1  0.66224975  0.67068962  0.66805304  1
  Sb  Sb66  1  0.84164178  0.83474954  0.00267703  1
  Sb  Sb67  1  0.49789948  0.50229927  0.33824460  1
  Sb  Sb68  1  0.66232258  0.49819787  0.16550956  1
  Sb  Sb69  1  0.16992656  0.50488188  -0.00166294  1
  Sb  Sb70  1  0.66127239  0.32810987  0.66785034  1
  Sb  Sb71  1  0.83736004  0.00189286  0.16709000  1
  Sb  Sb72  1  0.82976246  0.49834635  -0.00318753  1
  Sb  Sb73  1  0.66230949  0.33025616  -0.00184237  1
  Sb  Sb74  1  0.00329616  0.50544991  0.16565400  1
  Sb  Sb75  1  0.16695835  0.83457319  0.66762768  1
  Sb  Sb76  1  0.83925365  0.66622493  0.17089140  1
  Sb  Sb77  1  0.67329641  0.17124652  0.50467863  1
  Sb  Sb78  1  0.67077923  0.66547860  0.33461924  1
  Sb  Sb79  1  0.16371884  0.33274893  0.50374409  1
  Sb  Sb80  1  0.67188617  0.82978886  0.50063963  1
  Sb  Sb81  1  0.50464366  0.00058303  0.83148707  1
  Sb  Sb82  1  -0.00585196  0.33392577  0.33403940  1
  Sb  Sb83  1  0.15831262  0.16246803  0.33432538  1
  Sb  Sb84  1  0.83498177  0.66889315  0.82710339  1
  Sb  Sb85  1  0.16968550  0.50064993  0.66813123  1
  Sb  Sb86  1  0.00096737  0.32992246  0.66766277  1
  Sb  Sb87  1  0.50538624  -0.00134553  0.50335384  1
  Sb  Sb88  1  0.16301163  0.66987774  0.50153901  1
  Sb  Sb89  1  0.82717512  0.49349267  0.66579450  1
  Sb  Sb90  1  0.49964603  0.00287115  0.16812728  1
  Sb  Sb91  1  0.16601312  0.16066505  -0.00356101  1
  Sb  Sb92  1  0.32815531  0.66571694  0.33738126  1
  Sb  Sb93  1  0.50207205  0.17307138  -0.00861097  1
  Sb  Sb94  1  0.33521302  0.50064481  0.50545733  1
  Sb  Sb95  1  -0.00422608  0.16157035  0.82832414  1
  Sb  Sb96  1  0.16498128  0.16536973  0.66949910  1
  Sb  Sb97  1  0.67525037  0.00145211  0.33627311  1
  Sb  Sb98  1  0.83176582  0.16493727  -0.00382889  1
  Sb  Sb99  1  0.33001106  0.83258379  0.50159535  1
  Sb  Sb100  1  0.33208175  0.83051832  0.83196391  1
  Sb  Sb101  1  0.33968463  0.33521997  0.33521296  1
  Sb  Sb102  1  0.33173189  0.00331121  -0.00413511  1
  Sb  Sb103  1  0.00330949  0.67161796  0.66586930  1
  Sb  Sb104  1  0.33835602  0.17267042  0.16092340  1
  Sb  Sb105  1  0.32905544  0.66184771  -0.00591162  1
  Sb  Sb106  1  -0.00643338  0.15846059  0.17196334  1
  Sb  Sb107  1  0.00312076  0.33373533  -0.00497769  1
  Te  Te108  1  0.16777430  0.16457138  0.16728704  1
  Te  Te109  1  0.15910919  0.16294327  0.50037060  1
  Te  Te110  1  0.16641380  0.17393650  0.83323775  1
  Te  Te111  1  0.17018289  0.50148010  0.16960195  1
  Te  Te112  1  0.16473623  0.50018523  0.49634598  1
  Te  Te113  1  0.16093735  0.50159533  0.83359594  1
  Te  Te114  1  0.16558298  0.83171666  0.16814831  1
  Te  Te115  1  0.16130545  0.83664854  0.49737936  1
  Te  Te116  1  0.16535555  0.83182143  0.83351319  1
  Te  Te117  1  0.50625201  0.17206079  0.16791993  1
  Te  Te118  1  0.50030627  0.17056521  0.50659938  1
  Te  Te119  1  0.50328623  0.16656859  0.82837763  1
  Te  Te120  1  0.49541800  0.49617777  0.17034418  1
  Te  Te121  1  0.50206309  0.49996647  0.50279946  1
  Te  Te122  1  0.49898727  0.49950491  0.82861894  1
  Te  Te123  1  0.50040724  0.83309174  0.16572204  1
  Te  Te124  1  0.50138073  0.83113394  0.50219219  1
  Te  Te125  1  0.50437152  0.83231620  0.83106588  1
  Te  Te126  1  0.82759468  0.17052996  0.16702090  1
  Te  Te127  1  0.83413162  0.16820641  0.50273033  1
  Te  Te128  1  0.82933907  0.16462998  0.83064867  1
  Te  Te129  1  0.83214795  0.49315284  0.16571497  1
  Te  Te130  1  0.82999244  0.49758688  0.50092425  1
  Te  Te131  1  0.84017727  0.50033130  0.83167030  1
  Te  Te132  1  0.83405590  0.83306567  0.17248875  1
  Te  Te133  1  0.83691728  0.83183307  0.49686841  1
  Te  Te134  1  0.83036206  0.83531922  0.83315452  1
  Te  Te135  1  0.16512328  -0.00475225  -0.00297651  1
  Te  Te136  1  0.15878129  -0.00302943  0.33217013  1
  Te  Te137  1  0.16303473  -0.00021422  0.66885883  1
  Te  Te138  1  0.17183601  0.33345211  -0.00584860  1
  Te  Te139  1  0.16793630  0.33395546  0.33324930  1
  Te  Te140  1  0.17296886  0.33297262  0.67274912  1
  Te  Te141  1  0.16351280  0.67043267  -0.00144191  1
  Te  Te142  1  0.16368307  0.66950267  0.33540383  1
  Te  Te143  1  0.17445522  0.66780799  0.67223869  1
  Te  Te144  1  0.50423041  -0.00042284  0.00140927  1
  Te  Te145  1  0.49789278  -0.00503114  0.33554096  1
  Te  Te146  1  0.50103481  0.00026432  0.66551645  1
  Te  Te147  1  0.49728783  0.33773644  -0.00050354  1
  Te  Te148  1  0.50645591  0.33349966  0.33054261  1
  Te  Te149  1  0.50001177  0.33490131  0.66875874  1
  Te  Te150  1  0.49984838  0.66043736  -0.00332857  1
  Te  Te151  1  0.49928205  0.67076807  0.33439153  1
  Te  Te152  1  0.50042963  0.66542396  0.66757082  1
  Te  Te153  1  0.83251425  -0.00081376  -0.00467892  1
  Te  Te154  1  0.83866418  0.00092193  0.33342849  1
  Te  Te155  1  0.83433776  0.00074237  0.66738843  1
  Te  Te156  1  0.83394356  0.33272240  -0.00442095  1
  Te  Te157  1  0.82954583  0.33248555  0.33589527  1
  Te  Te158  1  0.83446455  0.32762343  0.66534654  1
  Te  Te159  1  0.84230972  0.66575043  0.00142049  1
  Te  Te160  1  0.83848105  0.66929121  0.33788572  1
  Te  Te161  1  0.83385069  0.66552371  0.65802651  1
  Te  Te162  1  -0.00032182  0.16043406  0.00268130  1
  Te  Te163  1  -0.00794774  0.16634226  0.33951922  1
  Te  Te164  1  -0.00435347  0.16260932  0.66134738  1
  Te  Te165  1  -0.00015680  0.50229430  -0.00346207  1
  Te  Te166  1  0.00443301  0.50191450  0.33339832  1
  Te  Te167  1  -0.00022514  0.50093411  0.66675626  1
  Te  Te168  1  0.00187943  0.83328037  -0.00695356  1
  Te  Te169  1  -0.00142661  0.83217277  0.33086816  1
  Te  Te170  1  0.00012152  0.83757792  0.67611825  1
  Te  Te171  1  0.33449233  0.17418577  -0.00741158  1
  Te  Te172  1  0.33458100  0.16623703  0.33262689  1
  Te  Te173  1  0.33733873  0.16943910  0.67170873  1
  Te  Te174  1  0.33588542  0.49727673  -0.00332646  1
  Te  Te175  1  0.32624817  0.50026274  0.33239389  1
  Te  Te176  1  0.33572279  0.49918965  0.67114174  1
  Te  Te177  1  0.32623942  0.83390000  0.00044278  1
  Te  Te178  1  0.34213473  0.83330330  0.33335446  1
  Te  Te179  1  0.34180284  0.83210421  0.66664064  1
  Te  Te180  1  0.66593170  0.15956619  -0.00073100  1
  Te  Te181  1  0.67228834  0.16958614  0.32867133  1
  Te  Te182  1  0.66760073  0.16252748  0.66996981  1
  Te  Te183  1  0.66113108  0.50190095  -0.00428059  1
  Te  Te184  1  0.66661512  0.49515389  0.33470921  1
  Te  Te185  1  0.66185645  0.50175424  0.66760571  1
  Te  Te186  1  0.66655135  0.83740870  -0.00021647  1
  Te  Te187  1  0.66484424  0.83343398  0.33089993  1
  Te  Te188  1  0.66346051  0.83891696  0.66953627  1
  Te  Te189  1  0.00183869  -0.00482958  0.15693757  1
  Te  Te190  1  -0.00371804  -0.00347746  0.50411612  1
  Te  Te191  1  -0.00177766  0.00116559  0.83439388  1
  Te  Te192  1  -0.00432791  0.33168869  0.16407910  1
  Te  Te193  1  -0.00332292  0.34443700  0.50078644  1
  Te  Te194  1  -0.01086812  0.33406449  0.83349508  1
  Te  Te195  1  0.00381448  0.67075841  0.16920984  1
  Te  Te196  1  -0.00079167  0.66280607  0.49935088  1
  Te  Te197  1  0.00081352  0.66726581  0.83260880  1
  Te  Te198  1  0.32592905  0.00287803  0.16461579  1
  Te  Te199  1  0.32575454  0.00146844  0.50074081  1
  Te  Te200  1  0.32341317  0.00236469  0.83371529  1
  Te  Te201  1  0.33627154  0.33762885  0.16695375  1
  Te  Te202  1  0.33675535  0.33282087  0.50438128  1
  Te  Te203  1  0.33737367  0.33520645  0.83016690  1
  Te  Te204  1  0.32648216  0.65981085  0.16632439  1
  Te  Te205  1  0.34054724  0.66639924  0.50660904  1
  Te  Te206  1  0.33471954  0.66486441  0.83081734  1
  Te  Te207  1  0.66716039  -0.00074689  0.16849879  1
  Te  Te208  1  0.67399578  -0.00053392  0.50440737  1
  Te  Te209  1  0.66649447  0.00161807  0.83160314  1
  Te  Te210  1  0.66720709  0.33379718  0.16473378  1
  Te  Te211  1  0.66764402  0.33513449  0.49923422  1
  Te  Te212  1  0.66905634  0.33382195  0.83460428  1
  Te  Te213  1  0.66685716  0.67307938  0.16584772  1
  Te  Te214  1  0.66578115  0.66121433  0.49953765  1
  Te  Te215  1  0.66558324  0.66151850  0.83481548  1
