# generated using pymatgen
data_AgSbTe2
_symmetry_space_group_name_H-M   'P 1'
_cell_length_a   18.33061461
_cell_length_b   18.33024956
_cell_length_c   18.34392379
_cell_angle_alpha   89.99782315
_cell_angle_beta   89.99958360
_cell_angle_gamma   90.00431569
_symmetry_Int_Tables_number   1
_chemical_formula_structural   AgSbTe2
_chemical_formula_sum   'Ag54 Sb54 Te108'
_cell_volume   6163.64532700
_cell_formula_units_Z   54
loop_
 _symmetry_equiv_pos_site_id
 _symmetry_equiv_pos_as_xyz
  1  'x, y, z'
loop_
 _atom_site_type_symbol
 _atom_site_label
 _atom_site_symmetry_multiplicity
 _atom_site_fract_x
 _atom_site_fract_y
 _atom_site_fract_z
 _atom_site_occupancy
  Ag  Ag0  1  0.16132648  0.51005080  0.31990465  1
  Ag  Ag1  1  0.49682558  0.16786832  0.00355497  1
  Ag  Ag2  1  0.16507846  0.67268584  0.83875756  1
  Ag  Ag3  1  0.67353391  0.51031809  0.49774696  1
  Ag  Ag4  1  0.00046186  0.15651152  0.50582584  1
  Ag  Ag5  1  0.32215622  0.50963441  0.16599885  1
  Ag  Ag6  1  0.83458410  0.15593610  0.33219358  1
  Ag  Ag7  1  -0.00386698  -0.00300888  0.66227723  1
  Ag  Ag8  1  -0.00054419  0.16425798  0.83411419  1
  Ag  Ag9  1  0.32278877  0.67415808  0.67232331  1
  Ag  Ag10  1  0.32602409  0.83247699  0.16520492  1
  Ag  Ag11  1  0.66961843  0.67678081  0.66591239  1
  Ag  Ag12  1  0.15700658  0.15761982  0.67231849  1
  Ag  Ag13  1  0.66378660  0.83056727  0.17167916  1
  Ag  Ag14  1  0.66680734  0.32866611  0.66804999  1
  Ag  Ag15  1  -0.00875744  -0.00079193  0.33807789  1
  Ag  Ag16  1  0.16366707  0.51164857  0.00490950  1
  Ag  Ag17  1  0.00377019  0.67910887  0.66853919  1
  Ag  Ag18  1  0.00592663  0.83407794  0.82421580  1
  Ag  Ag19  1  0.32607753  0.16331547  0.16624110  1
  Ag  Ag20  1  0.83354361  0.32823858  0.83310071  1
  Ag  Ag21  1  0.00363389  0.16475963  0.16057047  1
  Ag  Ag22  1  0.83603316  -0.00076480  0.49079119  1
  Ag  Ag23  1  0.67171208  0.83172347  0.50250345  1
  Ag  Ag24  1  0.83465241  0.84304906  0.33282929  1
  Ag  Ag25  1  0.84091419  0.16344754  0.66722488  1
  Ag  Ag26  1  0.67421350  -0.00511386  0.66296451  1
  Ag  Ag27  1  0.50592069  0.32555968  0.83697916  1
  Ag  Ag28  1  0.16269274  0.16470927  0.00190537  1
  Ag  Ag29  1  0.00071017  0.32748548  -0.00176632  1
  Ag  Ag30  1  0.67889164  -0.00645775  0.33607266  1
  Ag  Ag31  1  0.32647744  0.15774355  0.49781994  1
  Ag  Ag32  1  0.50308233  -0.00056048  0.83096892  1
  Ag  Ag33  1  0.50356902  0.16521517  0.32671327  1
  Ag  Ag34  1  0.66844983  0.67821265  0.32975185  1
  Ag  Ag35  1  0.84135307  0.00168110  0.17739082  1
  Ag  Ag36  1  0.16232176  -0.00681270  0.16644382  1
  Ag  Ag37  1  0.32622392  0.67068320  0.00038033  1
  Ag  Ag38  1  0.16826613  0.82800765  0.00269684  1
  Ag  Ag39  1  0.50081324  0.83405680  0.66998163  1
  Ag  Ag40  1  0.66782769  0.83260612  0.81964702  1
  Ag  Ag41  1  0.16279564  0.83181924  0.32734547  1
  Ag  Ag42  1  -0.00269416  0.50233105  0.50094611  1
  Ag  Ag43  1  0.32728773  0.83764764  0.50809952  1
  Ag  Ag44  1  0.00162351  0.50015833  0.83419059  1
  Ag  Ag45  1  0.32351099  0.83075945  0.82484034  1
  Ag  Ag46  1  0.66830348  0.50883500  0.17043436  1
  Ag  Ag47  1  0.16781315  0.67277078  0.16107475  1
  Ag  Ag48  1  0.66296089  0.67004105  0.00592581  1
  Ag  Ag49  1  0.00077843  0.83944860  0.50542784  1
  Ag  Ag50  1  0.00827825  0.49804035  0.16493217  1
  Ag  Ag51  1  0.16310642  0.83541383  0.66923751  1
  Ag  Ag52  1  0.84424491  0.16625432  -0.00042148  1
  Ag  Ag53  1  0.50086960  0.32959753  0.16153651  1
  Sb  Sb54  1  -0.00351239  0.32773650  0.67222768  1
  Sb  Sb55  1  0.50348621  0.32907765  0.50113332  1
  Sb  Sb56  1  0.83679579  0.83791778  0.00422596  1
  Sb  Sb57  1  0.16476927  0.67141166  0.50066335  1
  Sb  Sb58  1  0.33170817  -0.00478553  0.00037352  1
  Sb  Sb59  1  0.66846042  0.16316711  0.16703144  1
  Sb  Sb60  1  0.49788300  0.66554414  0.16536099  1
  Sb  Sb61  1  0.49620379  0.49690385  0.00128503  1
  Sb  Sb62  1  0.32929352  0.16059301  0.83521014  1
  Sb  Sb63  1  0.83099259  0.32674815  0.16243405  1
  Sb  Sb64  1  0.83301871  0.67425761  0.50058418  1
  Sb  Sb65  1  0.66786027  0.33196821  0.33548304  1
  Sb  Sb66  1  0.32749528  0.50687577  0.83886171  1
  Sb  Sb67  1  0.49710541  0.67010644  0.83266213  1
  Sb  Sb68  1  0.50274097  0.66978533  0.50091490  1
  Sb  Sb69  1  0.33776139  0.33475354  0.66906768  1
  Sb  Sb70  1  -0.00136302  0.67304309  0.33633187  1
  Sb  Sb71  1  0.32847411  -0.00681071  0.66593018  1
  Sb  Sb72  1  0.50268474  0.50595460  0.66757137  1
  Sb  Sb73  1  0.83317645  0.00242208  0.83228631  1
  Sb  Sb74  1  0.33204605  -0.00123853  0.33303522  1
  Sb  Sb75  1  0.49632190  0.83670434  -0.00472893  1
  Sb  Sb76  1  0.83403306  0.32555165  0.50497833  1
  Sb  Sb77  1  0.67074601  0.16099430  0.50067743  1
  Sb  Sb78  1  0.83972726  0.49701131  0.00137194  1
  Sb  Sb79  1  0.49958954  0.49573987  0.32993810  1
  Sb  Sb80  1  0.00364528  0.66533480  -0.00333826  1
  Sb  Sb81  1  0.33270072  0.33129210  0.33014924  1
  Sb  Sb82  1  0.50281967  0.83840426  0.33567386  1
  Sb  Sb83  1  0.16394378  0.33138568  0.50101310  1
  Sb  Sb84  1  0.83710804  0.50082749  0.33299012  1
  Sb  Sb85  1  0.83428936  0.49556262  0.66572808  1
  Sb  Sb86  1  0.83605488  0.67131018  0.16653089  1
  Sb  Sb87  1  0.67131464  0.50466431  0.83300312  1
  Sb  Sb88  1  0.83841497  0.66639857  0.83216141  1
  Sb  Sb89  1  0.83492141  0.84035744  0.66106598  1
  Sb  Sb90  1  0.00057190  0.00476119  0.00143779  1
  Sb  Sb91  1  0.50604795  -0.00103042  0.50361637  1
  Sb  Sb92  1  0.16611121  -0.00631193  0.83697274  1
  Sb  Sb93  1  0.49900606  0.15960408  0.66811678  1
  Sb  Sb94  1  0.16862850  0.33402657  0.16472534  1
  Sb  Sb95  1  0.32921969  0.33490548  0.00156516  1
  Sb  Sb96  1  0.66698847  -0.00426552  0.00088966  1
  Sb  Sb97  1  0.49922704  0.00325785  0.16511466  1
  Sb  Sb98  1  0.32960761  0.50482397  0.49545211  1
  Sb  Sb99  1  0.00415246  0.83686502  0.16716909  1
  Sb  Sb100  1  0.67119186  0.16252150  0.83266479  1
  Sb  Sb101  1  0.16247623  0.16158881  0.33002527  1
  Sb  Sb102  1  -0.00030040  0.32810578  0.32883052  1
  Sb  Sb103  1  0.16312189  0.50554779  0.66947588  1
  Sb  Sb104  1  0.16390672  0.33457714  0.83517687  1
  Sb  Sb105  1  0.33429646  0.67020501  0.33156019  1
  Sb  Sb106  1  0.66923314  0.33683307  -0.00228388  1
  Sb  Sb107  1  0.15862236  -0.00249376  0.49557849  1
  Te  Te108  1  0.16567382  0.16770480  0.16640459  1
  Te  Te109  1  0.16566080  0.16505347  0.49923049  1
  Te  Te110  1  0.16321170  0.16550780  0.83462387  1
  Te  Te111  1  0.16624891  0.49717305  0.16416798  1
  Te  Te112  1  0.16404005  0.50032470  0.49886429  1
  Te  Te113  1  0.16123673  0.50396845  0.83809778  1
  Te  Te114  1  0.16602838  0.83252386  0.16501060  1
  Te  Te115  1  0.16489519  0.83400694  0.50271375  1
  Te  Te116  1  0.16546979  0.83334480  0.83201883  1
  Te  Te117  1  0.50069781  0.16760047  0.16548779  1
  Te  Te118  1  0.49382045  0.16592652  0.49671541  1
  Te  Te119  1  0.49823639  0.16468193  0.83575466  1
  Te  Te120  1  0.50446556  0.49436285  0.16699463  1
  Te  Te121  1  0.50313964  0.49799933  0.49852354  1
  Te  Te122  1  0.49913560  0.49254021  0.83403053  1
  Te  Te123  1  0.49928397  0.83449335  0.16617436  1
  Te  Te124  1  0.49798295  0.83442888  0.50521412  1
  Te  Te125  1  0.50682413  0.83507460  0.83064122  1
  Te  Te126  1  0.83553574  0.16305103  0.16546073  1
  Te  Te127  1  0.83753866  0.16104522  0.50126741  1
  Te  Te128  1  0.83709989  0.16773530  0.83453082  1
  Te  Te129  1  0.83005704  0.49903487  0.16776614  1
  Te  Te130  1  0.83381017  0.49757490  0.49827617  1
  Te  Te131  1  0.84173904  0.49375014  0.83372695  1
  Te  Te132  1  0.83180908  0.83875714  0.17087888  1
  Te  Te133  1  0.83515963  0.83849746  0.49458871  1
  Te  Te134  1  0.83080487  0.83430766  0.83647689  1
  Te  Te135  1  0.16673587  0.00323396  0.00546229  1
  Te  Te136  1  0.16430544  -0.00611763  0.32679994  1
  Te  Te137  1  0.16177849  -0.00120774  0.66839230  1
  Te  Te138  1  0.16131655  0.32604084  -0.00146109  1
  Te  Te139  1  0.16593610  0.34505371  0.33403060  1
  Te  Te140  1  0.16939075  0.32474559  0.66862194  1
  Te  Te141  1  0.16648143  0.66815069  0.00016322  1
  Te  Te142  1  0.16650404  0.67027208  0.32847287  1
  Te  Te143  1  0.16385829  0.67109040  0.66810977  1
  Te  Te144  1  0.50026120  0.00682562  -0.00581491  1
  Te  Te145  1  0.50326360  0.00626516  0.33347228  1
  Te  Te146  1  0.50563513  -0.00537863  0.67045632  1
  Te  Te147  1  0.50004946  0.32951143  -0.00179769  1
  Te  Te148  1  0.50028170  0.32529834  0.32923490  1
  Te  Te149  1  0.50500358  0.33274744  0.67118467  1
  Te  Te150  1  0.50100104  0.66618775  -0.00064926  1
  Te  Te151  1  0.50943844  0.66485179  0.33308212  1
  Te  Te152  1  0.50554243  0.67328175  0.66716801  1
  Te  Te153  1  0.83232492  0.00678696  0.00587328  1
  Te  Te154  1  0.83452539  -0.00041880  0.33343621  1
  Te  Te155  1  0.83430230  0.00541125  0.66755147  1
  Te  Te156  1  0.83688498  0.32800035  -0.00488932  1
  Te  Te157  1  0.83323730  0.32245387  0.33336184  1
  Te  Te158  1  0.82837329  0.32606212  0.67194386  1
  Te  Te159  1  0.82420372  0.66782411  -0.00031544  1
  Te  Te160  1  0.82751708  0.67140854  0.33337482  1
  Te  Te161  1  0.83257155  0.66382753  0.66731742  1
  Te  Te162  1  0.00086460  0.16617186  0.00031970  1
  Te  Te163  1  -0.00151219  0.16280185  0.33395686  1
  Te  Te164  1  0.00006648  0.16732955  0.66536638  1
  Te  Te165  1  0.00334827  0.49884635  0.00098617  1
  Te  Te166  1  0.00163307  0.50098097  0.33171159  1
  Te  Te167  1  0.00054395  0.49926933  0.66692501  1
  Te  Te168  1  0.00494985  0.83362663  -0.00497417  1
  Te  Te169  1  0.00130434  0.83685646  0.33436291  1
  Te  Te170  1  -0.00129288  0.83532683  0.66574421  1
  Te  Te171  1  0.33170796  0.16682270  0.00325364  1
  Te  Te172  1  0.33254616  0.16557078  0.33161601  1
  Te  Te173  1  0.32970262  0.16545851  0.66381964  1
  Te  Te174  1  0.32741402  0.50420182  0.00634196  1
  Te  Te175  1  0.32838793  0.50171921  0.32786918  1
  Te  Te176  1  0.33319462  0.50906052  0.66460208  1
  Te  Te177  1  0.33049065  0.82947420  0.00410515  1
  Te  Te178  1  0.33095988  0.83259598  0.33114432  1
  Te  Te179  1  0.33054191  0.83143222  0.66630392  1
  Te  Te180  1  0.66215983  0.16760797  -0.00088898  1
  Te  Te181  1  0.66808391  0.16358559  0.33478672  1
  Te  Te182  1  0.66735136  0.16711552  0.66622517  1
  Te  Te183  1  0.66742031  0.50558001  0.00306850  1
  Te  Te184  1  0.66825233  0.49972765  0.33445089  1
  Te  Te185  1  0.66696068  0.50127889  0.66303846  1
  Te  Te186  1  0.66653483  0.83002717  0.00727537  1
  Te  Te187  1  0.66347060  0.83500906  0.33415327  1
  Te  Te188  1  0.67185055  0.83581595  0.66314155  1
  Te  Te189  1  0.00150636  0.00281382  0.16787159  1
  Te  Te190  1  -0.00193120  -0.00017596  0.50016780  1
  Te  Te191  1  -0.00010334  0.00085629  0.82758108  1
  Te  Te192  1  -0.00122461  0.33289705  0.16180713  1
  Te  Te193  1  -0.00078463  0.34055292  0.49992411  1
  Te  Te194  1  -0.00157889  0.33045592  0.83708276  1
  Te  Te195  1  0.00404791  0.66093707  0.16716987  1
  Te  Te196  1  -0.00095747  0.66372639  0.50477227  1
  Te  Te197  1  0.00334670  0.66943652  0.83028974  1
  Te  Te198  1  0.32938205  0.00018224  0.16691236  1
  Te  Te199  1  0.33419289  -0.00138097  0.49997146  1
  Te  Te200  1  0.33992680  -0.00847970  0.83274114  1
  Te  Te201  1  0.34088310  0.32670007  0.16558547  1
  Te  Te202  1  0.33427479  0.32991003  0.50046706  1
  Te  Te203  1  0.34059045  0.33433802  0.83348509  1
  Te  Te204  1  0.33143840  0.66780305  0.16510191  1
  Te  Te205  1  0.33381573  0.67211363  0.50411869  1
  Te  Te206  1  0.33013706  0.67107431  0.83410211  1
  Te  Te207  1  0.66687065  -0.00451015  0.17002336  1
  Te  Te208  1  0.67191046  -0.00337260  0.50022860  1
  Te  Te209  1  0.66527590  -0.00481579  0.83062907  1
  Te  Te210  1  0.66304972  0.33769439  0.16663246  1
  Te  Te211  1  0.66711934  0.33851718  0.50585046  1
  Te  Te212  1  0.66811604  0.33572890  0.83066264  1
  Te  Te213  1  0.66725321  0.66850572  0.16779894  1
  Te  Te214  1  0.66757818  0.66932453  0.50317893  1
  Te  Te215  1  0.66732575  0.67023435  0.82855365  1
