# generated using pymatgen
data_AgSbTe2
_symmetry_space_group_name_H-M   'P 1'
_cell_length_a   18.33323899
_cell_length_b   18.33684917
_cell_length_c   18.33664864
_cell_angle_alpha   90.00027181
_cell_angle_beta   90.00192658
_cell_angle_gamma   90.00081317
_symmetry_Int_Tables_number   1
_chemical_formula_structural   AgSbTe2
_chemical_formula_sum   'Ag54 Sb54 Te108'
_cell_volume   6164.30155017
_cell_formula_units_Z   54
loop_
 _symmetry_equiv_pos_site_id
 _symmetry_equiv_pos_as_xyz
  1  'x, y, z'
loop_
 _atom_site_type_symbol
 _atom_site_label
 _atom_site_symmetry_multiplicity
 _atom_site_fract_x
 _atom_site_fract_y
 _atom_site_fract_z
 _atom_site_occupancy
  Ag  Ag0  1  0.49705087  0.49942790  0.01150388  1
  Ag  Ag1  1  0.49542912  0.83486441  0.33585842  1
  Ag  Ag2  1  0.17000935  0.50371476  0.33036852  1
  Ag  Ag3  1  0.32892663  0.83190129  0.18195252  1
  Ag  Ag4  1  0.33822203  0.15640297  0.49356942  1
  Ag  Ag5  1  0.33480752  0.67658155  0.33783961  1
  Ag  Ag6  1  0.33429800  -0.00357278  0.33775824  1
  Ag  Ag7  1  0.82753771  0.00230226  0.49590070  1
  Ag  Ag8  1  0.17226487  0.16120762  0.33205834  1
  Ag  Ag9  1  0.49426964  0.16556142  0.65606879  1
  Ag  Ag10  1  -0.00032494  0.32869000  0.00220841  1
  Ag  Ag11  1  0.00555670  0.16766767  0.16593811  1
  Ag  Ag12  1  0.84290527  0.66387136  0.17180421  1
  Ag  Ag13  1  0.16678071  0.83575053  -0.00292925  1
  Ag  Ag14  1  0.00667291  0.83024648  0.50138853  1
  Ag  Ag15  1  0.49901452  0.50190850  0.65914310  1
  Ag  Ag16  1  0.00530055  0.00042337  0.33357019  1
  Ag  Ag17  1  0.83628606  0.33469344  0.17037214  1
  Ag  Ag18  1  0.66680805  0.32772479  0.66357244  1
  Ag  Ag19  1  0.50042899  0.33595880  0.16941908  1
  Ag  Ag20  1  0.32805603  0.50216383  0.17306058  1
  Ag  Ag21  1  0.00934499  0.66957694  0.66328824  1
  Ag  Ag22  1  0.33458308  -0.00714972  0.65486824  1
  Ag  Ag23  1  0.00121177  0.50186563  0.83370063  1
  Ag  Ag24  1  0.83097876  0.83970992  0.33545044  1
  Ag  Ag25  1  0.17450683  0.67031759  0.49945858  1
  Ag  Ag26  1  0.49250691  0.50443129  0.33598097  1
  Ag  Ag27  1  0.83400658  0.32535059  0.49667668  1
  Ag  Ag28  1  0.32282137  0.16135315  0.17727590  1
  Ag  Ag29  1  0.49868787  0.00037541  0.49667202  1
  Ag  Ag30  1  0.17110900  0.83328232  0.66805520  1
  Ag  Ag31  1  0.16672403  0.00148801  0.17019589  1
  Ag  Ag32  1  0.16174988  0.15918733  0.01144827  1
  Ag  Ag33  1  0.66260683  0.67131364  0.65847498  1
  Ag  Ag34  1  0.17140477  0.15897353  0.66105372  1
  Ag  Ag35  1  0.16733273  0.67090949  0.17362244  1
  Ag  Ag36  1  0.00284257  0.16506755  0.83946732  1
  Ag  Ag37  1  0.65694396  0.15978399  0.49870619  1
  Ag  Ag38  1  0.49107711  0.15761123  0.33911682  1
  Ag  Ag39  1  0.66310910  0.83296893  0.82754603  1
  Ag  Ag40  1  0.00454816  0.00483410  0.00783294  1
  Ag  Ag41  1  0.00566120  0.49697617  0.16948817  1
  Ag  Ag42  1  0.32427370  0.83139554  0.81892166  1
  Ag  Ag43  1  0.49232941  0.67141402  0.49816858  1
  Ag  Ag44  1  0.83603635  0.15884401  0.33587002  1
  Ag  Ag45  1  0.66595654  -0.00281333  0.33727694  1
  Ag  Ag46  1  0.32685330  0.67494200  0.65545307  1
  Ag  Ag47  1  0.65634504  0.67374289  0.33990296  1
  Ag  Ag48  1  0.65982404  -0.00084113  0.65301163  1
  Ag  Ag49  1  0.16381927  0.67201128  0.82107872  1
  Ag  Ag50  1  0.83793890  0.33152038  0.82946152  1
  Ag  Ag51  1  0.00112673  0.50867768  0.49707486  1
  Ag  Ag52  1  0.32980967  0.83720705  0.49871461  1
  Ag  Ag53  1  0.00568059  0.83260131  0.82689994  1
  Sb  Sb54  1  0.67148217  0.33215205  -0.00326940  1
  Sb  Sb55  1  0.50619924  0.33380031  0.83422981  1
  Sb  Sb56  1  0.83685877  0.00238189  0.82589447  1
  Sb  Sb57  1  0.16014903  0.33596315  0.83367564  1
  Sb  Sb58  1  0.66402975  0.83888995  0.50146277  1
  Sb  Sb59  1  0.66297991  0.83172876  0.17024226  1
  Sb  Sb60  1  0.16924387  0.50505082  0.66286867  1
  Sb  Sb61  1  0.32773176  0.33327219  0.00414946  1
  Sb  Sb62  1  0.00751102  0.83409705  0.16993819  1
  Sb  Sb63  1  0.84169579  0.00118514  0.17746745  1
  Sb  Sb64  1  0.83334995  0.49901361  0.00184316  1
  Sb  Sb65  1  0.33843716  0.33233694  0.66585940  1
  Sb  Sb66  1  -0.00394293  0.33581423  0.66885447  1
  Sb  Sb67  1  0.84223415  0.83385955  0.00457597  1
  Sb  Sb68  1  0.16599085  -0.00787991  0.83609459  1
  Sb  Sb69  1  0.83526522  0.16645462  0.65889343  1
  Sb  Sb70  1  0.49191058  0.17005704  0.00704383  1
  Sb  Sb71  1  0.16760554  0.50189905  0.00579563  1
  Sb  Sb72  1  0.17077494  -0.00436631  0.49542662  1
  Sb  Sb73  1  0.83265387  0.50026665  0.66457362  1
  Sb  Sb74  1  0.16401629  0.32973785  0.16712178  1
  Sb  Sb75  1  0.49195654  0.82954729  0.00580246  1
  Sb  Sb76  1  0.66847157  0.49872008  0.49992461  1
  Sb  Sb77  1  0.33523634  0.32991926  0.33221655  1
  Sb  Sb78  1  0.32869857  0.50779558  0.83459216  1
  Sb  Sb79  1  0.16241013  0.33557964  0.49982072  1
  Sb  Sb80  1  0.49416435  0.66214830  0.17799467  1
  Sb  Sb81  1  0.66510111  0.66748146  0.00101837  1
  Sb  Sb82  1  0.32517366  0.15976395  0.82966136  1
  Sb  Sb83  1  0.83515193  0.50137317  0.33332944  1
  Sb  Sb84  1  0.83293903  0.67034136  0.49512756  1
  Sb  Sb85  1  0.83885243  0.66613392  0.83449617  1
  Sb  Sb86  1  0.32688470  -0.00184903  0.00549752  1
  Sb  Sb87  1  0.00320912  0.16312815  0.49596156  1
  Sb  Sb88  1  0.67269261  -0.00050860  0.00142330  1
  Sb  Sb89  1  0.00412071  0.66745087  -0.00177982  1
  Sb  Sb90  1  0.67101519  0.16295356  0.82211357  1
  Sb  Sb91  1  0.66654325  0.33095007  0.33797008  1
  Sb  Sb92  1  0.83598585  0.83390177  0.66037473  1
  Sb  Sb93  1  0.16967674  0.83400541  0.33574194  1
  Sb  Sb94  1  0.66746631  0.16593498  0.17635557  1
  Sb  Sb95  1  0.49155046  0.00489797  0.17689414  1
  Sb  Sb96  1  0.00428288  0.67054573  0.33700395  1
  Sb  Sb97  1  0.66930543  0.50439549  0.82899022  1
  Sb  Sb98  1  0.49480047  0.66831865  0.82284537  1
  Sb  Sb99  1  0.33177770  0.66800967  0.00544729  1
  Sb  Sb100  1  0.50324591  0.33007434  0.49574039  1
  Sb  Sb101  1  0.84264460  0.16735134  0.00736320  1
  Sb  Sb102  1  0.49407926  0.83341031  0.65764736  1
  Sb  Sb103  1  0.33110093  0.50397272  0.49342565  1
  Sb  Sb104  1  0.49944644  -0.00129062  0.82284088  1
  Sb  Sb105  1  -0.00174796  0.32886646  0.32887142  1
  Sb  Sb106  1  0.66528321  0.50027602  0.17029901  1
  Sb  Sb107  1  0.00495688  -0.00358455  0.66198275  1
  Te  Te108  1  0.16606583  0.16737245  0.17009613  1
  Te  Te109  1  0.17051420  0.16814218  0.49831139  1
  Te  Te110  1  0.16219279  0.16770629  0.82984055  1
  Te  Te111  1  0.16691875  0.50076556  0.16838405  1
  Te  Te112  1  0.16142752  0.50448504  0.49569397  1
  Te  Te113  1  0.16115107  0.50717969  0.83460946  1
  Te  Te114  1  0.16979676  0.83162607  0.16648274  1
  Te  Te115  1  0.16722327  0.83005780  0.50318460  1
  Te  Te116  1  0.16585241  0.83048853  0.82998513  1
  Te  Te117  1  0.49836596  0.17231773  0.17162529  1
  Te  Te118  1  0.49924353  0.16790257  0.49887622  1
  Te  Te119  1  0.49952081  0.16705066  0.83215531  1
  Te  Te120  1  0.49873906  0.49796868  0.17143992  1
  Te  Te121  1  0.49952852  0.49969078  0.49858832  1
  Te  Te122  1  0.49975173  0.50036035  0.82794053  1
  Te  Te123  1  0.49208889  0.83337603  0.17173679  1
  Te  Te124  1  0.49737147  0.83250187  0.49509819  1
  Te  Te125  1  0.50117567  0.83269025  0.83788692  1
  Te  Te126  1  0.83682357  0.16911939  0.17377097  1
  Te  Te127  1  0.83635363  0.16539258  0.49521082  1
  Te  Te128  1  0.83907306  0.17086997  0.83453754  1
  Te  Te129  1  0.83789012  0.49894737  0.16694504  1
  Te  Te130  1  0.83990498  0.49553403  0.49901247  1
  Te  Te131  1  0.84029519  0.49611918  0.83399301  1
  Te  Te132  1  0.83261541  0.83021684  0.17228235  1
  Te  Te133  1  0.83830197  0.83729071  0.49442244  1
  Te  Te134  1  0.84054521  0.83339237  0.83536590  1
  Te  Te135  1  0.16273752  -0.00052635  0.00385693  1
  Te  Te136  1  0.16711902  0.00157240  0.33079301  1
  Te  Te137  1  0.17107272  -0.00075034  0.66704794  1
  Te  Te138  1  0.15953672  0.32876321  -0.00068577  1
  Te  Te139  1  0.16589887  0.33741077  0.33451135  1
  Te  Te140  1  0.16767568  0.32654788  0.66735963  1
  Te  Te141  1  0.16735570  0.67076755  0.00595400  1
  Te  Te142  1  0.16913889  0.66576548  0.33482136  1
  Te  Te143  1  0.16768499  0.66680955  0.66267872  1
  Te  Te144  1  0.50200563  0.00047823  0.00040117  1
  Te  Te145  1  0.49743826  0.00030966  0.33677596  1
  Te  Te146  1  0.49882712  0.00282286  0.65949576  1
  Te  Te147  1  0.50139441  0.33755447  0.00480753  1
  Te  Te148  1  0.50247355  0.33945619  0.32865435  1
  Te  Te149  1  0.50604581  0.33208771  0.66709755  1
  Te  Te150  1  0.50025583  0.66031705  -0.00112446  1
  Te  Te151  1  0.49768375  0.66703128  0.33718916  1
  Te  Te152  1  0.50135460  0.66659568  0.66040507  1
  Te  Te153  1  0.84179106  -0.00003359  -0.00044125  1
  Te  Te154  1  0.83099270  -0.00031545  0.33599639  1
  Te  Te155  1  0.82616953  0.00052770  0.65837489  1
  Te  Te156  1  0.83830262  0.33346449  0.00361305  1
  Te  Te157  1  0.83184321  0.33163090  0.33311699  1
  Te  Te158  1  0.82833900  0.33321785  0.66548996  1
  Te  Te159  1  0.83305317  0.66655401  0.01062201  1
  Te  Te160  1  0.83268643  0.66908456  0.33025141  1
  Te  Te161  1  0.82732709  0.66660025  0.66702380  1
  Te  Te162  1  0.00290749  0.16523801  0.00214811  1
  Te  Te163  1  0.00171790  0.16248669  0.33094695  1
  Te  Te164  1  0.00528499  0.16587405  0.66877331  1
  Te  Te165  1  0.00064309  0.49670402  0.00225659  1
  Te  Te166  1  0.00254475  0.50055509  0.33143700  1
  Te  Te167  1  0.00098284  0.50455424  0.66613756  1
  Te  Te168  1  0.00657364  0.83728930  -0.00207468  1
  Te  Te169  1  -0.00372729  0.83733593  0.33635240  1
  Te  Te170  1  0.00259342  0.83087785  0.66512118  1
  Te  Te171  1  0.32471640  0.16552137  0.00290872  1
  Te  Te172  1  0.33328859  0.16609756  0.33284619  1
  Te  Te173  1  0.33390878  0.16545830  0.66671614  1
  Te  Te174  1  0.33778101  0.50030615  0.00514893  1
  Te  Te175  1  0.33219084  0.49923204  0.33117162  1
  Te  Te176  1  0.33778964  0.50259031  0.66636649  1
  Te  Te177  1  0.32678857  0.83385680  -0.00173962  1
  Te  Te178  1  0.33345273  0.83516364  0.33797625  1
  Te  Te179  1  0.33291916  0.83230816  0.66200071  1
  Te  Te180  1  0.66457458  0.16556942  -0.00188849  1
  Te  Te181  1  0.66658564  0.16385594  0.33901012  1
  Te  Te182  1  0.66610338  0.16314662  0.66090388  1
  Te  Te183  1  0.65751161  0.49937139  -0.00232229  1
  Te  Te184  1  0.66261640  0.50660311  0.33437446  1
  Te  Te185  1  0.66106400  0.50603522  0.66668803  1
  Te  Te186  1  0.66668206  0.83389514  -0.00577604  1
  Te  Te187  1  0.66501513  0.83400853  0.33363671  1
  Te  Te188  1  0.66711884  0.83422940  0.66809098  1
  Te  Te189  1  0.00500951  0.00173661  0.16956689  1
  Te  Te190  1  -0.00277888  -0.00369991  0.49622160  1
  Te  Te191  1  -0.00052530  0.00016988  0.83102300  1
  Te  Te192  1  -0.00270827  0.33333729  0.16426366  1
  Te  Te193  1  -0.00540927  0.33703261  0.50045594  1
  Te  Te194  1  -0.00388363  0.33396312  0.83544039  1
  Te  Te195  1  0.00338521  0.66429034  0.16707168  1
  Te  Te196  1  -0.00157685  0.66821119  0.50322630  1
  Te  Te197  1  0.00226874  0.66784377  0.83086104  1
  Te  Te198  1  0.32761520  0.00044476  0.17117439  1
  Te  Te199  1  0.33362882  -0.00089032  0.49867872  1
  Te  Te200  1  0.33393440  -0.00782819  0.82949286  1
  Te  Te201  1  0.33835792  0.33665107  0.16578658  1
  Te  Te202  1  0.33218806  0.32434285  0.50141829  1
  Te  Te203  1  0.33508231  0.33517448  0.83551182  1
  Te  Te204  1  0.32972315  0.66654531  0.17167737  1
  Te  Te205  1  0.33399414  0.66480062  0.49826425  1
  Te  Te206  1  0.32764184  0.67207433  0.83075098  1
  Te  Te207  1  0.66607962  -0.00091758  0.17163827  1
  Te  Te208  1  0.66383881  0.00071770  0.49699411  1
  Te  Te209  1  0.66843436  -0.00590861  0.83265111  1
  Te  Te210  1  0.67187191  0.33304709  0.16545733  1
  Te  Te211  1  0.67237264  0.32969279  0.50498680  1
  Te  Te212  1  0.67544199  0.33341259  0.82766520  1
  Te  Te213  1  0.67021120  0.66666857  0.17046180  1
  Te  Te214  1  0.66581474  0.66602555  0.49881912  1
  Te  Te215  1  0.66871927  0.67244050  0.83129061  1
