# generated using pymatgen
data_AgSbTe2
_symmetry_space_group_name_H-M   'P 1'
_cell_length_a   18.33290064
_cell_length_b   18.33442748
_cell_length_c   18.33264706
_cell_angle_alpha   90.00159867
_cell_angle_beta   90.00276862
_cell_angle_gamma   89.99805858
_symmetry_Int_Tables_number   1
_chemical_formula_structural   AgSbTe2
_chemical_formula_sum   'Ag54 Sb54 Te108'
_cell_volume   6162.02866368
_cell_formula_units_Z   54
loop_
 _symmetry_equiv_pos_site_id
 _symmetry_equiv_pos_as_xyz
  1  'x, y, z'
loop_
 _atom_site_type_symbol
 _atom_site_label
 _atom_site_symmetry_multiplicity
 _atom_site_fract_x
 _atom_site_fract_y
 _atom_site_fract_z
 _atom_site_occupancy
  Ag  Ag0  1  0.83865175  0.49915183  0.00960512  1
  Ag  Ag1  1  0.83529625  0.83569893  0.65423468  1
  Ag  Ag2  1  0.50149562  -0.00154103  0.17526858  1
  Ag  Ag3  1  0.83532607  0.49726548  0.33191635  1
  Ag  Ag4  1  0.83324813  0.33301866  0.49963996  1
  Ag  Ag5  1  0.16311240  0.17451491  0.66731668  1
  Ag  Ag6  1  0.50775507  0.50735323  0.33305660  1
  Ag  Ag7  1  0.66646386  0.83430118  0.82344293  1
  Ag  Ag8  1  0.15556271  0.66377782  0.16836159  1
  Ag  Ag9  1  0.33129421  0.17151483  0.83135006  1
  Ag  Ag10  1  0.66793584  0.00660325  0.65534917  1
  Ag  Ag11  1  0.67124933  0.65997459  0.00263330  1
  Ag  Ag12  1  0.67065157  0.15578395  0.50277281  1
  Ag  Ag13  1  -0.00116692  0.50287067  0.49607189  1
  Ag  Ag14  1  0.33446809  0.83309617  0.49748459  1
  Ag  Ag15  1  0.50898340  0.67717373  0.49377451  1
  Ag  Ag16  1  0.16156149  0.83337471  0.65905538  1
  Ag  Ag17  1  0.33295027  0.83515418  0.82996833  1
  Ag  Ag18  1  0.67189408  0.32949568  0.33620936  1
  Ag  Ag19  1  -0.00272855  0.17786971  0.16911243  1
  Ag  Ag20  1  0.67100363  0.00131110  0.34374812  1
  Ag  Ag21  1  0.83352914  0.33362736  0.82013822  1
  Ag  Ag22  1  0.67780271  0.32744097  0.65942873  1
  Ag  Ag23  1  0.16223206  0.49230122  0.66493243  1
  Ag  Ag24  1  -0.00485217  0.66212947  0.00385973  1
  Ag  Ag25  1  0.50256177  0.66604522  0.17260347  1
  Ag  Ag26  1  0.15840429  0.50288670  0.33424611  1
  Ag  Ag27  1  0.67603199  0.84367736  0.50193864  1
  Ag  Ag28  1  -0.00009807  0.66068543  0.66266335  1
  Ag  Ag29  1  0.33608600  0.83095925  0.17634689  1
  Ag  Ag30  1  0.33747544  0.33491235  -0.00172751  1
  Ag  Ag31  1  -0.00293864  0.50026928  0.17392216  1
  Ag  Ag32  1  0.83106625  0.17394916  0.65803253  1
  Ag  Ag33  1  0.82697751  -0.00918674  0.49763972  1
  Ag  Ag34  1  0.83207040  0.67744293  0.49433479  1
  Ag  Ag35  1  0.83628793  0.66029947  0.17528500  1
  Ag  Ag36  1  0.50323654  0.83021672  0.33707138  1
  Ag  Ag37  1  0.51204316  0.16682484  0.66621123  1
  Ag  Ag38  1  0.51452529  -0.00771614  0.49435676  1
  Ag  Ag39  1  0.16591494  0.33500964  0.82595968  1
  Ag  Ag40  1  0.83033829  0.34093154  0.17266650  1
  Ag  Ag41  1  -0.01178710  0.82833990  0.49945262  1
  Ag  Ag42  1  0.16765079  0.00165819  0.82907700  1
  Ag  Ag43  1  0.50887584  0.33468234  0.16621688  1
  Ag  Ag44  1  0.83095663  0.83453107  0.34109842  1
  Ag  Ag45  1  0.15972729  0.49987016  -0.00047860  1
  Ag  Ag46  1  0.16519113  0.82908960  0.34184522  1
  Ag  Ag47  1  0.32929269  0.48961270  0.83503456  1
  Ag  Ag48  1  0.15820668  0.33751382  0.50803924  1
  Ag  Ag49  1  0.83165756  0.17200748  0.34052787  1
  Ag  Ag50  1  0.50090321  0.17031903  -0.00067450  1
  Ag  Ag51  1  0.66741420  0.33614385  0.00143259  1
  Ag  Ag52  1  -0.00288641  0.33546406  0.66342307  1
  Ag  Ag53  1  -0.01004577  -0.00373109  0.33523234  1
  Sb  Sb54  1  0.50119604  0.49679114  0.00807260  1
  Sb  Sb55  1  0.83048891  0.82452265  0.00253442  1
  Sb  Sb56  1  -0.00074636  -0.00528331  0.00649391  1
  Sb  Sb57  1  0.32772438  0.66893516  0.66576840  1
  Sb  Sb58  1  0.33392965  0.66272163  0.00161490  1
  Sb  Sb59  1  0.50080585  0.66883956  0.83324208  1
  Sb  Sb60  1  0.32711694  0.50361451  0.50219690  1
  Sb  Sb61  1  -0.00292797  0.33935885  -0.00229395  1
  Sb  Sb62  1  0.16944400  -0.00564559  0.16709030  1
  Sb  Sb63  1  -0.00063887  0.83263093  0.82355008  1
  Sb  Sb64  1  0.66646029  0.00222204  0.00028004  1
  Sb  Sb65  1  0.83976532  0.49744159  0.66231626  1
  Sb  Sb66  1  -0.00803543  0.33484797  0.33858560  1
  Sb  Sb67  1  0.67542065  0.50099754  0.49828052  1
  Sb  Sb68  1  0.00338476  0.49860823  0.83183173  1
  Sb  Sb69  1  0.83555566  0.00375784  0.82336139  1
  Sb  Sb70  1  0.32927018  0.33235654  0.67113309  1
  Sb  Sb71  1  0.49792580  0.00024934  0.83041674  1
  Sb  Sb72  1  0.66806130  0.66864857  0.33063422  1
  Sb  Sb73  1  0.83381018  0.66110824  0.83209184  1
  Sb  Sb74  1  0.33713443  0.33473738  0.32908510  1
  Sb  Sb75  1  0.67248953  0.66857605  0.66669651  1
  Sb  Sb76  1  0.00235399  0.82696576  0.17545762  1
  Sb  Sb77  1  0.49998500  0.83521416  0.00615517  1
  Sb  Sb78  1  0.66366211  0.83258123  0.17366462  1
  Sb  Sb79  1  0.33772796  0.16370976  0.50534924  1
  Sb  Sb80  1  0.49607487  0.49445406  0.66039110  1
  Sb  Sb81  1  0.49956215  0.33187960  0.83707461  1
  Sb  Sb82  1  -0.00389727  0.66750768  0.33607282  1
  Sb  Sb83  1  0.16680092  0.82682413  -0.00074534  1
  Sb  Sb84  1  0.15652174  0.16834648  0.33925088  1
  Sb  Sb85  1  0.16918198  0.17504327  -0.00502619  1
  Sb  Sb86  1  0.33776107  -0.00321296  0.33438704  1
  Sb  Sb87  1  -0.00307540  0.00196334  0.65898103  1
  Sb  Sb88  1  0.67388872  0.49922717  0.16874298  1
  Sb  Sb89  1  0.66416659  0.49996923  0.83414382  1
  Sb  Sb90  1  0.16105043  0.66699324  0.49650929  1
  Sb  Sb91  1  0.67014007  0.17014701  0.17212616  1
  Sb  Sb92  1  0.00341627  0.16888495  0.83408710  1
  Sb  Sb93  1  0.82916940  0.17691882  0.00027165  1
  Sb  Sb94  1  0.16389520  -0.00036957  0.50320508  1
  Sb  Sb95  1  -0.00999230  0.16764728  0.49832131  1
  Sb  Sb96  1  0.50585316  0.33245645  0.49548926  1
  Sb  Sb97  1  0.16699600  0.66283852  0.83406956  1
  Sb  Sb98  1  0.33568186  -0.00044165  0.66670279  1
  Sb  Sb99  1  0.82915572  -0.00026637  0.17701417  1
  Sb  Sb100  1  0.66392740  0.16489961  0.82604683  1
  Sb  Sb101  1  0.33516234  0.66799013  0.33333101  1
  Sb  Sb102  1  0.50234428  0.83713580  0.65757411  1
  Sb  Sb103  1  0.33287746  0.16466508  0.16260290  1
  Sb  Sb104  1  0.32909420  0.50470630  0.16386395  1
  Sb  Sb105  1  0.16368367  0.33953568  0.16781307  1
  Sb  Sb106  1  0.50742890  0.16451483  0.33466440  1
  Sb  Sb107  1  0.33400452  0.00345583  -0.00182656  1
  Te  Te108  1  0.16158874  0.16521272  0.16754315  1
  Te  Te109  1  0.16843494  0.16991515  0.50623245  1
  Te  Te110  1  0.16939597  0.17107629  0.82987711  1
  Te  Te111  1  0.16234427  0.50366543  0.16995398  1
  Te  Te112  1  0.16231727  0.50026396  0.49946711  1
  Te  Te113  1  0.16916867  0.49682517  0.83241083  1
  Te  Te114  1  0.17179703  0.82771356  0.16745168  1
  Te  Te115  1  0.17362442  0.83305612  0.49966868  1
  Te  Te116  1  0.16768791  0.83386360  0.83167706  1
  Te  Te117  1  0.49908018  0.16909556  0.16458187  1
  Te  Te118  1  0.50509619  0.16433777  0.50377775  1
  Te  Te119  1  0.49453606  0.16512732  0.83132321  1
  Te  Te120  1  0.49721672  0.50069022  0.17281154  1
  Te  Te121  1  0.49604401  0.50133172  0.49322874  1
  Te  Te122  1  0.49147644  0.50111969  0.83163251  1
  Te  Te123  1  0.49771075  0.83113628  0.17145539  1
  Te  Te124  1  0.49722891  0.83387647  0.49759362  1
  Te  Te125  1  0.49915204  0.83421333  0.83306593  1
  Te  Te126  1  0.83706125  0.16672026  0.16829472  1
  Te  Te127  1  0.83079138  0.17359577  0.50018413  1
  Te  Te128  1  0.83377841  0.17257210  0.83022462  1
  Te  Te129  1  0.83606447  0.50118121  0.16904486  1
  Te  Te130  1  0.83934899  0.49241681  0.49627661  1
  Te  Te131  1  0.83164810  0.49329873  0.83663462  1
  Te  Te132  1  0.83280309  0.82786746  0.17148115  1
  Te  Te133  1  0.83204271  0.83337752  0.49850640  1
  Te  Te134  1  0.83049310  0.83466028  0.83165194  1
  Te  Te135  1  0.16559492  0.00102345  -0.00587578  1
  Te  Te136  1  0.16494546  -0.00389927  0.33386161  1
  Te  Te137  1  0.16534188  -0.00323609  0.66939771  1
  Te  Te138  1  0.16723694  0.34002365  -0.00125254  1
  Te  Te139  1  0.16791390  0.33711607  0.33649579  1
  Te  Te140  1  0.16664158  0.33358971  0.66693687  1
  Te  Te141  1  0.16555892  0.65954093  0.00459623  1
  Te  Te142  1  0.16726721  0.66743941  0.32950018  1
  Te  Te143  1  0.16046728  0.67127136  0.66514499  1
  Te  Te144  1  0.50053561  0.00646062  0.00479279  1
  Te  Te145  1  0.50348193  -0.00211548  0.33424681  1
  Te  Te146  1  0.50560843  0.00449210  0.66300148  1
  Te  Te147  1  0.50253757  0.33220152  0.00374302  1
  Te  Te148  1  0.50475210  0.33325533  0.32714236  1
  Te  Te149  1  0.50281667  0.32766710  0.66547629  1
  Te  Te150  1  0.50564702  0.66594933  0.00434564  1
  Te  Te151  1  0.50239940  0.66725039  0.33307799  1
  Te  Te152  1  0.50173661  0.66395161  0.66066392  1
  Te  Te153  1  0.83357211  0.00044898  -0.00075143  1
  Te  Te154  1  0.83045518  -0.00325439  0.33632379  1
  Te  Te155  1  0.82995939  -0.00091357  0.66192907  1
  Te  Te156  1  0.83015753  0.33841997  0.00859025  1
  Te  Te157  1  0.83267106  0.33448579  0.33234566  1
  Te  Te158  1  0.83535053  0.33479375  0.66439546  1
  Te  Te159  1  0.83276612  0.66043210  -0.00085943  1
  Te  Te160  1  0.83104148  0.66406093  0.33476576  1
  Te  Te161  1  0.83862930  0.66850927  0.66329215  1
  Te  Te162  1  -0.00027261  0.16488170  0.00779566  1
  Te  Te163  1  -0.00698969  0.16184420  0.32963254  1
  Te  Te164  1  -0.00065377  0.17002062  0.66599894  1
  Te  Te165  1  -0.00010781  0.50314452  -0.00042302  1
  Te  Te166  1  -0.00118108  0.50023247  0.33448105  1
  Te  Te167  1  0.00406560  0.49952315  0.66471415  1
  Te  Te168  1  -0.00094648  0.82503932  0.00052774  1
  Te  Te169  1  0.00105854  0.83392052  0.33886104  1
  Te  Te170  1  -0.00102988  0.83498185  0.66028461  1
  Te  Te171  1  0.33705590  0.17259193  -0.00476690  1
  Te  Te172  1  0.33055391  0.16593959  0.33370392  1
  Te  Te173  1  0.32715307  0.16575004  0.67168209  1
  Te  Te174  1  0.33174587  0.49579134  -0.00382970  1
  Te  Te175  1  0.32895032  0.49926974  0.33313741  1
  Te  Te176  1  0.32595651  0.50124192  0.67278951  1
  Te  Te177  1  0.33314555  0.83342121  -0.00611428  1
  Te  Te178  1  0.33226199  0.83346427  0.33461560  1
  Te  Te179  1  0.32959376  0.83382521  0.66752034  1
  Te  Te180  1  0.66136537  0.17107980  -0.00162799  1
  Te  Te181  1  0.67129365  0.16718616  0.33799946  1
  Te  Te182  1  0.66969995  0.16750801  0.66502247  1
  Te  Te183  1  0.66909127  0.49855237  -0.00164630  1
  Te  Te184  1  0.66692543  0.49275366  0.33439040  1
  Te  Te185  1  0.66474276  0.49278920  0.66769492  1
  Te  Te186  1  0.66594777  0.83283771  -0.00421677  1
  Te  Te187  1  0.66591107  0.83530628  0.33826868  1
  Te  Te188  1  0.66872605  0.83236856  0.66356279  1
  Te  Te189  1  0.00015041  -0.00193735  0.17371649  1
  Te  Te190  1  -0.00352492  -0.00376612  0.49450110  1
  Te  Te191  1  0.00643033  0.00038943  0.83645046  1
  Te  Te192  1  -0.00354303  0.33747826  0.16590720  1
  Te  Te193  1  0.00052594  0.33339279  0.50333764  1
  Te  Te194  1  -0.00025078  0.33248904  0.82881714  1
  Te  Te195  1  -0.00273434  0.66263425  0.16470279  1
  Te  Te196  1  -0.00391269  0.66631196  0.50266055  1
  Te  Te197  1  0.00012396  0.66686429  0.83302751  1
  Te  Te198  1  0.33918491  -0.00636503  0.16540372  1
  Te  Te199  1  0.33714181  -0.00489776  0.50051720  1
  Te  Te200  1  0.32885775  -0.00194821  0.83303806  1
  Te  Te201  1  0.33516068  0.33281998  0.16039516  1
  Te  Te202  1  0.33087162  0.33351230  0.49895626  1
  Te  Te203  1  0.33231753  0.33165863  0.83681850  1
  Te  Te204  1  0.34010413  0.67219229  0.16497445  1
  Te  Te205  1  0.34118096  0.67148052  0.50065774  1
  Te  Te206  1  0.33444040  0.67432442  0.83377401  1
  Te  Te207  1  0.66082573  0.00105149  0.16894654  1
  Te  Te208  1  0.66975766  -0.00007696  0.49959750  1
  Te  Te209  1  0.66715071  -0.00573913  0.83168073  1
  Te  Te210  1  0.66833769  0.33296612  0.16589862  1
  Te  Te211  1  0.66965107  0.33489926  0.49957034  1
  Te  Te212  1  0.66976525  0.33263867  0.83544283  1
  Te  Te213  1  0.66786929  0.66703195  0.16191775  1
  Te  Te214  1  0.66954533  0.66786232  0.50036131  1
  Te  Te215  1  0.66639333  0.67209969  0.83823465  1
