# generated using pymatgen
data_AgSbTe2
_symmetry_space_group_name_H-M   'P 1'
_cell_length_a   18.33484881
_cell_length_b   18.33201490
_cell_length_c   18.33765812
_cell_angle_alpha   89.99950180
_cell_angle_beta   90.00070242
_cell_angle_gamma   90.00055988
_symmetry_Int_Tables_number   1
_chemical_formula_structural   AgSbTe2
_chemical_formula_sum   'Ag54 Sb54 Te108'
_cell_volume   6163.55685063
_cell_formula_units_Z   54
loop_
 _symmetry_equiv_pos_site_id
 _symmetry_equiv_pos_as_xyz
  1  'x, y, z'
loop_
 _atom_site_type_symbol
 _atom_site_label
 _atom_site_symmetry_multiplicity
 _atom_site_fract_x
 _atom_site_fract_y
 _atom_site_fract_z
 _atom_site_occupancy
  Ag  Ag0  1  0.66913026  0.49994718  0.50962327  1
  Ag  Ag1  1  0.84166838  0.49939907  0.66783633  1
  Ag  Ag2  1  0.16026189  0.33477997  0.51176989  1
  Ag  Ag3  1  0.66786844  0.17160336  0.83601014  1
  Ag  Ag4  1  0.66942042  0.66358666  -0.00506125  1
  Ag  Ag5  1  0.67416950  0.66284910  0.67717205  1
  Ag  Ag6  1  0.67075201  -0.00160478  -0.00072917  1
  Ag  Ag7  1  0.67094456  0.16991660  0.16004014  1
  Ag  Ag8  1  0.50276865  0.65437831  0.50649151  1
  Ag  Ag9  1  0.83462484  0.82063834  0.67520833  1
  Ag  Ag10  1  0.50221948  0.49476665  0.00024017  1
  Ag  Ag11  1  0.66569628  0.49944858  0.15982117  1
  Ag  Ag12  1  0.83485241  0.66842929  0.83044907  1
  Ag  Ag13  1  0.32230738  0.33703210  0.66703491  1
  Ag  Ag14  1  0.83130561  0.66629774  0.15721464  1
  Ag  Ag15  1  0.50320726  0.49769968  0.33458622  1
  Ag  Ag16  1  0.16587522  0.49154448  -0.00738247  1
  Ag  Ag17  1  0.32500901  0.33169816  -0.00009457  1
  Ag  Ag18  1  0.66825971  0.82615518  0.16365275  1
  Ag  Ag19  1  0.51582534  0.66356622  0.82858793  1
  Ag  Ag20  1  0.16608546  0.33132074  0.16571302  1
  Ag  Ag21  1  0.16400885  0.33708219  0.82527836  1
  Ag  Ag22  1  -0.00468296  0.82339715  0.83328069  1
  Ag  Ag23  1  0.00614165  0.33646099  0.33775844  1
  Ag  Ag24  1  0.83416692  0.00706085  0.51059029  1
  Ag  Ag25  1  0.83712751  -0.00759462  0.83319395  1
  Ag  Ag26  1  0.00057736  0.00545338  -0.00374977  1
  Ag  Ag27  1  -0.00198811  0.17032883  0.16654493  1
  Ag  Ag28  1  0.83918002  0.16909165  0.33495057  1
  Ag  Ag29  1  0.15573933  0.00325229  0.83945238  1
  Ag  Ag30  1  0.49717690  0.33456194  0.16567553  1
  Ag  Ag31  1  0.16545081  0.83629935  0.33116833  1
  Ag  Ag32  1  0.15940245  0.17565314  0.33077676  1
  Ag  Ag33  1  0.67109670  0.50314295  0.83158091  1
  Ag  Ag34  1  0.00005976  0.65660208  0.33890686  1
  Ag  Ag35  1  0.00016718  0.50289063  0.82712020  1
  Ag  Ag36  1  0.49762397  0.82483469  0.33326926  1
  Ag  Ag37  1  0.16376636  0.01262155  0.15631034  1
  Ag  Ag38  1  0.83504610  0.17220673  0.66604110  1
  Ag  Ag39  1  0.32358456  0.33332929  0.33477671  1
  Ag  Ag40  1  0.15460008  0.65352092  0.83037290  1
  Ag  Ag41  1  0.50508543  0.17088584  0.67345371  1
  Ag  Ag42  1  0.84367986  0.33361233  0.50357792  1
  Ag  Ag43  1  0.83261389  0.83288719  -0.00742891  1
  Ag  Ag44  1  -0.00504188  0.49555629  0.51423469  1
  Ag  Ag45  1  0.50416113  0.17539524  -0.00221275  1
  Ag  Ag46  1  -0.00363662  0.65376377  0.67121920  1
  Ag  Ag47  1  0.00748860  0.34093065  0.66482646  1
  Ag  Ag48  1  0.33246767  0.65759281  0.66912511  1
  Ag  Ag49  1  0.32277072  0.00794219  -0.00050303  1
  Ag  Ag50  1  0.15966922  0.17866615  0.66823237  1
  Ag  Ag51  1  0.49816113  0.33751335  0.49844867  1
  Ag  Ag52  1  0.15424286  0.48985998  0.67532789  1
  Ag  Ag53  1  0.00702212  0.33280986  -0.00210788  1
  Sb  Sb54  1  0.33503672  0.49567004  0.50224788  1
  Sb  Sb55  1  0.33764888  0.66305896  -0.00691442  1
  Sb  Sb56  1  0.50087144  0.17464015  0.33065305  1
  Sb  Sb57  1  0.66781933  0.33419634  0.33338826  1
  Sb  Sb58  1  0.83564032  0.83489955  0.33310093  1
  Sb  Sb59  1  -0.00276306  0.17037912  0.83549808  1
  Sb  Sb60  1  0.16752691  0.17275656  -0.00117232  1
  Sb  Sb61  1  0.16084253  0.83363678  0.00158677  1
  Sb  Sb62  1  0.16714536  0.49399800  0.33359764  1
  Sb  Sb63  1  0.33175113  0.66080907  0.33792453  1
  Sb  Sb64  1  0.49600212  0.33798835  0.83396925  1
  Sb  Sb65  1  0.32549565  0.83151198  0.83399301  1
  Sb  Sb66  1  -0.00281976  0.00399401  0.67279533  1
  Sb  Sb67  1  0.83242882  0.50287924  -0.00639419  1
  Sb  Sb68  1  0.83034969  0.66073847  0.50620656  1
  Sb  Sb69  1  0.32883888  0.49962750  0.83197031  1
  Sb  Sb70  1  0.66879495  0.33868089  0.66669016  1
  Sb  Sb71  1  0.50309570  -0.00235187  0.83639939  1
  Sb  Sb72  1  0.15885751  0.00740356  0.50092000  1
  Sb  Sb73  1  0.33277095  0.17100081  0.50182875  1
  Sb  Sb74  1  0.66791992  0.00067818  0.32676411  1
  Sb  Sb75  1  -0.00194658  0.82615188  0.50472432  1
  Sb  Sb76  1  0.67044184  0.17332509  0.50280884  1
  Sb  Sb77  1  0.50689358  0.00319214  0.50019096  1
  Sb  Sb78  1  0.15843315  0.66231033  0.16299582  1
  Sb  Sb79  1  0.32994911  0.17098847  0.16416358  1
  Sb  Sb80  1  0.67120706  0.66440282  0.33133348  1
  Sb  Sb81  1  -0.00028509  0.00451286  0.32897937  1
  Sb  Sb82  1  0.33468647  0.16873315  0.83488789  1
  Sb  Sb83  1  0.49844538  0.00601208  0.16388742  1
  Sb  Sb84  1  0.50062567  0.49750807  0.66831163  1
  Sb  Sb85  1  0.16004854  0.82977157  0.66667453  1
  Sb  Sb86  1  0.82977375  0.16405408  -0.00264841  1
  Sb  Sb87  1  0.33016089  0.00585677  0.32808962  1
  Sb  Sb88  1  0.83948479  0.33557610  0.82799472  1
  Sb  Sb89  1  -0.00359228  0.83588630  0.16285580  1
  Sb  Sb90  1  0.33004557  0.00520412  0.67339538  1
  Sb  Sb91  1  0.33826077  0.49688666  0.16539024  1
  Sb  Sb92  1  -0.00468460  0.66401598  -0.00548086  1
  Sb  Sb93  1  -0.00442395  0.49457563  0.16374556  1
  Sb  Sb94  1  0.50805792  0.83051712  0.00309466  1
  Sb  Sb95  1  0.67440274  0.82901181  0.83852955  1
  Sb  Sb96  1  0.16768642  0.65853278  0.50597159  1
  Sb  Sb97  1  0.83562483  -0.00105693  0.16100903  1
  Sb  Sb98  1  0.67165672  -0.00229190  0.67409451  1
  Sb  Sb99  1  -0.00238394  0.17614880  0.49667492  1
  Sb  Sb100  1  0.83423178  0.33511064  0.17019160  1
  Sb  Sb101  1  0.33306625  0.83079454  0.50046843  1
  Sb  Sb102  1  0.83119679  0.49614809  0.33845503  1
  Sb  Sb103  1  0.66698966  0.33586361  0.00015000  1
  Sb  Sb104  1  0.50737711  0.65993492  0.16571866  1
  Sb  Sb105  1  0.50624799  0.82977633  0.66508711  1
  Sb  Sb106  1  0.66895915  0.82714976  0.49645881  1
  Sb  Sb107  1  0.33698289  0.83425811  0.16561701  1
  Te  Te108  1  0.16389139  0.16872397  0.16616074  1
  Te  Te109  1  0.16598863  0.17228005  0.50117843  1
  Te  Te110  1  0.16645248  0.16602017  0.82998819  1
  Te  Te111  1  0.16600248  0.49505826  0.16047924  1
  Te  Te112  1  0.16190552  0.49408996  0.50123655  1
  Te  Te113  1  0.16495622  0.49796800  0.83432829  1
  Te  Te114  1  0.16643691  0.83139197  0.17052597  1
  Te  Te115  1  0.16565097  0.83493777  0.49301865  1
  Te  Te116  1  0.15827015  0.84007520  0.83324437  1
  Te  Te117  1  0.50512369  0.17240107  0.16444060  1
  Te  Te118  1  0.50236615  0.17166708  0.50218315  1
  Te  Te119  1  0.50519076  0.16592603  0.83379255  1
  Te  Te120  1  0.50476912  0.49574749  0.16400235  1
  Te  Te121  1  0.50213754  0.49789683  0.50180326  1
  Te  Te122  1  0.50537713  0.50388647  0.83595337  1
  Te  Te123  1  0.50554393  0.83323973  0.17160792  1
  Te  Te124  1  0.50098636  0.83368901  0.49405541  1
  Te  Te125  1  0.49921364  0.82590824  0.83296413  1
  Te  Te126  1  0.83263580  0.16694828  0.16916528  1
  Te  Te127  1  0.83247567  0.16984803  0.50145965  1
  Te  Te128  1  0.82902452  0.16693088  0.82971284  1
  Te  Te129  1  0.82692267  0.50426277  0.16769148  1
  Te  Te130  1  0.83137195  0.49525960  0.50393086  1
  Te  Te131  1  0.83220133  0.50160888  0.82892777  1
  Te  Te132  1  0.82865471  0.83019616  0.16568795  1
  Te  Te133  1  0.83307609  0.83871034  0.50269095  1
  Te  Te134  1  0.83532410  0.83260708  0.83259821  1
  Te  Te135  1  0.16415060  -0.00068028  -0.00058606  1
  Te  Te136  1  0.16712729  0.00256899  0.33232489  1
  Te  Te137  1  0.16680548  0.00207631  0.67033357  1
  Te  Te138  1  0.16740921  0.33202155  0.00420909  1
  Te  Te139  1  0.16652024  0.33314197  0.32593717  1
  Te  Te140  1  0.16703527  0.33406634  0.66714793  1
  Te  Te141  1  0.16816348  0.66422460  -0.00670674  1
  Te  Te142  1  0.16288640  0.66632172  0.33403572  1
  Te  Te143  1  0.16457221  0.66646505  0.67066612  1
  Te  Te144  1  0.50536264  0.00144955  0.00036838  1
  Te  Te145  1  0.49843325  -0.00430146  0.33326403  1
  Te  Te146  1  0.49941279  0.00705893  0.66675101  1
  Te  Te147  1  0.50058206  0.33477474  -0.00035957  1
  Te  Te148  1  0.49974699  0.33564292  0.33336522  1
  Te  Te149  1  0.49936776  0.33044473  0.66598079  1
  Te  Te150  1  0.50467069  0.66215601  -0.00278742  1
  Te  Te151  1  0.49803194  0.66401434  0.33512461  1
  Te  Te152  1  0.50033528  0.66706266  0.66704376  1
  Te  Te153  1  0.83380143  -0.00262964  -0.00385827  1
  Te  Te154  1  0.83342089  0.00558015  0.33567126  1
  Te  Te155  1  0.83274101  0.00712849  0.67057452  1
  Te  Te156  1  0.84365504  0.33329080  0.00074017  1
  Te  Te157  1  0.83870145  0.32949056  0.33835542  1
  Te  Te158  1  0.83468585  0.33374162  0.66323931  1
  Te  Te159  1  0.83011258  0.66943404  -0.00186140  1
  Te  Te160  1  0.84001554  0.66796004  0.33575238  1
  Te  Te161  1  0.83461005  0.66304031  0.66692655  1
  Te  Te162  1  -0.00044866  0.16725396  0.00376079  1
  Te  Te163  1  0.00044486  0.17024317  0.32933603  1
  Te  Te164  1  -0.00073490  0.17130078  0.66663021  1
  Te  Te165  1  0.00340199  0.49662489  -0.00375237  1
  Te  Te166  1  -0.00040553  0.49759701  0.33160372  1
  Te  Te167  1  -0.00062851  0.49895451  0.66895820  1
  Te  Te168  1  -0.00588939  0.83617705  -0.00407194  1
  Te  Te169  1  0.00401864  0.83253007  0.33339777  1
  Te  Te170  1  -0.00617598  0.83251704  0.67178373  1
  Te  Te171  1  0.34226259  0.16808698  -0.00019262  1
  Te  Te172  1  0.32871309  0.17385616  0.33267104  1
  Te  Te173  1  0.33255717  0.17196229  0.66820810  1
  Te  Te174  1  0.33539412  0.49529521  -0.00101325  1
  Te  Te175  1  0.34106770  0.49327601  0.33319274  1
  Te  Te176  1  0.32880047  0.49890821  0.66658929  1
  Te  Te177  1  0.33510786  0.83854381  0.00060606  1
  Te  Te178  1  0.33242141  0.83289172  0.33280428  1
  Te  Te179  1  0.33457792  0.82995874  0.66667999  1
  Te  Te180  1  0.66493233  0.16877673  -0.00043286  1
  Te  Te181  1  0.67056411  0.16632478  0.32869342  1
  Te  Te182  1  0.66851977  0.16615732  0.66982502  1
  Te  Te183  1  0.66623326  0.50165235  -0.00177982  1
  Te  Te184  1  0.66214821  0.50007602  0.33143717  1
  Te  Te185  1  0.66603609  0.50406535  0.66895038  1
  Te  Te186  1  0.67121404  0.83232135  0.00415242  1
  Te  Te187  1  0.66374343  0.83300852  0.32612915  1
  Te  Te188  1  0.67365844  0.82707039  0.66503595  1
  Te  Te189  1  0.00394494  0.00390955  0.16142405  1
  Te  Te190  1  -0.00702986  -0.00269134  0.50044192  1
  Te  Te191  1  -0.00268728  0.00420133  0.83706398  1
  Te  Te192  1  0.00077055  0.33057957  0.16692896  1
  Te  Te193  1  0.00151373  0.33652469  0.50005488  1
  Te  Te194  1  0.00433798  0.33624123  0.83274721  1
  Te  Te195  1  -0.00726170  0.66712767  0.16929776  1
  Te  Te196  1  0.00064311  0.65927251  0.50137547  1
  Te  Te197  1  -0.00327151  0.66459112  0.83285501  1
  Te  Te198  1  0.32611666  0.00142283  0.15954741  1
  Te  Te199  1  0.33379970  -0.00054263  0.50045377  1
  Te  Te200  1  0.33078965  -0.00087927  0.84049575  1
  Te  Te201  1  0.33491635  0.33367586  0.16311537  1
  Te  Te202  1  0.33629342  0.33256239  0.50116999  1
  Te  Te203  1  0.32702138  0.33329305  0.83361999  1
  Te  Te204  1  0.33175669  0.66676817  0.16665360  1
  Te  Te205  1  0.33953300  0.66439210  0.50690993  1
  Te  Te206  1  0.33008676  0.66746017  0.82760461  1
  Te  Te207  1  0.66667638  0.00575965  0.16009932  1
  Te  Te208  1  0.67427530  -0.00046606  0.49997832  1
  Te  Te209  1  0.67030888  0.00252264  0.83956367  1
  Te  Te210  1  0.66370749  0.33416492  0.16678900  1
  Te  Te211  1  0.66025780  0.34032376  0.49970425  1
  Te  Te212  1  0.66639630  0.33358993  0.83358137  1
  Te  Te213  1  0.67098736  0.66435927  0.16456613  1
  Te  Te214  1  0.66222526  0.66086307  0.49933626  1
  Te  Te215  1  0.67199380  0.66659723  0.83438866  1
