# generated using pymatgen
data_AgSbTe2
_symmetry_space_group_name_H-M   'P 1'
_cell_length_a   18.33968217
_cell_length_b   18.33459694
_cell_length_c   18.33977903
_cell_angle_alpha   89.99974674
_cell_angle_beta   90.00168060
_cell_angle_gamma   90.00003224
_symmetry_Int_Tables_number   1
_chemical_formula_structural   AgSbTe2
_chemical_formula_sum   'Ag54 Sb54 Te108'
_cell_volume   6166.76317728
_cell_formula_units_Z   54
loop_
 _symmetry_equiv_pos_site_id
 _symmetry_equiv_pos_as_xyz
  1  'x, y, z'
loop_
 _atom_site_type_symbol
 _atom_site_label
 _atom_site_symmetry_multiplicity
 _atom_site_fract_x
 _atom_site_fract_y
 _atom_site_fract_z
 _atom_site_occupancy
  Ag  Ag0  1  0.83462140  0.16384074  0.33624071  1
  Ag  Ag1  1  0.33403853  0.34050697  -0.00007592  1
  Ag  Ag2  1  0.17505378  0.66176271  0.83051271  1
  Ag  Ag3  1  0.83198370  0.33126967  0.50426393  1
  Ag  Ag4  1  0.16872264  0.65761953  0.49610811  1
  Ag  Ag5  1  0.16562221  0.17120345  0.33930544  1
  Ag  Ag6  1  0.50138001  0.49718987  0.66630197  1
  Ag  Ag7  1  0.34173505  0.33756080  0.65640128  1
  Ag  Ag8  1  0.82527743  0.49543333  0.66467343  1
  Ag  Ag9  1  0.66851763  0.34162807  -0.00131998  1
  Ag  Ag10  1  0.00905552  0.50139357  0.49972161  1
  Ag  Ag11  1  0.83446518  0.17132132  0.00501552  1
  Ag  Ag12  1  0.49909441  0.65762322  0.16009836  1
  Ag  Ag13  1  -0.00009763  0.50315654  0.16568264  1
  Ag  Ag14  1  0.66989771  0.49972516  0.16016565  1
  Ag  Ag15  1  0.00529347  0.66278509  0.66481198  1
  Ag  Ag16  1  -0.00111506  0.00032679  0.00296556  1
  Ag  Ag17  1  0.33626250  0.50195791  0.82238560  1
  Ag  Ag18  1  0.32748675  0.65718661  0.33647918  1
  Ag  Ag19  1  0.83694807  0.66205925  0.16622662  1
  Ag  Ag20  1  0.15957037  -0.00321262  0.16923688  1
  Ag  Ag21  1  0.17803098  0.16917146  0.65834501  1
  Ag  Ag22  1  0.00481528  0.66061592  0.00133888  1
  Ag  Ag23  1  0.16433795  0.82046124  0.33470678  1
  Ag  Ag24  1  0.67167388  0.83301029  0.49876083  1
  Ag  Ag25  1  0.33027338  0.17901673  0.50311367  1
  Ag  Ag26  1  0.32795378  0.49343884  0.50506607  1
  Ag  Ag27  1  0.49470387  0.66175979  0.83264388  1
  Ag  Ag28  1  0.83007005  0.00850110  0.49524675  1
  Ag  Ag29  1  0.66325587  0.33733895  0.66122912  1
  Ag  Ag30  1  0.49846603  -0.00251582  0.82122974  1
  Ag  Ag31  1  0.67322557  0.00472964  0.33721561  1
  Ag  Ag32  1  0.16908183  0.50306793  0.33642189  1
  Ag  Ag33  1  0.32628452  0.65774282  -0.00266650  1
  Ag  Ag34  1  0.66210819  0.49920880  0.83221503  1
  Ag  Ag35  1  0.49504824  0.17789958  0.66280771  1
  Ag  Ag36  1  0.82924631  0.33555210  0.82254547  1
  Ag  Ag37  1  0.33734239  0.01134667  0.66355430  1
  Ag  Ag38  1  0.66541792  0.65525762  0.66935409  1
  Ag  Ag39  1  0.50201275  0.33974906  0.17203368  1
  Ag  Ag40  1  0.83404715  0.83857545  0.33576953  1
  Ag  Ag41  1  0.16797296  0.66141246  0.17036624  1
  Ag  Ag42  1  -0.00246064  0.82569245  0.49761303  1
  Ag  Ag43  1  0.33198807  0.65401808  0.66692060  1
  Ag  Ag44  1  0.66439929  0.33290855  0.34195677  1
  Ag  Ag45  1  0.49032939  0.33127745  0.50430816  1
  Ag  Ag46  1  0.83662447  -0.00027359  0.17828767  1
  Ag  Ag47  1  0.66629469  0.65956071  -0.00041729  1
  Ag  Ag48  1  0.17802015  0.34068595  0.49845731  1
  Ag  Ag49  1  0.50234065  0.00807514  0.50410465  1
  Ag  Ag50  1  0.16767678  0.50244453  0.00491637  1
  Ag  Ag51  1  0.33363420  0.33805158  0.34588784  1
  Ag  Ag52  1  0.83229644  0.17700719  0.65720900  1
  Ag  Ag53  1  -0.00278891  0.34269556  0.00113080  1
  Sb  Sb54  1  0.83604730  0.49879899  0.33675710  1
  Sb  Sb55  1  0.49483593  0.66189763  0.50327193  1
  Sb  Sb56  1  0.83184990  0.65993597  0.83568400  1
  Sb  Sb57  1  0.16464665  0.82189687  0.00709448  1
  Sb  Sb58  1  0.82871830  0.00884841  0.83092346  1
  Sb  Sb59  1  -0.00032040  0.16972079  0.83309398  1
  Sb  Sb60  1  0.33146539  0.17066861  0.17357951  1
  Sb  Sb61  1  0.50046414  0.17101151  0.34086183  1
  Sb  Sb62  1  0.49693735  0.49974329  -0.00434913  1
  Sb  Sb63  1  0.83401348  0.49540226  -0.00335878  1
  Sb  Sb64  1  0.66561867  0.49925908  0.50321204  1
  Sb  Sb65  1  0.16301252  0.17359950  0.00166167  1
  Sb  Sb66  1  -0.00031577  0.82963593  0.82954771  1
  Sb  Sb67  1  0.17045441  0.33903827  0.17240329  1
  Sb  Sb68  1  0.82976829  0.33633181  0.16873543  1
  Sb  Sb69  1  0.33210114  0.83019151  0.49983444  1
  Sb  Sb70  1  0.33541185  0.17625618  0.82429118  1
  Sb  Sb71  1  0.16694650  0.83025538  0.65964398  1
  Sb  Sb72  1  0.16578384  0.00066752  0.49482282  1
  Sb  Sb73  1  0.00132302  0.17101147  0.50060382  1
  Sb  Sb74  1  0.83496846  0.83353227  0.00699969  1
  Sb  Sb75  1  0.67119012  0.00025287  0.00408623  1
  Sb  Sb76  1  0.33344474  0.00293445  0.33930817  1
  Sb  Sb77  1  0.66592949  0.82409136  0.82703468  1
  Sb  Sb78  1  0.50020022  0.83181261  0.33680961  1
  Sb  Sb79  1  0.66236761  0.00461776  0.66083215  1
  Sb  Sb80  1  0.17167354  -0.00412897  0.83530925  1
  Sb  Sb81  1  0.00655257  0.66550883  0.33383458  1
  Sb  Sb82  1  0.50090560  0.82755578  0.00025727  1
  Sb  Sb83  1  0.16616247  0.34004457  0.82948784  1
  Sb  Sb84  1  0.66815193  0.17566197  0.16807449  1
  Sb  Sb85  1  -0.00163797  0.33909893  0.66731839  1
  Sb  Sb86  1  0.66996347  0.82505519  0.17224835  1
  Sb  Sb87  1  0.83220001  0.83130497  0.65788111  1
  Sb  Sb88  1  0.00204371  0.50110004  0.83295954  1
  Sb  Sb89  1  0.49497223  0.49757841  0.33685198  1
  Sb  Sb90  1  0.50289271  0.33907956  0.82771412  1
  Sb  Sb91  1  0.49997589  0.82911999  0.66390879  1
  Sb  Sb92  1  0.00191347  -0.00206273  0.66662081  1
  Sb  Sb93  1  0.33402372  0.50044880  0.16788353  1
  Sb  Sb94  1  0.50267574  0.00172460  0.17093478  1
  Sb  Sb95  1  0.33341931  0.82194604  0.83161824  1
  Sb  Sb96  1  0.00141380  0.33518584  0.33180911  1
  Sb  Sb97  1  0.66623215  0.17486379  0.83088407  1
  Sb  Sb98  1  0.16983677  0.49835285  0.66259570  1
  Sb  Sb99  1  0.33133498  0.82731303  0.16908403  1
  Sb  Sb100  1  0.50338750  0.17145349  -0.00741785  1
  Sb  Sb101  1  0.00000468  0.82712323  0.17268651  1
  Sb  Sb102  1  0.66492469  0.16808570  0.49985494  1
  Sb  Sb103  1  -0.00165849  0.17027701  0.16623136  1
  Sb  Sb104  1  0.32879529  0.00250085  -0.00512141  1
  Sb  Sb105  1  0.66297175  0.66236458  0.33360113  1
  Sb  Sb106  1  0.83817726  0.66422101  0.49732309  1
  Sb  Sb107  1  -0.00477685  -0.00086142  0.33047181  1
  Te  Te108  1  0.16567189  0.16282286  0.17070286  1
  Te  Te109  1  0.16735133  0.16682571  0.50014665  1
  Te  Te110  1  0.16747426  0.16567926  0.82786686  1
  Te  Te111  1  0.16322190  0.50218198  0.16652220  1
  Te  Te112  1  0.16723317  0.49920140  0.49977921  1
  Te  Te113  1  0.17001276  0.50405858  0.83992852  1
  Te  Te114  1  0.16520264  0.83481621  0.17409694  1
  Te  Te115  1  0.16231841  0.83239272  0.49374994  1
  Te  Te116  1  0.16605398  0.82376712  0.83374223  1
  Te  Te117  1  0.49968012  0.17140263  0.16553166  1
  Te  Te118  1  0.49650604  0.16884343  0.50484731  1
  Te  Te119  1  0.50043076  0.15955606  0.82485083  1
  Te  Te120  1  0.50518904  0.49956803  0.16856440  1
  Te  Te121  1  0.49419933  0.49481522  0.50468164  1
  Te  Te122  1  0.50047025  0.50351057  0.82845926  1
  Te  Te123  1  0.50132308  0.82786382  0.16833168  1
  Te  Te124  1  0.50516854  0.84040166  0.49888822  1
  Te  Te125  1  0.50022398  0.83412099  0.83282840  1
  Te  Te126  1  0.83349038  0.16190848  0.16966216  1
  Te  Te127  1  0.83547093  0.16788130  0.49771800  1
  Te  Te128  1  0.83278598  0.17382059  0.83411033  1
  Te  Te129  1  0.83548607  0.50316855  0.16744783  1
  Te  Te130  1  0.83633635  0.49704913  0.50338430  1
  Te  Te131  1  0.82867912  0.49534290  0.82726139  1
  Te  Te132  1  0.83430410  0.83783174  0.17379973  1
  Te  Te133  1  0.83410541  0.83119091  0.49476951  1
  Te  Te134  1  0.83254099  0.83664606  0.83294654  1
  Te  Te135  1  0.16260703  0.00089256  0.00385020  1
  Te  Te136  1  0.16752121  0.00734365  0.32871611  1
  Te  Te137  1  0.17044524  0.00400131  0.66750531  1
  Te  Te138  1  0.16621841  0.33743394  -0.00033621  1
  Te  Te139  1  0.16876703  0.33242856  0.33710880  1
  Te  Te140  1  0.16559785  0.32872135  0.66319060  1
  Te  Te141  1  0.16646409  0.66328686  0.00467336  1
  Te  Te142  1  0.16908494  0.66395397  0.33372779  1
  Te  Te143  1  0.16853346  0.66672040  0.66477304  1
  Te  Te144  1  0.49992997  0.00090109  0.00088789  1
  Te  Te145  1  0.50633281  0.00107095  0.33707120  1
  Te  Te146  1  0.49848548  -0.00168325  0.66305408  1
  Te  Te147  1  0.50375402  0.33265619  0.00121384  1
  Te  Te148  1  0.50031246  0.33279333  0.33482621  1
  Te  Te149  1  0.50107746  0.33552875  0.66663837  1
  Te  Te150  1  0.50185214  0.66569670  0.00006636  1
  Te  Te151  1  0.49233715  0.66586374  0.33079635  1
  Te  Te152  1  0.49751384  0.66283717  0.66804931  1
  Te  Te153  1  0.83637692  0.00503033  -0.00087439  1
  Te  Te154  1  0.83264436  0.00128611  0.33512824  1
  Te  Te155  1  0.83218607  0.00404795  0.66240007  1
  Te  Te156  1  0.83072011  0.33066234  0.00461617  1
  Te  Te157  1  0.83102808  0.33070785  0.33617098  1
  Te  Te158  1  0.83619265  0.33436024  0.66612008  1
  Te  Te159  1  0.83359626  0.66720292  0.00382451  1
  Te  Te160  1  0.83086411  0.66839499  0.32698960  1
  Te  Te161  1  0.83089542  0.66395657  0.66737913  1
  Te  Te162  1  -0.00433317  0.16586766  0.00000574  1
  Te  Te163  1  0.00064901  0.16721480  0.33311832  1
  Te  Te164  1  -0.00685612  0.16530448  0.66730697  1
  Te  Te165  1  0.00030582  0.50192925  -0.00068265  1
  Te  Te166  1  0.00513871  0.49942417  0.33325566  1
  Te  Te167  1  -0.00226498  0.50480904  0.66526283  1
  Te  Te168  1  -0.00044623  0.83254493  0.00028553  1
  Te  Te169  1  -0.00030198  0.83306035  0.33882355  1
  Te  Te170  1  -0.00046455  0.82591650  0.65956452  1
  Te  Te171  1  0.33289987  0.17241188  -0.00161797  1
  Te  Te172  1  0.33018615  0.17149271  0.34040389  1
  Te  Te173  1  0.33514616  0.17099364  0.66362633  1
  Te  Te174  1  0.33141389  0.50141904  0.00230996  1
  Te  Te175  1  0.32936385  0.49777616  0.33495869  1
  Te  Te176  1  0.33119988  0.49753437  0.66530669  1
  Te  Te177  1  0.33252254  0.82852126  -0.00036816  1
  Te  Te178  1  0.32701141  0.83161859  0.33458221  1
  Te  Te179  1  0.33213868  0.83560201  0.66607225  1
  Te  Te180  1  0.67306046  0.16993448  -0.00029815  1
  Te  Te181  1  0.67041166  0.16979200  0.33314162  1
  Te  Te182  1  0.67074466  0.17285636  0.66647520  1
  Te  Te183  1  0.66784845  0.50112468  -0.00060552  1
  Te  Te184  1  0.66755839  0.49424887  0.33049658  1
  Te  Te185  1  0.66552970  0.49806647  0.66397695  1
  Te  Te186  1  0.66871232  0.82566282  -0.00075917  1
  Te  Te187  1  0.66946175  0.83320544  0.33834853  1
  Te  Te188  1  0.66732835  0.82753286  0.65975396  1
  Te  Te189  1  -0.00185110  -0.00047077  0.16341973  1
  Te  Te190  1  -0.00570346  -0.00398195  0.50194614  1
  Te  Te191  1  0.00048690  -0.00214599  0.83995368  1
  Te  Te192  1  0.00081211  0.34029769  0.16104593  1
  Te  Te193  1  -0.00595401  0.33867658  0.49961814  1
  Te  Te194  1  -0.00485511  0.33478597  0.84210006  1
  Te  Te195  1  0.00077317  0.66372576  0.16416163  1
  Te  Te196  1  0.00306981  0.66336790  0.50152377  1
  Te  Te197  1  0.00184080  0.66695201  0.83446443  1
  Te  Te198  1  0.33264968  0.00089301  0.16566977  1
  Te  Te199  1  0.33552331  -0.00104164  0.50418563  1
  Te  Te200  1  0.33765257  -0.00033607  0.82820592  1
  Te  Te201  1  0.33899920  0.33286397  0.15965486  1
  Te  Te202  1  0.33355281  0.33354325  0.50123925  1
  Te  Te203  1  0.33398885  0.34156263  0.83982763  1
  Te  Te204  1  0.33228414  0.66633906  0.16521934  1
  Te  Te205  1  0.33015635  0.66504159  0.50141796  1
  Te  Te206  1  0.33425781  0.66116611  0.83251570  1
  Te  Te207  1  0.66948069  -0.00161068  0.17217618  1
  Te  Te208  1  0.66885297  -0.00120291  0.49755103  1
  Te  Te209  1  0.66017207  -0.00294386  0.83420639  1
  Te  Te210  1  0.66334027  0.33929261  0.16366770  1
  Te  Te211  1  0.67120155  0.33465727  0.50124593  1
  Te  Te212  1  0.66856118  0.33941715  0.83405106  1
  Te  Te213  1  0.66472439  0.66148816  0.16555112  1
  Te  Te214  1  0.66452482  0.66949765  0.50284395  1
  Te  Te215  1  0.66429197  0.66038578  0.83244228  1
