# generated using pymatgen
data_AgSbTe2
_symmetry_space_group_name_H-M   'P 1'
_cell_length_a   18.33260588
_cell_length_b   18.34084112
_cell_length_c   18.33591702
_cell_angle_alpha   89.99749580
_cell_angle_beta   89.99914845
_cell_angle_gamma   90.00156210
_symmetry_Int_Tables_number   1
_chemical_formula_structural   AgSbTe2
_chemical_formula_sum   'Ag54 Sb54 Te108'
_cell_volume   6165.18460142
_cell_formula_units_Z   54
loop_
 _symmetry_equiv_pos_site_id
 _symmetry_equiv_pos_as_xyz
  1  'x, y, z'
loop_
 _atom_site_type_symbol
 _atom_site_label
 _atom_site_symmetry_multiplicity
 _atom_site_fract_x
 _atom_site_fract_y
 _atom_site_fract_z
 _atom_site_occupancy
  Ag  Ag0  1  0.16519868  -0.00995641  0.82419302  1
  Ag  Ag1  1  0.16294891  0.00413046  0.51187259  1
  Ag  Ag2  1  0.66730006  0.17484760  0.16360430  1
  Ag  Ag3  1  0.00476061  0.66012307  0.33991570  1
  Ag  Ag4  1  0.49693445  0.67359238  0.83158832  1
  Ag  Ag5  1  0.16366350  0.84585617  0.67512886  1
  Ag  Ag6  1  0.00462129  0.17313572  0.50173133  1
  Ag  Ag7  1  0.00357548  0.49591262  0.49724038  1
  Ag  Ag8  1  0.84095759  0.17035514  0.66838319  1
  Ag  Ag9  1  0.00378783  0.82947121  0.50794520  1
  Ag  Ag10  1  0.32990831  0.83271016  0.15646502  1
  Ag  Ag11  1  0.01254495  0.83962060  0.82427648  1
  Ag  Ag12  1  0.00292576  0.83198524  0.16630458  1
  Ag  Ag13  1  0.33284489  0.67095785  -0.00321512  1
  Ag  Ag14  1  0.00732035  0.33730649  0.33908851  1
  Ag  Ag15  1  0.50318526  0.49242123  0.67256355  1
  Ag  Ag16  1  0.50515023  0.33264250  0.16469269  1
  Ag  Ag17  1  0.50292868  -0.00591384  0.83196849  1
  Ag  Ag18  1  0.66504454  0.83317045  0.16182246  1
  Ag  Ag19  1  0.15920534  0.66776886  0.50553995  1
  Ag  Ag20  1  0.83514073  0.00114346  0.83069693  1
  Ag  Ag21  1  0.66346361  0.33454341  0.33360907  1
  Ag  Ag22  1  0.00721361  -0.00035920  0.66882371  1
  Ag  Ag23  1  0.49625055  0.82780330  -0.00525747  1
  Ag  Ag24  1  0.66356530  0.00099425  -0.00586304  1
  Ag  Ag25  1  0.50262803  0.33150208  0.82785068  1
  Ag  Ag26  1  0.66185348  0.32996122  0.00255456  1
  Ag  Ag27  1  0.16072421  0.49474382  0.33409123  1
  Ag  Ag28  1  0.15844101  0.15798925  0.66329805  1
  Ag  Ag29  1  0.33842294  0.32784163  0.66366180  1
  Ag  Ag30  1  0.66449826  0.16223919  0.83187668  1
  Ag  Ag31  1  0.32677528  0.83288088  0.83578411  1
  Ag  Ag32  1  0.49872095  0.66725051  0.50642604  1
  Ag  Ag33  1  0.32052165  0.00417828  0.66980954  1
  Ag  Ag34  1  0.83238415  0.49156848  0.66493197  1
  Ag  Ag35  1  0.32849503  0.33197090  0.33838627  1
  Ag  Ag36  1  0.16311155  0.17412275  0.34595811  1
  Ag  Ag37  1  0.66183007  0.84165679  0.83601285  1
  Ag  Ag38  1  -0.00134543  0.17025383  0.17416745  1
  Ag  Ag39  1  0.49862715  0.50226856  -0.00585023  1
  Ag  Ag40  1  0.16112264  0.32939462  0.49812862  1
  Ag  Ag41  1  0.50148107  0.17238883  0.66714715  1
  Ag  Ag42  1  0.17345118  0.82981781  -0.01334271  1
  Ag  Ag43  1  0.50027893  0.17267798  0.33986114  1
  Ag  Ag44  1  0.65911182  0.33073639  0.66592023  1
  Ag  Ag45  1  0.16971372  0.50554278  0.00236429  1
  Ag  Ag46  1  0.84107689  0.33348562  0.50179582  1
  Ag  Ag47  1  -0.00060913  0.49943590  0.17686570  1
  Ag  Ag48  1  0.66603419  0.66200403  0.33384470  1
  Ag  Ag49  1  0.16888155  0.67595570  0.82665676  1
  Ag  Ag50  1  0.66752643  0.49036051  0.16709541  1
  Ag  Ag51  1  0.66954449  0.83109508  0.50712827  1
  Ag  Ag52  1  0.00496558  0.67324337  0.65941357  1
  Ag  Ag53  1  -0.00255603  0.15992961  0.81779098  1
  Sb  Sb54  1  0.50170563  0.66355118  0.16508258  1
  Sb  Sb55  1  0.33163923  0.66316459  0.33109893  1
  Sb  Sb56  1  0.50310734  0.16875808  -0.00457081  1
  Sb  Sb57  1  0.16408869  0.16504593  -0.00527452  1
  Sb  Sb58  1  0.49911330  0.49524805  0.33410581  1
  Sb  Sb59  1  0.00106915  0.33091820  0.66062172  1
  Sb  Sb60  1  0.66982526  0.16527044  0.50304825  1
  Sb  Sb61  1  0.66784835  0.00384057  0.67317943  1
  Sb  Sb62  1  0.84016009  0.83598471  0.66800237  1
  Sb  Sb63  1  0.50185587  0.00227531  0.15980881  1
  Sb  Sb64  1  0.49630678  0.83381033  0.67427521  1
  Sb  Sb65  1  0.33408765  0.50176360  0.16595400  1
  Sb  Sb66  1  0.33569510  0.16455396  0.16960042  1
  Sb  Sb67  1  0.67017615  0.50172937  0.49661814  1
  Sb  Sb68  1  0.33650254  0.16040180  0.82901359  1
  Sb  Sb69  1  0.17069389  0.33203190  0.82644297  1
  Sb  Sb70  1  0.00288488  0.00119699  0.33918543  1
  Sb  Sb71  1  0.82761034  0.32742926  0.82442775  1
  Sb  Sb72  1  0.33458227  0.50502042  0.83273765  1
  Sb  Sb73  1  0.33754306  -0.00753387  -0.00818142  1
  Sb  Sb74  1  0.16529548  -0.00140501  0.16416964  1
  Sb  Sb75  1  0.65928088  0.66776283  0.00249969  1
  Sb  Sb76  1  0.33033947  0.66710176  0.67078537  1
  Sb  Sb77  1  0.82802451  0.33263304  0.17262859  1
  Sb  Sb78  1  0.49975998  0.33613896  0.50261929  1
  Sb  Sb79  1  0.83139450  0.16663210  -0.00668346  1
  Sb  Sb80  1  -0.00111370  -0.00185932  -0.00916304  1
  Sb  Sb81  1  0.50127061  0.83520118  0.32964669  1
  Sb  Sb82  1  -0.00200246  0.33393866  0.00638438  1
  Sb  Sb83  1  0.83888923  0.49822093  0.33824115  1
  Sb  Sb84  1  0.83425013  0.67244898  0.82941941  1
  Sb  Sb85  1  0.66769325  0.66419406  0.66374570  1
  Sb  Sb86  1  0.32858321  0.49958128  0.50053176  1
  Sb  Sb87  1  0.33888111  0.33876328  -0.00186845  1
  Sb  Sb88  1  0.00845254  0.66880911  -0.00124531  1
  Sb  Sb89  1  0.83982190  0.00366574  0.50846393  1
  Sb  Sb90  1  0.83161332  0.83406219  -0.00192052  1
  Sb  Sb91  1  0.49771008  -0.00301212  0.50831040  1
  Sb  Sb92  1  0.83597736  0.17036300  0.33907133  1
  Sb  Sb93  1  0.83361751  0.66597076  0.16772073  1
  Sb  Sb94  1  0.32914063  0.83214341  0.50444863  1
  Sb  Sb95  1  0.83376288  0.00185702  0.16008382  1
  Sb  Sb96  1  0.00176580  0.50020842  0.83003410  1
  Sb  Sb97  1  0.16546144  0.66668420  0.16607712  1
  Sb  Sb98  1  0.66431586  0.00252907  0.32910372  1
  Sb  Sb99  1  0.83382026  0.83245919  0.33445349  1
  Sb  Sb100  1  0.33123687  0.00400817  0.33957638  1
  Sb  Sb101  1  0.16965501  0.33390585  0.17320331  1
  Sb  Sb102  1  0.83060718  0.49739655  -0.00384065  1
  Sb  Sb103  1  0.16466611  0.83220829  0.33663941  1
  Sb  Sb104  1  0.16646837  0.49937087  0.66406262  1
  Sb  Sb105  1  0.83865050  0.66339108  0.50155993  1
  Sb  Sb106  1  0.66274228  0.49810307  0.83516726  1
  Sb  Sb107  1  0.32586294  0.16852447  0.50402852  1
  Te  Te108  1  0.16310393  0.16605930  0.16517076  1
  Te  Te109  1  0.16404774  0.16760946  0.50247483  1
  Te  Te110  1  0.16263085  0.16511651  0.82882592  1
  Te  Te111  1  0.16324626  0.49999094  0.16584672  1
  Te  Te112  1  0.16293538  0.50359766  0.49851764  1
  Te  Te113  1  0.16673322  0.50158752  0.83981545  1
  Te  Te114  1  0.16500758  0.83358506  0.16826214  1
  Te  Te115  1  0.16416470  0.82911330  0.50139312  1
  Te  Te116  1  0.16645167  0.83124730  0.83135036  1
  Te  Te117  1  0.50379841  0.17009805  0.16746448  1
  Te  Te118  1  0.50135145  0.16551436  0.50160651  1
  Te  Te119  1  0.50255037  0.16955968  0.83076125  1
  Te  Te120  1  0.50256891  0.49577386  0.16526178  1
  Te  Te121  1  0.50108257  0.50628680  0.50267328  1
  Te  Te122  1  0.50022286  0.49921524  0.83386442  1
  Te  Te123  1  0.50320287  0.83423085  0.16200687  1
  Te  Te124  1  0.50145257  0.82967400  0.49917710  1
  Te  Te125  1  0.50284061  0.83205053  0.83436643  1
  Te  Te126  1  0.83160758  0.16642436  0.16759561  1
  Te  Te127  1  0.83818139  0.17050098  0.50634369  1
  Te  Te128  1  0.83427029  0.16251268  0.82822878  1
  Te  Te129  1  0.83331386  0.49954747  0.16470834  1
  Te  Te130  1  0.83824081  0.49502658  0.50544009  1
  Te  Te131  1  0.83290994  0.50055446  0.82640698  1
  Te  Te132  1  0.83411486  0.83417054  0.16630290  1
  Te  Te133  1  0.83398788  0.83521615  0.50081954  1
  Te  Te134  1  0.82591533  0.83941203  0.83286424  1
  Te  Te135  1  0.16758743  -0.00547549  -0.00496380  1
  Te  Te136  1  0.16777573  0.00897002  0.33624020  1
  Te  Te137  1  0.16429456  0.00054689  0.66733620  1
  Te  Te138  1  0.16863778  0.33832934  -0.00041312  1
  Te  Te139  1  0.16635286  0.33334685  0.33496705  1
  Te  Te140  1  0.17353581  0.33224759  0.66192729  1
  Te  Te141  1  0.17114903  0.66845579  -0.00149823  1
  Te  Te142  1  0.16435132  0.66257328  0.33779378  1
  Te  Te143  1  0.16503346  0.66342830  0.66711038  1
  Te  Te144  1  0.50348108  -0.00398586  -0.00692776  1
  Te  Te145  1  0.49758770  0.00996164  0.33508432  1
  Te  Te146  1  0.49844117  0.00358797  0.67168871  1
  Te  Te147  1  0.50288266  0.33653797  -0.00093163  1
  Te  Te148  1  0.50230386  0.33177339  0.33567136  1
  Te  Te149  1  0.49947806  0.33388297  0.66479188  1
  Te  Te150  1  0.49588628  0.66543267  -0.00246097  1
  Te  Te151  1  0.50175118  0.66622958  0.33696767  1
  Te  Te152  1  0.49920372  0.66539667  0.66845445  1
  Te  Te153  1  0.82488591  0.00033177  -0.00873785  1
  Te  Te154  1  0.83296888  0.00144977  0.33390446  1
  Te  Te155  1  0.83760672  0.00572257  0.67203682  1
  Te  Te156  1  0.82366809  0.33375213  -0.00142491  1
  Te  Te157  1  0.82826248  0.33343236  0.34019656  1
  Te  Te158  1  0.83231983  0.33136317  0.66262440  1
  Te  Te159  1  0.83398686  0.66474988  -0.00174165  1
  Te  Te160  1  0.82812655  0.66545996  0.33447467  1
  Te  Te161  1  0.83955132  0.66102150  0.66684311  1
  Te  Te162  1  -0.00147370  0.16646099  0.01224270  1
  Te  Te163  1  0.00208368  0.16807320  0.33479393  1
  Te  Te164  1  0.00127652  0.16875896  0.66234908  1
  Te  Te165  1  0.00233657  0.50024048  0.00342979  1
  Te  Te166  1  0.00076024  0.49931697  0.33483803  1
  Te  Te167  1  -0.00157274  0.50057636  0.66340681  1
  Te  Te168  1  0.00217137  0.83322583  0.00463408  1
  Te  Te169  1  -0.00015473  0.83030575  0.32911848  1
  Te  Te170  1  0.00134355  0.83317012  0.66792124  1
  Te  Te171  1  0.33253305  0.16704110  0.00079677  1
  Te  Te172  1  0.33375759  0.17159543  0.33340840  1
  Te  Te173  1  0.33762363  0.16713847  0.66801814  1
  Te  Te174  1  0.33385201  0.50600663  0.00073654  1
  Te  Te175  1  0.32637485  0.49425300  0.33187889  1
  Te  Te176  1  0.34056985  0.49444684  0.66656373  1
  Te  Te177  1  0.33378114  0.83182819  -0.00261133  1
  Te  Te178  1  0.33374832  0.83351412  0.32699320  1
  Te  Te179  1  0.32759313  0.83509078  0.67129617  1
  Te  Te180  1  0.66608657  0.16830877  0.00083559  1
  Te  Te181  1  0.66532706  0.16941298  0.33177724  1
  Te  Te182  1  0.66314487  0.16944795  0.66829340  1
  Te  Te183  1  0.66330193  0.49746937  0.00524296  1
  Te  Te184  1  0.66656527  0.49924539  0.32887338  1
  Te  Te185  1  0.66527169  0.49635230  0.66563268  1
  Te  Te186  1  0.66485094  0.83314980  -0.00135169  1
  Te  Te187  1  0.66646864  0.83285240  0.32851077  1
  Te  Te188  1  0.66823991  0.83279131  0.66598130  1
  Te  Te189  1  -0.00136218  -0.00135456  0.16688843  1
  Te  Te190  1  0.00362206  -0.00410372  0.50499045  1
  Te  Te191  1  0.00258318  0.00037344  0.83092491  1
  Te  Te192  1  -0.00110730  0.33416408  0.17287869  1
  Te  Te193  1  0.00140793  0.33347956  0.49865222  1
  Te  Te194  1  0.00020056  0.32721461  0.83703825  1
  Te  Te195  1  -0.00055620  0.66522880  0.17211929  1
  Te  Te196  1  0.00002873  0.66926479  0.49888186  1
  Te  Te197  1  0.00279189  0.66963622  0.83055610  1
  Te  Te198  1  0.33369472  -0.00690800  0.16723604  1
  Te  Te199  1  0.32629712  -0.00187186  0.50782672  1
  Te  Te200  1  0.33290529  -0.00509282  0.82869654  1
  Te  Te201  1  0.34195100  0.33302126  0.16886120  1
  Te  Te202  1  0.32837701  0.33422457  0.49861493  1
  Te  Te203  1  0.33986314  0.33239557  0.82964822  1
  Te  Te204  1  0.33405553  0.67276521  0.16286773  1
  Te  Te205  1  0.33598239  0.66706791  0.49928292  1
  Te  Te206  1  0.33395209  0.67068836  0.83555664  1
  Te  Te207  1  0.66723906  -0.00314074  0.16084915  1
  Te  Te208  1  0.66709554  -0.00756271  0.49851904  1
  Te  Te209  1  0.66295873  0.00280626  0.83376166  1
  Te  Te210  1  0.66537610  0.33219799  0.16897061  1
  Te  Te211  1  0.66802996  0.33310606  0.50043197  1
  Te  Te212  1  0.66315687  0.33140484  0.82935449  1
  Te  Te213  1  0.66693517  0.67136546  0.17163009  1
  Te  Te214  1  0.66580596  0.67051515  0.49606807  1
  Te  Te215  1  0.66326743  0.66962140  0.83284188  1
