# generated using pymatgen
data_AgSbTe2
_symmetry_space_group_name_H-M   'P 1'
_cell_length_a   18.31268628
_cell_length_b   18.31417563
_cell_length_c   18.31107163
_cell_angle_alpha   89.99919760
_cell_angle_beta   89.99905348
_cell_angle_gamma   90.00146709
_symmetry_Int_Tables_number   1
_chemical_formula_structural   AgSbTe2
_chemical_formula_sum   'Ag54 Sb54 Te108'
_cell_volume   6141.19929358
_cell_formula_units_Z   54
loop_
 _symmetry_equiv_pos_site_id
 _symmetry_equiv_pos_as_xyz
  1  'x, y, z'
loop_
 _atom_site_type_symbol
 _atom_site_label
 _atom_site_symmetry_multiplicity
 _atom_site_fract_x
 _atom_site_fract_y
 _atom_site_fract_z
 _atom_site_occupancy
  Ag  Ag0  1  0.66329497  0.82565800  0.49729280  1
  Ag  Ag1  1  0.16762402  0.33379285  0.17180141  1
  Ag  Ag2  1  0.49654927  0.66135221  0.82997971  1
  Ag  Ag3  1  0.33077298  -0.00037759  0.33163674  1
  Ag  Ag4  1  0.00192375  0.33382219  0.00069249  1
  Ag  Ag5  1  0.33117170  0.82629264  0.49684639  1
  Ag  Ag6  1  0.00046961  0.65866315  0.34062794  1
  Ag  Ag7  1  0.83779290  0.17089654  0.33404618  1
  Ag  Ag8  1  0.00396943  0.66802521  -0.00274468  1
  Ag  Ag9  1  0.49256747  0.33382637  0.16554491  1
  Ag  Ag10  1  0.84431225  0.66369681  0.83014062  1
  Ag  Ag11  1  0.16221683  0.66379284  0.83522308  1
  Ag  Ag12  1  0.16711183  -0.00800879  0.49763475  1
  Ag  Ag13  1  0.00482671  0.83432186  0.16181389  1
  Ag  Ag14  1  0.50620097  0.17306178  0.67162625  1
  Ag  Ag15  1  0.32780072  0.83045166  0.16202960  1
  Ag  Ag16  1  0.83900687  0.49686198  0.34349709  1
  Ag  Ag17  1  0.66708300  0.50460514  0.50216785  1
  Ag  Ag18  1  0.34116430  0.16623554  0.83486478  1
  Ag  Ag19  1  0.00456707  0.33615248  0.33346978  1
  Ag  Ag20  1  0.83665230  0.16295187  -0.00556715  1
  Ag  Ag21  1  0.16409980  0.33759197  0.83553436  1
  Ag  Ag22  1  -0.00526221  0.16848101  0.16698680  1
  Ag  Ag23  1  0.33463645  0.50363314  0.49576117  1
  Ag  Ag24  1  0.33508308  0.49949975  0.17033109  1
  Ag  Ag25  1  0.66706460  0.00268644  0.66850831  1
  Ag  Ag26  1  0.49711569  0.49914894  -0.01080212  1
  Ag  Ag27  1  -0.00235639  0.66351244  0.66689604  1
  Ag  Ag28  1  0.49726205  0.33260044  0.83162054  1
  Ag  Ag29  1  0.16670601  0.33860870  0.49501502  1
  Ag  Ag30  1  -0.00155328  0.50253374  0.50230587  1
  Ag  Ag31  1  0.16363818  0.66419326  0.50219996  1
  Ag  Ag32  1  -0.00155669  0.17644601  0.49508271  1
  Ag  Ag33  1  0.83288013  0.49955310  0.66282584  1
  Ag  Ag34  1  0.67420334  0.16501951  0.16116018  1
  Ag  Ag35  1  0.16437744  0.83175535  0.00410103  1
  Ag  Ag36  1  0.66716737  0.16561507  0.83376893  1
  Ag  Ag37  1  0.32631446  0.33220164  0.33316408  1
  Ag  Ag38  1  0.50488519  0.49630847  0.66641202  1
  Ag  Ag39  1  0.49265154  0.34129377  0.50326430  1
  Ag  Ag40  1  0.83083521  0.17096955  0.67467513  1
  Ag  Ag41  1  -0.00331544  0.50255075  0.83035571  1
  Ag  Ag42  1  0.33361252  0.83297076  0.84387642  1
  Ag  Ag43  1  0.49584888  0.65843777  0.50606289  1
  Ag  Ag44  1  0.66614566  0.83740982  0.16711970  1
  Ag  Ag45  1  0.84251946  0.66123506  0.50518860  1
  Ag  Ag46  1  0.32834614  -0.00808609  -0.00135520  1
  Ag  Ag47  1  0.50054821  0.00959386  0.83228838  1
  Ag  Ag48  1  0.16801517  0.83241949  0.33005207  1
  Ag  Ag49  1  0.00036701  -0.00508656  -0.00072705  1
  Ag  Ag50  1  0.83107259  0.00718393  0.83516642  1
  Ag  Ag51  1  0.84266325  0.83633128  -0.00163983  1
  Ag  Ag52  1  0.83790791  0.32962241  0.83330327  1
  Ag  Ag53  1  0.32773978  0.67200213  -0.00435733  1
  Sb  Sb54  1  0.32958425  0.16875071  0.50290565  1
  Sb  Sb55  1  0.66578346  0.32925663  0.66642421  1
  Sb  Sb56  1  0.32914888  0.33425725  0.00248339  1
  Sb  Sb57  1  0.33209913  0.16806361  0.16293753  1
  Sb  Sb58  1  0.16351754  0.16793300  0.66709605  1
  Sb  Sb59  1  0.00422811  0.00185591  0.33048260  1
  Sb  Sb60  1  0.83618913  0.66739505  0.16481040  1
  Sb  Sb61  1  0.16243445  0.50149237  0.33646196  1
  Sb  Sb62  1  -0.00133257  0.33862103  0.66645359  1
  Sb  Sb63  1  0.33373837  0.50108798  0.83164428  1
  Sb  Sb64  1  0.49494900  0.82957521  -0.00176624  1
  Sb  Sb65  1  0.49673420  0.66294034  0.16539278  1
  Sb  Sb66  1  0.83902430  0.83311296  0.33021045  1
  Sb  Sb67  1  0.83459870  0.00140957  0.16106474  1
  Sb  Sb68  1  0.16635908  0.66659989  0.16538106  1
  Sb  Sb69  1  0.83682927  0.33954366  0.50354379  1
  Sb  Sb70  1  0.16683716  -0.00055509  0.16843254  1
  Sb  Sb71  1  0.66316553  -0.00003958  0.33694004  1
  Sb  Sb72  1  0.67179467  0.16941751  0.50339202  1
  Sb  Sb73  1  0.49233549  0.83301633  0.33406073  1
  Sb  Sb74  1  0.66841130  0.49604275  0.82712363  1
  Sb  Sb75  1  -0.00496170  0.17331731  0.83477057  1
  Sb  Sb76  1  0.16712093  0.83133904  0.66641535  1
  Sb  Sb77  1  0.00356217  0.82494677  0.84142267  1
  Sb  Sb78  1  0.00322703  0.82676039  0.49301106  1
  Sb  Sb79  1  0.16721286  -0.00215132  0.83289412  1
  Sb  Sb80  1  0.49607054  -0.00003629  0.50666638  1
  Sb  Sb81  1  0.16959425  0.50395954  -0.00119700  1
  Sb  Sb82  1  0.50045340  0.82997938  0.66754164  1
  Sb  Sb83  1  0.67073829  0.66834873  0.66515898  1
  Sb  Sb84  1  0.33719989  0.00073080  0.66967095  1
  Sb  Sb85  1  0.16422178  0.50082510  0.66504985  1
  Sb  Sb86  1  0.83648162  -0.00253155  0.50500700  1
  Sb  Sb87  1  0.49817802  0.00412332  0.15972136  1
  Sb  Sb88  1  0.66419234  0.83713722  0.83423514  1
  Sb  Sb89  1  0.83807267  0.33025312  0.16359648  1
  Sb  Sb90  1  0.33591450  0.33443070  0.66308497  1
  Sb  Sb91  1  0.66930642  0.33231186  -0.00076955  1
  Sb  Sb92  1  0.67066847  0.33316748  0.33375021  1
  Sb  Sb93  1  0.66867714  0.00041510  -0.00466414  1
  Sb  Sb94  1  0.00428539  0.49836760  0.16681522  1
  Sb  Sb95  1  0.16058943  0.16441840  -0.00092385  1
  Sb  Sb96  1  0.32726022  0.66578317  0.33518877  1
  Sb  Sb97  1  -0.00431164  -0.00243285  0.67126715  1
  Sb  Sb98  1  0.50300393  0.16999644  0.33654112  1
  Sb  Sb99  1  0.33037870  0.66568382  0.66855039  1
  Sb  Sb100  1  0.67332151  0.66702180  0.33763296  1
  Sb  Sb101  1  0.50284323  0.17107375  -0.00691206  1
  Sb  Sb102  1  0.83259736  0.82974207  0.67188924  1
  Sb  Sb103  1  0.50066363  0.49826908  0.34046855  1
  Sb  Sb104  1  0.66130356  0.49810143  0.17201465  1
  Sb  Sb105  1  0.66769582  0.66836645  -0.00167799  1
  Sb  Sb106  1  0.83360929  0.50012869  -0.00423878  1
  Sb  Sb107  1  0.16243550  0.16760403  0.33436841  1
  Te  Te108  1  0.16207262  0.17316038  0.16678340  1
  Te  Te109  1  0.16087824  0.17451592  0.50120073  1
  Te  Te110  1  0.17165316  0.16990333  0.83242746  1
  Te  Te111  1  0.17396320  0.49360920  0.16664102  1
  Te  Te112  1  0.16628782  0.50082010  0.50072079  1
  Te  Te113  1  0.16375538  0.50075263  0.83179126  1
  Te  Te114  1  0.16770990  0.83348160  0.16580255  1
  Te  Te115  1  0.16901271  0.82915108  0.49964876  1
  Te  Te116  1  0.17353183  0.82987879  0.83625953  1
  Te  Te117  1  0.50274980  0.17253847  0.16616935  1
  Te  Te118  1  0.50140258  0.17054556  0.50691854  1
  Te  Te119  1  0.50151042  0.16919514  0.83199531  1
  Te  Te120  1  0.49630796  0.49516026  0.16794049  1
  Te  Te121  1  0.49774753  0.49958865  0.50158405  1
  Te  Te122  1  0.50108711  0.49915506  0.83007460  1
  Te  Te123  1  0.50007713  0.83409476  0.16652969  1
  Te  Te124  1  0.49937409  0.83137494  0.50013611  1
  Te  Te125  1  0.49506804  0.82758433  0.83268992  1
  Te  Te126  1  0.83434065  0.16696415  0.16489319  1
  Te  Te127  1  0.83775018  0.16669134  0.50036934  1
  Te  Te128  1  0.83325538  0.16829124  0.83377859  1
  Te  Te129  1  0.82907321  0.49900523  0.17064643  1
  Te  Te130  1  0.83709138  0.50073530  0.50212126  1
  Te  Te131  1  0.83420493  0.50237109  0.83118659  1
  Te  Te132  1  0.83565616  0.83445439  0.16204592  1
  Te  Te133  1  0.83034099  0.82779936  0.49945249  1
  Te  Te134  1  0.83218360  0.82966545  0.83835438  1
  Te  Te135  1  0.16596932  -0.00573123  0.00061650  1
  Te  Te136  1  0.17157139  -0.00394605  0.33731109  1
  Te  Te137  1  0.16490159  0.00013171  0.65777630  1
  Te  Te138  1  0.16173581  0.33364651  -0.00485596  1
  Te  Te139  1  0.16492676  0.33385621  0.33492132  1
  Te  Te140  1  0.16710322  0.33366568  0.67004309  1
  Te  Te141  1  0.16645530  0.66981334  -0.00134341  1
  Te  Te142  1  0.16010454  0.67085156  0.33592721  1
  Te  Te143  1  0.15963503  0.66613209  0.66862659  1
  Te  Te144  1  0.49544460  0.00003764  -0.00838277  1
  Te  Te145  1  0.49147138  0.00181353  0.33347270  1
  Te  Te146  1  0.50401043  0.00373252  0.67351488  1
  Te  Te147  1  0.49853294  0.33793177  -0.00230590  1
  Te  Te148  1  0.49573797  0.33289123  0.33357396  1
  Te  Te149  1  0.50038811  0.33423741  0.66882308  1
  Te  Te150  1  0.49711475  0.66177415  -0.00239193  1
  Te  Te151  1  0.50047774  0.66619353  0.34052690  1
  Te  Te152  1  0.50090235  0.66228281  0.66669082  1
  Te  Te153  1  0.83527262  0.00030184  -0.00482275  1
  Te  Te154  1  0.83278758  0.00576160  0.33482387  1
  Te  Te155  1  0.83006247  0.00302409  0.67330186  1
  Te  Te156  1  0.83938164  0.33173039  -0.00516931  1
  Te  Te157  1  0.83881497  0.33212405  0.33372720  1
  Te  Te158  1  0.83232791  0.33448827  0.67221925  1
  Te  Te159  1  0.83695390  0.66866134  -0.00462049  1
  Te  Te160  1  0.84091050  0.66512704  0.33641481  1
  Te  Te161  1  0.83637582  0.66319714  0.66837420  1
  Te  Te162  1  -0.00377900  0.16925220  0.00143123  1
  Te  Te163  1  -0.00280382  0.16847710  0.33241438  1
  Te  Te164  1  -0.00594018  0.16589022  0.66241806  1
  Te  Te165  1  -0.00011672  0.50005699  -0.00201619  1
  Te  Te166  1  -0.00285326  0.49871743  0.33298725  1
  Te  Te167  1  -0.00322356  0.50370306  0.66665578  1
  Te  Te168  1  0.00170393  0.83255683  0.00187688  1
  Te  Te169  1  0.00544693  0.83384530  0.32470494  1
  Te  Te170  1  -0.00096852  0.82714439  0.66602445  1
  Te  Te171  1  0.33294601  0.16193426  -0.00484337  1
  Te  Te172  1  0.33370631  0.16716611  0.33286009  1
  Te  Te173  1  0.33783399  0.16612787  0.67357964  1
  Te  Te174  1  0.33684386  0.50355235  0.00200072  1
  Te  Te175  1  0.33385818  0.49675666  0.33389252  1
  Te  Te176  1  0.34158270  0.50086388  0.65816148  1
  Te  Te177  1  0.33244410  0.83231443  0.00142290  1
  Te  Te178  1  0.32787726  0.83312525  0.33437134  1
  Te  Te179  1  0.33434023  0.83389118  0.65909008  1
  Te  Te180  1  0.67326661  0.16609148  0.00024842  1
  Te  Te181  1  0.67369225  0.16520832  0.32929992  1
  Te  Te182  1  0.66938068  0.16357036  0.66880778  1
  Te  Te183  1  0.65880933  0.50030569  0.00249880  1
  Te  Te184  1  0.67587220  0.49999759  0.34033696  1
  Te  Te185  1  0.66860566  0.50166872  0.66040238  1
  Te  Te186  1  0.67199786  0.83455237  0.00513040  1
  Te  Te187  1  0.66778733  0.83484713  0.33253453  1
  Te  Te188  1  0.66672581  0.84041525  0.66167594  1
  Te  Te189  1  0.00109494  0.00164813  0.16086063  1
  Te  Te190  1  0.00540534  -0.00039563  0.50097301  1
  Te  Te191  1  -0.00259475  0.00055033  0.83914575  1
  Te  Te192  1  0.00326834  0.33182244  0.16746866  1
  Te  Te193  1  0.00195578  0.33615009  0.49838051  1
  Te  Te194  1  0.00065281  0.33853518  0.83399414  1
  Te  Te195  1  0.00089953  0.66823444  0.16154847  1
  Te  Te196  1  0.00136236  0.66494349  0.49891086  1
  Te  Te197  1  0.00196397  0.66434022  0.83571013  1
  Te  Te198  1  0.33373775  -0.00350033  0.16541554  1
  Te  Te199  1  0.32879803  -0.00079223  0.49814367  1
  Te  Te200  1  0.33283689  -0.00285613  0.83619229  1
  Te  Te201  1  0.33095320  0.33376876  0.16963453  1
  Te  Te202  1  0.33109795  0.33406987  0.49540703  1
  Te  Te203  1  0.33323422  0.33232949  0.83438620  1
  Te  Te204  1  0.33308055  0.66715693  0.16303255  1
  Te  Te205  1  0.33032244  0.66562311  0.50099468  1
  Te  Te206  1  0.33289834  0.66672777  0.83460397  1
  Te  Te207  1  0.66480394  -0.00003308  0.16744410  1
  Te  Te208  1  0.66657001  -0.00338372  0.50477397  1
  Te  Te209  1  0.66669313  0.00271856  0.83037210  1
  Te  Te210  1  0.66070671  0.32884209  0.16690226  1
  Te  Te211  1  0.65823305  0.33837697  0.49844820  1
  Te  Te212  1  0.66382213  0.32770364  0.83437267  1
  Te  Te213  1  0.66540477  0.67352422  0.16771012  1
  Te  Te214  1  0.66472142  0.66663579  0.50063215  1
  Te  Te215  1  0.66080628  0.66746993  0.83302489  1
