# generated using pymatgen
data_AgSbTe2
_symmetry_space_group_name_H-M   'P 1'
_cell_length_a   18.32277169
_cell_length_b   18.31843053
_cell_length_c   18.32091405
_cell_angle_alpha   90.00131723
_cell_angle_beta   89.99965123
_cell_angle_gamma   89.99777196
_symmetry_Int_Tables_number   1
_chemical_formula_structural   AgSbTe2
_chemical_formula_sum   'Ag54 Sb54 Te108'
_cell_volume   6149.31257010
_cell_formula_units_Z   54
loop_
 _symmetry_equiv_pos_site_id
 _symmetry_equiv_pos_as_xyz
  1  'x, y, z'
loop_
 _atom_site_type_symbol
 _atom_site_label
 _atom_site_symmetry_multiplicity
 _atom_site_fract_x
 _atom_site_fract_y
 _atom_site_fract_z
 _atom_site_occupancy
  Ag  Ag0  1  0.00681071  0.00240523  -0.00262743  1
  Ag  Ag1  1  0.16003526  0.83005349  0.33362651  1
  Ag  Ag2  1  0.66691290  0.00987607  0.34363632  1
  Ag  Ag3  1  0.66518289  0.66368498  0.00151705  1
  Ag  Ag4  1  0.50088936  0.16797294  0.65899652  1
  Ag  Ag5  1  0.83832909  0.83707437  0.33648975  1
  Ag  Ag6  1  0.33077953  0.33393024  0.00658814  1
  Ag  Ag7  1  0.33150316  0.84620825  0.82993719  1
  Ag  Ag8  1  0.00228851  0.67005331  0.33516630  1
  Ag  Ag9  1  0.83873668  0.66463660  0.16861399  1
  Ag  Ag10  1  0.82814663  0.33788392  0.16816871  1
  Ag  Ag11  1  0.66246186  0.17076826  0.49764844  1
  Ag  Ag12  1  0.33170163  0.00411778  -0.01003796  1
  Ag  Ag13  1  0.82629449  0.16601140  0.33459727  1
  Ag  Ag14  1  0.66380580  0.49727678  0.82482911  1
  Ag  Ag15  1  0.82411161  -0.00187175  0.49878966  1
  Ag  Ag16  1  0.50658964  0.49163744  0.65713864  1
  Ag  Ag17  1  0.16228244  0.66457434  0.16722703  1
  Ag  Ag18  1  0.33157961  0.83573245  0.50026319  1
  Ag  Ag19  1  0.00098991  0.82987474  0.49302490  1
  Ag  Ag20  1  0.65769956  0.49102626  0.50383279  1
  Ag  Ag21  1  0.17440937  0.33635447  0.49348346  1
  Ag  Ag22  1  0.49409135  0.49111542  0.33948877  1
  Ag  Ag23  1  0.67164118  0.83173454  0.16892115  1
  Ag  Ag24  1  0.34187900  0.33383499  0.32843329  1
  Ag  Ag25  1  0.33031103  0.16061053  0.83676140  1
  Ag  Ag26  1  0.82582170  0.50059172  0.66376238  1
  Ag  Ag27  1  0.83554504  0.33399526  0.83522311  1
  Ag  Ag28  1  0.16630125  0.33172855  0.83410471  1
  Ag  Ag29  1  0.49085680  0.00185910  0.82567954  1
  Ag  Ag30  1  0.17931006  0.00317787  0.83399813  1
  Ag  Ag31  1  0.17284562  0.49737385  0.00308440  1
  Ag  Ag32  1  0.50114182  0.17797228  0.33980531  1
  Ag  Ag33  1  0.49458498  0.49840852  0.00132872  1
  Ag  Ag34  1  0.33701014  0.49241276  0.49451313  1
  Ag  Ag35  1  0.00985326  0.16878950  0.83401535  1
  Ag  Ag36  1  0.17304696  0.17574559  0.33535976  1
  Ag  Ag37  1  0.34183135  0.00068764  0.67589426  1
  Ag  Ag38  1  0.33378662  0.17591105  0.16696807  1
  Ag  Ag39  1  0.00947131  0.33322958  -0.00154656  1
  Ag  Ag40  1  0.33383938  0.49341184  0.17260987  1
  Ag  Ag41  1  -0.00409870  0.82985984  0.17432689  1
  Ag  Ag42  1  0.65940261  0.00593368  0.66007447  1
  Ag  Ag43  1  0.50446705  0.00983553  0.50473758  1
  Ag  Ag44  1  0.49773041  0.83219664  0.00119307  1
  Ag  Ag45  1  0.83370974  0.83090148  0.65886461  1
  Ag  Ag46  1  0.65484263  0.33009835  0.34008031  1
  Ag  Ag47  1  0.17321838  0.49555927  0.33281808  1
  Ag  Ag48  1  0.66388245  0.33665311  0.65768281  1
  Ag  Ag49  1  -0.00067320  0.66597159  0.65878187  1
  Ag  Ag50  1  0.50014936  0.33189615  0.49220522  1
  Ag  Ag51  1  0.16635831  0.66140234  0.83854433  1
  Ag  Ag52  1  0.00070903  0.50168669  0.50005371  1
  Ag  Ag53  1  0.49686552  0.33539018  0.17922670  1
  Sb  Sb54  1  0.66365681  0.83041789  0.83494870  1
  Sb  Sb55  1  0.83145168  0.83343726  0.00372591  1
  Sb  Sb56  1  0.49943684  0.66084256  0.49976178  1
  Sb  Sb57  1  0.00528111  0.50239038  0.17119881  1
  Sb  Sb58  1  0.00465503  0.83712218  0.83307485  1
  Sb  Sb59  1  0.32716906  0.65838454  0.33337264  1
  Sb  Sb60  1  0.83308715  0.49827950  -0.00172455  1
  Sb  Sb61  1  0.49902195  0.66098682  0.16592680  1
  Sb  Sb62  1  0.17325364  0.16740284  0.66635366  1
  Sb  Sb63  1  0.82702453  0.16842833  0.66222078  1
  Sb  Sb64  1  -0.00041160  0.66470749  0.00264075  1
  Sb  Sb65  1  0.67115439  0.66449746  0.33057816  1
  Sb  Sb66  1  0.50282470  0.83721899  0.66786278  1
  Sb  Sb67  1  0.49751527  0.33096029  0.83181930  1
  Sb  Sb68  1  0.83537737  0.67027827  0.49686219  1
  Sb  Sb69  1  0.16797359  0.49862308  0.66427391  1
  Sb  Sb70  1  0.33239365  0.83257569  0.16776054  1
  Sb  Sb71  1  0.67075717  0.66266175  0.66910661  1
  Sb  Sb72  1  0.83249930  -0.00019064  0.17301107  1
  Sb  Sb73  1  0.17166508  0.33760401  0.16762991  1
  Sb  Sb74  1  0.16715756  -0.00285585  0.16352836  1
  Sb  Sb75  1  0.34059722  0.16840391  0.49856744  1
  Sb  Sb76  1  0.00417356  0.16600153  0.16523920  1
  Sb  Sb77  1  -0.00052211  0.49514615  0.82988457  1
  Sb  Sb78  1  0.16352408  0.66156448  0.49656520  1
  Sb  Sb79  1  0.33530006  0.66357060  -0.00007679  1
  Sb  Sb80  1  0.66252233  -0.00374448  -0.00179296  1
  Sb  Sb81  1  0.16940300  0.17105645  0.00063828  1
  Sb  Sb82  1  0.50083081  0.83451355  0.33112352  1
  Sb  Sb83  1  0.33733005  0.00633952  0.33429903  1
  Sb  Sb84  1  0.49932951  0.00493468  0.16820285  1
  Sb  Sb85  1  0.66672400  0.83698159  0.49641088  1
  Sb  Sb86  1  0.66247956  0.16585850  0.17593685  1
  Sb  Sb87  1  0.83716180  0.66304763  0.83491004  1
  Sb  Sb88  1  0.82799687  0.33257675  0.49783663  1
  Sb  Sb89  1  0.49598080  0.16921100  0.00080421  1
  Sb  Sb90  1  -0.00073722  -0.00285389  0.66929564  1
  Sb  Sb91  1  0.49545142  0.66838000  0.83385946  1
  Sb  Sb92  1  0.16427674  0.83269027  0.66249724  1
  Sb  Sb93  1  0.83202725  0.00494509  0.82778485  1
  Sb  Sb94  1  0.32935705  0.66922837  0.66662226  1
  Sb  Sb95  1  0.33922539  0.33007318  0.66520243  1
  Sb  Sb96  1  0.17082694  0.83057997  0.00216865  1
  Sb  Sb97  1  0.83317815  0.49914031  0.33706109  1
  Sb  Sb98  1  0.66225038  0.33779928  0.00104836  1
  Sb  Sb99  1  -0.00266321  -0.00469841  0.33124275  1
  Sb  Sb100  1  0.33565618  0.49648338  0.83282631  1
  Sb  Sb101  1  -0.00548429  0.33687255  0.66904891  1
  Sb  Sb102  1  0.66328277  0.17083955  0.82614298  1
  Sb  Sb103  1  -0.00313022  0.16770627  0.50189088  1
  Sb  Sb104  1  0.00159503  0.33701666  0.33079134  1
  Sb  Sb105  1  0.66163403  0.50086383  0.16928321  1
  Sb  Sb106  1  0.16995037  0.00319576  0.50206636  1
  Sb  Sb107  1  0.83547948  0.16839327  0.00491544  1
  Te  Te108  1  0.17179091  0.16571605  0.17471128  1
  Te  Te109  1  0.16556355  0.17228251  0.49609771  1
  Te  Te110  1  0.16837703  0.16821012  0.83243656  1
  Te  Te111  1  0.17036003  0.50342431  0.16849287  1
  Te  Te112  1  0.16880119  0.49647737  0.49775518  1
  Te  Te113  1  0.16764887  0.49735328  0.83522350  1
  Te  Te114  1  0.16364578  0.82877473  0.17118819  1
  Te  Te115  1  0.16606561  0.83402897  0.49572162  1
  Te  Te116  1  0.17114734  0.83712330  0.83347422  1
  Te  Te117  1  0.49554278  0.17283309  0.17108754  1
  Te  Te118  1  0.50114194  0.16873559  0.49967822  1
  Te  Te119  1  0.49662350  0.16295439  0.83164254  1
  Te  Te120  1  0.49544731  0.49586574  0.16359363  1
  Te  Te121  1  0.49828969  0.49787551  0.49910565  1
  Te  Te122  1  0.50279799  0.50031480  0.83721224  1
  Te  Te123  1  0.50203404  0.83243929  0.16265679  1
  Te  Te124  1  0.49575460  0.83286320  0.49959922  1
  Te  Te125  1  0.49583367  0.83657078  0.83641904  1
  Te  Te126  1  0.83459397  0.17076716  0.17376280  1
  Te  Te127  1  0.82966489  0.16226284  0.49498816  1
  Te  Te128  1  0.83257208  0.17342841  0.83348699  1
  Te  Te129  1  0.83342373  0.49965602  0.16761671  1
  Te  Te130  1  0.83772509  0.50048852  0.50351104  1
  Te  Te131  1  0.82989580  0.49581116  0.82966660  1
  Te  Te132  1  0.83424071  0.83248216  0.16886683  1
  Te  Te133  1  0.83376337  0.83566320  0.49793899  1
  Te  Te134  1  0.83380069  0.83308197  0.82886508  1
  Te  Te135  1  0.16834208  -0.00068862  -0.00425563  1
  Te  Te136  1  0.16746299  -0.00186962  0.33349097  1
  Te  Te137  1  0.17026211  0.00051217  0.67277203  1
  Te  Te138  1  0.16883299  0.33656033  0.00027737  1
  Te  Te139  1  0.16684576  0.33511071  0.33422724  1
  Te  Te140  1  0.16649657  0.33300728  0.67034313  1
  Te  Te141  1  0.16668500  0.66110389  0.00107077  1
  Te  Te142  1  0.16197803  0.66642458  0.33102494  1
  Te  Te143  1  0.16018329  0.66593767  0.67281612  1
  Te  Te144  1  0.49649032  -0.00158543  -0.00149830  1
  Te  Te145  1  0.50568908  0.00131767  0.33726922  1
  Te  Te146  1  0.50088805  -0.00199943  0.66491972  1
  Te  Te147  1  0.49434608  0.33695794  -0.00021465  1
  Te  Te148  1  0.49841067  0.33466564  0.33501133  1
  Te  Te149  1  0.50465907  0.33274030  0.66580385  1
  Te  Te150  1  0.50360588  0.66503204  -0.00021320  1
  Te  Te151  1  0.50070683  0.66047004  0.33202531  1
  Te  Te152  1  0.49977832  0.65858487  0.66786214  1
  Te  Te153  1  0.83697500  0.00043318  -0.00175745  1
  Te  Te154  1  0.83042929  -0.00087561  0.33735038  1
  Te  Te155  1  0.83096816  -0.00151493  0.66069371  1
  Te  Te156  1  0.83422237  0.33341968  -0.00020757  1
  Te  Te157  1  0.83419483  0.33074952  0.32996549  1
  Te  Te158  1  0.82707847  0.33611088  0.66875959  1
  Te  Te159  1  0.82897812  0.66617730  0.00576379  1
  Te  Te160  1  0.83831311  0.67018927  0.32787912  1
  Te  Te161  1  0.83803899  0.66572192  0.66829408  1
  Te  Te162  1  0.00197690  0.16838497  -0.00292576  1
  Te  Te163  1  0.00156758  0.16556800  0.33374148  1
  Te  Te164  1  -0.00112323  0.16666617  0.67259613  1
  Te  Te165  1  0.00499057  0.49524297  -0.00057699  1
  Te  Te166  1  0.00298235  0.50491233  0.33880515  1
  Te  Te167  1  -0.00174394  0.50386245  0.66184561  1
  Te  Te168  1  0.00022510  0.83565829  0.00322774  1
  Te  Te169  1  -0.00056452  0.83324939  0.33376705  1
  Te  Te170  1  -0.00475269  0.82971251  0.66337173  1
  Te  Te171  1  0.33338004  0.16817562  0.00084985  1
  Te  Te172  1  0.33391655  0.17049079  0.33226768  1
  Te  Te173  1  0.33989995  0.16229166  0.67063752  1
  Te  Te174  1  0.33291546  0.49697184  -0.00104574  1
  Te  Te175  1  0.33338242  0.49704898  0.33387725  1
  Te  Te176  1  0.33921186  0.50046578  0.66110645  1
  Te  Te177  1  0.33716598  0.83538670  -0.00125036  1
  Te  Te178  1  0.33140957  0.83405076  0.33658746  1
  Te  Te179  1  0.33362507  0.83696215  0.66545638  1
  Te  Te180  1  0.66592454  0.16630989  0.00125517  1
  Te  Te181  1  0.66545364  0.16811641  0.33592723  1
  Te  Te182  1  0.66154854  0.16660418  0.66040918  1
  Te  Te183  1  0.66393566  0.50281070  -0.00062928  1
  Te  Te184  1  0.66505002  0.49611579  0.33742410  1
  Te  Te185  1  0.66651894  0.49973622  0.66553084  1
  Te  Te186  1  0.66228430  0.82955438  0.00289016  1
  Te  Te187  1  0.66967791  0.83258301  0.32921884  1
  Te  Te188  1  0.67253905  0.83332896  0.66639872  1
  Te  Te189  1  -0.00046987  -0.00387622  0.15828206  1
  Te  Te190  1  0.00026154  -0.00344028  0.50121041  1
  Te  Te191  1  -0.00016795  0.00573245  0.83707939  1
  Te  Te192  1  -0.00527713  0.33331951  0.16042701  1
  Te  Te193  1  0.00371648  0.33673277  0.50051173  1
  Te  Te194  1  0.00154591  0.33006541  0.83554632  1
  Te  Te195  1  -0.00004311  0.66885280  0.16816360  1
  Te  Te196  1  0.00022626  0.66836917  0.49886022  1
  Te  Te197  1  0.00546936  0.66709196  0.83335548  1
  Te  Te198  1  0.33403706  0.00314678  0.16189401  1
  Te  Te199  1  0.33685047  -0.00205427  0.50201880  1
  Te  Te200  1  0.33488103  0.00223384  0.83344572  1
  Te  Te201  1  0.33350067  0.33434716  0.16726647  1
  Te  Te202  1  0.33433172  0.33386574  0.49885571  1
  Te  Te203  1  0.32903409  0.32961789  0.83451425  1
  Te  Te204  1  0.32645267  0.66301480  0.16635067  1
  Te  Te205  1  0.33145053  0.67332060  0.50066909  1
  Te  Te206  1  0.32567877  0.67018076  0.83266897  1
  Te  Te207  1  0.66611422  -0.00641854  0.16791793  1
  Te  Te208  1  0.66445380  -0.00187705  0.49979853  1
  Te  Te209  1  0.66299611  0.00036866  0.82836371  1
  Te  Te210  1  0.66684582  0.33313083  0.16913505  1
  Te  Te211  1  0.66643770  0.33283038  0.49869972  1
  Te  Te212  1  0.66928343  0.33730750  0.83335810  1
  Te  Te213  1  0.66879264  0.66922417  0.16399749  1
  Te  Te214  1  0.66770194  0.65772746  0.49985388  1
  Te  Te215  1  0.66786546  0.66159997  0.83858527  1
