# generated using pymatgen
data_AgSbTe2
_symmetry_space_group_name_H-M   'P 1'
_cell_length_a   18.35053146
_cell_length_b   18.34375547
_cell_length_c   18.34865502
_cell_angle_alpha   90.00129072
_cell_angle_beta   90.00082828
_cell_angle_gamma   89.99811328
_symmetry_Int_Tables_number   1
_chemical_formula_structural   AgSbTe2
_chemical_formula_sum   'Ag54 Sb54 Te108'
_cell_volume   6176.48134428
_cell_formula_units_Z   54
loop_
 _symmetry_equiv_pos_site_id
 _symmetry_equiv_pos_as_xyz
  1  'x, y, z'
loop_
 _atom_site_type_symbol
 _atom_site_label
 _atom_site_symmetry_multiplicity
 _atom_site_fract_x
 _atom_site_fract_y
 _atom_site_fract_z
 _atom_site_occupancy
  Ag  Ag0  1  0.83426591  0.00278045  0.82419529  1
  Ag  Ag1  1  0.00341057  0.83249599  0.16628648  1
  Ag  Ag2  1  0.50441400  0.33140686  0.49741909  1
  Ag  Ag3  1  0.16140818  0.17478513  0.33700210  1
  Ag  Ag4  1  0.16377017  0.66563067  0.16664872  1
  Ag  Ag5  1  -0.00266863  0.17144632  0.82991191  1
  Ag  Ag6  1  0.15382724  0.83004617  0.66274659  1
  Ag  Ag7  1  0.83648725  0.16492687  0.66312738  1
  Ag  Ag8  1  0.00349753  0.83727134  0.50695861  1
  Ag  Ag9  1  0.50590708  0.16552630  -0.00333190  1
  Ag  Ag10  1  0.15996881  0.66794502  0.83447511  1
  Ag  Ag11  1  0.50408521  0.83594583  0.66303201  1
  Ag  Ag12  1  0.50247317  0.49778485  0.66042462  1
  Ag  Ag13  1  0.83964854  0.32145218  0.49653192  1
  Ag  Ag14  1  -0.00434968  0.48590351  0.50742193  1
  Ag  Ag15  1  0.67458819  0.33324040  0.33930127  1
  Ag  Ag16  1  0.84019311  0.17263274  0.34811219  1
  Ag  Ag17  1  0.50251489  0.49272241  0.00322481  1
  Ag  Ag18  1  0.68111992  0.16275114  0.82923525  1
  Ag  Ag19  1  0.15635895  0.33750579  0.17864962  1
  Ag  Ag20  1  0.83963832  0.00975751  0.50554589  1
  Ag  Ag21  1  0.49936736  -0.00006556  0.16475484  1
  Ag  Ag22  1  -0.00175484  0.48689832  0.16752403  1
  Ag  Ag23  1  0.83652366  0.16797313  -0.00878739  1
  Ag  Ag24  1  0.16604701  0.83712450  0.34305124  1
  Ag  Ag25  1  0.32972236  -0.00065297  0.00254950  1
  Ag  Ag26  1  -0.00243428  0.83507337  0.82698060  1
  Ag  Ag27  1  0.83775350  0.83594892  0.66809804  1
  Ag  Ag28  1  0.16203444  0.83643323  0.00006744  1
  Ag  Ag29  1  0.31995114  0.83871584  0.49862432  1
  Ag  Ag30  1  0.67042481  0.49670802  0.17719804  1
  Ag  Ag31  1  0.33083489  0.00126435  0.33571589  1
  Ag  Ag32  1  0.84209913  0.67696048  0.83095050  1
  Ag  Ag33  1  0.15263768  0.32793200  0.49712688  1
  Ag  Ag34  1  0.66972702  0.83958590  0.50627702  1
  Ag  Ag35  1  0.15707342  0.50015914  0.66725127  1
  Ag  Ag36  1  0.84105871  0.49158681  0.66553010  1
  Ag  Ag37  1  0.50158026  0.49396690  0.33820150  1
  Ag  Ag38  1  0.67936485  0.84193494  0.82426195  1
  Ag  Ag39  1  0.67791385  0.17174567  0.50221517  1
  Ag  Ag40  1  0.50628047  0.00084742  0.83148323  1
  Ag  Ag41  1  0.84117087  0.33247839  0.17725430  1
  Ag  Ag42  1  0.15710908  0.33607636  0.82853570  1
  Ag  Ag43  1  0.32881596  0.66780230  0.33411115  1
  Ag  Ag44  1  0.32297949  0.33128353  0.33603826  1
  Ag  Ag45  1  0.00046938  0.32931999  -0.00211834  1
  Ag  Ag46  1  0.00064674  0.33262284  0.34278383  1
  Ag  Ag47  1  0.00005781  0.48679543  0.82442441  1
  Ag  Ag48  1  0.15918747  -0.00258471  0.49703363  1
  Ag  Ag49  1  -0.00011862  0.33647299  0.65703396  1
  Ag  Ag50  1  0.50090259  0.00130458  0.50138519  1
  Ag  Ag51  1  0.00223669  0.00390043  -0.00259325  1
  Ag  Ag52  1  -0.00978767  0.17330927  0.50288650  1
  Ag  Ag53  1  0.67118653  0.48777630  0.49831844  1
  Sb  Sb54  1  0.33295980  0.16540391  0.16857477  1
  Sb  Sb55  1  0.49994311  0.16946869  0.33392983  1
  Sb  Sb56  1  0.32748273  0.49954468  0.83233143  1
  Sb  Sb57  1  0.00487683  0.00565189  0.33462668  1
  Sb  Sb58  1  0.00382822  0.66262827  0.33195293  1
  Sb  Sb59  1  -0.00154692  0.00102982  0.66696933  1
  Sb  Sb60  1  0.16070002  -0.00085314  0.82960740  1
  Sb  Sb61  1  0.16527806  0.66731050  0.49987162  1
  Sb  Sb62  1  0.83315418  0.00493126  0.16824735  1
  Sb  Sb63  1  0.66644447  0.66469082  -0.00117608  1
  Sb  Sb64  1  0.66866914  0.17105886  0.17036633  1
  Sb  Sb65  1  0.15733290  0.16777798  0.66058890  1
  Sb  Sb66  1  0.83497717  0.66577348  0.50568305  1
  Sb  Sb67  1  0.16671869  0.49729186  0.33821430  1
  Sb  Sb68  1  0.00144052  0.66716099  -0.00419405  1
  Sb  Sb69  1  0.32572393  0.33515112  0.65915534  1
  Sb  Sb70  1  0.66996261  -0.00200428  0.66523726  1
  Sb  Sb71  1  0.16147273  0.16400126  0.00282862  1
  Sb  Sb72  1  0.16580161  0.50107111  -0.00256570  1
  Sb  Sb73  1  0.33269461  -0.00185400  0.66305838  1
  Sb  Sb74  1  0.49719492  0.33017928  0.82882699  1
  Sb  Sb75  1  -0.00160844  0.17008150  0.16957929  1
  Sb  Sb76  1  0.50921435  0.16576450  0.66703051  1
  Sb  Sb77  1  0.49473848  0.83330933  0.34113148  1
  Sb  Sb78  1  0.32559074  0.83515759  0.17314510  1
  Sb  Sb79  1  0.00014015  0.66176187  0.66866852  1
  Sb  Sb80  1  0.49569018  0.84045832  -0.00562086  1
  Sb  Sb81  1  0.83464721  0.49296856  -0.00491424  1
  Sb  Sb82  1  0.66358956  0.65999412  0.33528084  1
  Sb  Sb83  1  0.33012926  0.67154156  0.00359516  1
  Sb  Sb84  1  0.32857233  0.16395972  0.83543070  1
  Sb  Sb85  1  0.49960497  0.33179919  0.17121040  1
  Sb  Sb86  1  0.67308982  0.49711644  0.82762379  1
  Sb  Sb87  1  0.16753005  0.00044306  0.17159098  1
  Sb  Sb88  1  0.84177712  0.65895807  0.16010420  1
  Sb  Sb89  1  0.49923977  0.66605226  0.50046240  1
  Sb  Sb90  1  0.84244625  0.84210458  -0.00875475  1
  Sb  Sb91  1  0.32819641  0.32870247  0.00469948  1
  Sb  Sb92  1  0.66835458  0.00169744  -0.00314188  1
  Sb  Sb93  1  0.33023058  0.49956789  0.16830044  1
  Sb  Sb94  1  0.83174050  0.49314725  0.34145288  1
  Sb  Sb95  1  0.33074728  0.16302014  0.49799277  1
  Sb  Sb96  1  0.66861919  0.66786915  0.66681887  1
  Sb  Sb97  1  0.84124654  0.84106019  0.34366289  1
  Sb  Sb98  1  0.32830152  0.83543247  0.82712610  1
  Sb  Sb99  1  0.67302097  0.83015596  0.16858228  1
  Sb  Sb100  1  0.83971875  0.32667129  0.82704163  1
  Sb  Sb101  1  0.66280977  0.00541612  0.33905533  1
  Sb  Sb102  1  0.33223670  0.50061626  0.49780865  1
  Sb  Sb103  1  0.67247202  0.33115374  0.00360486  1
  Sb  Sb104  1  0.49948289  0.67000295  0.83234370  1
  Sb  Sb105  1  0.49521267  0.66814249  0.16855695  1
  Sb  Sb106  1  0.67511114  0.33398537  0.65914883  1
  Sb  Sb107  1  0.32974247  0.66861195  0.66108660  1
  Te  Te108  1  0.16618764  0.17202282  0.17332452  1
  Te  Te109  1  0.16470161  0.16656339  0.49653566  1
  Te  Te110  1  0.15943045  0.16950705  0.83284572  1
  Te  Te111  1  0.16237785  0.49895657  0.16535688  1
  Te  Te112  1  0.16309310  0.49816077  0.50548274  1
  Te  Te113  1  0.16139511  0.49906779  0.83075080  1
  Te  Te114  1  0.16288112  0.83443474  0.16396075  1
  Te  Te115  1  0.16391759  0.83150219  0.50241095  1
  Te  Te116  1  0.16298781  0.83400346  0.82855909  1
  Te  Te117  1  0.50227449  0.16125926  0.16175315  1
  Te  Te118  1  0.50157207  0.16436959  0.50046195  1
  Te  Te119  1  0.49822495  0.16194881  0.83469233  1
  Te  Te120  1  0.50297251  0.50008344  0.16756156  1
  Te  Te121  1  0.49969255  0.49991519  0.49905409  1
  Te  Te122  1  0.50159799  0.50012182  0.83006337  1
  Te  Te123  1  0.50274053  0.83662180  0.16583111  1
  Te  Te124  1  0.50941345  0.83511843  0.50223959  1
  Te  Te125  1  0.49920246  0.83742492  0.82882774  1
  Te  Te126  1  0.83111338  0.17191057  0.16169424  1
  Te  Te127  1  0.83330484  0.16561063  0.50324039  1
  Te  Te128  1  0.83711320  0.16487181  0.83177252  1
  Te  Te129  1  0.83527027  0.49502067  0.16389036  1
  Te  Te130  1  0.83414692  0.50171750  0.50590301  1
  Te  Te131  1  0.83776777  0.50067065  0.82695891  1
  Te  Te132  1  0.83874410  0.83203915  0.16716446  1
  Te  Te133  1  0.83214668  0.83310824  0.50550993  1
  Te  Te134  1  0.83561588  0.83888443  0.83110892  1
  Te  Te135  1  0.16591760  -0.00229278  -0.00013547  1
  Te  Te136  1  0.17015554  -0.00311723  0.33670326  1
  Te  Te137  1  0.16797835  -0.00626356  0.65933935  1
  Te  Te138  1  0.16389766  0.33244578  -0.00154185  1
  Te  Te139  1  0.16415335  0.33600194  0.33705932  1
  Te  Te140  1  0.16218080  0.33523350  0.66376050  1
  Te  Te141  1  0.16795092  0.67225668  0.00048211  1
  Te  Te142  1  0.16941667  0.66885200  0.32983551  1
  Te  Te143  1  0.16746167  0.66673922  0.67224891  1
  Te  Te144  1  0.49957028  0.00248414  -0.00246414  1
  Te  Te145  1  0.49512319  0.00115957  0.33793992  1
  Te  Te146  1  0.49902414  -0.00130768  0.66509207  1
  Te  Te147  1  0.49748402  0.33089288  -0.00053323  1
  Te  Te148  1  0.50063355  0.33406126  0.33547392  1
  Te  Te149  1  0.49604684  0.33449690  0.66175480  1
  Te  Te150  1  0.49766868  0.65946083  0.00050706  1
  Te  Te151  1  0.49246944  0.66069842  0.33194184  1
  Te  Te152  1  0.49776914  0.66610597  0.66857854  1
  Te  Te153  1  0.83846036  0.00750299  0.00056479  1
  Te  Te154  1  0.83306422  0.00965843  0.33725067  1
  Te  Te155  1  0.83435496  -0.00046293  0.66532888  1
  Te  Te156  1  0.83814917  0.32832690  0.00298623  1
  Te  Te157  1  0.83464391  0.33251416  0.33587881  1
  Te  Te158  1  0.83900913  0.33412930  0.66134820  1
  Te  Te159  1  0.83280869  0.66629624  -0.00956467  1
  Te  Te160  1  0.83316109  0.66915865  0.32978504  1
  Te  Te161  1  0.83377316  0.67289129  0.67333252  1
  Te  Te162  1  -0.00070740  0.16553234  -0.00025774  1
  Te  Te163  1  0.00041504  0.17003356  0.33629585  1
  Te  Te164  1  -0.00355156  0.17155056  0.66578936  1
  Te  Te165  1  0.00061403  0.49544977  0.00365021  1
  Te  Te166  1  -0.00102679  0.49557434  0.33152712  1
  Te  Te167  1  0.00049005  0.49818788  0.66638753  1
  Te  Te168  1  0.00384935  0.83455188  -0.00192226  1
  Te  Te169  1  0.00557941  0.83359822  0.33161729  1
  Te  Te170  1  -0.00211870  0.83445831  0.66719295  1
  Te  Te171  1  0.33846673  0.16013807  0.00141584  1
  Te  Te172  1  0.32805997  0.16635841  0.33364822  1
  Te  Te173  1  0.33316946  0.16703374  0.66797073  1
  Te  Te174  1  0.34129723  0.49911726  0.00013541  1
  Te  Te175  1  0.33714390  0.49628870  0.33306084  1
  Te  Te176  1  0.34109622  0.50143899  0.66631747  1
  Te  Te177  1  0.32750430  0.83899372  0.00006476  1
  Te  Te178  1  0.32970153  0.83739492  0.33810017  1
  Te  Te179  1  0.34198329  0.83315526  0.65962039  1
  Te  Te180  1  0.66692432  0.16681900  -0.00320895  1
  Te  Te181  1  0.66929977  0.17242452  0.33826703  1
  Te  Te182  1  0.67439726  0.16813722  0.66629884  1
  Te  Te183  1  0.66259953  0.49783462  -0.00151211  1
  Te  Te184  1  0.66519395  0.49545414  0.33758358  1
  Te  Te185  1  0.66261654  0.50063576  0.66075001  1
  Te  Te186  1  0.66630761  0.83254707  -0.00182954  1
  Te  Te187  1  0.66815150  0.83122675  0.33677827  1
  Te  Te188  1  0.66499544  0.83263687  0.66786594  1
  Te  Te189  1  -0.00048178  -0.00544354  0.16163400  1
  Te  Te190  1  -0.00062271  -0.00215483  0.49834327  1
  Te  Te191  1  -0.00174910  -0.00108034  0.83595358  1
  Te  Te192  1  0.00008181  0.33136642  0.16349528  1
  Te  Te193  1  -0.00176099  0.33185784  0.49935439  1
  Te  Te194  1  -0.00019701  0.33168060  0.83817657  1
  Te  Te195  1  0.00553892  0.67082235  0.16494752  1
  Te  Te196  1  0.00031842  0.67670885  0.49765932  1
  Te  Te197  1  0.00186029  0.67242105  0.83347918  1
  Te  Te198  1  0.33820312  -0.00065228  0.16776204  1
  Te  Te199  1  0.33595797  -0.00253880  0.49753377  1
  Te  Te200  1  0.33879690  -0.00044326  0.83792134  1
  Te  Te201  1  0.32806915  0.33302826  0.17368640  1
  Te  Te202  1  0.34208760  0.33294431  0.49425612  1
  Te  Te203  1  0.32338298  0.33256072  0.83438405  1
  Te  Te204  1  0.32546469  0.66746742  0.17320892  1
  Te  Te205  1  0.33230689  0.67528229  0.49274781  1
  Te  Te206  1  0.32448394  0.66710128  0.83503361  1
  Te  Te207  1  0.66102571  -0.00191710  0.16861278  1
  Te  Te208  1  0.66560822  -0.00007282  0.49959459  1
  Te  Te209  1  0.66806102  0.00172572  0.83370150  1
  Te  Te210  1  0.66720506  0.33839634  0.17163775  1
  Te  Te211  1  0.66427503  0.33176910  0.49917584  1
  Te  Te212  1  0.66539543  0.32665896  0.83317969  1
  Te  Te213  1  0.66764445  0.65754270  0.16666074  1
  Te  Te214  1  0.66723975  0.67104799  0.49919796  1
  Te  Te215  1  0.66877380  0.67171642  0.83422169  1
