# generated using pymatgen
data_AgSbTe2
_symmetry_space_group_name_H-M   'P 1'
_cell_length_a   18.35837296
_cell_length_b   18.35913964
_cell_length_c   18.36200056
_cell_angle_alpha   90.00101750
_cell_angle_beta   90.00126645
_cell_angle_gamma   90.00023297
_symmetry_Int_Tables_number   1
_chemical_formula_structural   AgSbTe2
_chemical_formula_sum   'Ag54 Sb54 Te108'
_cell_volume   6188.80088047
_cell_formula_units_Z   54
loop_
 _symmetry_equiv_pos_site_id
 _symmetry_equiv_pos_as_xyz
  1  'x, y, z'
loop_
 _atom_site_type_symbol
 _atom_site_label
 _atom_site_symmetry_multiplicity
 _atom_site_fract_x
 _atom_site_fract_y
 _atom_site_fract_z
 _atom_site_occupancy
  Ag  Ag0  1  0.16345380  0.50012969  0.34917918  1
  Ag  Ag1  1  0.67667178  0.66822334  0.66482159  1
  Ag  Ag2  1  0.50716304  0.00503451  0.50502113  1
  Ag  Ag3  1  0.32910436  0.66558676  0.66557254  1
  Ag  Ag4  1  -0.00059343  0.67235705  0.66580257  1
  Ag  Ag5  1  0.00242758  0.82556947  0.50615766  1
  Ag  Ag6  1  0.32864644  0.33954204  -0.01337427  1
  Ag  Ag7  1  0.50081946  0.32806553  0.50695574  1
  Ag  Ag8  1  0.16374237  0.82929274  -0.00556218  1
  Ag  Ag9  1  0.16722479  0.33469547  0.16734768  1
  Ag  Ag10  1  0.00330946  0.66379187  0.34914596  1
  Ag  Ag11  1  0.16683683  -0.00155506  0.16546908  1
  Ag  Ag12  1  0.00239699  0.66851378  -0.00396323  1
  Ag  Ag13  1  0.84129225  0.83243474  -0.00537753  1
  Ag  Ag14  1  0.16563258  0.50338534  -0.00456649  1
  Ag  Ag15  1  0.67422074  -0.00237192  -0.01677509  1
  Ag  Ag16  1  0.66479792  0.16737895  0.82096114  1
  Ag  Ag17  1  0.67686522  0.00956861  0.66659173  1
  Ag  Ag18  1  0.66785380  0.32228878  0.66725255  1
  Ag  Ag19  1  0.31863818  0.49997545  0.50654049  1
  Ag  Ag20  1  0.67446775  0.84736724  0.82272317  1
  Ag  Ag21  1  0.82744314  0.16854311  0.66610146  1
  Ag  Ag22  1  -0.00228885  0.83387662  0.82326335  1
  Ag  Ag23  1  0.33953235  0.17041324  0.82963103  1
  Ag  Ag24  1  -0.00706607  -0.00914219  0.66503942  1
  Ag  Ag25  1  0.83652135  0.33646224  0.51022319  1
  Ag  Ag26  1  0.16151772  0.83071929  0.66687181  1
  Ag  Ag27  1  0.84081208  0.50528705  -0.00326267  1
  Ag  Ag28  1  0.83678602  -0.00165035  0.16235568  1
  Ag  Ag29  1  0.00115859  0.33570459  0.66580605  1
  Ag  Ag30  1  0.00055094  0.49959323  0.50460290  1
  Ag  Ag31  1  0.17501051  0.33472684  0.82441030  1
  Ag  Ag32  1  0.51363431  0.16903654  0.66513415  1
  Ag  Ag33  1  0.49780394  0.66631484  0.16573980  1
  Ag  Ag34  1  0.16670456  0.49271830  0.66511843  1
  Ag  Ag35  1  0.67131168  0.49433753  0.50836848  1
  Ag  Ag36  1  0.32629465  0.83276067  0.50657933  1
  Ag  Ag37  1  0.82778912  0.00074394  0.82945160  1
  Ag  Ag38  1  0.33205302  -0.00222218  -0.00525357  1
  Ag  Ag39  1  0.16541695  0.83028098  0.35044155  1
  Ag  Ag40  1  0.67166862  0.49328444  0.82261362  1
  Ag  Ag41  1  0.33254693  0.00223568  0.66645961  1
  Ag  Ag42  1  0.49911220  0.16633530  0.34733842  1
  Ag  Ag43  1  0.67652425  0.84101221  0.50822094  1
  Ag  Ag44  1  0.33186545  -0.00000188  0.35027765  1
  Ag  Ag45  1  0.15788815  0.33961636  0.50715247  1
  Ag  Ag46  1  0.00460002  0.34015907  0.35046395  1
  Ag  Ag47  1  0.49682516  0.33013183  0.82217032  1
  Ag  Ag48  1  0.82866094  -0.00272023  0.51308048  1
  Ag  Ag49  1  0.33183718  0.32970370  0.66735949  1
  Ag  Ag50  1  0.83703745  0.66871043  0.50375763  1
  Ag  Ag51  1  0.32498303  0.66694513  -0.00700647  1
  Ag  Ag52  1  0.66343467  0.16612210  0.51144015  1
  Ag  Ag53  1  0.83068459  0.32975022  0.82561055  1
  Sb  Sb54  1  0.83278022  0.49338507  0.66775983  1
  Sb  Sb55  1  0.00044745  0.16555286  0.16846202  1
  Sb  Sb56  1  0.32729147  0.32847974  0.34303524  1
  Sb  Sb57  1  0.32666085  0.66942868  0.33929744  1
  Sb  Sb58  1  -0.00533865  0.16988326  0.50393467  1
  Sb  Sb59  1  0.66836584  0.49937082  0.16533992  1
  Sb  Sb60  1  0.66874083  0.83557919  0.16575962  1
  Sb  Sb61  1  0.00423721  -0.00100017  0.34029828  1
  Sb  Sb62  1  0.16513237  0.00270045  0.83275645  1
  Sb  Sb63  1  0.32931186  0.50046694  0.16853415  1
  Sb  Sb64  1  0.66354336  -0.00025609  0.34343989  1
  Sb  Sb65  1  0.50063064  0.49086035  0.66553064  1
  Sb  Sb66  1  0.83631609  0.84001356  0.67130543  1
  Sb  Sb67  1  0.83050291  0.16303947  -0.00974504  1
  Sb  Sb68  1  0.17058756  0.16775586  0.33591078  1
  Sb  Sb69  1  0.66704249  0.16439259  0.16561001  1
  Sb  Sb70  1  0.83852078  0.32943393  0.16353082  1
  Sb  Sb71  1  0.16785441  0.16847809  -0.00176109  1
  Sb  Sb72  1  0.50300860  0.66627227  0.50169106  1
  Sb  Sb73  1  0.16824154  0.66795166  0.16345351  1
  Sb  Sb74  1  0.50092663  0.66191418  0.83085013  1
  Sb  Sb75  1  0.49751974  0.83447887  -0.00308108  1
  Sb  Sb76  1  0.66847289  0.67128465  -0.00793709  1
  Sb  Sb77  1  0.16574030  0.66256554  0.83147607  1
  Sb  Sb78  1  0.67094071  0.33390986  0.34834343  1
  Sb  Sb79  1  0.15859113  0.66173835  0.50514837  1
  Sb  Sb80  1  0.49293299  0.83631013  0.33865326  1
  Sb  Sb81  1  0.66401440  0.33095513  -0.01352216  1
  Sb  Sb82  1  0.16623898  0.16986401  0.66602267  1
  Sb  Sb83  1  0.49335822  0.33519716  0.16828144  1
  Sb  Sb84  1  -0.00184291  0.50300824  0.82459915  1
  Sb  Sb85  1  0.16629370  0.00101823  0.50133303  1
  Sb  Sb86  1  0.49753038  0.49976811  -0.00326350  1
  Sb  Sb87  1  0.83955370  0.49903816  0.33714477  1
  Sb  Sb88  1  0.49760723  -0.00266795  0.17070612  1
  Sb  Sb89  1  0.00310636  0.50083709  0.17112403  1
  Sb  Sb90  1  0.00683036  0.34267529  -0.00801832  1
  Sb  Sb91  1  0.33307055  0.49448378  0.82584721  1
  Sb  Sb92  1  0.49208316  0.49645365  0.34018385  1
  Sb  Sb93  1  0.82881904  0.16517642  0.34409649  1
  Sb  Sb94  1  0.00205914  0.83320870  0.16837367  1
  Sb  Sb95  1  0.50405066  0.00488792  0.82416997  1
  Sb  Sb96  1  0.83364397  0.66817664  0.82498051  1
  Sb  Sb97  1  0.49870176  0.16513420  -0.00637766  1
  Sb  Sb98  1  0.67137351  0.66703456  0.34362077  1
  Sb  Sb99  1  -0.00070901  -0.00726823  -0.00648262  1
  Sb  Sb100  1  0.83963783  0.83502676  0.33761718  1
  Sb  Sb101  1  0.32990941  0.83404712  0.16823784  1
  Sb  Sb102  1  0.33133891  0.83740732  0.82789920  1
  Sb  Sb103  1  0.33377588  0.16559939  0.16272162  1
  Sb  Sb104  1  0.50120138  0.83904598  0.66561152  1
  Sb  Sb105  1  -0.00197190  0.16498844  0.82923370  1
  Sb  Sb106  1  0.34072029  0.16653283  0.50941132  1
  Sb  Sb107  1  0.83250031  0.67089112  0.16730808  1
  Te  Te108  1  0.16714921  0.16317306  0.16731814  1
  Te  Te109  1  0.16744551  0.17802651  0.49879882  1
  Te  Te110  1  0.17040424  0.17455316  0.83301517  1
  Te  Te111  1  0.16722233  0.49629508  0.15505034  1
  Te  Te112  1  0.16244232  0.49811334  0.50507045  1
  Te  Te113  1  0.16598107  0.49361829  0.83472541  1
  Te  Te114  1  0.16675642  0.83745179  0.15471939  1
  Te  Te115  1  0.16601258  0.83568904  0.50632019  1
  Te  Te116  1  0.16374837  0.83458603  0.83180934  1
  Te  Te117  1  0.50119243  0.16699601  0.17209915  1
  Te  Te118  1  0.50142000  0.16622048  0.50521678  1
  Te  Te119  1  0.50085903  0.17063662  0.82877673  1
  Te  Te120  1  0.50024538  0.50403413  0.16910645  1
  Te  Te121  1  0.50946682  0.49574736  0.49909902  1
  Te  Te122  1  0.50898992  0.49203497  0.83357594  1
  Te  Te123  1  0.50042272  0.82783149  0.16870666  1
  Te  Te124  1  0.49624841  0.83695188  0.49974543  1
  Te  Te125  1  0.51214370  0.83128814  0.83318373  1
  Te  Te126  1  0.83276005  0.15996791  0.16621992  1
  Te  Te127  1  0.82762409  0.16466469  0.50481147  1
  Te  Te128  1  0.83068513  0.16590767  0.82811167  1
  Te  Te129  1  0.83423377  0.49920362  0.15843428  1
  Te  Te130  1  0.83495827  0.49728037  0.49804378  1
  Te  Te131  1  0.83172915  0.49943563  0.83789397  1
  Te  Te132  1  0.83417407  0.83879929  0.16033595  1
  Te  Te133  1  0.83509325  0.83549963  0.49821119  1
  Te  Te134  1  0.83257806  0.83367260  0.83626332  1
  Te  Te135  1  0.16672363  -0.00209500  0.00070575  1
  Te  Te136  1  0.17019330  -0.00307326  0.33004897  1
  Te  Te137  1  0.16886016  -0.00228465  0.66712111  1
  Te  Te138  1  0.17008395  0.33480415  0.00082569  1
  Te  Te139  1  0.16392110  0.33543313  0.33052023  1
  Te  Te140  1  0.16730704  0.33277407  0.66648985  1
  Te  Te141  1  0.16638662  0.66727049  -0.00169169  1
  Te  Te142  1  0.16215863  0.66692817  0.32965223  1
  Te  Te143  1  0.16715174  0.66936871  0.66772261  1
  Te  Te144  1  0.49445199  -0.00045583  0.00245007  1
  Te  Te145  1  0.49370828  0.00358365  0.33840605  1
  Te  Te146  1  0.49287327  0.00498218  0.66295370  1
  Te  Te147  1  0.49186626  0.33280958  -0.00022863  1
  Te  Te148  1  0.49921844  0.32871341  0.33647373  1
  Te  Te149  1  0.50145703  0.33063366  0.66592102  1
  Te  Te150  1  0.49660903  0.66677859  0.00262695  1
  Te  Te151  1  0.49874581  0.66564224  0.32997910  1
  Te  Te152  1  0.48916708  0.66648906  0.66615321  1
  Te  Te153  1  0.83309044  -0.00298215  -0.00501777  1
  Te  Te154  1  0.83393715  0.00051959  0.32591444  1
  Te  Te155  1  0.83339169  0.00113449  0.66893860  1
  Te  Te156  1  0.83345325  0.33574227  -0.00180104  1
  Te  Te157  1  0.84156887  0.33265567  0.33225230  1
  Te  Te158  1  0.82968188  0.33361629  0.66624212  1
  Te  Te159  1  0.83482500  0.66898717  0.00075468  1
  Te  Te160  1  0.84207753  0.66693079  0.33598076  1
  Te  Te161  1  0.83648150  0.66315452  0.66162893  1
  Te  Te162  1  -0.00145160  0.16683435  -0.00043072  1
  Te  Te163  1  -0.00106728  0.17323834  0.33533343  1
  Te  Te164  1  -0.00470582  0.16999702  0.66726594  1
  Te  Te165  1  0.00154415  0.50639917  -0.00143052  1
  Te  Te166  1  0.00536917  0.50062848  0.33705216  1
  Te  Te167  1  0.00475958  0.49928167  0.66435072  1
  Te  Te168  1  0.00122991  0.82984025  0.00060152  1
  Te  Te169  1  0.00707590  0.82990587  0.33828937  1
  Te  Te170  1  0.00002176  0.83246222  0.66553003  1
  Te  Te171  1  0.33389096  0.16453055  -0.00669370  1
  Te  Te172  1  0.33820163  0.16037547  0.33127961  1
  Te  Te173  1  0.33143816  0.16814753  0.67102630  1
  Te  Te174  1  0.33078635  0.50189737  -0.00084219  1
  Te  Te175  1  0.32403674  0.49989078  0.34064367  1
  Te  Te176  1  0.32997941  0.50009776  0.66443711  1
  Te  Te177  1  0.33016324  0.83094392  -0.00325349  1
  Te  Te178  1  0.32512468  0.83763351  0.33819576  1
  Te  Te179  1  0.33294574  0.83397731  0.66570973  1
  Te  Te180  1  0.66525741  0.15875186  -0.00418824  1
  Te  Te181  1  0.66063468  0.16692375  0.33676336  1
  Te  Te182  1  0.66930947  0.16590893  0.66632653  1
  Te  Te183  1  0.66835965  0.50045520  -0.00195607  1
  Te  Te184  1  0.66648546  0.50056346  0.33702332  1
  Te  Te185  1  0.66598150  0.50758070  0.66472733  1
  Te  Te186  1  0.66822355  0.83790101  -0.00225130  1
  Te  Te187  1  0.66665869  0.83280405  0.34117484  1
  Te  Te188  1  0.66568776  0.82831790  0.66480339  1
  Te  Te189  1  0.00220980  0.00068403  0.16779259  1
  Te  Te190  1  -0.00437791  -0.00102284  0.50412645  1
  Te  Te191  1  -0.00349811  -0.00386062  0.82635129  1
  Te  Te192  1  0.00638653  0.33278908  0.16341932  1
  Te  Te193  1  -0.00195349  0.33318392  0.50653068  1
  Te  Te194  1  -0.00691078  0.33344341  0.82696630  1
  Te  Te195  1  -0.00072260  0.66636450  0.15709484  1
  Te  Te196  1  -0.00223249  0.66660685  0.50570768  1
  Te  Te197  1  -0.00048767  0.67271312  0.83162102  1
  Te  Te198  1  0.33035628  -0.00056757  0.15483939  1
  Te  Te199  1  0.33062644  -0.00068091  0.50631046  1
  Te  Te200  1  0.33414628  0.00340974  0.83204751  1
  Te  Te201  1  0.32774622  0.33283093  0.16375978  1
  Te  Te202  1  0.33766853  0.33515621  0.50445284  1
  Te  Te203  1  0.33473689  0.33315643  0.82956678  1
  Te  Te204  1  0.33632807  0.66709319  0.16327847  1
  Te  Te205  1  0.33568283  0.66603292  0.50298496  1
  Te  Te206  1  0.33471929  0.66690746  0.83328459  1
  Te  Te207  1  0.66766301  -0.00050461  0.16567873  1
  Te  Te208  1  0.66767772  -0.00004081  0.50390061  1
  Te  Te209  1  0.66585358  0.00304010  0.82713555  1
  Te  Te210  1  0.66610939  0.33279922  0.16671951  1
  Te  Te211  1  0.66887102  0.33285422  0.50530822  1
  Te  Te212  1  0.66954183  0.33130459  0.82932530  1
  Te  Te213  1  0.66366838  0.66725512  0.16763751  1
  Te  Te214  1  0.67053789  0.66596243  0.50455898  1
  Te  Te215  1  0.66681116  0.65848849  0.82648596  1
