# generated using pymatgen
data_AgSbTe2
_symmetry_space_group_name_H-M   'P 1'
_cell_length_a   18.35395597
_cell_length_b   18.35132785
_cell_length_c   18.35715402
_cell_angle_alpha   90.00259261
_cell_angle_beta   89.99909515
_cell_angle_gamma   89.99929932
_symmetry_Int_Tables_number   1
_chemical_formula_structural   AgSbTe2
_chemical_formula_sum   'Ag54 Sb54 Te108'
_cell_volume   6183.04675695
_cell_formula_units_Z   54
loop_
 _symmetry_equiv_pos_site_id
 _symmetry_equiv_pos_as_xyz
  1  'x, y, z'
loop_
 _atom_site_type_symbol
 _atom_site_label
 _atom_site_symmetry_multiplicity
 _atom_site_fract_x
 _atom_site_fract_y
 _atom_site_fract_z
 _atom_site_occupancy
  Ag  Ag0  1  0.65943357  0.33424546  0.01582954  1
  Ag  Ag1  1  0.00671196  0.66011796  0.01059928  1
  Ag  Ag2  1  0.17672434  0.66295299  0.83654148  1
  Ag  Ag3  1  0.33538981  0.00043986  0.65979369  1
  Ag  Ag4  1  0.65796958  0.65599394  0.65381061  1
  Ag  Ag5  1  0.50276351  0.49594600  0.00760547  1
  Ag  Ag6  1  0.82155781  0.49678863  0.33168839  1
  Ag  Ag7  1  0.66288718  0.33494611  0.65906603  1
  Ag  Ag8  1  -0.01018466  0.33467731  0.32660829  1
  Ag  Ag9  1  0.00647338  0.00786313  0.01416434  1
  Ag  Ag10  1  0.66321049  0.16947252  0.83130997  1
  Ag  Ag11  1  0.33984051  0.33839405  0.66458297  1
  Ag  Ag12  1  0.00057350  0.84135826  0.17069539  1
  Ag  Ag13  1  0.50955958  0.49867114  0.32847073  1
  Ag  Ag14  1  0.50389887  0.66853489  0.49411375  1
  Ag  Ag15  1  0.50537379  0.17117070  0.32898655  1
  Ag  Ag16  1  -0.00099883  0.33275696  0.01124601  1
  Ag  Ag17  1  0.66379755  0.83175358  0.49409894  1
  Ag  Ag18  1  0.50938837  0.33607235  0.16927991  1
  Ag  Ag19  1  0.34462002  0.33344963  0.32538456  1
  Ag  Ag20  1  0.49804342  0.17821340  0.00834362  1
  Ag  Ag21  1  -0.00053896  0.17119664  0.16681383  1
  Ag  Ag22  1  0.66606874  0.34122700  0.32955606  1
  Ag  Ag23  1  0.65673739  0.00357075  0.33618840  1
  Ag  Ag24  1  0.33509360  0.50239493  0.83516419  1
  Ag  Ag25  1  0.16665740  0.49735995  0.33284092  1
  Ag  Ag26  1  0.50452053  -0.00269938  0.49320239  1
  Ag  Ag27  1  0.50206475  0.65673278  0.17417612  1
  Ag  Ag28  1  0.16386162  0.32927494  0.16844663  1
  Ag  Ag29  1  0.50612685  0.83356191  0.33592307  1
  Ag  Ag30  1  0.33554923  0.65346496  -0.00578446  1
  Ag  Ag31  1  0.66641902  0.49656666  0.49065648  1
  Ag  Ag32  1  0.16215712  0.00662818  0.17149424  1
  Ag  Ag33  1  0.17360748  0.16780357  0.00583415  1
  Ag  Ag34  1  -0.00017498  0.00023971  0.65933358  1
  Ag  Ag35  1  0.82338855  0.82911424  0.33287108  1
  Ag  Ag36  1  0.34019911  0.65940455  0.67198702  1
  Ag  Ag37  1  0.82240233  0.33494739  0.16954205  1
  Ag  Ag38  1  0.66515937  0.17691031  0.17298005  1
  Ag  Ag39  1  0.66363565  0.00549531  0.65241640  1
  Ag  Ag40  1  0.66396577  0.48763916  0.18002714  1
  Ag  Ag41  1  -0.00433204  0.66248265  0.32945779  1
  Ag  Ag42  1  0.00192249  -0.00012179  0.33080876  1
  Ag  Ag43  1  0.66373489  0.17109188  0.49165190  1
  Ag  Ag44  1  0.82666201  0.49887780  0.65651960  1
  Ag  Ag45  1  0.33966889  0.00504400  0.33681209  1
  Ag  Ag46  1  0.17220642  -0.00156769  0.48897105  1
  Ag  Ag47  1  0.65745023  0.65499481  0.33679610  1
  Ag  Ag48  1  0.33013119  0.00637466  0.00690322  1
  Ag  Ag49  1  0.34121393  0.33518551  0.01161692  1
  Ag  Ag50  1  0.82478375  0.49630890  0.00751398  1
  Ag  Ag51  1  0.17256377  0.66876910  0.49779035  1
  Ag  Ag52  1  0.82437420  0.33642973  0.48655835  1
  Ag  Ag53  1  0.49633784  0.66237013  0.83607614  1
  Sb  Sb54  1  0.33838340  0.66297425  0.33261624  1
  Sb  Sb55  1  0.16619870  0.83330864  0.66390917  1
  Sb  Sb56  1  0.33867693  0.16510743  0.49740984  1
  Sb  Sb57  1  0.83086217  0.65875870  0.17094434  1
  Sb  Sb58  1  0.66134583  0.49571711  0.83321497  1
  Sb  Sb59  1  0.50078731  0.33798388  0.84107771  1
  Sb  Sb60  1  0.00094481  0.83323664  0.84019086  1
  Sb  Sb61  1  0.82597493  0.00452700  0.49567738  1
  Sb  Sb62  1  0.16961557  0.16728069  0.32627509  1
  Sb  Sb63  1  0.16581811  0.50072101  0.66173203  1
  Sb  Sb64  1  0.33918056  0.17145349  0.83675670  1
  Sb  Sb65  1  -0.00553275  0.83477998  0.49043106  1
  Sb  Sb66  1  0.33152682  0.83459332  0.16861866  1
  Sb  Sb67  1  0.16919577  -0.00313019  0.83593874  1
  Sb  Sb68  1  0.83119391  0.17368987  0.00455523  1
  Sb  Sb69  1  0.82963422  0.82991710  0.65663881  1
  Sb  Sb70  1  0.82983909  0.33565366  0.83845106  1
  Sb  Sb71  1  0.17016345  0.49530974  0.00827423  1
  Sb  Sb72  1  0.16738720  0.83577123  0.00347932  1
  Sb  Sb73  1  0.50404558  0.50021917  0.66419890  1
  Sb  Sb74  1  0.66242186  0.65833764  0.00380402  1
  Sb  Sb75  1  0.82967219  0.17147780  0.66506945  1
  Sb  Sb76  1  0.83232039  0.00094823  0.83228602  1
  Sb  Sb77  1  0.33936098  0.83417033  0.49818268  1
  Sb  Sb78  1  -0.00697286  0.49230116  0.16872913  1
  Sb  Sb79  1  0.50048246  0.82980804  0.00843428  1
  Sb  Sb80  1  0.66515144  0.01072721  0.00536234  1
  Sb  Sb81  1  0.16556012  0.33243274  0.49096267  1
  Sb  Sb82  1  0.49786678  -0.00180087  0.83053289  1
  Sb  Sb83  1  -0.00596122  0.50098998  0.49451061  1
  Sb  Sb84  1  0.16821231  0.83345749  0.33325507  1
  Sb  Sb85  1  0.49637877  0.00367235  0.17357806  1
  Sb  Sb86  1  0.50280797  0.16775117  0.66397936  1
  Sb  Sb87  1  -0.00314067  0.16582475  0.84166961  1
  Sb  Sb88  1  0.50637552  0.33392812  0.49099439  1
  Sb  Sb89  1  0.33967955  0.50056372  0.49939761  1
  Sb  Sb90  1  0.16805640  0.66313286  0.16845445  1
  Sb  Sb91  1  0.00075364  0.66974280  0.66316244  1
  Sb  Sb92  1  0.34268996  0.49764007  0.16483500  1
  Sb  Sb93  1  -0.00301562  0.33000302  0.66321084  1
  Sb  Sb94  1  0.16875439  0.16512771  0.67075922  1
  Sb  Sb95  1  0.66449522  0.83515593  0.82572318  1
  Sb  Sb96  1  0.66889737  0.83375801  0.17561194  1
  Sb  Sb97  1  0.33436488  0.82688511  0.83336847  1
  Sb  Sb98  1  0.17124236  0.33747016  0.84130557  1
  Sb  Sb99  1  0.83528935  0.82809837  0.01113851  1
  Sb  Sb100  1  0.82984638  0.66316796  0.83411294  1
  Sb  Sb101  1  0.82412024  0.17314612  0.33201067  1
  Sb  Sb102  1  0.33624442  0.16962869  0.16625150  1
  Sb  Sb103  1  0.82506998  0.66059761  0.49502822  1
  Sb  Sb104  1  0.00467595  0.50051382  0.83641512  1
  Sb  Sb105  1  0.83868039  0.00526700  0.17088512  1
  Sb  Sb106  1  0.50060928  0.83071235  0.65951872  1
  Sb  Sb107  1  -0.00394477  0.16430898  0.48960411  1
  Te  Te108  1  0.16288644  0.16617409  0.16321256  1
  Te  Te109  1  0.16522655  0.15875891  0.50188662  1
  Te  Te110  1  0.16588945  0.16608959  0.84334514  1
  Te  Te111  1  0.16686404  0.49620450  0.17357252  1
  Te  Te112  1  0.16681737  0.50239229  0.49507640  1
  Te  Te113  1  0.17230293  0.50480774  0.83067058  1
  Te  Te114  1  0.16054050  0.83943247  0.16752740  1
  Te  Te115  1  0.16519853  0.83678532  0.49958626  1
  Te  Te116  1  0.16665680  0.82143306  0.83303518  1
  Te  Te117  1  0.50281276  0.16862881  0.16747076  1
  Te  Te118  1  0.50475973  0.16075118  0.49609542  1
  Te  Te119  1  0.50530155  0.16587741  0.84107970  1
  Te  Te120  1  0.50344182  0.49768761  0.16692758  1
  Te  Te121  1  0.50512700  0.50401066  0.49648197  1
  Te  Te122  1  0.49506560  0.50417526  0.83611580  1
  Te  Te123  1  0.50083575  0.82993180  0.17497439  1
  Te  Te124  1  0.50499508  0.83351198  0.49453613  1
  Te  Te125  1  0.50106422  0.82436487  0.83467384  1
  Te  Te126  1  0.83349342  0.17394080  0.16708978  1
  Te  Te127  1  0.82655502  0.17560957  0.49989128  1
  Te  Te128  1  0.82334492  0.16748490  0.83398183  1
  Te  Te129  1  0.82701533  0.49525688  0.16773434  1
  Te  Te130  1  0.82838414  0.49573773  0.49681711  1
  Te  Te131  1  0.83458176  0.50056924  0.83966613  1
  Te  Te132  1  0.83947639  0.83216820  0.17509407  1
  Te  Te133  1  0.82627761  0.83326839  0.49116940  1
  Te  Te134  1  0.83267755  0.83223237  0.83336344  1
  Te  Te135  1  0.16579030  0.00232056  0.00054907  1
  Te  Te136  1  0.16608074  0.00067734  0.33155274  1
  Te  Te137  1  0.16999298  0.00014520  0.66748894  1
  Te  Te138  1  0.16614940  0.33014605  0.00421769  1
  Te  Te139  1  0.16692232  0.33394968  0.33081905  1
  Te  Te140  1  0.16768769  0.33306154  0.66591745  1
  Te  Te141  1  0.16849553  0.66546987  0.00062367  1
  Te  Te142  1  0.17072586  0.66452166  0.33622642  1
  Te  Te143  1  0.17024505  0.66623630  0.66163173  1
  Te  Te144  1  0.49612526  -0.00064407  -0.00005868  1
  Te  Te145  1  0.49790667  0.00282500  0.33416842  1
  Te  Te146  1  0.50085856  -0.00039600  0.66315059  1
  Te  Te147  1  0.49959276  0.33549893  0.00284683  1
  Te  Te148  1  0.50279833  0.33424882  0.33185936  1
  Te  Te149  1  0.49955896  0.33322700  0.66742089  1
  Te  Te150  1  0.49703893  0.66457579  0.00166063  1
  Te  Te151  1  0.49869938  0.66209722  0.33425248  1
  Te  Te152  1  0.49956957  0.66619059  0.66187037  1
  Te  Te153  1  0.83995055  -0.00228509  0.00008460  1
  Te  Te154  1  0.84322559  -0.00372666  0.33405570  1
  Te  Te155  1  0.83094128  -0.00128260  0.66464154  1
  Te  Te156  1  0.83584882  0.33790715  0.00388099  1
  Te  Te157  1  0.83058554  0.33490842  0.32972003  1
  Te  Te158  1  0.83240644  0.33877355  0.66774764  1
  Te  Te159  1  0.83713484  0.65971415  0.00138763  1
  Te  Te160  1  0.83753177  0.66249276  0.33353905  1
  Te  Te161  1  0.82995265  0.66151971  0.66614174  1
  Te  Te162  1  -0.00117409  0.16719172  0.00391863  1
  Te  Te163  1  0.00113003  0.16840100  0.32767963  1
  Te  Te164  1  -0.00013512  0.16113403  0.66844298  1
  Te  Te165  1  0.00167699  0.50070162  0.00005388  1
  Te  Te166  1  0.00350465  0.49951803  0.33345445  1
  Te  Te167  1  -0.00839609  0.49958054  0.66732146  1
  Te  Te168  1  -0.00000679  0.83230994  0.00708603  1
  Te  Te169  1  0.00213385  0.83234233  0.32901853  1
  Te  Te170  1  -0.00299371  0.83960701  0.66682502  1
  Te  Te171  1  0.33540108  0.16907569  -0.00040133  1
  Te  Te172  1  0.33933284  0.16862852  0.33346190  1
  Te  Te173  1  0.33463323  0.16529152  0.66838287  1
  Te  Te174  1  0.33485662  0.49592476  -0.00214162  1
  Te  Te175  1  0.33070292  0.49477396  0.33399836  1
  Te  Te176  1  0.33314567  0.50057795  0.66895323  1
  Te  Te177  1  0.33435472  0.84389880  0.00024749  1
  Te  Te178  1  0.34033157  0.84108659  0.33264881  1
  Te  Te179  1  0.33351466  0.83882468  0.66643589  1
  Te  Te180  1  0.66343616  0.17208475  0.00541890  1
  Te  Te181  1  0.66495347  0.16456664  0.33267553  1
  Te  Te182  1  0.66611237  0.16583973  0.66451230  1
  Te  Te183  1  0.66507599  0.49530526  -0.00150132  1
  Te  Te184  1  0.66661824  0.50091883  0.33423212  1
  Te  Te185  1  0.66861863  0.49961352  0.66739863  1
  Te  Te186  1  0.66921438  0.83505645  -0.00173450  1
  Te  Te187  1  0.66601087  0.83870880  0.33496732  1
  Te  Te188  1  0.66732294  0.83805371  0.65870781  1
  Te  Te189  1  0.00033403  0.00378458  0.16969400  1
  Te  Te190  1  0.00275092  0.00055724  0.49856775  1
  Te  Te191  1  0.00032003  -0.00043696  0.82826483  1
  Te  Te192  1  0.00448753  0.33247296  0.16783410  1
  Te  Te193  1  -0.00431930  0.33245288  0.49435736  1
  Te  Te194  1  0.00167857  0.33195364  0.83789312  1
  Te  Te195  1  0.00158174  0.66581158  0.16870484  1
  Te  Te196  1  0.00774014  0.66820154  0.49608098  1
  Te  Te197  1  0.00290710  0.66828538  0.83407036  1
  Te  Te198  1  0.32793129  0.00083693  0.16581803  1
  Te  Te199  1  0.33348140  -0.00013674  0.49875232  1
  Te  Te200  1  0.33343978  0.00015345  0.82995436  1
  Te  Te201  1  0.32701496  0.33373421  0.16793832  1
  Te  Te202  1  0.33293446  0.33258265  0.50464859  1
  Te  Te203  1  0.33458685  0.33833924  0.82625964  1
  Te  Te204  1  0.33696202  0.66818162  0.15974795  1
  Te  Te205  1  0.33463240  0.66747638  0.50295256  1
  Te  Te206  1  0.33584894  0.66462414  0.83336680  1
  Te  Te207  1  0.66764159  0.00258449  0.17266038  1
  Te  Te208  1  0.66576930  0.00301194  0.49620729  1
  Te  Te209  1  0.66540285  0.00514942  0.83301311  1
  Te  Te210  1  0.66460991  0.33268267  0.16949963  1
  Te  Te211  1  0.66527223  0.33459732  0.49930310  1
  Te  Te212  1  0.66584881  0.32906561  0.81971355  1
  Te  Te213  1  0.66273817  0.66660601  0.17136412  1
  Te  Te214  1  0.66503779  0.66400144  0.49714350  1
  Te  Te215  1  0.66164340  0.66724022  0.83175460  1
