# generated using pymatgen
data_AgSbTe2
_symmetry_space_group_name_H-M   'P 1'
_cell_length_a   18.29937547
_cell_length_b   18.29781679
_cell_length_c   18.30113497
_cell_angle_alpha   89.99801742
_cell_angle_beta   89.99986171
_cell_angle_gamma   90.00081747
_symmetry_Int_Tables_number   1
_chemical_formula_structural   AgSbTe2
_chemical_formula_sum   'Ag54 Sb54 Te108'
_cell_volume   6127.92676896
_cell_formula_units_Z   54
loop_
 _symmetry_equiv_pos_site_id
 _symmetry_equiv_pos_as_xyz
  1  'x, y, z'
loop_
 _atom_site_type_symbol
 _atom_site_label
 _atom_site_symmetry_multiplicity
 _atom_site_fract_x
 _atom_site_fract_y
 _atom_site_fract_z
 _atom_site_occupancy
  Ag  Ag0  1  0.49746378  0.33600775  0.16927052  1
  Ag  Ag1  1  0.17275252  0.82607142  0.66560994  1
  Ag  Ag2  1  -0.00057824  0.16751020  0.49941946  1
  Ag  Ag3  1  0.66332159  0.66964456  0.67325700  1
  Ag  Ag4  1  0.66768634  -0.00335127  0.33805160  1
  Ag  Ag5  1  0.33053261  0.67401280  0.66298496  1
  Ag  Ag6  1  0.33475388  0.67328194  0.33747472  1
  Ag  Ag7  1  0.33579111  0.49603492  0.16665780  1
  Ag  Ag8  1  0.16569397  0.83291041  0.33835208  1
  Ag  Ag9  1  -0.00060694  0.32692529  0.32863539  1
  Ag  Ag10  1  0.49395423  0.83299180  0.66757487  1
  Ag  Ag11  1  0.33469140  0.83478418  0.50362378  1
  Ag  Ag12  1  0.83900019  0.49865191  0.67075944  1
  Ag  Ag13  1  0.16290788  0.50658108  0.67125306  1
  Ag  Ag14  1  0.83526618  -0.00009654  0.82826292  1
  Ag  Ag15  1  0.33390166  0.00063192  -0.00146893  1
  Ag  Ag16  1  0.33286468  0.17074764  0.16315669  1
  Ag  Ag17  1  0.33127007  0.16640972  0.83604761  1
  Ag  Ag18  1  0.49568746  0.32580397  0.49390316  1
  Ag  Ag19  1  0.15827065  0.33650025  0.83349620  1
  Ag  Ag20  1  0.66321182  0.66665916  -0.00940671  1
  Ag  Ag21  1  -0.00127168  0.00131771  0.33499314  1
  Ag  Ag22  1  0.00021454  0.33240060  -0.00330194  1
  Ag  Ag23  1  0.49656176  0.16855287  0.33814371  1
  Ag  Ag24  1  -0.00072445  0.83577084  0.16386263  1
  Ag  Ag25  1  0.33487920  -0.00497948  0.33746963  1
  Ag  Ag26  1  0.16830960  0.33703391  0.50401295  1
  Ag  Ag27  1  0.33153616  0.33020310  0.00229929  1
  Ag  Ag28  1  0.83855803  0.83658370  0.33231714  1
  Ag  Ag29  1  0.83011189  -0.00120778  0.50102977  1
  Ag  Ag30  1  0.66818349  0.82711707  0.83093850  1
  Ag  Ag31  1  0.16679654  0.49963243  -0.00761348  1
  Ag  Ag32  1  0.83547105  0.83412933  -0.00409367  1
  Ag  Ag33  1  0.49972552  0.16066764  0.66152524  1
  Ag  Ag34  1  0.66863060  0.33895935  -0.00175559  1
  Ag  Ag35  1  -0.00287068  0.49571918  0.83133634  1
  Ag  Ag36  1  0.49908872  0.83057069  -0.00611064  1
  Ag  Ag37  1  0.83233059  0.49992695  0.33597436  1
  Ag  Ag38  1  0.83592873  0.33360486  0.16046146  1
  Ag  Ag39  1  0.33637390  -0.00625826  0.66421438  1
  Ag  Ag40  1  0.16587656  0.82840326  -0.00512935  1
  Ag  Ag41  1  0.16884393  0.66858140  0.50537018  1
  Ag  Ag42  1  -0.00374800  0.83299490  0.83612814  1
  Ag  Ag43  1  0.50363315  0.66938386  0.83337220  1
  Ag  Ag44  1  0.49991577  0.00047873  0.49923208  1
  Ag  Ag45  1  0.50104889  0.49577419  0.33142416  1
  Ag  Ag46  1  0.49759070  0.66496059  0.16463635  1
  Ag  Ag47  1  -0.00105623  0.17351074  0.83184954  1
  Ag  Ag48  1  0.83460376  0.16767491  0.66939474  1
  Ag  Ag49  1  0.00189937  0.16948031  0.16979704  1
  Ag  Ag50  1  0.66138385  0.83502665  0.50440112  1
  Ag  Ag51  1  0.84019886  0.33199932  0.83794624  1
  Ag  Ag52  1  0.67128636  0.50774917  0.83336170  1
  Ag  Ag53  1  0.00439946  0.66766238  0.66905643  1
  Sb  Sb54  1  0.66208241  0.67082493  0.33500584  1
  Sb  Sb55  1  0.00168292  -0.00269938  0.66461503  1
  Sb  Sb56  1  0.66317548  -0.00706720  0.66284349  1
  Sb  Sb57  1  0.00217066  0.83766331  0.50106053  1
  Sb  Sb58  1  0.33651013  0.66829075  -0.00155152  1
  Sb  Sb59  1  0.83562917  0.49949762  -0.00382505  1
  Sb  Sb60  1  0.49859800  0.50395626  0.66368742  1
  Sb  Sb61  1  0.16836900  -0.00220418  0.50006693  1
  Sb  Sb62  1  0.33227730  0.33263204  0.66963472  1
  Sb  Sb63  1  0.50060374  0.33519446  0.83549054  1
  Sb  Sb64  1  0.83694996  0.67199890  0.50200356  1
  Sb  Sb65  1  0.16781968  0.16940456  -0.00194563  1
  Sb  Sb66  1  0.83560325  0.00255405  0.16808136  1
  Sb  Sb67  1  0.66958081  0.83194594  0.16476947  1
  Sb  Sb68  1  0.66579578  0.16861145  0.16786534  1
  Sb  Sb69  1  0.33280584  0.83717352  0.82843119  1
  Sb  Sb70  1  -0.00243094  0.66697965  -0.00632919  1
  Sb  Sb71  1  0.33222999  0.33187154  0.32975943  1
  Sb  Sb72  1  0.49718860  0.50323134  0.00351967  1
  Sb  Sb73  1  0.17174619  0.66812144  0.16911021  1
  Sb  Sb74  1  0.00069502  0.49477536  0.50527533  1
  Sb  Sb75  1  0.66621345  0.50556392  0.50434599  1
  Sb  Sb76  1  0.33170382  0.49658074  0.83605168  1
  Sb  Sb77  1  0.16644536  0.16670670  0.66739910  1
  Sb  Sb78  1  0.16754457  -0.00199310  0.16718199  1
  Sb  Sb79  1  0.66693348  0.33866824  0.67082363  1
  Sb  Sb80  1  0.82821468  0.66654934  0.83154916  1
  Sb  Sb81  1  0.83289863  0.83345937  0.66852547  1
  Sb  Sb82  1  0.49669829  0.16458055  -0.00014218  1
  Sb  Sb83  1  0.49827723  0.83476817  0.33602768  1
  Sb  Sb84  1  0.66747905  0.33183017  0.33067245  1
  Sb  Sb85  1  0.33087536  0.83413505  0.16921225  1
  Sb  Sb86  1  0.33324366  0.50479447  0.49733617  1
  Sb  Sb87  1  0.00273451  0.49833400  0.16292601  1
  Sb  Sb88  1  0.00440813  0.66918282  0.33729072  1
  Sb  Sb89  1  0.50128029  -0.00420412  0.82786958  1
  Sb  Sb90  1  0.00419910  0.00089140  0.00156232  1
  Sb  Sb91  1  0.83555786  0.16616860  -0.00456065  1
  Sb  Sb92  1  0.16985687  0.66380545  0.82701682  1
  Sb  Sb93  1  0.16803060  0.16283709  0.33458032  1
  Sb  Sb94  1  0.66672668  0.16121230  0.50036597  1
  Sb  Sb95  1  0.16689202  0.33407653  0.16364772  1
  Sb  Sb96  1  0.66851887  0.16558451  0.83112827  1
  Sb  Sb97  1  0.49716088  0.00047448  0.17264875  1
  Sb  Sb98  1  0.16706342  0.50279358  0.33496487  1
  Sb  Sb99  1  0.66262404  0.49929717  0.16217369  1
  Sb  Sb100  1  0.83015274  0.66383667  0.16671213  1
  Sb  Sb101  1  0.00064728  0.33590748  0.67167179  1
  Sb  Sb102  1  0.83457073  0.32890431  0.50098573  1
  Sb  Sb103  1  0.83490450  0.16423435  0.33673627  1
  Sb  Sb104  1  0.33303789  0.16169689  0.50034158  1
  Sb  Sb105  1  0.16395200  0.00068785  0.83253210  1
  Sb  Sb106  1  0.66358123  -0.00328071  0.00071027  1
  Sb  Sb107  1  0.49540899  0.67164748  0.50127737  1
  Te  Te108  1  0.16532244  0.16632779  0.16614102  1
  Te  Te109  1  0.16070818  0.17302536  0.50164697  1
  Te  Te110  1  0.16475628  0.17229412  0.83187572  1
  Te  Te111  1  0.17278180  0.50187099  0.16231265  1
  Te  Te112  1  0.16666394  0.49838875  0.50436044  1
  Te  Te113  1  0.16499469  0.49756061  0.83266136  1
  Te  Te114  1  0.16043466  0.83179719  0.16702040  1
  Te  Te115  1  0.16920743  0.83141951  0.50116790  1
  Te  Te116  1  0.16289206  0.83267386  0.83236708  1
  Te  Te117  1  0.49740039  0.16993528  0.16882189  1
  Te  Te118  1  0.49952744  0.16505508  0.50062493  1
  Te  Te119  1  0.49707117  0.16611929  0.82803128  1
  Te  Te120  1  0.49684794  0.49755347  0.16976898  1
  Te  Te121  1  0.50074025  0.49405457  0.49405722  1
  Te  Te122  1  0.50392384  0.50422663  0.83280720  1
  Te  Te123  1  0.50015042  0.82984600  0.16297349  1
  Te  Te124  1  0.49867846  0.83712265  0.50257608  1
  Te  Te125  1  0.50105668  0.83174992  0.83136325  1
  Te  Te126  1  0.83836989  0.17298595  0.16689018  1
  Te  Te127  1  0.83677753  0.16124175  0.50502729  1
  Te  Te128  1  0.83500504  0.16815266  0.82935571  1
  Te  Te129  1  0.83390686  0.49430290  0.17043688  1
  Te  Te130  1  0.83262234  0.49933795  0.49935988  1
  Te  Te131  1  0.83475900  0.49717969  0.83159684  1
  Te  Te132  1  0.83802718  0.83254980  0.16930147  1
  Te  Te133  1  0.83217483  0.83905826  0.49721977  1
  Te  Te134  1  0.83504048  0.83416443  0.83413185  1
  Te  Te135  1  0.17318997  -0.00903131  -0.00130659  1
  Te  Te136  1  0.16733540  -0.00669976  0.33410185  1
  Te  Te137  1  0.17426609  -0.00746825  0.66704228  1
  Te  Te138  1  0.16702677  0.33562508  -0.00305668  1
  Te  Te139  1  0.16119977  0.33467400  0.33795022  1
  Te  Te140  1  0.16747435  0.33809694  0.66690391  1
  Te  Te141  1  0.16722738  0.66827742  -0.00095967  1
  Te  Te142  1  0.17238738  0.67101257  0.33896589  1
  Te  Te143  1  0.16874236  0.66683145  0.66615397  1
  Te  Te144  1  0.49529163  -0.00598988  -0.00001367  1
  Te  Te145  1  0.49624027  0.00182760  0.33810462  1
  Te  Te146  1  0.49718488  -0.00157092  0.66185843  1
  Te  Te147  1  0.49739591  0.33287312  0.00391460  1
  Te  Te148  1  0.49970572  0.33256569  0.33139332  1
  Te  Te149  1  0.49954369  0.33144493  0.66308897  1
  Te  Te150  1  0.50221412  0.66979072  -0.00031024  1
  Te  Te151  1  0.49531911  0.66332974  0.33148873  1
  Te  Te152  1  0.49981693  0.66911315  0.66709322  1
  Te  Te153  1  0.83259985  -0.00605703  -0.00291460  1
  Te  Te154  1  0.83575392  -0.00230749  0.33479266  1
  Te  Te155  1  0.83316981  0.00307950  0.66601307  1
  Te  Te156  1  0.83594550  0.33296249  -0.00101632  1
  Te  Te157  1  0.83591054  0.33426223  0.33274464  1
  Te  Te158  1  0.83296184  0.33368106  0.67052341  1
  Te  Te159  1  0.82707104  0.67316924  0.00201761  1
  Te  Te160  1  0.83233325  0.66697625  0.33377827  1
  Te  Te161  1  0.83425651  0.66105588  0.66542463  1
  Te  Te162  1  0.00120707  0.16952113  -0.00135654  1
  Te  Te163  1  0.00082384  0.16598665  0.33151871  1
  Te  Te164  1  -0.00207836  0.16545728  0.66971872  1
  Te  Te165  1  0.00423691  0.49732165  -0.00526601  1
  Te  Te166  1  -0.00383095  0.49932373  0.33248778  1
  Te  Te167  1  0.00008050  0.50334148  0.67077747  1
  Te  Te168  1  -0.00005633  0.83376453  -0.00214650  1
  Te  Te169  1  -0.00004021  0.83431794  0.33310495  1
  Te  Te170  1  0.00252938  0.82951942  0.67025065  1
  Te  Te171  1  0.33280101  0.16603044  0.00032865  1
  Te  Te172  1  0.33602344  0.16214897  0.33051173  1
  Te  Te173  1  0.33526147  0.16354430  0.66950583  1
  Te  Te174  1  0.32855607  0.49768090  0.00373489  1
  Te  Te175  1  0.33526702  0.50267928  0.32905756  1
  Te  Te176  1  0.32855738  0.50510245  0.66656733  1
  Te  Te177  1  0.33257543  0.83638438  0.00028343  1
  Te  Te178  1  0.33063748  0.83426989  0.33476369  1
  Te  Te179  1  0.33430341  0.83362915  0.66630812  1
  Te  Te180  1  0.66594049  0.17128366  -0.00029433  1
  Te  Te181  1  0.65979727  0.16085784  0.33391789  1
  Te  Te182  1  0.66572332  0.16668216  0.66613263  1
  Te  Te183  1  0.66710223  0.50053139  -0.00543260  1
  Te  Te184  1  0.66774033  0.50109131  0.33428924  1
  Te  Te185  1  0.66874689  0.50678682  0.67202192  1
  Te  Te186  1  0.66584255  0.83260932  -0.00300651  1
  Te  Te187  1  0.66998623  0.83622535  0.33624431  1
  Te  Te188  1  0.66546929  0.82946811  0.66819668  1
  Te  Te189  1  0.00003416  0.00077944  0.17182454  1
  Te  Te190  1  -0.00149895  0.00565143  0.49631525  1
  Te  Te191  1  -0.00445788  -0.00056394  0.83340921  1
  Te  Te192  1  -0.00029553  0.33293812  0.16601293  1
  Te  Te193  1  0.00137107  0.32833486  0.49632736  1
  Te  Te194  1  -0.00011989  0.33295303  0.83482653  1
  Te  Te195  1  -0.00061928  0.67152975  0.16676627  1
  Te  Te196  1  0.00603602  0.66549505  0.50625916  1
  Te  Te197  1  -0.00023348  0.66722272  0.82898457  1
  Te  Te198  1  0.33384177  0.00567953  0.16708508  1
  Te  Te199  1  0.33496505  -0.00363820  0.49931869  1
  Te  Te200  1  0.33357770  0.00571062  0.83387233  1
  Te  Te201  1  0.33449363  0.33146369  0.16388038  1
  Te  Te202  1  0.33356066  0.33255857  0.49954115  1
  Te  Te203  1  0.33260508  0.32857289  0.83830083  1
  Te  Te204  1  0.33845213  0.66443114  0.16915207  1
  Te  Te205  1  0.32994751  0.67105839  0.50042843  1
  Te  Te206  1  0.34144341  0.66561003  0.82919031  1
  Te  Te207  1  0.66654648  0.00040545  0.17500444  1
  Te  Te208  1  0.66650025  -0.00476429  0.49697637  1
  Te  Te209  1  0.67356853  -0.00550320  0.83351107  1
  Te  Te210  1  0.66706887  0.33388138  0.16066687  1
  Te  Te211  1  0.66071340  0.33478331  0.50034704  1
  Te  Te212  1  0.66907588  0.33528084  0.83837210  1
  Te  Te213  1  0.65892251  0.66536210  0.16303012  1
  Te  Te214  1  0.66704025  0.67449913  0.50454034  1
  Te  Te215  1  0.66438636  0.66856339  0.83356957  1
