# generated using pymatgen
data_AgSbTe2
_symmetry_space_group_name_H-M   'P 1'
_cell_length_a   18.32280382
_cell_length_b   18.32495170
_cell_length_c   18.32284310
_cell_angle_alpha   89.99785363
_cell_angle_beta   89.99965973
_cell_angle_gamma   90.00194237
_symmetry_Int_Tables_number   1
_chemical_formula_structural   AgSbTe2
_chemical_formula_sum   'Ag54 Sb54 Te108'
_cell_volume   6152.16015284
_cell_formula_units_Z   54
loop_
 _symmetry_equiv_pos_site_id
 _symmetry_equiv_pos_as_xyz
  1  'x, y, z'
loop_
 _atom_site_type_symbol
 _atom_site_label
 _atom_site_symmetry_multiplicity
 _atom_site_fract_x
 _atom_site_fract_y
 _atom_site_fract_z
 _atom_site_occupancy
  Ag  Ag0  1  0.50033682  0.49615334  -0.00102984  1
  Ag  Ag1  1  0.16366024  0.50300443  0.66235236  1
  Ag  Ag2  1  0.16932902  0.49573461  0.33460356  1
  Ag  Ag3  1  0.50013323  0.32255602  0.83722366  1
  Ag  Ag4  1  0.84113807  0.49595146  0.33252281  1
  Ag  Ag5  1  0.83612942  0.16870956  0.32171272  1
  Ag  Ag6  1  0.33034471  0.83968541  0.17179475  1
  Ag  Ag7  1  0.33483845  0.15615145  0.49874229  1
  Ag  Ag8  1  0.32878962  0.84473297  0.49194061  1
  Ag  Ag9  1  0.65846623  0.16426457  0.50437737  1
  Ag  Ag10  1  0.33115247  0.67165804  0.33002753  1
  Ag  Ag11  1  0.17115659  0.16715839  0.33168549  1
  Ag  Ag12  1  0.16773900  0.83253267  0.67163785  1
  Ag  Ag13  1  0.66055701  0.16200516  0.83815957  1
  Ag  Ag14  1  0.33905766  0.00010737  0.00072637  1
  Ag  Ag15  1  0.82716406  0.16557618  0.00285050  1
  Ag  Ag16  1  0.33065869  -0.00076035  0.65528654  1
  Ag  Ag17  1  0.49552809  0.00259620  0.84095602  1
  Ag  Ag18  1  0.83529101  0.00466080  0.16118575  1
  Ag  Ag19  1  0.01041060  0.83299612  0.49537820  1
  Ag  Ag20  1  -0.00419506  0.33253656  0.00086732  1
  Ag  Ag21  1  0.00697862  0.50105534  0.49571932  1
  Ag  Ag22  1  0.33198489  0.33078179  0.33251690  1
  Ag  Ag23  1  0.66458785  0.67587001  -0.00556953  1
  Ag  Ag24  1  0.48794747  0.00076823  0.49851173  1
  Ag  Ag25  1  0.66756098  0.32239098  -0.00392336  1
  Ag  Ag26  1  0.50534070  0.67087636  0.83681246  1
  Ag  Ag27  1  0.33330569  -0.00225772  0.34166625  1
  Ag  Ag28  1  0.17411421  -0.00619941  0.16501385  1
  Ag  Ag29  1  0.50570753  0.16331711  -0.00245572  1
  Ag  Ag30  1  0.82027071  0.66996391  0.83364359  1
  Ag  Ag31  1  0.32415116  0.50582319  0.17295798  1
  Ag  Ag32  1  0.49131847  -0.00217825  0.16002234  1
  Ag  Ag33  1  0.66420391  0.83537911  0.83823611  1
  Ag  Ag34  1  0.16981414  0.67657084  0.16425087  1
  Ag  Ag35  1  0.66768899  0.66466969  0.67749162  1
  Ag  Ag36  1  0.66004010  0.00216431  -0.00195237  1
  Ag  Ag37  1  0.83590804  0.32392832  0.16377204  1
  Ag  Ag38  1  0.83976500  0.49797750  0.66479819  1
  Ag  Ag39  1  0.67059332  0.33571818  0.67825210  1
  Ag  Ag40  1  0.49406955  0.83734850  0.33017642  1
  Ag  Ag41  1  0.82097415  -0.00000614  0.84080275  1
  Ag  Ag42  1  0.17558407  -0.00398439  0.49651418  1
  Ag  Ag43  1  0.33795724  0.16051347  0.83243155  1
  Ag  Ag44  1  0.17800729  -0.00162146  0.83637058  1
  Ag  Ag45  1  0.17067578  0.32972018  0.83264061  1
  Ag  Ag46  1  -0.00165047  0.33726490  0.67146462  1
  Ag  Ag47  1  -0.00385912  0.16577385  0.16630581  1
  Ag  Ag48  1  0.66162473  0.83686628  0.15589574  1
  Ag  Ag49  1  0.00466748  0.49558670  0.17207146  1
  Ag  Ag50  1  0.01234544  0.83859850  0.16867403  1
  Ag  Ag51  1  0.16994452  0.67321532  0.83672855  1
  Ag  Ag52  1  0.32689319  0.49952769  0.49154861  1
  Ag  Ag53  1  0.16740739  0.83670518  0.00280718  1
  Sb  Sb54  1  0.66755040  0.50398702  0.16453787  1
  Sb  Sb55  1  0.66595005  0.49477062  0.50221007  1
  Sb  Sb56  1  0.00762505  0.66476944  0.33123200  1
  Sb  Sb57  1  0.16778389  0.33356257  0.50303619  1
  Sb  Sb58  1  0.66283134  0.84066611  0.50305468  1
  Sb  Sb59  1  0.49475261  0.67280138  0.16061818  1
  Sb  Sb60  1  0.33678160  0.67228686  0.00251702  1
  Sb  Sb61  1  0.33254203  0.33060115  0.66549769  1
  Sb  Sb62  1  0.32869381  0.16033681  0.16837282  1
  Sb  Sb63  1  0.33257156  0.49743120  0.83518067  1
  Sb  Sb64  1  0.83066888  0.17014520  0.67053507  1
  Sb  Sb65  1  0.83376552  0.83925126  0.00032141  1
  Sb  Sb66  1  0.66572841  0.50138500  0.83455105  1
  Sb  Sb67  1  0.49754325  0.50029153  0.67042902  1
  Sb  Sb68  1  0.83497725  0.00217044  0.49789974  1
  Sb  Sb69  1  0.33475718  0.84129809  0.83486982  1
  Sb  Sb70  1  0.49811590  0.32629579  0.50515845  1
  Sb  Sb71  1  0.33374124  0.67010335  0.66531286  1
  Sb  Sb72  1  0.83001753  0.49563201  0.00053639  1
  Sb  Sb73  1  0.83805781  0.83044969  0.66909619  1
  Sb  Sb74  1  0.00851857  0.00048175  0.32944723  1
  Sb  Sb75  1  -0.00203561  0.66301576  0.00072197  1
  Sb  Sb76  1  0.00459347  0.16790129  0.49461261  1
  Sb  Sb77  1  0.00040299  0.16693224  0.83862136  1
  Sb  Sb78  1  0.83711468  0.66815786  0.16257760  1
  Sb  Sb79  1  0.16705303  0.16106977  0.00256447  1
  Sb  Sb80  1  0.49461619  0.83545273  0.66664719  1
  Sb  Sb81  1  0.00621969  0.00264798  0.66708584  1
  Sb  Sb82  1  0.82948420  0.33204174  0.83757833  1
  Sb  Sb83  1  0.49676556  0.67125316  0.50372697  1
  Sb  Sb84  1  0.50256309  0.32841695  0.16042583  1
  Sb  Sb85  1  0.00129362  0.49840272  0.83329035  1
  Sb  Sb86  1  0.17423442  0.83557886  0.33125114  1
  Sb  Sb87  1  0.16367257  0.33146379  0.16337340  1
  Sb  Sb88  1  0.49853907  0.83941455  0.00255903  1
  Sb  Sb89  1  0.67178107  0.16027825  0.16007341  1
  Sb  Sb90  1  0.16791788  0.16542603  0.66526440  1
  Sb  Sb91  1  0.66452785  0.33008884  0.32985227  1
  Sb  Sb92  1  -0.00007953  0.00352476  0.00332635  1
  Sb  Sb93  1  0.00213300  0.83479411  0.83566130  1
  Sb  Sb94  1  -0.00068288  0.66194480  0.66745883  1
  Sb  Sb95  1  0.16881675  0.66918726  0.49712906  1
  Sb  Sb96  1  0.49670596  0.16127915  0.32907349  1
  Sb  Sb97  1  0.83097820  0.83589731  0.32983542  1
  Sb  Sb98  1  0.00386166  0.33497312  0.33064267  1
  Sb  Sb99  1  0.49160955  0.50417712  0.32791651  1
  Sb  Sb100  1  0.33402477  0.32838875  0.00241259  1
  Sb  Sb101  1  0.16993357  0.50250908  0.00221066  1
  Sb  Sb102  1  0.66215038  0.66727452  0.33075855  1
  Sb  Sb103  1  0.66128776  0.00020187  0.67571501  1
  Sb  Sb104  1  0.83355312  0.33274323  0.49662058  1
  Sb  Sb105  1  0.83294809  0.66479407  0.50327897  1
  Sb  Sb106  1  0.49979703  0.16516049  0.67581354  1
  Sb  Sb107  1  0.66144471  0.00112415  0.32497363  1
  Te  Te108  1  0.16085763  0.16348193  0.17054317  1
  Te  Te109  1  0.17086230  0.16323932  0.49501630  1
  Te  Te110  1  0.16949948  0.16414162  0.83370764  1
  Te  Te111  1  0.16600024  0.49776177  0.16779323  1
  Te  Te112  1  0.16612001  0.50038340  0.49967081  1
  Te  Te113  1  0.16759082  0.49972057  0.83082531  1
  Te  Te114  1  0.16885973  0.83379049  0.16792760  1
  Te  Te115  1  0.16798463  0.83482465  0.49872877  1
  Te  Te116  1  0.16785528  0.83627842  0.83277993  1
  Te  Te117  1  0.50107946  0.16004723  0.16057694  1
  Te  Te118  1  0.49706804  0.16151855  0.49762207  1
  Te  Te119  1  0.49955541  0.16364938  0.83705561  1
  Te  Te120  1  0.49725284  0.49986929  0.16115934  1
  Te  Te121  1  0.49474133  0.49921932  0.49925916  1
  Te  Te122  1  0.49793380  0.50300744  0.83735498  1
  Te  Te123  1  0.49838736  0.83740240  0.16841612  1
  Te  Te124  1  0.49503764  0.83858721  0.49664076  1
  Te  Te125  1  0.50292831  0.83530372  0.83371522  1
  Te  Te126  1  0.83345141  0.16522718  0.16481671  1
  Te  Te127  1  0.83406530  0.16558431  0.49690300  1
  Te  Te128  1  0.83057213  0.16318942  0.83782743  1
  Te  Te129  1  0.83694999  0.50134344  0.16959580  1
  Te  Te130  1  0.83671199  0.49973759  0.50068445  1
  Te  Te131  1  0.83464958  0.50469887  0.82812198  1
  Te  Te132  1  0.83281571  0.83782289  0.16722511  1
  Te  Te133  1  0.83888994  0.83349466  0.49949336  1
  Te  Te134  1  0.83151329  0.83384266  0.83387228  1
  Te  Te135  1  0.16535378  -0.00308065  0.00084258  1
  Te  Te136  1  0.17159807  0.00323685  0.33132753  1
  Te  Te137  1  0.16953951  -0.00173627  0.66985911  1
  Te  Te138  1  0.16514246  0.33326663  -0.00727234  1
  Te  Te139  1  0.17077883  0.33268587  0.33364800  1
  Te  Te140  1  0.16523506  0.33667135  0.67203091  1
  Te  Te141  1  0.16639375  0.67043064  0.00031978  1
  Te  Te142  1  0.17240519  0.65786818  0.32843772  1
  Te  Te143  1  0.16679535  0.66686030  0.66983069  1
  Te  Te144  1  0.50054459  0.00026468  0.00030946  1
  Te  Te145  1  0.49536624  -0.00263460  0.33306625  1
  Te  Te146  1  0.49372898  -0.00084352  0.66441864  1
  Te  Te147  1  0.50210279  0.33109514  -0.00362971  1
  Te  Te148  1  0.49475515  0.33443019  0.33233150  1
  Te  Te149  1  0.50592816  0.33529150  0.67489499  1
  Te  Te150  1  0.50371378  0.66426510  -0.00451119  1
  Te  Te151  1  0.49386614  0.67239414  0.33269552  1
  Te  Te152  1  0.50512415  0.66696762  0.67459739  1
  Te  Te153  1  0.83390672  0.00363482  -0.00014830  1
  Te  Te154  1  0.83178904  0.00476620  0.32821811  1
  Te  Te155  1  0.83493367  0.00047222  0.67321614  1
  Te  Te156  1  0.83223649  0.33079633  0.00264819  1
  Te  Te157  1  0.83291416  0.33309335  0.32731633  1
  Te  Te158  1  0.83211920  0.33768034  0.66776611  1
  Te  Te159  1  0.82737663  0.66580899  -0.00638454  1
  Te  Te160  1  0.83165610  0.66023719  0.33301632  1
  Te  Te161  1  0.82966156  0.66222133  0.67153081  1
  Te  Te162  1  -0.00293565  0.17287364  0.00544934  1
  Te  Te163  1  -0.00173449  0.16809795  0.32795174  1
  Te  Te164  1  -0.00084105  0.17619213  0.66486242  1
  Te  Te165  1  -0.00057699  0.49354061  0.00699966  1
  Te  Te166  1  0.00147943  0.49936217  0.33378169  1
  Te  Te167  1  0.00176787  0.49703166  0.66555153  1
  Te  Te168  1  0.00564409  0.83157863  0.00613153  1
  Te  Te169  1  -0.00192724  0.83248052  0.33224287  1
  Te  Te170  1  0.00692419  0.83342436  0.66277867  1
  Te  Te171  1  0.33545234  0.16241390  -0.00316505  1
  Te  Te172  1  0.33179594  0.16533393  0.33506508  1
  Te  Te173  1  0.33348547  0.16234099  0.66561801  1
  Te  Te174  1  0.33849022  0.49979932  0.00485615  1
  Te  Te175  1  0.33113656  0.50080611  0.33132972  1
  Te  Te176  1  0.32808939  0.50015397  0.66277034  1
  Te  Te177  1  0.32856726  0.83835157  0.00537187  1
  Te  Te178  1  0.33378512  0.83512839  0.33250661  1
  Te  Te179  1  0.32749184  0.83682022  0.66119224  1
  Te  Te180  1  0.66690221  0.16361812  -0.00175867  1
  Te  Te181  1  0.67004572  0.16769536  0.33992330  1
  Te  Te182  1  0.66658889  0.17062868  0.66795066  1
  Te  Te183  1  0.66171493  0.49822627  0.00159516  1
  Te  Te184  1  0.67218990  0.49971495  0.33421829  1
  Te  Te185  1  0.66860508  0.49901686  0.66437487  1
  Te  Te186  1  0.66774850  0.83611925  -0.00176225  1
  Te  Te187  1  0.65984382  0.83238838  0.33333773  1
  Te  Te188  1  0.66811400  0.82894860  0.67181621  1
  Te  Te189  1  -0.00141735  -0.00129004  0.16684417  1
  Te  Te190  1  0.00471515  -0.00367939  0.49920157  1
  Te  Te191  1  0.00268937  0.00030882  0.83366799  1
  Te  Te192  1  -0.00258031  0.33417932  0.16505484  1
  Te  Te193  1  0.00056795  0.33868094  0.50541129  1
  Te  Te194  1  0.00285199  0.33234666  0.83516351  1
  Te  Te195  1  0.00572913  0.66750155  0.16567816  1
  Te  Te196  1  0.00057266  0.66671325  0.49945602  1
  Te  Te197  1  0.00924210  0.66720660  0.83413681  1
  Te  Te198  1  0.33215199  0.00041249  0.16239716  1
  Te  Te199  1  0.33144188  0.00034167  0.49912766  1
  Te  Te200  1  0.33556133  0.00050143  0.84023730  1
  Te  Te201  1  0.33360267  0.33534157  0.17093534  1
  Te  Te202  1  0.33434151  0.33733763  0.49689887  1
  Te  Te203  1  0.33465862  0.32784251  0.83313496  1
  Te  Te204  1  0.33001212  0.66662819  0.16869333  1
  Te  Te205  1  0.33433819  0.66138856  0.49568510  1
  Te  Te206  1  0.32974853  0.66738736  0.83341133  1
  Te  Te207  1  0.66831814  -0.00503511  0.16156605  1
  Te  Te208  1  0.66585815  0.00459263  0.50342326  1
  Te  Te209  1  0.66404195  0.00063267  0.83580326  1
  Te  Te210  1  0.67139729  0.33441524  0.16126408  1
  Te  Te211  1  0.66504414  0.32566390  0.50242365  1
  Te  Te212  1  0.66494671  0.33169351  0.83583815  1
  Te  Te213  1  0.66700119  0.67464957  0.16203321  1
  Te  Te214  1  0.66444169  0.66876506  0.50424326  1
  Te  Te215  1  0.66486794  0.66570263  0.83490522  1
