# generated using pymatgen
data_AgSbTe2
_symmetry_space_group_name_H-M   'P 1'
_cell_length_a   18.32629239
_cell_length_b   18.32214370
_cell_length_c   18.32960569
_cell_angle_alpha   89.99877317
_cell_angle_beta   90.00162513
_cell_angle_gamma   90.00073582
_symmetry_Int_Tables_number   1
_chemical_formula_structural   AgSbTe2
_chemical_formula_sum   'Ag54 Sb54 Te108'
_cell_volume   6154.65931880
_cell_formula_units_Z   54
loop_
 _symmetry_equiv_pos_site_id
 _symmetry_equiv_pos_as_xyz
  1  'x, y, z'
loop_
 _atom_site_type_symbol
 _atom_site_label
 _atom_site_symmetry_multiplicity
 _atom_site_fract_x
 _atom_site_fract_y
 _atom_site_fract_z
 _atom_site_occupancy
  Ag  Ag0  1  0.00192849  0.83354068  0.82912879  1
  Ag  Ag1  1  0.33198971  -0.01311013  0.32922472  1
  Ag  Ag2  1  0.66756561  0.83597313  0.83240935  1
  Ag  Ag3  1  0.16384118  0.51257088  0.32791668  1
  Ag  Ag4  1  0.84327335  0.66305657  0.50063181  1
  Ag  Ag5  1  0.66595322  0.17011131  0.50524817  1
  Ag  Ag6  1  0.83596976  0.66515162  0.16755060  1
  Ag  Ag7  1  0.82861252  0.33949266  0.50103102  1
  Ag  Ag8  1  0.15806447  0.51051902  0.66623828  1
  Ag  Ag9  1  0.33253032  0.83004791  0.83607772  1
  Ag  Ag10  1  0.49576472  0.50508808  0.00788430  1
  Ag  Ag11  1  0.50109742  0.16273534  0.33661441  1
  Ag  Ag12  1  0.49901784  0.67026424  0.83375212  1
  Ag  Ag13  1  0.49437774  0.83083663  0.66260405  1
  Ag  Ag14  1  0.66323700  0.33394051  0.33943642  1
  Ag  Ag15  1  0.17689584  0.66653068  0.17903697  1
  Ag  Ag16  1  0.16084994  0.66755933  0.49088710  1
  Ag  Ag17  1  0.67226228  0.15652118  0.82355584  1
  Ag  Ag18  1  -0.00009555  -0.00392401  -0.00908277  1
  Ag  Ag19  1  0.17282318  0.82423232  0.33791098  1
  Ag  Ag20  1  0.33308576  -0.01070766  0.00366837  1
  Ag  Ag21  1  0.33381642  0.82522318  0.16868466  1
  Ag  Ag22  1  0.15971559  0.15361846  0.66802966  1
  Ag  Ag23  1  0.83058307  0.16768322  0.66747584  1
  Ag  Ag24  1  0.50675335  0.34633068  0.17403664  1
  Ag  Ag25  1  0.66369183  0.49984851  0.16602923  1
  Ag  Ag26  1  -0.00141092  -0.00293688  0.67183933  1
  Ag  Ag27  1  0.83475784  -0.00737293  0.16403470  1
  Ag  Ag28  1  0.16790371  0.50472942  0.00646488  1
  Ag  Ag29  1  -0.00517357  0.15251865  0.82844161  1
  Ag  Ag30  1  0.33239104  0.66946644  0.66538750  1
  Ag  Ag31  1  0.00100556  0.82865230  0.50152326  1
  Ag  Ag32  1  0.00980576  0.67062294  0.33569801  1
  Ag  Ag33  1  0.66834494  -0.00263384  -0.00706439  1
  Ag  Ag34  1  0.49677562  0.66922163  0.49488837  1
  Ag  Ag35  1  0.00486633  -0.00941567  0.33463975  1
  Ag  Ag36  1  0.33642482  0.51236413  0.16529167  1
  Ag  Ag37  1  0.83460034  0.66796304  0.83212853  1
  Ag  Ag38  1  0.50910115  0.33409713  0.49489929  1
  Ag  Ag39  1  0.50112602  -0.00890253  0.49761546  1
  Ag  Ag40  1  0.00049956  0.51018390  0.82849272  1
  Ag  Ag41  1  0.49172060  0.83148157  0.33947818  1
  Ag  Ag42  1  0.16802442  0.82958432  0.66503047  1
  Ag  Ag43  1  -0.00090344  0.50963487  0.50280537  1
  Ag  Ag44  1  0.32239465  0.67091498  0.32212602  1
  Ag  Ag45  1  0.83527361  0.83359877  -0.00154612  1
  Ag  Ag46  1  0.33412536  0.67113810  0.01084032  1
  Ag  Ag47  1  0.00033096  0.50635470  0.16701402  1
  Ag  Ag48  1  0.48798267  0.66408214  0.16921722  1
  Ag  Ag49  1  0.66903671  0.32660291  0.65757597  1
  Ag  Ag50  1  0.82653606  0.34456640  0.17233041  1
  Ag  Ag51  1  0.83848671  0.50093253  0.66337216  1
  Ag  Ag52  1  0.67367767  0.00365473  0.67136119  1
  Ag  Ag53  1  0.15916719  -0.00393300  0.83050524  1
  Sb  Sb54  1  0.16863547  -0.00823875  0.50362782  1
  Sb  Sb55  1  0.00469279  0.67053844  0.66072364  1
  Sb  Sb56  1  0.66746200  0.16923391  0.16803029  1
  Sb  Sb57  1  0.33490573  0.16337971  0.16815313  1
  Sb  Sb58  1  0.16546936  0.16538802  -0.00497652  1
  Sb  Sb59  1  0.83530047  0.50685343  0.00132137  1
  Sb  Sb60  1  0.67031298  0.49673302  0.49696476  1
  Sb  Sb61  1  0.66429198  0.66283698  0.33198934  1
  Sb  Sb62  1  0.16564737  0.33206160  0.83033544  1
  Sb  Sb63  1  0.83173601  -0.00194057  0.49945018  1
  Sb  Sb64  1  0.50155372  0.50731946  0.66751927  1
  Sb  Sb65  1  0.66257432  0.67093976  0.00037958  1
  Sb  Sb66  1  0.16403012  -0.00677660  0.16415593  1
  Sb  Sb67  1  0.49877224  0.82843941  -0.00131729  1
  Sb  Sb68  1  0.66404380  0.82881199  0.16315490  1
  Sb  Sb69  1  0.16638798  0.34771187  0.16873054  1
  Sb  Sb70  1  0.83703313  -0.00725031  0.83658866  1
  Sb  Sb71  1  0.66684496  0.83570137  0.50464906  1
  Sb  Sb72  1  -0.00246017  0.16591212  0.16438907  1
  Sb  Sb73  1  0.82955136  0.16711146  0.33815739  1
  Sb  Sb74  1  0.83514103  0.83173283  0.32990571  1
  Sb  Sb75  1  0.33199545  -0.00921837  0.66542068  1
  Sb  Sb76  1  0.17068308  0.16101406  0.33968078  1
  Sb  Sb77  1  0.16576189  0.67138884  0.83163678  1
  Sb  Sb78  1  0.83250333  0.15994344  -0.00616592  1
  Sb  Sb79  1  0.67008831  0.50366593  0.83599229  1
  Sb  Sb80  1  0.83597552  0.83111209  0.67111707  1
  Sb  Sb81  1  0.32748080  0.51011415  0.83801453  1
  Sb  Sb82  1  0.16601023  0.82941496  -0.00196451  1
  Sb  Sb83  1  0.50142193  -0.00841613  0.82905914  1
  Sb  Sb84  1  0.33807970  0.33903153  0.66465087  1
  Sb  Sb85  1  0.33035624  0.82904660  0.49672832  1
  Sb  Sb86  1  0.33532659  0.33989311  0.00302795  1
  Sb  Sb87  1  0.83900878  0.50194751  0.33560099  1
  Sb  Sb88  1  0.50156980  0.16786269  0.00341428  1
  Sb  Sb89  1  0.33944959  0.16453928  0.50068707  1
  Sb  Sb90  1  0.00386944  0.67000937  0.00270574  1
  Sb  Sb91  1  0.83301509  0.33693177  0.83063750  1
  Sb  Sb92  1  -0.00169959  0.33299229  0.00042754  1
  Sb  Sb93  1  0.32891761  0.50592035  0.49514952  1
  Sb  Sb94  1  -0.00396972  0.16304602  0.50553171  1
  Sb  Sb95  1  -0.00479928  0.33801169  0.33382738  1
  Sb  Sb96  1  0.66521131  0.66924573  0.66691836  1
  Sb  Sb97  1  0.33244221  0.15437325  0.83130421  1
  Sb  Sb98  1  0.50474287  0.16087740  0.66149805  1
  Sb  Sb99  1  0.66494443  0.00226875  0.33452078  1
  Sb  Sb100  1  0.16219525  0.34242190  0.50167015  1
  Sb  Sb101  1  0.34008151  0.33866186  0.33225056  1
  Sb  Sb102  1  0.49572136  0.50488031  0.32864225  1
  Sb  Sb103  1  0.00343081  0.82807391  0.16779001  1
  Sb  Sb104  1  0.66746999  0.33045070  0.00124917  1
  Sb  Sb105  1  0.50363669  0.33888083  0.83141671  1
  Sb  Sb106  1  -0.00586395  0.33365632  0.66583460  1
  Sb  Sb107  1  0.50248760  -0.00483785  0.17054866  1
  Te  Te108  1  0.16610639  0.17059818  0.16795345  1
  Te  Te109  1  0.16624678  0.16946338  0.50741614  1
  Te  Te110  1  0.16287614  0.16188033  0.82760989  1
  Te  Te111  1  0.16397136  0.50548683  0.16669165  1
  Te  Te112  1  0.16243786  0.50538872  0.50480304  1
  Te  Te113  1  0.16094326  0.50006366  0.82792676  1
  Te  Te114  1  0.17143763  0.82848794  0.17050748  1
  Te  Te115  1  0.16236526  0.82882315  0.50149641  1
  Te  Te116  1  0.16442283  0.83628324  0.83197779  1
  Te  Te117  1  0.50097537  0.16983790  0.17269649  1
  Te  Te118  1  0.50467829  0.16949512  0.49705916  1
  Te  Te119  1  0.50475507  0.16806901  0.83351680  1
  Te  Te120  1  0.49948067  0.50355042  0.16761699  1
  Te  Te121  1  0.50013498  0.50350683  0.49998758  1
  Te  Te122  1  0.50019852  0.50771093  0.83773393  1
  Te  Te123  1  0.49638565  0.82766650  0.16919207  1
  Te  Te124  1  0.50163352  0.83183599  0.50127880  1
  Te  Te125  1  0.49989093  0.82850499  0.83183704  1
  Te  Te126  1  0.83343445  0.16714569  0.16610573  1
  Te  Te127  1  0.82843062  0.16838457  0.50558861  1
  Te  Te128  1  0.83334547  0.16989849  0.82780029  1
  Te  Te129  1  0.83619215  0.50187877  0.16649000  1
  Te  Te130  1  0.83563695  0.50181609  0.50180611  1
  Te  Te131  1  0.83775492  0.50523067  0.83161959  1
  Te  Te132  1  0.83253063  0.83213027  0.16241935  1
  Te  Te133  1  0.83786859  0.82767353  0.49940544  1
  Te  Te134  1  0.83422475  0.82791313  0.83595391  1
  Te  Te135  1  0.16620790  -0.00028370  -0.00383792  1
  Te  Te136  1  0.16712497  -0.00379867  0.33340571  1
  Te  Te137  1  0.16502257  -0.00469868  0.66851545  1
  Te  Te138  1  0.16722174  0.34106057  -0.00003072  1
  Te  Te139  1  0.16864858  0.33263783  0.33522267  1
  Te  Te140  1  0.16871356  0.33986099  0.66535566  1
  Te  Te141  1  0.17145879  0.66331137  -0.00005129  1
  Te  Te142  1  0.16593925  0.66794468  0.33448847  1
  Te  Te143  1  0.16964935  0.66963949  0.66617597  1
  Te  Te144  1  0.49819935  0.00018616  0.00121210  1
  Te  Te145  1  0.49839813  -0.00192926  0.33544983  1
  Te  Te146  1  0.49988924  -0.00613627  0.66148340  1
  Te  Te147  1  0.49985586  0.33943444  0.00481536  1
  Te  Te148  1  0.50259949  0.33417241  0.33394313  1
  Te  Te149  1  0.50611090  0.33397269  0.66224965  1
  Te  Te150  1  0.49644813  0.66480307  0.00229085  1
  Te  Te151  1  0.49907869  0.67007280  0.33269247  1
  Te  Te152  1  0.49840054  0.67097644  0.66752988  1
  Te  Te153  1  0.83475614  -0.00371106  0.00310255  1
  Te  Te154  1  0.83757790  0.00036602  0.32823101  1
  Te  Te155  1  0.83440950  0.00224028  0.66525981  1
  Te  Te156  1  0.83277577  0.33331628  0.00885940  1
  Te  Te157  1  0.82805694  0.33238095  0.33376160  1
  Te  Te158  1  0.82858532  0.33479651  0.66496726  1
  Te  Te159  1  0.83327826  0.67185338  -0.00162802  1
  Te  Te160  1  0.83434665  0.66710180  0.33550618  1
  Te  Te161  1  0.83245873  0.66315659  0.66578571  1
  Te  Te162  1  0.00042846  0.16010833  -0.00722643  1
  Te  Te163  1  0.00154443  0.16068413  0.33453797  1
  Te  Te164  1  -0.00055321  0.16522655  0.66902747  1
  Te  Te165  1  0.00330578  0.50008920  -0.00002471  1
  Te  Te166  1  0.00470529  0.50218159  0.33323618  1
  Te  Te167  1  -0.00167214  0.49954421  0.66643669  1
  Te  Te168  1  -0.00160106  0.83714888  -0.00266775  1
  Te  Te169  1  0.00076179  0.83177853  0.33432775  1
  Te  Te170  1  0.00106250  0.83680546  0.66747063  1
  Te  Te171  1  0.33300139  0.15923574  -0.00043137  1
  Te  Te172  1  0.33899814  0.16209141  0.33329498  1
  Te  Te173  1  0.32613694  0.16819442  0.66800755  1
  Te  Te174  1  0.33241068  0.50489024  0.00384611  1
  Te  Te175  1  0.32580572  0.50551835  0.32825630  1
  Te  Te176  1  0.33107026  0.50582333  0.66866461  1
  Te  Te177  1  0.33250561  0.83170473  -0.00058590  1
  Te  Te178  1  0.33273977  0.83060026  0.33397093  1
  Te  Te179  1  0.33268165  0.83089771  0.66966810  1
  Te  Te180  1  0.66599997  0.15899182  -0.00569607  1
  Te  Te181  1  0.66213469  0.17035833  0.33703390  1
  Te  Te182  1  0.66630379  0.16451708  0.66602836  1
  Te  Te183  1  0.66321249  0.49934480  0.00408314  1
  Te  Te184  1  0.66648581  0.49418476  0.32622485  1
  Te  Te185  1  0.67108018  0.49588970  0.66880747  1
  Te  Te186  1  0.66945217  0.83847237  -0.00429329  1
  Te  Te187  1  0.65918486  0.83452100  0.33308258  1
  Te  Te188  1  0.66538721  0.83792204  0.67166294  1
  Te  Te189  1  -0.00352976  -0.00051603  0.16907480  1
  Te  Te190  1  -0.00008684  -0.00454861  0.49864970  1
  Te  Te191  1  -0.00059966  -0.00359767  0.83158805  1
  Te  Te192  1  -0.00456110  0.33807402  0.16761467  1
  Te  Te193  1  -0.00742052  0.33749096  0.49850702  1
  Te  Te194  1  -0.00020165  0.33585313  0.83435374  1
  Te  Te195  1  -0.00465093  0.66450189  0.16896485  1
  Te  Te196  1  0.00102416  0.66737629  0.49776957  1
  Te  Te197  1  -0.00260043  0.66910446  0.83532385  1
  Te  Te198  1  0.33297820  -0.00402163  0.16637182  1
  Te  Te199  1  0.33946996  -0.00008145  0.49350351  1
  Te  Te200  1  0.33158076  -0.00856818  0.83673617  1
  Te  Te201  1  0.33859341  0.33547624  0.16690815  1
  Te  Te202  1  0.34225972  0.33434396  0.49964048  1
  Te  Te203  1  0.33514240  0.33102246  0.83395351  1
  Te  Te204  1  0.33239117  0.66746604  0.16662390  1
  Te  Te205  1  0.33736769  0.66583285  0.50457173  1
  Te  Te206  1  0.33477040  0.67195812  0.82825661  1
  Te  Te207  1  0.67160770  -0.00017731  0.16366751  1
  Te  Te208  1  0.66371559  0.00379253  0.50296699  1
  Te  Te209  1  0.66702973  -0.00251805  0.83197898  1
  Te  Te210  1  0.66630221  0.33559856  0.16669805  1
  Te  Te211  1  0.66873566  0.33413692  0.49936691  1
  Te  Te212  1  0.66706230  0.33043768  0.83064567  1
  Te  Te213  1  0.67627927  0.66146230  0.16544981  1
  Te  Te214  1  0.66432088  0.66621097  0.49951548  1
  Te  Te215  1  0.66692728  0.67170460  0.83418119  1
