# generated using pymatgen
data_AgSbTe2
_symmetry_space_group_name_H-M   'P 1'
_cell_length_a   18.35961230
_cell_length_b   18.35364200
_cell_length_c   18.35732532
_cell_angle_alpha   89.99941373
_cell_angle_beta   90.00220963
_cell_angle_gamma   89.99728892
_symmetry_Int_Tables_number   1
_chemical_formula_structural   AgSbTe2
_chemical_formula_sum   'Ag54 Sb54 Te108'
_cell_volume   6185.78990937
_cell_formula_units_Z   54
loop_
 _symmetry_equiv_pos_site_id
 _symmetry_equiv_pos_as_xyz
  1  'x, y, z'
loop_
 _atom_site_type_symbol
 _atom_site_label
 _atom_site_symmetry_multiplicity
 _atom_site_fract_x
 _atom_site_fract_y
 _atom_site_fract_z
 _atom_site_occupancy
  Ag  Ag0  1  0.16582908  0.84956862  0.66641640  1
  Ag  Ag1  1  0.00434212  0.15841813  0.50384263  1
  Ag  Ag2  1  0.00054344  0.00194458  -0.01288602  1
  Ag  Ag3  1  0.49059983  0.16761404  0.34372505  1
  Ag  Ag4  1  0.66377011  0.82560058  0.16621001  1
  Ag  Ag5  1  0.00383401  0.49909286  0.83103987  1
  Ag  Ag6  1  0.16296566  0.00939931  0.82243329  1
  Ag  Ag7  1  0.83553440  0.66603493  0.50332141  1
  Ag  Ag8  1  0.83911924  0.16793089  -0.01442002  1
  Ag  Ag9  1  0.84429356  0.66055817  0.82856707  1
  Ag  Ag10  1  0.00526273  0.83734630  0.49938750  1
  Ag  Ag11  1  0.32292677  0.82596966  0.50116822  1
  Ag  Ag12  1  0.66545852  0.66714047  -0.00053349  1
  Ag  Ag13  1  0.49975071  0.82834653  0.00170912  1
  Ag  Ag14  1  0.84208590  0.83220455  0.33192487  1
  Ag  Ag15  1  0.32509850  0.82739300  0.17303753  1
  Ag  Ag16  1  0.16711758  0.16471704  0.66613000  1
  Ag  Ag17  1  0.16239622  0.00731616  0.51040896  1
  Ag  Ag18  1  0.48787947  0.66456917  0.50141109  1
  Ag  Ag19  1  0.16241132  0.16806474  0.34582307  1
  Ag  Ag20  1  0.32267138  0.17427401  0.82454592  1
  Ag  Ag21  1  0.85370052  0.16896759  0.66923497  1
  Ag  Ag22  1  0.32965628  0.65514076  0.66212872  1
  Ag  Ag23  1  0.31954792  0.00888633  0.66675380  1
  Ag  Ag24  1  0.83975390  0.33155148  0.83223290  1
  Ag  Ag25  1  0.33455363  0.50736398  0.51342116  1
  Ag  Ag26  1  0.17584867  0.47979538  0.66830961  1
  Ag  Ag27  1  0.49445702  0.66898893  0.16811991  1
  Ag  Ag28  1  0.66884170  0.50195495  0.83009326  1
  Ag  Ag29  1  0.00349772  0.67181981  0.33216915  1
  Ag  Ag30  1  0.32141410  0.49939459  0.82391413  1
  Ag  Ag31  1  0.16572762  0.66779657  0.16701621  1
  Ag  Ag32  1  0.00877131  0.01108753  0.66629942  1
  Ag  Ag33  1  0.83876951  0.33119620  0.16512361  1
  Ag  Ag34  1  0.48660148  0.49832627  0.66799330  1
  Ag  Ag35  1  0.00148036  0.83136193  0.17885371  1
  Ag  Ag36  1  0.00362727  0.83906412  0.82932507  1
  Ag  Ag37  1  0.00149832  -0.00032041  0.33746188  1
  Ag  Ag38  1  0.65896730  0.50349841  0.51086874  1
  Ag  Ag39  1  0.33030907  0.33556684  0.34178097  1
  Ag  Ag40  1  0.15939866  0.33220804  0.82413267  1
  Ag  Ag41  1  0.68439335  0.17374173  0.83036996  1
  Ag  Ag42  1  0.16715103  0.32779019  0.51325404  1
  Ag  Ag43  1  0.48733363  0.17020130  0.66689795  1
  Ag  Ag44  1  0.32898312  0.66564418  0.34415091  1
  Ag  Ag45  1  0.84572935  0.16525239  0.33549057  1
  Ag  Ag46  1  0.01102619  0.32457085  0.66995625  1
  Ag  Ag47  1  0.67098890  0.50624990  0.16450921  1
  Ag  Ag48  1  0.16500816  0.66346184  0.82629786  1
  Ag  Ag49  1  0.49569804  0.66318877  0.82738239  1
  Ag  Ag50  1  -0.00121361  0.50235942  0.16479517  1
  Ag  Ag51  1  0.32129469  0.34221008  0.66344840  1
  Ag  Ag52  1  0.00153952  0.16875331  0.81761764  1
  Ag  Ag53  1  -0.00115960  0.16486329  0.17202739  1
  Sb  Sb54  1  0.49854958  0.50048223  0.33866459  1
  Sb  Sb55  1  0.83686194  0.49823182  0.66937376  1
  Sb  Sb56  1  0.49856166  0.33770431  0.82998473  1
  Sb  Sb57  1  0.49781793  -0.00557886  0.16794381  1
  Sb  Sb58  1  0.84369308  0.00345070  0.83167699  1
  Sb  Sb59  1  0.48888360  -0.00309712  0.50221968  1
  Sb  Sb60  1  0.32486932  0.16904884  0.50718423  1
  Sb  Sb61  1  0.66946103  0.33910414  -0.00219467  1
  Sb  Sb62  1  0.49242503  -0.00382352  0.83051562  1
  Sb  Sb63  1  0.66715673  0.66640204  0.33029500  1
  Sb  Sb64  1  0.67236117  0.17126515  0.50553156  1
  Sb  Sb65  1  0.15696348  0.16488271  -0.00758631  1
  Sb  Sb66  1  0.49950845  0.83434840  0.33132475  1
  Sb  Sb67  1  -0.00204538  0.32707379  -0.00873576  1
  Sb  Sb68  1  0.32692108  0.16360917  0.16716318  1
  Sb  Sb69  1  0.67121016  0.82832380  0.83731064  1
  Sb  Sb70  1  0.83454889  0.83495902  0.00334240  1
  Sb  Sb71  1  0.48941336  0.82816776  0.66877649  1
  Sb  Sb72  1  0.16735408  0.49906844  0.33919988  1
  Sb  Sb73  1  0.00415987  0.50220147  0.50279238  1
  Sb  Sb74  1  0.50512263  0.16022492  -0.00682520  1
  Sb  Sb75  1  0.66574241  0.33311266  0.33402015  1
  Sb  Sb76  1  0.66069620  0.66524213  0.67058588  1
  Sb  Sb77  1  0.67315659  0.00058545  0.33336322  1
  Sb  Sb78  1  0.32603066  -0.00233491  -0.00717750  1
  Sb  Sb79  1  0.16205373  -0.00442139  0.16843627  1
  Sb  Sb80  1  0.83531311  0.50069447  0.33309937  1
  Sb  Sb81  1  0.33735922  0.66817604  -0.00305455  1
  Sb  Sb82  1  0.16158522  0.83372701  0.33964642  1
  Sb  Sb83  1  0.83880284  0.00385196  0.16751010  1
  Sb  Sb84  1  0.16766759  0.66705364  0.50419163  1
  Sb  Sb85  1  0.66938164  0.00362588  0.66834481  1
  Sb  Sb86  1  0.83521916  0.66479256  0.16663837  1
  Sb  Sb87  1  0.50224304  0.50777827  -0.00735581  1
  Sb  Sb88  1  0.84302904  0.83587371  0.66456754  1
  Sb  Sb89  1  0.32508546  -0.00114819  0.34001294  1
  Sb  Sb90  1  0.16453052  0.50212892  -0.01009411  1
  Sb  Sb91  1  0.00394910  0.32969779  0.33748464  1
  Sb  Sb92  1  0.33144848  0.50617814  0.16608100  1
  Sb  Sb93  1  0.67347184  -0.00336238  -0.00167284  1
  Sb  Sb94  1  0.49215484  0.33713599  0.50268991  1
  Sb  Sb95  1  0.16088266  0.33719614  0.16697671  1
  Sb  Sb96  1  0.84332310  -0.00288613  0.49965284  1
  Sb  Sb97  1  0.16728324  0.83164266  -0.00413846  1
  Sb  Sb98  1  0.67424370  0.16846970  0.16311081  1
  Sb  Sb99  1  0.83467629  0.49852491  -0.00212848  1
  Sb  Sb100  1  -0.00378442  0.67143134  -0.00050066  1
  Sb  Sb101  1  0.33207995  0.33172365  -0.00687940  1
  Sb  Sb102  1  0.66723250  0.33458089  0.66809146  1
  Sb  Sb103  1  0.66992201  0.82601140  0.49572922  1
  Sb  Sb104  1  0.50269112  0.33970537  0.17006888  1
  Sb  Sb105  1  0.83996084  0.33555213  0.50263370  1
  Sb  Sb106  1  0.00837553  0.66694211  0.66692153  1
  Sb  Sb107  1  0.32508072  0.82857821  0.82774530  1
  Te  Te108  1  0.16180479  0.16785697  0.16399028  1
  Te  Te109  1  0.16532764  0.16730149  0.50140536  1
  Te  Te110  1  0.16229357  0.16855506  0.83286520  1
  Te  Te111  1  0.16270567  0.50537542  0.16641500  1
  Te  Te112  1  0.17105049  0.49526230  0.50626410  1
  Te  Te113  1  0.16382073  0.50074004  0.82934116  1
  Te  Te114  1  0.16357309  0.82893642  0.16656251  1
  Te  Te115  1  0.16473681  0.83287297  0.50404246  1
  Te  Te116  1  0.16287803  0.82563424  0.82957097  1
  Te  Te117  1  0.50097207  0.16664300  0.16416467  1
  Te  Te118  1  0.50324846  0.16545868  0.50228679  1
  Te  Te119  1  0.49318146  0.16579866  0.82965959  1
  Te  Te120  1  0.50244192  0.50693866  0.16623609  1
  Te  Te121  1  0.49792214  0.50350376  0.50408819  1
  Te  Te122  1  0.50821485  0.50352251  0.82885879  1
  Te  Te123  1  0.50270091  0.82890180  0.16659112  1
  Te  Te124  1  0.50084353  0.82655046  0.50021044  1
  Te  Te125  1  0.50042965  0.82731844  0.83692331  1
  Te  Te126  1  0.83501830  0.17046107  0.17651427  1
  Te  Te127  1  0.83793290  0.16773425  0.49917284  1
  Te  Te128  1  0.84045370  0.16676718  0.82906605  1
  Te  Te129  1  0.83496876  0.49625568  0.16592572  1
  Te  Te130  1  0.83130132  0.50481933  0.50080636  1
  Te  Te131  1  0.83236736  0.49983178  0.83333131  1
  Te  Te132  1  0.84131572  0.83303207  0.16968492  1
  Te  Te133  1  0.83746393  0.82826658  0.49691678  1
  Te  Te134  1  0.83918777  0.82801752  0.83315685  1
  Te  Te135  1  0.15897586  -0.00183443  -0.00520722  1
  Te  Te136  1  0.16148088  0.00648829  0.33506492  1
  Te  Te137  1  0.16421863  0.00360453  0.66669623  1
  Te  Te138  1  0.16718813  0.33366593  -0.00642506  1
  Te  Te139  1  0.17145454  0.32969443  0.33328478  1
  Te  Te140  1  0.16677101  0.32558070  0.66914493  1
  Te  Te141  1  0.16659599  0.66689524  0.00380018  1
  Te  Te142  1  0.16777208  0.66628606  0.33077318  1
  Te  Te143  1  0.17072194  0.66734614  0.66898057  1
  Te  Te144  1  0.49998877  -0.00861711  -0.00044025  1
  Te  Te145  1  0.49945181  0.00734367  0.33437433  1
  Te  Te146  1  0.49815306  0.00428060  0.66635336  1
  Te  Te147  1  0.50053169  0.33135992  0.00188252  1
  Te  Te148  1  0.49413805  0.32678417  0.33406035  1
  Te  Te149  1  0.49654835  0.33361146  0.66664789  1
  Te  Te150  1  0.50363530  0.67008186  0.00427726  1
  Te  Te151  1  0.49561533  0.66782224  0.33434231  1
  Te  Te152  1  0.49424255  0.66405194  0.66552157  1
  Te  Te153  1  0.84100468  0.00649194  0.00026148  1
  Te  Te154  1  0.83979929  0.00002759  0.33399876  1
  Te  Te155  1  0.83712071  0.00771637  0.66511535  1
  Te  Te156  1  0.83311854  0.32682656  0.00022633  1
  Te  Te157  1  0.83358346  0.32920460  0.33248812  1
  Te  Te158  1  0.83454614  0.32879940  0.67012422  1
  Te  Te159  1  0.82746888  0.66759837  -0.00786546  1
  Te  Te160  1  0.83701408  0.66883328  0.33510718  1
  Te  Te161  1  0.83194455  0.66766253  0.66814631  1
  Te  Te162  1  -0.00509477  0.16256987  0.01315862  1
  Te  Te163  1  0.00250376  0.16939798  0.33362166  1
  Te  Te164  1  0.00768850  0.16797689  0.66273319  1
  Te  Te165  1  -0.00020545  0.50012796  0.00263479  1
  Te  Te166  1  0.00047935  0.50637992  0.33092890  1
  Te  Te167  1  0.00409561  0.49883958  0.67005956  1
  Te  Te168  1  0.00004779  0.83937394  -0.00669222  1
  Te  Te169  1  0.00101705  0.83199470  0.33672039  1
  Te  Te170  1  0.00475180  0.83307689  0.66678304  1
  Te  Te171  1  0.33533891  0.16395609  -0.00645776  1
  Te  Te172  1  0.33180495  0.16698312  0.33232598  1
  Te  Te173  1  0.33095714  0.16793779  0.66682758  1
  Te  Te174  1  0.33446206  0.49874710  -0.00888424  1
  Te  Te175  1  0.33376066  0.50088847  0.33408785  1
  Te  Te176  1  0.33140473  0.49971137  0.66856413  1
  Te  Te177  1  0.33743967  0.83470116  0.00726895  1
  Te  Te178  1  0.33326064  0.83077513  0.33409756  1
  Te  Te179  1  0.32775312  0.83560582  0.66306472  1
  Te  Te180  1  0.67339320  0.16519121  -0.00689285  1
  Te  Te181  1  0.66589358  0.16640299  0.33361077  1
  Te  Te182  1  0.65922613  0.16774258  0.67226325  1
  Te  Te183  1  0.66780896  0.50584383  0.00050836  1
  Te  Te184  1  0.66663816  0.49883730  0.32600307  1
  Te  Te185  1  0.66659008  0.50064817  0.66879798  1
  Te  Te186  1  0.66565116  0.82987449  0.00524881  1
  Te  Te187  1  0.67380074  0.83434805  0.32687170  1
  Te  Te188  1  0.66680756  0.83539856  0.66655965  1
  Te  Te189  1  0.00120124  -0.00285877  0.17703759  1
  Te  Te190  1  0.00280131  -0.00140294  0.50038714  1
  Te  Te191  1  0.00322321  0.00081183  0.82884377  1
  Te  Te192  1  -0.00234746  0.33673610  0.16794140  1
  Te  Te193  1  0.00483925  0.33440723  0.50558916  1
  Te  Te194  1  -0.00114410  0.33369253  0.83184189  1
  Te  Te195  1  0.00002287  0.66785212  0.16697556  1
  Te  Te196  1  -0.00143975  0.66801434  0.49727008  1
  Te  Te197  1  0.00229444  0.66204763  0.83379413  1
  Te  Te198  1  0.33101040  -0.00792039  0.16673867  1
  Te  Te199  1  0.32507982  -0.00852739  0.50518603  1
  Te  Te200  1  0.32547508  -0.00042095  0.82771766  1
  Te  Te201  1  0.33278322  0.33431984  0.16791212  1
  Te  Te202  1  0.32847084  0.33436326  0.50113396  1
  Te  Te203  1  0.33258116  0.33451165  0.82910522  1
  Te  Te204  1  0.33370978  0.66895811  0.16459159  1
  Te  Te205  1  0.33101635  0.66605404  0.50069803  1
  Te  Te206  1  0.33366698  0.66459657  0.83133327  1
  Te  Te207  1  0.66686069  -0.00740391  0.16556317  1
  Te  Te208  1  0.66449305  -0.00128442  0.49969804  1
  Te  Te209  1  0.66561936  0.00346710  0.83437388  1
  Te  Te210  1  0.67164170  0.33956369  0.16617582  1
  Te  Te211  1  0.66742091  0.34340305  0.49978254  1
  Te  Te212  1  0.67163758  0.33382181  0.83399051  1
  Te  Te213  1  0.66874937  0.66624461  0.16548762  1
  Te  Te214  1  0.67024043  0.66169921  0.49905324  1
  Te  Te215  1  0.65980597  0.66461077  0.83592716  1
