# generated using pymatgen
data_AgSbTe2
_symmetry_space_group_name_H-M   'P 1'
_cell_length_a   18.34763400
_cell_length_b   18.34610313
_cell_length_c   18.35083678
_cell_angle_alpha   89.99763005
_cell_angle_beta   89.99905055
_cell_angle_gamma   89.99696025
_symmetry_Int_Tables_number   1
_chemical_formula_structural   AgSbTe2
_chemical_formula_sum   'Ag54 Sb54 Te108'
_cell_volume   6177.03084574
_cell_formula_units_Z   54
loop_
 _symmetry_equiv_pos_site_id
 _symmetry_equiv_pos_as_xyz
  1  'x, y, z'
loop_
 _atom_site_type_symbol
 _atom_site_label
 _atom_site_symmetry_multiplicity
 _atom_site_fract_x
 _atom_site_fract_y
 _atom_site_fract_z
 _atom_site_occupancy
  Ag  Ag0  1  0.00564134  0.00116589  0.66010221  1
  Ag  Ag1  1  0.82450591  0.65681693  0.17574194  1
  Ag  Ag2  1  -0.00163966  0.33411010  0.66472552  1
  Ag  Ag3  1  -0.00834414  0.66593051  0.66253334  1
  Ag  Ag4  1  0.16736983  0.16373332  0.33555255  1
  Ag  Ag5  1  0.00013293  0.33031151  0.01424653  1
  Ag  Ag6  1  0.33051476  0.34071930  0.33175220  1
  Ag  Ag7  1  0.50175595  -0.00100704  0.17032249  1
  Ag  Ag8  1  0.00568275  0.16308301  0.49728470  1
  Ag  Ag9  1  0.66119054  -0.00011803  0.01013794  1
  Ag  Ag10  1  0.00037425  0.17473186  0.17326171  1
  Ag  Ag11  1  0.17028952  0.00313352  0.49833983  1
  Ag  Ag12  1  0.00496753  0.83587170  0.49836468  1
  Ag  Ag13  1  0.49485869  0.82169057  0.33595996  1
  Ag  Ag14  1  0.49381530  0.16067227  0.66206141  1
  Ag  Ag15  1  0.82679099  0.66672494  0.50016445  1
  Ag  Ag16  1  0.82817041  0.50279582  0.32480698  1
  Ag  Ag17  1  0.49915910  0.50890715  0.32837936  1
  Ag  Ag18  1  0.33078918  -0.00191890  0.65406682  1
  Ag  Ag19  1  0.66404095  0.66562521  0.65994877  1
  Ag  Ag20  1  -0.00052818  0.83277857  0.17711426  1
  Ag  Ag21  1  0.33697446  -0.00177136  0.33598457  1
  Ag  Ag22  1  0.50046122  0.66802193  0.49672789  1
  Ag  Ag23  1  0.35018141  0.49855682  0.17609561  1
  Ag  Ag24  1  0.00270326  0.00753125  0.00390332  1
  Ag  Ag25  1  0.34244303  0.66182705  0.33773086  1
  Ag  Ag26  1  0.50388536  0.66489608  0.82442757  1
  Ag  Ag27  1  -0.00891184  0.49693841  0.83602782  1
  Ag  Ag28  1  0.83620122  0.50403047  0.66245184  1
  Ag  Ag29  1  0.34471739  0.67248195  0.65408843  1
  Ag  Ag30  1  0.66312967  0.65996488  0.01258859  1
  Ag  Ag31  1  0.15387046  0.33137340  0.16964914  1
  Ag  Ag32  1  0.32927010  0.15844062  0.49777767  1
  Ag  Ag33  1  0.66520185  0.50304665  0.16786214  1
  Ag  Ag34  1  0.16559771  0.16397737  0.65340504  1
  Ag  Ag35  1  0.33673038  0.51578451  0.49160126  1
  Ag  Ag36  1  0.83774270  0.33976924  0.83896743  1
  Ag  Ag37  1  0.00518072  0.33213486  0.32499912  1
  Ag  Ag38  1  0.84254082  0.33999007  0.16680325  1
  Ag  Ag39  1  0.50630927  0.65641906  0.18263359  1
  Ag  Ag40  1  0.33214127  0.83306280  0.49612889  1
  Ag  Ag41  1  -0.00774449  0.48883913  0.16650231  1
  Ag  Ag42  1  0.49850884  0.82835028  0.65757417  1
  Ag  Ag43  1  0.16348008  0.16568317  0.01166550  1
  Ag  Ag44  1  0.66657155  0.16990994  0.17146642  1
  Ag  Ag45  1  0.65890432  0.16329864  0.49097020  1
  Ag  Ag46  1  0.65865291  -0.00210765  0.32868598  1
  Ag  Ag47  1  0.67080789  0.50404131  0.84210390  1
  Ag  Ag48  1  0.83358401  0.82165949  0.66272513  1
  Ag  Ag49  1  0.50190606  0.34556123  0.16882636  1
  Ag  Ag50  1  0.17596356  0.83938559  0.33708677  1
  Ag  Ag51  1  0.65486828  0.66630740  0.33164353  1
  Ag  Ag52  1  0.33294736  0.00176620  0.01143612  1
  Ag  Ag53  1  0.50126525  0.50360205  0.01516271  1
  Sb  Sb54  1  0.50359089  0.50515427  0.66134455  1
  Sb  Sb55  1  0.16152045  0.49512188  0.66480378  1
  Sb  Sb56  1  0.34163408  0.67025715  0.00446621  1
  Sb  Sb57  1  0.00020852  0.17184642  0.83279648  1
  Sb  Sb58  1  0.16913327  0.66474989  0.82928422  1
  Sb  Sb59  1  0.16906037  0.49481189  0.00388914  1
  Sb  Sb60  1  0.83606880  0.17183376  0.33286351  1
  Sb  Sb61  1  0.32924951  0.32962797  0.01010991  1
  Sb  Sb62  1  0.17029776  0.67101383  0.49822577  1
  Sb  Sb63  1  -0.00684702  0.66285283  0.00069043  1
  Sb  Sb64  1  0.32922728  0.33215678  0.65699863  1
  Sb  Sb65  1  0.33325068  0.16700988  0.82722234  1
  Sb  Sb66  1  0.83512860  0.33907979  0.49541601  1
  Sb  Sb67  1  0.00289860  0.49979817  0.49754209  1
  Sb  Sb68  1  0.66543748  0.82496270  0.83240562  1
  Sb  Sb69  1  0.83812851  0.16806212  0.00332049  1
  Sb  Sb70  1  0.33793988  0.50213596  0.83298313  1
  Sb  Sb71  1  0.33271590  0.17028319  0.17518170  1
  Sb  Sb72  1  0.00074435  0.00313872  0.33364285  1
  Sb  Sb73  1  0.16815848  0.00640629  0.17354539  1
  Sb  Sb74  1  0.16600756  0.00094255  0.82887612  1
  Sb  Sb75  1  0.83747299  -0.00542285  0.49953708  1
  Sb  Sb76  1  0.82782411  0.65869364  0.82763596  1
  Sb  Sb77  1  0.82777005  0.50025029  0.00463204  1
  Sb  Sb78  1  0.66896782  0.82929368  0.16905650  1
  Sb  Sb79  1  0.50028262  -0.00530634  0.83498430  1
  Sb  Sb80  1  0.49650031  0.16813892  0.00166819  1
  Sb  Sb81  1  0.16789236  0.66136445  0.16876974  1
  Sb  Sb82  1  0.33519133  0.83317003  0.82364748  1
  Sb  Sb83  1  0.17052069  0.49731765  0.33182671  1
  Sb  Sb84  1  0.49810017  0.33589468  0.49463629  1
  Sb  Sb85  1  0.00095539  0.66340425  0.33549798  1
  Sb  Sb86  1  0.16715792  0.83776730  0.65835157  1
  Sb  Sb87  1  0.66419454  0.83385459  0.49819503  1
  Sb  Sb88  1  0.66657403  0.33603008  0.32999719  1
  Sb  Sb89  1  0.66424431  -0.00350752  0.66401944  1
  Sb  Sb90  1  0.66502906  0.50226736  0.49501529  1
  Sb  Sb91  1  0.49309875  -0.00511961  0.49428078  1
  Sb  Sb92  1  0.15946261  0.33192106  0.83709629  1
  Sb  Sb93  1  0.49597560  0.16833034  0.33583127  1
  Sb  Sb94  1  0.50499261  0.34065119  0.83703399  1
  Sb  Sb95  1  -0.00161777  0.82882360  0.82658755  1
  Sb  Sb96  1  0.83705532  0.16979722  0.66301817  1
  Sb  Sb97  1  0.16527777  0.32529535  0.49217777  1
  Sb  Sb98  1  0.67120148  0.33530547  0.00545395  1
  Sb  Sb99  1  0.83180846  -0.00020737  0.16784694  1
  Sb  Sb100  1  0.66614566  0.17134517  0.83614092  1
  Sb  Sb101  1  0.66977694  0.33784004  0.66618622  1
  Sb  Sb102  1  0.33217599  0.83112646  0.17701403  1
  Sb  Sb103  1  0.49985052  0.82929684  0.00598263  1
  Sb  Sb104  1  0.16651048  0.84133424  0.01216610  1
  Sb  Sb105  1  0.83199330  0.82662618  0.33648755  1
  Sb  Sb106  1  0.83427274  0.00371389  0.83218380  1
  Sb  Sb107  1  0.83365375  0.83171157  -0.00105561  1
  Te  Te108  1  0.16578638  0.17070905  0.17067846  1
  Te  Te109  1  0.16627642  0.16437255  0.49697526  1
  Te  Te110  1  0.16715998  0.16668052  0.83471153  1
  Te  Te111  1  0.15420570  0.49419971  0.16611390  1
  Te  Te112  1  0.17610085  0.49818049  0.49981474  1
  Te  Te113  1  0.15979335  0.49917888  0.83489343  1
  Te  Te114  1  0.16083361  0.83293940  0.17597442  1
  Te  Te115  1  0.16611344  0.83852648  0.49592661  1
  Te  Te116  1  0.16706496  0.83278534  0.83627846  1
  Te  Te117  1  0.50331989  0.15855390  0.16566857  1
  Te  Te118  1  0.49941784  0.16799691  0.50268145  1
  Te  Te119  1  0.50101265  0.16843628  0.82629549  1
  Te  Te120  1  0.50567539  0.50232144  0.16999883  1
  Te  Te121  1  0.49681876  0.50352363  0.49382375  1
  Te  Te122  1  0.50619636  0.50466556  0.83134310  1
  Te  Te123  1  0.49940358  0.83854272  0.17278908  1
  Te  Te124  1  0.49854557  0.82952606  0.49804022  1
  Te  Te125  1  0.50022332  0.82654396  0.82657732  1
  Te  Te126  1  0.83361358  0.17098223  0.16746678  1
  Te  Te127  1  0.83955417  0.16672826  0.49936286  1
  Te  Te128  1  0.83189305  0.17734082  0.83200626  1
  Te  Te129  1  0.83294235  0.50018270  0.16660015  1
  Te  Te130  1  0.83423937  0.50583552  0.49991461  1
  Te  Te131  1  0.83207602  0.49786371  0.83271900  1
  Te  Te132  1  0.83997086  0.82950487  0.16717054  1
  Te  Te133  1  0.83779916  0.82745828  0.50357427  1
  Te  Te134  1  0.83254304  0.83355830  0.82435726  1
  Te  Te135  1  0.16612186  0.00541534  0.00059957  1
  Te  Te136  1  0.16684129  0.00107778  0.33759097  1
  Te  Te137  1  0.16787124  0.00377310  0.66320149  1
  Te  Te138  1  0.16148929  0.32743894  0.00534012  1
  Te  Te139  1  0.16698983  0.33120478  0.32879642  1
  Te  Te140  1  0.16139914  0.32602406  0.66874363  1
  Te  Te141  1  0.16933769  0.66938998  -0.00117015  1
  Te  Te142  1  0.17167114  0.67389274  0.33241953  1
  Te  Te143  1  0.16532895  0.66662112  0.66629380  1
  Te  Te144  1  0.49865310  -0.00074291  0.00256160  1
  Te  Te145  1  0.49944199  0.00393854  0.33087470  1
  Te  Te146  1  0.49726974  -0.00160752  0.66800733  1
  Te  Te147  1  0.49920561  0.33742082  0.00466825  1
  Te  Te148  1  0.49678066  0.33595157  0.32840246  1
  Te  Te149  1  0.49929912  0.32878300  0.66791735  1
  Te  Te150  1  0.50480980  0.66498971  0.00044973  1
  Te  Te151  1  0.49879148  0.66670141  0.33674949  1
  Te  Te152  1  0.50190454  0.66687977  0.66145029  1
  Te  Te153  1  0.83747746  -0.00014600  -0.00094709  1
  Te  Te154  1  0.82253756  -0.00130748  0.33399143  1
  Te  Te155  1  0.83657858  -0.00268345  0.66767129  1
  Te  Te156  1  0.83956708  0.33366162  0.00205007  1
  Te  Te157  1  0.83710800  0.33987713  0.32850850  1
  Te  Te158  1  0.83675982  0.33883541  0.66508941  1
  Te  Te159  1  0.82422597  0.66865185  0.00602133  1
  Te  Te160  1  0.83564544  0.66214750  0.33490219  1
  Te  Te161  1  0.83277822  0.66425382  0.66674800  1
  Te  Te162  1  0.00304495  0.16808757  -0.00041523  1
  Te  Te163  1  0.00214809  0.16881679  0.33330181  1
  Te  Te164  1  0.00163270  0.16144770  0.66597282  1
  Te  Te165  1  0.00087589  0.49629659  0.00042875  1
  Te  Te166  1  0.00021866  0.49594915  0.33097222  1
  Te  Te167  1  -0.00222115  0.50155914  0.66453432  1
  Te  Te168  1  0.00015368  0.83558110  -0.00085420  1
  Te  Te169  1  -0.00145383  0.83467324  0.33690173  1
  Te  Te170  1  -0.00016354  0.83425581  0.66275397  1
  Te  Te171  1  0.32788120  0.16163923  -0.00103752  1
  Te  Te172  1  0.32982331  0.16238700  0.33735287  1
  Te  Te173  1  0.33160544  0.16455165  0.66173583  1
  Te  Te174  1  0.33848614  0.50017830  0.00316679  1
  Te  Te175  1  0.33221898  0.50075638  0.33216171  1
  Te  Te176  1  0.33238212  0.50221662  0.66409863  1
  Te  Te177  1  0.33339880  0.84161136  -0.00120075  1
  Te  Te178  1  0.33509461  0.83707485  0.33587573  1
  Te  Te179  1  0.33458731  0.83383171  0.65970452  1
  Te  Te180  1  0.66564773  0.16186740  0.00485172  1
  Te  Te181  1  0.66694665  0.16594133  0.33175481  1
  Te  Te182  1  0.66473020  0.16639007  0.66629368  1
  Te  Te183  1  0.66177772  0.50114401  0.00352660  1
  Te  Te184  1  0.66725555  0.50255024  0.33069978  1
  Te  Te185  1  0.67132476  0.50459877  0.66331866  1
  Te  Te186  1  0.66670265  0.83963880  -0.00058582  1
  Te  Te187  1  0.66167390  0.83171664  0.33443929  1
  Te  Te188  1  0.66566853  0.82844264  0.66542058  1
  Te  Te189  1  -0.00013188  -0.00068978  0.16508383  1
  Te  Te190  1  0.00261500  0.00049128  0.50039910  1
  Te  Te191  1  -0.00089179  -0.00121080  0.83563756  1
  Te  Te192  1  -0.00248119  0.32981051  0.16954084  1
  Te  Te193  1  -0.00045848  0.33020635  0.50489177  1
  Te  Te194  1  -0.00377610  0.33804173  0.82358815  1
  Te  Te195  1  -0.00025667  0.67138304  0.16550940  1
  Te  Te196  1  0.00058589  0.66803353  0.50316348  1
  Te  Te197  1  -0.00034554  0.66021602  0.82991025  1
  Te  Te198  1  0.33483055  -0.00026798  0.16996921  1
  Te  Te199  1  0.33276258  -0.00154940  0.49735235  1
  Te  Te200  1  0.33407200  0.00061255  0.83193922  1
  Te  Te201  1  0.34170821  0.33697848  0.17173719  1
  Te  Te202  1  0.33256025  0.32734602  0.49218897  1
  Te  Te203  1  0.33436154  0.33551605  0.83435385  1
  Te  Te204  1  0.33675881  0.66181060  0.17068556  1
  Te  Te205  1  0.33285363  0.67151483  0.49806856  1
  Te  Te206  1  0.34029588  0.66610566  0.82976343  1
  Te  Te207  1  0.66712965  -0.00130251  0.16757116  1
  Te  Te208  1  0.66719579  0.00472418  0.49753815  1
  Te  Te209  1  0.66735364  0.00129248  0.83917009  1
  Te  Te210  1  0.66183113  0.33057253  0.16688029  1
  Te  Te211  1  0.66686796  0.32195443  0.49870296  1
  Te  Te212  1  0.67353696  0.34162716  0.83516502  1
  Te  Te213  1  0.66533879  0.66692456  0.17019857  1
  Te  Te214  1  0.66692469  0.66712376  0.49804112  1
  Te  Te215  1  0.66336352  0.66117150  0.83100628  1
