# generated using pymatgen
data_AgSbTe2
_symmetry_space_group_name_H-M   'P 1'
_cell_length_a   18.33180822
_cell_length_b   18.32882830
_cell_length_c   18.32716867
_cell_angle_alpha   90.00057787
_cell_angle_beta   90.00222697
_cell_angle_gamma   90.00125167
_symmetry_Int_Tables_number   1
_chemical_formula_structural   AgSbTe2
_chemical_formula_sum   'Ag54 Sb54 Te108'
_cell_volume   6157.93902933
_cell_formula_units_Z   54
loop_
 _symmetry_equiv_pos_site_id
 _symmetry_equiv_pos_as_xyz
  1  'x, y, z'
loop_
 _atom_site_type_symbol
 _atom_site_label
 _atom_site_symmetry_multiplicity
 _atom_site_fract_x
 _atom_site_fract_y
 _atom_site_fract_z
 _atom_site_occupancy
  Ag  Ag0  1  0.32735057  0.00131182  0.65957181  1
  Ag  Ag1  1  0.83548074  0.31783034  0.50027112  1
  Ag  Ag2  1  0.16238168  0.16257788  -0.00036539  1
  Ag  Ag3  1  0.00028980  0.31980389  0.66779525  1
  Ag  Ag4  1  0.33455474  0.32764401  0.00618383  1
  Ag  Ag5  1  0.50318613  -0.00229415  0.49278479  1
  Ag  Ag6  1  0.49753843  -0.00368614  0.17221125  1
  Ag  Ag7  1  0.00787463  0.00571127  0.00256504  1
  Ag  Ag8  1  0.67184961  0.83953973  0.49864629  1
  Ag  Ag9  1  0.16680798  0.67675474  0.50616359  1
  Ag  Ag10  1  0.84053223  -0.00059475  0.49880399  1
  Ag  Ag11  1  0.49667375  0.67576884  0.49525476  1
  Ag  Ag12  1  0.49682167  0.49863682  0.32672253  1
  Ag  Ag13  1  0.16443736  0.51394384  0.66551185  1
  Ag  Ag14  1  0.84191367  0.67142423  0.82919090  1
  Ag  Ag15  1  0.67615379  0.67709244  0.66607226  1
  Ag  Ag16  1  -0.00161881  0.15864682  0.50304449  1
  Ag  Ag17  1  0.65851921  0.83438243  0.17070423  1
  Ag  Ag18  1  0.65875957  0.32941551  0.00044171  1
  Ag  Ag19  1  -0.00476037  0.84080911  0.50552890  1
  Ag  Ag20  1  0.49693686  0.83924756  0.00715773  1
  Ag  Ag21  1  0.00058472  0.16447811  0.16491643  1
  Ag  Ag22  1  0.15889008  0.15657620  0.66728081  1
  Ag  Ag23  1  0.17348686  0.66719302  0.16545459  1
  Ag  Ag24  1  0.50157727  0.16040692  0.66487335  1
  Ag  Ag25  1  0.15997344  0.83815754  0.66529907  1
  Ag  Ag26  1  0.67218199  0.16329915  0.83171509  1
  Ag  Ag27  1  0.49313043  0.16362823  0.00210972  1
  Ag  Ag28  1  0.33803720  0.00372787  0.33346330  1
  Ag  Ag29  1  0.83573326  0.66998807  0.16513872  1
  Ag  Ag30  1  0.33946745  0.83174536  0.16395649  1
  Ag  Ag31  1  0.00222832  0.84078234  0.82487029  1
  Ag  Ag32  1  -0.00119346  0.00406530  0.33680261  1
  Ag  Ag33  1  0.33490048  0.32295295  0.32699418  1
  Ag  Ag34  1  0.16080065  0.67547852  0.82459394  1
  Ag  Ag35  1  0.49606237  0.67548789  0.16764448  1
  Ag  Ag36  1  0.49710053  0.15864147  0.33236966  1
  Ag  Ag37  1  0.33372783  0.67262984  0.00565374  1
  Ag  Ag38  1  0.16290922  -0.00159197  0.82133882  1
  Ag  Ag39  1  0.00632373  0.50079338  0.16572478  1
  Ag  Ag40  1  0.33178685  0.00138394  0.00326207  1
  Ag  Ag41  1  0.66607665  -0.00044571  0.34187204  1
  Ag  Ag42  1  0.00292315  0.32300697  -0.00216628  1
  Ag  Ag43  1  0.49470377  0.50309334  0.00751152  1
  Ag  Ag44  1  0.15875278  -0.00245057  0.50410134  1
  Ag  Ag45  1  0.84420950  0.15841079  0.34151699  1
  Ag  Ag46  1  0.16102100  0.16129626  0.33312972  1
  Ag  Ag47  1  0.84185308  0.15659098  0.66090378  1
  Ag  Ag48  1  0.66394639  -0.00311981  0.65910610  1
  Ag  Ag49  1  0.83292363  0.84168324  0.34277297  1
  Ag  Ag50  1  0.33291761  0.50795460  0.16515152  1
  Ag  Ag51  1  0.00044559  0.15904327  0.82653226  1
  Ag  Ag52  1  0.00185170  0.67708008  0.66792658  1
  Ag  Ag53  1  0.84206760  0.84006953  0.66101482  1
  Sb  Sb54  1  0.67241533  0.32561497  0.66859461  1
  Sb  Sb55  1  0.17014005  0.83816800  -0.00283765  1
  Sb  Sb56  1  0.66543014  0.50876535  0.50005657  1
  Sb  Sb57  1  0.83108260  0.83468686  -0.00066531  1
  Sb  Sb58  1  0.49806569  0.33144267  0.16502955  1
  Sb  Sb59  1  0.33289630  0.50276094  0.49334609  1
  Sb  Sb60  1  0.66292595  0.00278368  -0.00033175  1
  Sb  Sb61  1  0.50065659  0.32890223  0.83684712  1
  Sb  Sb62  1  0.33267056  0.83729422  0.49573572  1
  Sb  Sb63  1  0.83114936  -0.00470763  0.17550769  1
  Sb  Sb64  1  0.33496419  0.67189296  0.32658583  1
  Sb  Sb65  1  0.17061735  0.49776920  -0.00127586  1
  Sb  Sb66  1  0.33083310  0.50206615  0.84032334  1
  Sb  Sb67  1  0.83852272  0.16547475  -0.00145584  1
  Sb  Sb68  1  0.00553598  0.66870847  -0.00257777  1
  Sb  Sb69  1  0.33062042  0.16349490  0.16650950  1
  Sb  Sb70  1  0.49422900  0.49968326  0.66476096  1
  Sb  Sb71  1  0.67181400  0.83770924  0.83017873  1
  Sb  Sb72  1  0.17112207  -0.00240346  0.16935099  1
  Sb  Sb73  1  0.32736186  0.83573924  0.83767698  1
  Sb  Sb74  1  0.00205472  0.50029961  0.49868072  1
  Sb  Sb75  1  0.00243368  0.50096818  0.83480246  1
  Sb  Sb76  1  0.83517615  0.67501283  0.50156197  1
  Sb  Sb77  1  0.50470337  0.32448114  0.49797613  1
  Sb  Sb78  1  0.83229244  0.50009083  0.00183641  1
  Sb  Sb79  1  0.66662361  0.49875183  0.83364629  1
  Sb  Sb80  1  0.66437787  0.67544434  0.33606028  1
  Sb  Sb81  1  0.32789579  0.16235227  0.49702760  1
  Sb  Sb82  1  0.66157679  0.50623535  0.16646804  1
  Sb  Sb83  1  0.16755314  0.33357600  0.16585235  1
  Sb  Sb84  1  0.00086809  0.83512420  0.16762683  1
  Sb  Sb85  1  0.66868663  0.16052649  0.16404748  1
  Sb  Sb86  1  0.32811732  0.67212015  0.66925529  1
  Sb  Sb87  1  0.66388633  0.32295913  0.33064944  1
  Sb  Sb88  1  0.32776895  0.16341245  0.83602607  1
  Sb  Sb89  1  0.49591722  0.00172614  0.83339056  1
  Sb  Sb90  1  0.16271088  0.32629916  0.50114767  1
  Sb  Sb91  1  0.32695523  0.32559481  0.66681452  1
  Sb  Sb92  1  0.17030141  0.49689257  0.33462015  1
  Sb  Sb93  1  0.49958396  0.83920308  0.66720233  1
  Sb  Sb94  1  0.83931336  0.50316225  0.66497308  1
  Sb  Sb95  1  0.00348453  0.32408189  0.33444205  1
  Sb  Sb96  1  0.83063186  0.50078865  0.33243421  1
  Sb  Sb97  1  0.00354629  -0.00071160  0.66101649  1
  Sb  Sb98  1  0.84264531  -0.00177623  0.82403768  1
  Sb  Sb99  1  0.50418923  0.83953437  0.32835409  1
  Sb  Sb100  1  0.83606872  0.33270751  0.83054162  1
  Sb  Sb101  1  0.67408142  0.15619971  0.50459294  1
  Sb  Sb102  1  0.66126873  0.66530489  -0.00224710  1
  Sb  Sb103  1  0.49835915  0.66928662  0.83520131  1
  Sb  Sb104  1  0.16415420  0.32805133  0.83370436  1
  Sb  Sb105  1  0.83656308  0.33326590  0.16981351  1
  Sb  Sb106  1  0.16232418  0.84021519  0.33785917  1
  Sb  Sb107  1  0.00034439  0.67169388  0.33585988  1
  Te  Te108  1  0.16133970  0.16655102  0.16639098  1
  Te  Te109  1  0.16184939  0.16224706  0.50164818  1
  Te  Te110  1  0.16180355  0.16277121  0.83312749  1
  Te  Te111  1  0.16760418  0.50452747  0.16728840  1
  Te  Te112  1  0.16681063  0.50398575  0.50387375  1
  Te  Te113  1  0.16606131  0.50661555  0.82717179  1
  Te  Te114  1  0.16935928  0.82654573  0.16731638  1
  Te  Te115  1  0.16661201  0.83597618  0.50309075  1
  Te  Te116  1  0.16219665  0.83534880  0.83107317  1
  Te  Te117  1  0.50113911  0.16187151  0.16617557  1
  Te  Te118  1  0.50005899  0.16084549  0.49941977  1
  Te  Te119  1  0.50343789  0.16559850  0.83378096  1
  Te  Te120  1  0.49749714  0.50021064  0.16618336  1
  Te  Te121  1  0.50001487  0.50304770  0.49640220  1
  Te  Te122  1  0.49947036  0.49978872  0.83955265  1
  Te  Te123  1  0.49944464  0.83435504  0.16590826  1
  Te  Te124  1  0.50231110  0.83456109  0.50048206  1
  Te  Te125  1  0.50145813  0.83370104  0.84307126  1
  Te  Te126  1  0.83768014  0.16643978  0.17208287  1
  Te  Te127  1  0.83536760  0.16112158  0.50109178  1
  Te  Te128  1  0.83634023  0.16678059  0.82740744  1
  Te  Te129  1  0.83587789  0.50652435  0.16786576  1
  Te  Te130  1  0.83326304  0.49655235  0.49845235  1
  Te  Te131  1  0.83372839  0.50992465  0.83355318  1
  Te  Te132  1  0.83230766  0.82862109  0.16706291  1
  Te  Te133  1  0.83374072  0.83479950  0.50192000  1
  Te  Te134  1  0.83816951  0.82929376  0.82888109  1
  Te  Te135  1  0.16797531  0.00359491  0.00458159  1
  Te  Te136  1  0.16583944  0.00402270  0.33581803  1
  Te  Te137  1  0.16794966  -0.00068721  0.66443307  1
  Te  Te138  1  0.16574004  0.32831416  -0.00058030  1
  Te  Te139  1  0.17403669  0.32680470  0.33466627  1
  Te  Te140  1  0.16169564  0.32504934  0.66675156  1
  Te  Te141  1  0.17180801  0.66625107  0.00442981  1
  Te  Te142  1  0.16675921  0.66605770  0.33418004  1
  Te  Te143  1  0.16633163  0.67209247  0.66604491  1
  Te  Te144  1  0.49746356  0.00225742  -0.00050351  1
  Te  Te145  1  0.49905355  -0.00033323  0.33230022  1
  Te  Te146  1  0.50089688  0.00278190  0.66762969  1
  Te  Te147  1  0.49748270  0.32658910  0.00066549  1
  Te  Te148  1  0.49603295  0.33129621  0.33379513  1
  Te  Te149  1  0.49886359  0.32919823  0.66590216  1
  Te  Te150  1  0.49641789  0.66501433  0.00192954  1
  Te  Te151  1  0.50010012  0.66337545  0.33389924  1
  Te  Te152  1  0.49795035  0.66466668  0.66330587  1
  Te  Te153  1  0.83667273  -0.00053300  -0.00000587  1
  Te  Te154  1  0.83350130  0.00072270  0.33588429  1
  Te  Te155  1  0.82675997  -0.00082890  0.66279190  1
  Te  Te156  1  0.83841436  0.33409454  0.00002288  1
  Te  Te157  1  0.83273626  0.32869866  0.33801478  1
  Te  Te158  1  0.83900583  0.33291949  0.66298579  1
  Te  Te159  1  0.83225672  0.66677841  0.00223514  1
  Te  Te160  1  0.83247714  0.66936358  0.32840157  1
  Te  Te161  1  0.83586841  0.66834526  0.66667137  1
  Te  Te162  1  -0.00009510  0.16564002  0.00124011  1
  Te  Te163  1  0.00154393  0.16485815  0.33522838  1
  Te  Te164  1  -0.00053722  0.16312043  0.66613568  1
  Te  Te165  1  0.00108661  0.49711002  0.00536401  1
  Te  Te166  1  0.00037177  0.49786911  0.32634266  1
  Te  Te167  1  0.00638491  0.50179662  0.66639712  1
  Te  Te168  1  -0.00012520  0.83821175  -0.00272687  1
  Te  Te169  1  -0.00557317  0.83903173  0.33636617  1
  Te  Te170  1  0.00040484  0.83399598  0.66585737  1
  Te  Te171  1  0.33305953  0.16543727  0.00116562  1
  Te  Te172  1  0.33543774  0.16422824  0.33167585  1
  Te  Te173  1  0.33748657  0.16240368  0.66783326  1
  Te  Te174  1  0.33564622  0.49741284  0.00525855  1
  Te  Te175  1  0.33702148  0.49917052  0.32706520  1
  Te  Te176  1  0.32626990  0.49655169  0.66685222  1
  Te  Te177  1  0.33590434  0.83558061  0.00308439  1
  Te  Te178  1  0.33068231  0.84142110  0.32621086  1
  Te  Te179  1  0.33070362  0.84087457  0.66753718  1
  Te  Te180  1  0.66740618  0.17050215  -0.00324565  1
  Te  Te181  1  0.66081934  0.16017892  0.33187755  1
  Te  Te182  1  0.66248516  0.16501641  0.67079338  1
  Te  Te183  1  0.66021972  0.49338253  -0.00065694  1
  Te  Te184  1  0.65941754  0.49734421  0.33288430  1
  Te  Te185  1  0.66484872  0.50341314  0.66767812  1
  Te  Te186  1  0.66166618  0.83345408  0.00283938  1
  Te  Te187  1  0.67154839  0.83889501  0.33423947  1
  Te  Te188  1  0.66512912  0.83462685  0.66523706  1
  Te  Te189  1  -0.00012574  0.00314463  0.16705768  1
  Te  Te190  1  0.00012650  -0.00036185  0.49742245  1
  Te  Te191  1  0.00351623  0.00008002  0.83963275  1
  Te  Te192  1  0.00052853  0.33193639  0.16303989  1
  Te  Te193  1  -0.00409891  0.33261337  0.50344164  1
  Te  Te194  1  -0.00054660  0.32949871  0.83341373  1
  Te  Te195  1  0.00012048  0.66591279  0.16646147  1
  Te  Te196  1  0.00468562  0.66855528  0.50355241  1
  Te  Te197  1  0.00189252  0.66750219  0.83131004  1
  Te  Te198  1  0.33676938  -0.00172964  0.16549572  1
  Te  Te199  1  0.33809728  0.00028016  0.49909954  1
  Te  Te200  1  0.32472943  0.00010462  0.83777661  1
  Te  Te201  1  0.33320008  0.33800301  0.16624415  1
  Te  Te202  1  0.33455103  0.33406748  0.49496277  1
  Te  Te203  1  0.33242305  0.33392871  0.84109336  1
  Te  Te204  1  0.33580693  0.66849864  0.16537467  1
  Te  Te205  1  0.33384636  0.66921572  0.49991929  1
  Te  Te206  1  0.32735454  0.66802184  0.84025943  1
  Te  Te207  1  0.66139395  -0.00583232  0.16717763  1
  Te  Te208  1  0.66283230  -0.00198058  0.50032832  1
  Te  Te209  1  0.66910204  0.00433768  0.83109838  1
  Te  Te210  1  0.66890670  0.33485988  0.16044679  1
  Te  Te211  1  0.67340889  0.33623625  0.49998373  1
  Te  Te212  1  0.66889297  0.32726939  0.83840491  1
  Te  Te213  1  0.66289712  0.67298667  0.16601010  1
  Te  Te214  1  0.66378415  0.67455475  0.50496009  1
  Te  Te215  1  0.66906150  0.66753147  0.82724114  1
