# generated using pymatgen
data_AgSbTe2
_symmetry_space_group_name_H-M   'P 1'
_cell_length_a   18.35715821
_cell_length_b   18.35014469
_cell_length_c   18.36057043
_cell_angle_alpha   90.00118041
_cell_angle_beta   89.99940738
_cell_angle_gamma   90.00164240
_symmetry_Int_Tables_number   1
_chemical_formula_structural   AgSbTe2
_chemical_formula_sum   'Ag54 Sb54 Te108'
_cell_volume   6184.87765786
_cell_formula_units_Z   54
loop_
 _symmetry_equiv_pos_site_id
 _symmetry_equiv_pos_as_xyz
  1  'x, y, z'
loop_
 _atom_site_type_symbol
 _atom_site_label
 _atom_site_symmetry_multiplicity
 _atom_site_fract_x
 _atom_site_fract_y
 _atom_site_fract_z
 _atom_site_occupancy
  Ag  Ag0  1  0.00690331  0.49785196  0.50264068  1
  Ag  Ag1  1  0.33879674  0.00239128  0.34285442  1
  Ag  Ag2  1  0.34094391  0.66844094  0.34408052  1
  Ag  Ag3  1  0.49335994  -0.00092858  0.82004962  1
  Ag  Ag4  1  0.33813297  0.66654420  0.66346594  1
  Ag  Ag5  1  0.00478595  0.16671316  0.50256579  1
  Ag  Ag6  1  0.65722411  -0.00354551  0.65886902  1
  Ag  Ag7  1  0.65865017  -0.00846209  0.34310379  1
  Ag  Ag8  1  0.17313094  0.65675179  0.82724158  1
  Ag  Ag9  1  0.49439896  0.16740715  -0.00611303  1
  Ag  Ag10  1  0.64971974  0.14522318  0.50127140  1
  Ag  Ag11  1  0.49102696  0.50919109  0.66575128  1
  Ag  Ag12  1  0.66769763  0.66589360  -0.00400080  1
  Ag  Ag13  1  0.16987637  0.16974931  -0.01722102  1
  Ag  Ag14  1  0.66352997  0.83004910  0.82385456  1
  Ag  Ag15  1  0.83393099  0.82553364  0.00079765  1
  Ag  Ag16  1  0.50139221  0.33234542  0.18007507  1
  Ag  Ag17  1  0.16395529  0.50138238  0.34964037  1
  Ag  Ag18  1  0.33585895  0.16214139  0.50541458  1
  Ag  Ag19  1  0.32699650  0.50164939  0.82881017  1
  Ag  Ag20  1  0.16853597  0.49924561  0.66570155  1
  Ag  Ag21  1  0.16998307  0.65850937  0.50693210  1
  Ag  Ag22  1  0.17203016  0.01019860  0.83043510  1
  Ag  Ag23  1  0.17296075  0.16540315  0.35033341  1
  Ag  Ag24  1  0.84395321  0.50496327  0.33906224  1
  Ag  Ag25  1  0.16958031  0.33378770  0.50162347  1
  Ag  Ag26  1  0.50182842  0.84158481  0.33614754  1
  Ag  Ag27  1  0.49201153  0.16137840  0.34897988  1
  Ag  Ag28  1  0.83753749  0.50690744  0.00245924  1
  Ag  Ag29  1  0.83274412  0.66480927  0.17654801  1
  Ag  Ag30  1  0.00023810  0.50268141  0.17325544  1
  Ag  Ag31  1  0.82123366  0.66519551  0.49758531  1
  Ag  Ag32  1  0.33109801  0.16472465  0.82389753  1
  Ag  Ag33  1  0.00454820  0.32579244  0.66326974  1
  Ag  Ag34  1  0.01087369  0.00791063  0.66364687  1
  Ag  Ag35  1  0.51099948  0.01109936  0.50221101  1
  Ag  Ag36  1  0.66828019  0.51710528  0.50122319  1
  Ag  Ag37  1  0.00498440  0.00273567  0.34243507  1
  Ag  Ag38  1  0.48778117  0.15660677  0.66362483  1
  Ag  Ag39  1  0.00541363  0.49896191  0.82686125  1
  Ag  Ag40  1  0.66327432  0.34143516  -0.00108879  1
  Ag  Ag41  1  0.00912215  0.16754942  0.82059076  1
  Ag  Ag42  1  0.66080575  0.66946479  0.34576271  1
  Ag  Ag43  1  0.49780482  0.67082624  0.82347483  1
  Ag  Ag44  1  0.50096661  0.32429675  0.50134983  1
  Ag  Ag45  1  0.33646289  0.00877972  0.66367471  1
  Ag  Ag46  1  0.16211700  0.82323262  -0.00530324  1
  Ag  Ag47  1  0.16118123  0.50042243  -0.01624297  1
  Ag  Ag48  1  -0.00044190  0.82513919  0.16749594  1
  Ag  Ag49  1  0.50512287  0.66752511  0.50429925  1
  Ag  Ag50  1  0.66488379  0.83164754  0.50307315  1
  Ag  Ag51  1  0.82271150  -0.00390848  0.50037115  1
  Ag  Ag52  1  0.17011364  0.16788741  0.66523863  1
  Ag  Ag53  1  0.65850518  0.67001297  0.66059617  1
  Sb  Sb54  1  0.16680384  0.33320027  0.82554148  1
  Sb  Sb55  1  0.32878193  0.83278793  0.16870140  1
  Sb  Sb56  1  0.16966612  0.33482410  0.17188838  1
  Sb  Sb57  1  -0.00305581  0.66453600  -0.00105826  1
  Sb  Sb58  1  0.33169465  0.00207448  -0.00436298  1
  Sb  Sb59  1  0.49974628  0.49679720  -0.00689891  1
  Sb  Sb60  1  0.66288041  0.16848005  0.17259014  1
  Sb  Sb61  1  0.50095210  0.00472118  0.17475329  1
  Sb  Sb62  1  0.83477443  0.33472845  0.83325412  1
  Sb  Sb63  1  0.50123156  0.83417903  0.65906129  1
  Sb  Sb64  1  0.33509926  0.16665936  0.16945715  1
  Sb  Sb65  1  0.66666649  0.33299728  0.66575997  1
  Sb  Sb66  1  0.33619607  0.83393736  0.83122293  1
  Sb  Sb67  1  0.50043774  0.83601379  0.00052828  1
  Sb  Sb68  1  0.16659754  0.00081091  0.16444820  1
  Sb  Sb69  1  0.82966828  0.82843062  0.33304561  1
  Sb  Sb70  1  -0.00109999  0.66622219  0.33489005  1
  Sb  Sb71  1  0.83237514  0.33631076  0.49941616  1
  Sb  Sb72  1  0.83599390  0.50249280  0.66381936  1
  Sb  Sb73  1  0.17028539  0.00372812  0.50482903  1
  Sb  Sb74  1  0.66096048  0.16166123  0.82669927  1
  Sb  Sb75  1  0.00217371  -0.00044218  -0.00304672  1
  Sb  Sb76  1  0.50568968  0.66212926  0.17171453  1
  Sb  Sb77  1  0.83431527  0.16744622  -0.00202209  1
  Sb  Sb78  1  0.33499633  0.33254644  -0.00130198  1
  Sb  Sb79  1  0.00159581  0.33359308  0.33992559  1
  Sb  Sb80  1  0.00013658  0.33702825  -0.00433390  1
  Sb  Sb81  1  0.83079902  0.34036970  0.16572142  1
  Sb  Sb82  1  0.00188407  0.66720328  0.66613454  1
  Sb  Sb83  1  0.82956405  0.83381269  0.66697224  1
  Sb  Sb84  1  0.33469526  0.66624530  -0.00502220  1
  Sb  Sb85  1  -0.00230921  0.83459995  0.49634226  1
  Sb  Sb86  1  0.66995008  0.50113486  0.17126635  1
  Sb  Sb87  1  0.66542093  -0.00283687  -0.00373252  1
  Sb  Sb88  1  0.16230486  0.66514895  0.16635118  1
  Sb  Sb89  1  0.00062852  0.83311962  0.83628589  1
  Sb  Sb90  1  0.83560042  0.16386967  0.66335925  1
  Sb  Sb91  1  0.32997031  0.33277666  0.66462536  1
  Sb  Sb92  1  0.00275691  0.16939688  0.17114418  1
  Sb  Sb93  1  0.32926974  0.50095136  0.16496015  1
  Sb  Sb94  1  0.83350120  -0.00132149  0.82735003  1
  Sb  Sb95  1  0.66994446  0.83124273  0.16984964  1
  Sb  Sb96  1  0.83299214  0.16685935  0.33812044  1
  Sb  Sb97  1  0.33775575  0.83466000  0.50019002  1
  Sb  Sb98  1  0.49776154  0.49896379  0.34228700  1
  Sb  Sb99  1  0.83074129  0.66710528  0.82989596  1
  Sb  Sb100  1  0.83573008  -0.00683968  0.17387953  1
  Sb  Sb101  1  0.66671346  0.50540172  0.82898586  1
  Sb  Sb102  1  0.33256800  0.50124605  0.50573894  1
  Sb  Sb103  1  0.33345078  0.33320162  0.33841079  1
  Sb  Sb104  1  0.16645913  0.83399288  0.66941396  1
  Sb  Sb105  1  0.66452532  0.33500698  0.33622963  1
  Sb  Sb106  1  0.49883476  0.33133940  0.82571564  1
  Sb  Sb107  1  0.16817709  0.83328777  0.33325232  1
  Te  Te108  1  0.16698073  0.16853860  0.16653621  1
  Te  Te109  1  0.16533557  0.16461130  0.50469040  1
  Te  Te110  1  0.16808596  0.16782378  0.82663923  1
  Te  Te111  1  0.16062347  0.49910808  0.16644976  1
  Te  Te112  1  0.16920179  0.49718182  0.50509131  1
  Te  Te113  1  0.16631467  0.49847657  0.82809760  1
  Te  Te114  1  0.15946460  0.83325395  0.15972275  1
  Te  Te115  1  0.16447605  0.82042208  0.49947723  1
  Te  Te116  1  0.16644446  0.83242076  0.83781939  1
  Te  Te117  1  0.50083740  0.17251127  0.15512684  1
  Te  Te118  1  0.49710036  0.16613950  0.50291966  1
  Te  Te119  1  0.49686098  0.16219142  0.83028792  1
  Te  Te120  1  0.49823128  0.49207424  0.16434286  1
  Te  Te121  1  0.49953349  0.50843621  0.50519607  1
  Te  Te122  1  0.49867903  0.50480107  0.82691695  1
  Te  Te123  1  0.49756668  0.83291712  0.17397048  1
  Te  Te124  1  0.50207060  0.82522391  0.49415464  1
  Te  Te125  1  0.50363447  0.83359020  0.83915170  1
  Te  Te126  1  0.83304909  0.16730084  0.16727333  1
  Te  Te127  1  0.84274480  0.16444104  0.49815068  1
  Te  Te128  1  0.84285799  0.16656642  0.83413008  1
  Te  Te129  1  0.83611702  0.50480088  0.16405055  1
  Te  Te130  1  0.83073004  0.50274990  0.49867163  1
  Te  Te131  1  0.83911845  0.50097790  0.83754893  1
  Te  Te132  1  0.83830167  0.82780393  0.16283234  1
  Te  Te133  1  0.83064640  0.83171793  0.50001853  1
  Te  Te134  1  0.82941664  0.83437437  0.84082172  1
  Te  Te135  1  0.16714549  0.00906665  -0.00569329  1
  Te  Te136  1  0.16704355  0.00261232  0.33166118  1
  Te  Te137  1  0.16974913  -0.00040903  0.67043014  1
  Te  Te138  1  0.16690740  0.33255231  0.00368316  1
  Te  Te139  1  0.16691148  0.33206957  0.33949735  1
  Te  Te140  1  0.16421138  0.33418641  0.66051022  1
  Te  Te141  1  0.16831636  0.66330912  -0.00260664  1
  Te  Te142  1  0.16780229  0.66443630  0.33286315  1
  Te  Te143  1  0.16716891  0.66618898  0.66855892  1
  Te  Te144  1  0.49982762  0.00502769  0.00369131  1
  Te  Te145  1  0.49907289  0.00235238  0.33712250  1
  Te  Te146  1  0.49812165  -0.00128142  0.66391131  1
  Te  Te147  1  0.50304831  0.32967294  -0.00764203  1
  Te  Te148  1  0.49974826  0.32741562  0.33731434  1
  Te  Te149  1  0.50242727  0.33514729  0.65959358  1
  Te  Te150  1  0.50349296  0.66650310  0.00271654  1
  Te  Te151  1  0.50059331  0.66391759  0.33422601  1
  Te  Te152  1  0.49951945  0.66904227  0.66668599  1
  Te  Te153  1  0.83272910  -0.00273771  0.00273747  1
  Te  Te154  1  0.83549799  -0.00059438  0.34120725  1
  Te  Te155  1  0.82779358  -0.00127228  0.65952957  1
  Te  Te156  1  0.82656879  0.33705261  0.00080554  1
  Te  Te157  1  0.83242543  0.34548640  0.33141066  1
  Te  Te158  1  0.84190418  0.33403570  0.66674777  1
  Te  Te159  1  0.83171264  0.66599969  -0.00635470  1
  Te  Te160  1  0.83295081  0.66330372  0.33476852  1
  Te  Te161  1  0.82608425  0.66808271  0.66014187  1
  Te  Te162  1  0.00351655  0.16837239  0.00143035  1
  Te  Te163  1  0.00299741  0.16371701  0.33704871  1
  Te  Te164  1  -0.00060269  0.16585619  0.66409761  1
  Te  Te165  1  0.00051482  0.49889826  -0.00514993  1
  Te  Te166  1  0.00312741  0.50016450  0.33810429  1
  Te  Te167  1  0.00269919  0.50268013  0.66462092  1
  Te  Te168  1  0.00072949  0.83368827  0.00402897  1
  Te  Te169  1  -0.00007227  0.83938723  0.32791906  1
  Te  Te170  1  -0.00285694  0.84454716  0.66719836  1
  Te  Te171  1  0.33138231  0.16600776  -0.00075597  1
  Te  Te172  1  0.33255313  0.16605738  0.33552204  1
  Te  Te173  1  0.33217290  0.16858066  0.66659966  1
  Te  Te174  1  0.32760624  0.50034213  -0.00540129  1
  Te  Te175  1  0.32597573  0.50615247  0.33087651  1
  Te  Te176  1  0.33281329  0.50208663  0.66970086  1
  Te  Te177  1  0.32359985  0.83442905  0.00138096  1
  Te  Te178  1  0.33593897  0.83068087  0.33238559  1
  Te  Te179  1  0.33293849  0.82826083  0.66689472  1
  Te  Te180  1  0.66597048  0.16713193  -0.00282297  1
  Te  Te181  1  0.66435484  0.16671682  0.34052903  1
  Te  Te182  1  0.66628674  0.16398692  0.66088126  1
  Te  Te183  1  0.66848665  0.50109135  -0.00141354  1
  Te  Te184  1  0.66333357  0.50475547  0.33975207  1
  Te  Te185  1  0.66659288  0.50206244  0.66178227  1
  Te  Te186  1  0.66919211  0.82995944  0.00216597  1
  Te  Te187  1  0.66461661  0.83049797  0.33444365  1
  Te  Te188  1  0.66585059  0.83310922  0.66621784  1
  Te  Te189  1  -0.00030788  -0.00015687  0.17078415  1
  Te  Te190  1  0.00507033  0.00015515  0.50158039  1
  Te  Te191  1  0.00215968  0.00276227  0.82902652  1
  Te  Te192  1  -0.00036555  0.34210045  0.16709152  1
  Te  Te193  1  0.00001373  0.33566948  0.50361230  1
  Te  Te194  1  0.00066656  0.33318531  0.82805525  1
  Te  Te195  1  -0.00529257  0.66354191  0.16676399  1
  Te  Te196  1  0.00591506  0.66369006  0.50110763  1
  Te  Te197  1  0.00763856  0.66338220  0.83180517  1
  Te  Te198  1  0.33366638  -0.00031936  0.17757429  1
  Te  Te199  1  0.33464942  0.00037104  0.50161503  1
  Te  Te200  1  0.33421893  0.00229015  0.82979969  1
  Te  Te201  1  0.34300780  0.33430050  0.16711175  1
  Te  Te202  1  0.33556034  0.32493874  0.49903580  1
  Te  Te203  1  0.33426935  0.33474382  0.83388563  1
  Te  Te204  1  0.33443610  0.66619899  0.17285305  1
  Te  Te205  1  0.32970088  0.66692354  0.50182599  1
  Te  Te206  1  0.33512942  0.66528457  0.83071222  1
  Te  Te207  1  0.66850726  0.00054500  0.17523691  1
  Te  Te208  1  0.66566422  -0.00737266  0.49839105  1
  Te  Te209  1  0.66494480  -0.00604810  0.82837487  1
  Te  Te210  1  0.66073068  0.33379066  0.16014494  1
  Te  Te211  1  0.66311547  0.33372068  0.50128590  1
  Te  Te212  1  0.66682565  0.33151279  0.83841333  1
  Te  Te213  1  0.67267220  0.66559778  0.15819653  1
  Te  Te214  1  0.66587577  0.67117902  0.50023808  1
  Te  Te215  1  0.66380073  0.66910329  0.83490884  1
