# generated using pymatgen
data_AgSbTe2
_symmetry_space_group_name_H-M   'P 1'
_cell_length_a   18.37241176
_cell_length_b   18.36276341
_cell_length_c   18.36276880
_cell_angle_alpha   90.00027050
_cell_angle_beta   89.99664952
_cell_angle_gamma   89.99667112
_symmetry_Int_Tables_number   1
_chemical_formula_structural   AgSbTe2
_chemical_formula_sum   'Ag54 Sb54 Te108'
_cell_volume   6195.01516294
_cell_formula_units_Z   54
loop_
 _symmetry_equiv_pos_site_id
 _symmetry_equiv_pos_as_xyz
  1  'x, y, z'
loop_
 _atom_site_type_symbol
 _atom_site_label
 _atom_site_symmetry_multiplicity
 _atom_site_fract_x
 _atom_site_fract_y
 _atom_site_fract_z
 _atom_site_occupancy
  Ag  Ag0  1  0.16826039  0.82835824  -0.00222127  1
  Ag  Ag1  1  0.00967268  0.82829333  0.16050368  1
  Ag  Ag2  1  0.00654747  0.49531880  0.83373767  1
  Ag  Ag3  1  0.32258194  0.66428988  0.33895741  1
  Ag  Ag4  1  0.32826315  0.33060332  -0.00504086  1
  Ag  Ag5  1  0.84838203  0.66905439  0.82768751  1
  Ag  Ag6  1  0.84105464  0.66877874  0.50498937  1
  Ag  Ag7  1  0.16817123  0.49695971  0.32031519  1
  Ag  Ag8  1  0.00409006  0.16786505  0.51082784  1
  Ag  Ag9  1  0.16743289  0.17237149  0.67193970  1
  Ag  Ag10  1  0.16944270  0.49312977  0.67319373  1
  Ag  Ag11  1  0.16504660  0.66103630  0.83348700  1
  Ag  Ag12  1  0.16945269  -0.00011867  0.15957693  1
  Ag  Ag13  1  0.33008819  0.00824294  -0.00821017  1
  Ag  Ag14  1  0.16552602  0.49645161  0.00425010  1
  Ag  Ag15  1  0.16604137  0.65606863  0.16063496  1
  Ag  Ag16  1  0.32762361  0.16619853  0.51123959  1
  Ag  Ag17  1  0.49654553  0.66666870  0.50149742  1
  Ag  Ag18  1  0.84612019  0.17052294  0.33985847  1
  Ag  Ag19  1  0.84520735  0.16865764  0.66781949  1
  Ag  Ag20  1  0.00777851  0.33417940  -0.00036954  1
  Ag  Ag21  1  0.16690462  0.00499405  0.83695250  1
  Ag  Ag22  1  0.84691132  0.32944072  0.83593845  1
  Ag  Ag23  1  0.00904651  0.49505396  0.16499251  1
  Ag  Ag24  1  0.32286467  0.49698386  0.17040024  1
  Ag  Ag25  1  0.32469275  0.15785312  0.82595215  1
  Ag  Ag26  1  0.66628711  0.33312137  -0.00355434  1
  Ag  Ag27  1  0.00539401  0.83233940  0.83572377  1
  Ag  Ag28  1  0.67501577  0.33328860  0.32831197  1
  Ag  Ag29  1  0.32699838  0.83416815  0.16086976  1
  Ag  Ag30  1  0.48234778  0.01272106  0.83017950  1
  Ag  Ag31  1  0.48562434  0.33079317  0.82825575  1
  Ag  Ag32  1  0.00342826  0.33543525  0.32532704  1
  Ag  Ag33  1  0.48657119  0.48884719  0.66647028  1
  Ag  Ag34  1  0.49035540  0.33182243  0.16133538  1
  Ag  Ag35  1  0.16627932  0.34258059  0.15603958  1
  Ag  Ag36  1  0.49011250  0.49735830  0.33600356  1
  Ag  Ag37  1  0.16621307  0.33264134  0.83689277  1
  Ag  Ag38  1  0.00645676  0.66725873  0.67506779  1
  Ag  Ag39  1  0.48881325  0.00948727  0.16607108  1
  Ag  Ag40  1  0.84728461  0.33182855  0.16046551  1
  Ag  Ag41  1  0.32255297  0.84246936  0.83709866  1
  Ag  Ag42  1  0.01170800  0.01191213  0.67307541  1
  Ag  Ag43  1  0.00410153  0.65892541  0.33686021  1
  Ag  Ag44  1  0.84925655  0.00932870  0.83087301  1
  Ag  Ag45  1  0.32862580  0.01389686  0.67935389  1
  Ag  Ag46  1  0.00771887  0.16665466  0.82872373  1
  Ag  Ag47  1  0.49546833  0.00212491  0.51026680  1
  Ag  Ag48  1  0.83760243  0.83598935  0.33059564  1
  Ag  Ag49  1  0.65462768  0.33109195  0.67706892  1
  Ag  Ag50  1  0.48329277  0.17082578  0.66748585  1
  Ag  Ag51  1  0.32370930  0.66480727  0.66516531  1
  Ag  Ag52  1  0.16419042  0.17489398  0.33546603  1
  Ag  Ag53  1  0.33501851  0.32649165  0.67478843  1
  Sb  Sb54  1  0.66967038  0.65959404  -0.00186206  1
  Sb  Sb55  1  0.48780797  0.66193814  0.17151717  1
  Sb  Sb56  1  0.16776319  0.17014127  -0.00451162  1
  Sb  Sb57  1  0.66552410  0.83423633  0.16698477  1
  Sb  Sb58  1  0.33270095  0.83445016  0.50185085  1
  Sb  Sb59  1  0.32771522  0.33726688  0.33116567  1
  Sb  Sb60  1  0.49608109  0.83819195  0.66857432  1
  Sb  Sb61  1  0.16977577  0.00482962  0.50624489  1
  Sb  Sb62  1  0.00473124  0.17129100  0.16573102  1
  Sb  Sb63  1  0.66208826  0.00770989  0.66910777  1
  Sb  Sb64  1  0.83615980  0.33339612  0.50211791  1
  Sb  Sb65  1  0.67148270  0.49447296  0.83247575  1
  Sb  Sb66  1  0.66497941  0.49800079  0.50013480  1
  Sb  Sb67  1  0.66730058  0.83254796  0.49947758  1
  Sb  Sb68  1  0.67059562  0.83373910  0.83349894  1
  Sb  Sb69  1  0.65797285  0.00537220  -0.00230624  1
  Sb  Sb70  1  0.49096128  0.83567783  -0.00047375  1
  Sb  Sb71  1  0.48861581  0.66363252  0.82582811  1
  Sb  Sb72  1  0.32893083  0.66480093  -0.00183731  1
  Sb  Sb73  1  0.00498587  0.33175183  0.67261921  1
  Sb  Sb74  1  0.00157606  0.49643724  0.50095439  1
  Sb  Sb75  1  0.32993335  0.16777020  0.16534700  1
  Sb  Sb76  1  0.16659416  0.66650030  0.50159769  1
  Sb  Sb77  1  0.16622407  0.33257490  0.50162707  1
  Sb  Sb78  1  0.16748917  0.83477206  0.67637814  1
  Sb  Sb79  1  0.83812148  0.49656470  0.66902338  1
  Sb  Sb80  1  0.83200623  -0.00037852  0.50378692  1
  Sb  Sb81  1  0.66366935  0.49538217  0.16766548  1
  Sb  Sb82  1  0.84092462  0.00476375  0.16345595  1
  Sb  Sb83  1  0.00481151  0.66117046  -0.00535457  1
  Sb  Sb84  1  0.83515982  0.16912580  -0.00452356  1
  Sb  Sb85  1  0.66991298  0.66081923  0.33363703  1
  Sb  Sb86  1  0.66671443  0.17222123  0.16882792  1
  Sb  Sb87  1  0.49799791  0.33301088  0.50384104  1
  Sb  Sb88  1  0.84173333  0.49524883  -0.00079832  1
  Sb  Sb89  1  0.49116637  0.49553775  -0.00174266  1
  Sb  Sb90  1  0.50004716  0.83022233  0.33256728  1
  Sb  Sb91  1  0.66643243  0.00575593  0.33269035  1
  Sb  Sb92  1  0.66661918  0.17102479  0.83015544  1
  Sb  Sb93  1  0.16299452  0.82806427  0.31978205  1
  Sb  Sb94  1  0.84424730  0.83414129  0.00218255  1
  Sb  Sb95  1  0.33053811  -0.00246024  0.33257091  1
  Sb  Sb96  1  0.66801829  0.65808465  0.66702035  1
  Sb  Sb97  1  0.00157847  0.83525765  0.50144879  1
  Sb  Sb98  1  0.66623822  0.16879935  0.50205527  1
  Sb  Sb99  1  0.84669140  0.66167168  0.16676268  1
  Sb  Sb100  1  0.83729523  0.83577486  0.66637021  1
  Sb  Sb101  1  0.00812905  0.00448251  -0.00679707  1
  Sb  Sb102  1  0.49559246  0.17110413  0.33819329  1
  Sb  Sb103  1  0.33315211  0.49604208  0.50012322  1
  Sb  Sb104  1  0.49674277  0.17077232  -0.00722620  1
  Sb  Sb105  1  0.83890869  0.49633549  0.33257870  1
  Sb  Sb106  1  0.00300922  0.00197457  0.33555654  1
  Sb  Sb107  1  0.32377926  0.49419816  0.83285156  1
  Te  Te108  1  0.16728735  0.16147582  0.17259379  1
  Te  Te109  1  0.16565494  0.16576312  0.49992473  1
  Te  Te110  1  0.16697264  0.16961916  0.83348359  1
  Te  Te111  1  0.16499546  0.49891721  0.16617793  1
  Te  Te112  1  0.16596443  0.50065956  0.50685587  1
  Te  Te113  1  0.16569022  0.50009834  0.83287886  1
  Te  Te114  1  0.16710462  0.83879288  0.16173119  1
  Te  Te115  1  0.16726061  0.83610089  0.49296916  1
  Te  Te116  1  0.16525709  0.83291841  0.83552325  1
  Te  Te117  1  0.49804255  0.16912238  0.16947094  1
  Te  Te118  1  0.49764634  0.16244680  0.50400343  1
  Te  Te119  1  0.50150505  0.17021335  0.82720797  1
  Te  Te120  1  0.49543296  0.49456753  0.16931192  1
  Te  Te121  1  0.49901237  0.50389977  0.50153292  1
  Te  Te122  1  0.50072564  0.49566263  0.82819211  1
  Te  Te123  1  0.49507141  0.83316669  0.16637754  1
  Te  Te124  1  0.50051094  0.83323407  0.49881844  1
  Te  Te125  1  0.50034266  0.83255244  0.83487619  1
  Te  Te126  1  0.83387134  0.17116140  0.17044103  1
  Te  Te127  1  0.83766401  0.16527248  0.50148968  1
  Te  Te128  1  0.83238843  0.16788336  0.82986170  1
  Te  Te129  1  0.83881036  0.49276707  0.16685624  1
  Te  Te130  1  0.83335148  0.51010478  0.50063306  1
  Te  Te131  1  0.84121349  0.49642570  0.83257545  1
  Te  Te132  1  0.83568711  0.83499641  0.16976185  1
  Te  Te133  1  0.83352694  0.82975681  0.49383780  1
  Te  Te134  1  0.83918766  0.83136170  0.83483049  1
  Te  Te135  1  0.17089020  0.00193422  -0.00230708  1
  Te  Te136  1  0.16622180  0.00169551  0.33240164  1
  Te  Te137  1  0.16876713  0.00006822  0.67170391  1
  Te  Te138  1  0.16685030  0.33367468  -0.00084396  1
  Te  Te139  1  0.16495628  0.33528271  0.33421388  1
  Te  Te140  1  0.17031110  0.33313451  0.66830457  1
  Te  Te141  1  0.16704551  0.66605570  -0.00014792  1
  Te  Te142  1  0.16495145  0.66372776  0.33448036  1
  Te  Te143  1  0.16406149  0.66894996  0.66720462  1
  Te  Te144  1  0.49232781  0.00204138  -0.00089311  1
  Te  Te145  1  0.50049865  0.00026226  0.32838435  1
  Te  Te146  1  0.49636818  0.00437422  0.66993949  1
  Te  Te147  1  0.49801522  0.33478416  0.00168638  1
  Te  Te148  1  0.49546508  0.33573208  0.33332483  1
  Te  Te149  1  0.49790274  0.33180755  0.66681451  1
  Te  Te150  1  0.50317256  0.66566755  -0.00213762  1
  Te  Te151  1  0.50132623  0.66223517  0.33754741  1
  Te  Te152  1  0.50197066  0.66656304  0.66192785  1
  Te  Te153  1  0.82858947  0.00075589  -0.00547933  1
  Te  Te154  1  0.83311173  0.00336622  0.33230151  1
  Te  Te155  1  0.83040771  0.00361475  0.67179373  1
  Te  Te156  1  0.83214907  0.33281172  -0.00062767  1
  Te  Te157  1  0.83609286  0.33056143  0.33452826  1
  Te  Te158  1  0.83618227  0.33098323  0.66992316  1
  Te  Te159  1  0.83349872  0.66634368  -0.00786548  1
  Te  Te160  1  0.83762974  0.66628192  0.33327966  1
  Te  Te161  1  0.83539117  0.66510572  0.66710155  1
  Te  Te162  1  -0.00184116  0.17326043  -0.00895686  1
  Te  Te163  1  0.00346310  0.16679382  0.33068740  1
  Te  Te164  1  0.00390245  0.16826390  0.66848799  1
  Te  Te165  1  0.00526484  0.49472216  -0.00016831  1
  Te  Te166  1  0.00444481  0.49944433  0.33280506  1
  Te  Te167  1  0.00550366  0.50413179  0.66857461  1
  Te  Te168  1  0.00695777  0.83681752  -0.00095392  1
  Te  Te169  1  -0.00321591  0.83416829  0.33336906  1
  Te  Te170  1  -0.00158510  0.82806137  0.66993102  1
  Te  Te171  1  0.33457357  0.16807788  -0.00641138  1
  Te  Te172  1  0.32697121  0.16589152  0.33773332  1
  Te  Te173  1  0.32908738  0.16753805  0.66787800  1
  Te  Te174  1  0.32748045  0.49615573  0.00713887  1
  Te  Te175  1  0.33055359  0.50297800  0.33346951  1
  Te  Te176  1  0.33075789  0.50715501  0.66608786  1
  Te  Te177  1  0.32786007  0.83162779  -0.00060532  1
  Te  Te178  1  0.33508995  0.82480894  0.32962959  1
  Te  Te179  1  0.33469573  0.82482023  0.67004949  1
  Te  Te180  1  0.66644362  0.17498448  0.00131859  1
  Te  Te181  1  0.66968143  0.17287796  0.33547916  1
  Te  Te182  1  0.67376623  0.17390591  0.66492519  1
  Te  Te183  1  0.66575083  0.49240675  0.00049044  1
  Te  Te184  1  0.66118508  0.49304577  0.33290846  1
  Te  Te185  1  0.66101421  0.49005792  0.66631052  1
  Te  Te186  1  0.66756626  0.83199066  0.00061361  1
  Te  Te187  1  0.67468210  0.83374645  0.33253305  1
  Te  Te188  1  0.66751285  0.83228546  0.66656465  1
  Te  Te189  1  0.00404571  -0.00467457  0.16483076  1
  Te  Te190  1  -0.00224300  0.00492315  0.50904615  1
  Te  Te191  1  0.00519948  0.00166078  0.83133830  1
  Te  Te192  1  0.00484257  0.33294672  0.16461453  1
  Te  Te193  1  -0.00105982  0.32770164  0.48874027  1
  Te  Te194  1  0.00408390  0.33434402  0.83177532  1
  Te  Te195  1  0.00488125  0.66808332  0.16906608  1
  Te  Te196  1  -0.00168986  0.66709383  0.49728645  1
  Te  Te197  1  0.00421279  0.66673131  0.83388877  1
  Te  Te198  1  0.33168009  -0.00027381  0.16739046  1
  Te  Te199  1  0.33686575  0.00182043  0.50165630  1
  Te  Te200  1  0.32961241  -0.00197123  0.83352942  1
  Te  Te201  1  0.32892278  0.33466851  0.16534691  1
  Te  Te202  1  0.33370899  0.32599031  0.51001438  1
  Te  Te203  1  0.32994348  0.33532140  0.83409569  1
  Te  Te204  1  0.32729032  0.66709580  0.16674742  1
  Te  Te205  1  0.33576595  0.66684504  0.49955164  1
  Te  Te206  1  0.32737308  0.67149599  0.82889129  1
  Te  Te207  1  0.65969306  0.00042715  0.16538323  1
  Te  Te208  1  0.65694924  -0.00042266  0.50002786  1
  Te  Te209  1  0.66617949  -0.00100949  0.83480395  1
  Te  Te210  1  0.66335442  0.33447139  0.16852311  1
  Te  Te211  1  0.66833660  0.33313296  0.49338573  1
  Te  Te212  1  0.66809944  0.33427033  0.83471820  1
  Te  Te213  1  0.66844444  0.66528134  0.16520269  1
  Te  Te214  1  0.66365461  0.66616719  0.49945149  1
  Te  Te215  1  0.67125708  0.66493677  0.83388942  1
