# generated using pymatgen
data_AgSbTe2
_symmetry_space_group_name_H-M   'P 1'
_cell_length_a   18.32682398
_cell_length_b   18.32888176
_cell_length_c   18.32009667
_cell_angle_alpha   89.99802703
_cell_angle_beta   89.99878312
_cell_angle_gamma   89.99961510
_symmetry_Int_Tables_number   1
_chemical_formula_structural   AgSbTe2
_chemical_formula_sum   'Ag54 Sb54 Te108'
_cell_volume   6153.90714228
_cell_formula_units_Z   54
loop_
 _symmetry_equiv_pos_site_id
 _symmetry_equiv_pos_as_xyz
  1  'x, y, z'
loop_
 _atom_site_type_symbol
 _atom_site_label
 _atom_site_symmetry_multiplicity
 _atom_site_fract_x
 _atom_site_fract_y
 _atom_site_fract_z
 _atom_site_occupancy
  Ag  Ag0  1  0.83095806  0.49501605  0.33191858  1
  Ag  Ag1  1  0.00213389  0.32837138  0.33409717  1
  Ag  Ag2  1  0.17732335  0.34088888  0.50138177  1
  Ag  Ag3  1  0.82084289  0.00510064  0.17385327  1
  Ag  Ag4  1  0.83137210  0.50073348  0.00669661  1
  Ag  Ag5  1  0.50137093  0.83483998  0.66490072  1
  Ag  Ag6  1  0.66837864  0.16094817  0.16367735  1
  Ag  Ag7  1  -0.00588095  0.00732311  0.33386946  1
  Ag  Ag8  1  0.65768286  0.16644365  0.82672036  1
  Ag  Ag9  1  0.33727199  0.83474707  0.15929154  1
  Ag  Ag10  1  0.82872943  0.32737570  0.17093827  1
  Ag  Ag11  1  0.17351643  0.66639128  0.16148674  1
  Ag  Ag12  1  0.82148277  -0.00656779  0.49491049  1
  Ag  Ag13  1  0.33603188  0.83100115  0.50362084  1
  Ag  Ag14  1  0.00766917  0.50283890  0.49875383  1
  Ag  Ag15  1  0.66561966  0.83724160  0.50573969  1
  Ag  Ag16  1  0.34024313  0.34438732  0.65902264  1
  Ag  Ag17  1  0.66585988  0.00562415  0.33455193  1
  Ag  Ag18  1  0.83377086  0.67396486  0.50187850  1
  Ag  Ag19  1  0.17700060  0.83138564  0.00050003  1
  Ag  Ag20  1  0.32878685  0.49791392  0.50821302  1
  Ag  Ag21  1  0.49544283  0.84226800  -0.00049872  1
  Ag  Ag22  1  0.66744649  0.32670126  0.33675092  1
  Ag  Ag23  1  0.33793953  0.00323078  0.33097837  1
  Ag  Ag24  1  0.32987900  0.32920900  0.34106474  1
  Ag  Ag25  1  0.50381248  -0.00034986  0.49844701  1
  Ag  Ag26  1  0.32933515  0.49920751  0.82114036  1
  Ag  Ag27  1  0.16833830  0.50329157  -0.00632850  1
  Ag  Ag28  1  0.81951831  0.83583027  0.66009437  1
  Ag  Ag29  1  0.17816273  0.50019315  0.66603304  1
  Ag  Ag30  1  0.65791916  0.32366278  0.65925236  1
  Ag  Ag31  1  0.66319874  0.67102132  -0.00156305  1
  Ag  Ag32  1  -0.00451149  0.16600568  0.16932848  1
  Ag  Ag33  1  0.33792485  0.16677752  0.83471462  1
  Ag  Ag34  1  0.17112018  0.33941395  0.82803704  1
  Ag  Ag35  1  0.33431704  0.83414725  0.83410800  1
  Ag  Ag36  1  0.16781914  0.16873599  0.32922935  1
  Ag  Ag37  1  0.17299708  0.65920494  0.83532495  1
  Ag  Ag38  1  -0.00503515  0.83002292  0.50028547  1
  Ag  Ag39  1  0.82016241  0.16385280  0.66696308  1
  Ag  Ag40  1  0.16928357  0.66087972  0.50137923  1
  Ag  Ag41  1  0.34059956  -0.00436870  0.00521465  1
  Ag  Ag42  1  0.49597891  0.32988548  0.50344878  1
  Ag  Ag43  1  0.65790002  0.00022747  0.00880425  1
  Ag  Ag44  1  0.66789388  0.49612746  0.16677344  1
  Ag  Ag45  1  0.50283547  0.16693288  0.66967497  1
  Ag  Ag46  1  0.49815536  0.15910354  -0.00350129  1
  Ag  Ag47  1  0.17474674  0.16585978  0.00358045  1
  Ag  Ag48  1  0.66306678  0.00233308  0.65819914  1
  Ag  Ag49  1  0.65798978  0.67026665  0.66743802  1
  Ag  Ag50  1  0.50328795  -0.00194380  0.16394111  1
  Ag  Ag51  1  0.33807928  0.65665185  0.66595222  1
  Ag  Ag52  1  0.49124795  0.49540731  0.66457166  1
  Ag  Ag53  1  0.49761459  0.67690378  0.16198734  1
  Sb  Sb54  1  0.33489864  0.67333369  -0.00583927  1
  Sb  Sb55  1  0.50050167  0.00143677  0.83574173  1
  Sb  Sb56  1  0.49472298  0.66788218  0.83276730  1
  Sb  Sb57  1  0.17243851  0.17297865  0.66778487  1
  Sb  Sb58  1  0.33489147  0.16859061  0.50331254  1
  Sb  Sb59  1  0.83374149  0.16766232  0.33358540  1
  Sb  Sb60  1  0.00009980  0.00109478  0.00889739  1
  Sb  Sb61  1  0.17221622  -0.00085613  0.16773005  1
  Sb  Sb62  1  -0.00303471  0.49587804  0.17207247  1
  Sb  Sb63  1  0.83099284  0.66654412  0.17060977  1
  Sb  Sb64  1  0.66666617  0.16051717  0.50219413  1
  Sb  Sb65  1  0.49898376  0.83678181  0.33579156  1
  Sb  Sb66  1  0.66106221  0.49622521  0.83453759  1
  Sb  Sb67  1  0.66513876  0.50257341  0.49834338  1
  Sb  Sb68  1  0.00490687  0.83903875  0.17185120  1
  Sb  Sb69  1  0.82870785  0.00039066  0.83072845  1
  Sb  Sb70  1  0.49761707  0.50071393  -0.00331033  1
  Sb  Sb71  1  0.83294333  0.83561575  0.33997540  1
  Sb  Sb72  1  0.00820322  0.83340090  0.82720259  1
  Sb  Sb73  1  0.50221571  0.49745941  0.33805502  1
  Sb  Sb74  1  0.49308971  0.33009494  0.82411607  1
  Sb  Sb75  1  0.17049944  -0.00144631  0.49852817  1
  Sb  Sb76  1  0.00850051  0.49904439  0.82857399  1
  Sb  Sb77  1  0.66099710  0.83720214  0.16897280  1
  Sb  Sb78  1  0.66629796  0.66834495  0.33457877  1
  Sb  Sb79  1  0.16892761  0.83712524  0.33275418  1
  Sb  Sb80  1  0.16433116  0.49442268  0.33820517  1
  Sb  Sb81  1  0.65903162  0.83767317  0.82760832  1
  Sb  Sb82  1  -0.01067594  -0.00045939  0.65599106  1
  Sb  Sb83  1  -0.00004151  0.16692629  0.49360349  1
  Sb  Sb84  1  0.33221212  0.32909285  -0.00283523  1
  Sb  Sb85  1  0.66529711  0.33031767  0.00144374  1
  Sb  Sb86  1  0.49885993  0.66908652  0.50187598  1
  Sb  Sb87  1  0.82781727  0.83113324  -0.00310657  1
  Sb  Sb88  1  0.00372206  0.66698802  0.66223000  1
  Sb  Sb89  1  0.49830886  0.16435699  0.33451751  1
  Sb  Sb90  1  0.00132040  0.33345022  0.00663642  1
  Sb  Sb91  1  0.33268186  0.66745796  0.33887411  1
  Sb  Sb92  1  0.83417423  0.66546605  0.82785296  1
  Sb  Sb93  1  0.34202968  -0.00020530  0.66430995  1
  Sb  Sb94  1  0.17629420  0.82670754  0.66774837  1
  Sb  Sb95  1  0.82855741  0.16786322  0.00119546  1
  Sb  Sb96  1  0.50498787  0.32940417  0.17265469  1
  Sb  Sb97  1  0.00359057  0.16741544  0.83848422  1
  Sb  Sb98  1  0.83488433  0.33364946  0.83542975  1
  Sb  Sb99  1  0.00040149  0.66553876  0.33630338  1
  Sb  Sb100  1  0.33675055  0.16231203  0.16366791  1
  Sb  Sb101  1  0.82997871  0.50047942  0.66307397  1
  Sb  Sb102  1  0.00171310  0.33312467  0.65838515  1
  Sb  Sb103  1  0.00142196  0.66618474  0.00124780  1
  Sb  Sb104  1  0.17198592  0.00124714  0.83504579  1
  Sb  Sb105  1  0.33608277  0.50454827  0.16777344  1
  Sb  Sb106  1  0.83044407  0.33244871  0.49542658  1
  Sb  Sb107  1  0.16526487  0.33554343  0.16945429  1
  Te  Te108  1  0.16624110  0.16722105  0.16543926  1
  Te  Te109  1  0.16654501  0.17131464  0.49759058  1
  Te  Te110  1  0.17102907  0.17022662  0.83750108  1
  Te  Te111  1  0.16573918  0.50447065  0.16352102  1
  Te  Te112  1  0.16813230  0.49996701  0.49914527  1
  Te  Te113  1  0.16941693  0.49970751  0.83270011  1
  Te  Te114  1  0.17167998  0.82992039  0.16277818  1
  Te  Te115  1  0.17195248  0.82973465  0.50098935  1
  Te  Te116  1  0.17318017  0.83004478  0.83684190  1
  Te  Te117  1  0.50471086  0.16218725  0.16243851  1
  Te  Te118  1  0.50022782  0.16502426  0.50565084  1
  Te  Te119  1  0.49965570  0.16719985  0.83397643  1
  Te  Te120  1  0.50533880  0.50000882  0.16567794  1
  Te  Te121  1  0.49572472  0.49906032  0.50474395  1
  Te  Te122  1  0.49220279  0.49958120  0.82778742  1
  Te  Te123  1  0.49698918  0.83604073  0.16523422  1
  Te  Te124  1  0.49859609  0.83463726  0.50195205  1
  Te  Te125  1  0.49298040  0.83280029  0.83383157  1
  Te  Te126  1  0.83067270  0.16579781  0.16563215  1
  Te  Te127  1  0.83513879  0.16087212  0.50647814  1
  Te  Te128  1  0.83158953  0.16806307  0.82959352  1
  Te  Te129  1  0.83033598  0.50172157  0.16730767  1
  Te  Te130  1  0.83422388  0.50118510  0.49735543  1
  Te  Te131  1  0.83516579  0.49980821  0.84036292  1
  Te  Te132  1  0.83516784  0.83822296  0.16570646  1
  Te  Te133  1  0.83221446  0.83386594  0.50138698  1
  Te  Te134  1  0.83692470  0.83192174  0.82515703  1
  Te  Te135  1  0.16856754  -0.00026797  0.00125594  1
  Te  Te136  1  0.17147576  0.00714507  0.33312384  1
  Te  Te137  1  0.16448422  0.00134679  0.66641573  1
  Te  Te138  1  0.16649443  0.33261894  0.00022947  1
  Te  Te139  1  0.16757766  0.32906744  0.33561782  1
  Te  Te140  1  0.16849429  0.33749177  0.66308952  1
  Te  Te141  1  0.16748408  0.66737326  0.00051706  1
  Te  Te142  1  0.16652512  0.66652044  0.33598790  1
  Te  Te143  1  0.17040863  0.66246713  0.66281457  1
  Te  Te144  1  0.50026829  -0.00014087  0.00032092  1
  Te  Te145  1  0.50008668  0.00185079  0.33511021  1
  Te  Te146  1  0.50364712  -0.00100880  0.66269171  1
  Te  Te147  1  0.49965339  0.32785842  0.00132675  1
  Te  Te148  1  0.50317043  0.33082977  0.34078237  1
  Te  Te149  1  0.49959035  0.33244809  0.66372044  1
  Te  Te150  1  0.50343421  0.66686897  0.00265334  1
  Te  Te151  1  0.50023084  0.66573532  0.32220805  1
  Te  Te152  1  0.49859554  0.67073671  0.66641029  1
  Te  Te153  1  0.82920237  -0.00116565  0.00467391  1
  Te  Te154  1  0.82949137  0.00069421  0.33434511  1
  Te  Te155  1  0.82554182  -0.00088134  0.66350430  1
  Te  Te156  1  0.83368491  0.33914680  0.00611075  1
  Te  Te157  1  0.82772385  0.33374753  0.33106927  1
  Te  Te158  1  0.82964118  0.32987824  0.66652576  1
  Te  Te159  1  0.82866609  0.66303380  0.00010883  1
  Te  Te160  1  0.83310925  0.65966281  0.33938373  1
  Te  Te161  1  0.83043843  0.66950083  0.66164026  1
  Te  Te162  1  0.00573716  0.16604400  0.00708059  1
  Te  Te163  1  0.00142712  0.16739389  0.32900274  1
  Te  Te164  1  -0.00230011  0.16643838  0.66849844  1
  Te  Te165  1  0.00223893  0.50039686  0.00020203  1
  Te  Te166  1  -0.00478283  0.49534038  0.33781142  1
  Te  Te167  1  0.00078226  0.49930845  0.65946226  1
  Te  Te168  1  0.00394629  0.83426694  -0.00148078  1
  Te  Te169  1  0.00075981  0.83913393  0.33998554  1
  Te  Te170  1  -0.00169228  0.83469785  0.65954793  1
  Te  Te171  1  0.33445889  0.16299050  -0.00223994  1
  Te  Te172  1  0.33058908  0.16631698  0.33268410  1
  Te  Te173  1  0.33847003  0.16770243  0.67376131  1
  Te  Te174  1  0.32823151  0.49934940  -0.00065866  1
  Te  Te175  1  0.33354080  0.49428834  0.33728125  1
  Te  Te176  1  0.33341154  0.49994048  0.66511692  1
  Te  Te177  1  0.33499783  0.83440339  -0.00006308  1
  Te  Te178  1  0.33279426  0.83725964  0.33801501  1
  Te  Te179  1  0.33943182  0.83490583  0.66619826  1
  Te  Te180  1  0.66523525  0.16304629  0.00257455  1
  Te  Te181  1  0.66572037  0.16686120  0.32708225  1
  Te  Te182  1  0.66341983  0.16607763  0.66596597  1
  Te  Te183  1  0.66615432  0.50252234  0.00140926  1
  Te  Te184  1  0.66998483  0.49891807  0.32975333  1
  Te  Te185  1  0.66313819  0.50417102  0.66791105  1
  Te  Te186  1  0.66208197  0.83373867  -0.00237430  1
  Te  Te187  1  0.66657246  0.83872017  0.34158843  1
  Te  Te188  1  0.66303276  0.83303955  0.66709489  1
  Te  Te189  1  -0.00280044  0.00482376  0.17473200  1
  Te  Te190  1  0.00104199  -0.00361928  0.49201331  1
  Te  Te191  1  -0.00084036  0.00033930  0.83337191  1
  Te  Te192  1  -0.00518787  0.32892819  0.17414903  1
  Te  Te193  1  -0.00021807  0.33626142  0.49293335  1
  Te  Te194  1  0.00889380  0.33251237  0.83260559  1
  Te  Te195  1  0.00637924  0.66863240  0.16854990  1
  Te  Te196  1  0.00083219  0.66734237  0.49960086  1
  Te  Te197  1  0.01011376  0.66711161  0.83262528  1
  Te  Te198  1  0.33813772  -0.00365998  0.16780923  1
  Te  Te199  1  0.33800495  -0.00200801  0.49623160  1
  Te  Te200  1  0.33343251  -0.00006038  0.83798924  1
  Te  Te201  1  0.33526384  0.33452641  0.17585361  1
  Te  Te202  1  0.33531642  0.33191386  0.50070581  1
  Te  Te203  1  0.32893792  0.33262872  0.83195475  1
  Te  Te204  1  0.33399583  0.67116941  0.16904045  1
  Te  Te205  1  0.33248329  0.66803936  0.50344192  1
  Te  Te206  1  0.33032107  0.66670281  0.82852672  1
  Te  Te207  1  0.66411652  -0.00117369  0.16819342  1
  Te  Te208  1  0.66500459  -0.00147402  0.49879513  1
  Te  Te209  1  0.66726599  0.00609218  0.83412538  1
  Te  Te210  1  0.66956329  0.33533894  0.16858068  1
  Te  Te211  1  0.66311468  0.33460843  0.49956512  1
  Te  Te212  1  0.66786781  0.32783306  0.82850339  1
  Te  Te213  1  0.66450451  0.66700984  0.16506915  1
  Te  Te214  1  0.66803273  0.67135540  0.50286584  1
  Te  Te215  1  0.66729206  0.66592486  0.83303708  1
