# generated using pymatgen
data_AgSbTe2
_symmetry_space_group_name_H-M   'P 1'
_cell_length_a   18.33492899
_cell_length_b   18.33139283
_cell_length_c   18.33555078
_cell_angle_alpha   90.00029450
_cell_angle_beta   90.00024486
_cell_angle_gamma   90.00308680
_symmetry_Int_Tables_number   1
_chemical_formula_structural   AgSbTe2
_chemical_formula_sum   'Ag54 Sb54 Te108'
_cell_volume   6162.66635765
_cell_formula_units_Z   54
loop_
 _symmetry_equiv_pos_site_id
 _symmetry_equiv_pos_as_xyz
  1  'x, y, z'
loop_
 _atom_site_type_symbol
 _atom_site_label
 _atom_site_symmetry_multiplicity
 _atom_site_fract_x
 _atom_site_fract_y
 _atom_site_fract_z
 _atom_site_occupancy
  Ag  Ag0  1  0.15814426  0.83675082  0.66786231  1
  Ag  Ag1  1  0.33234953  0.32710585  0.66768220  1
  Ag  Ag2  1  0.32384145  0.50145969  0.16355686  1
  Ag  Ag3  1  0.16536555  -0.00826506  0.16671018  1
  Ag  Ag4  1  0.32667007  0.68127356  0.66694259  1
  Ag  Ag5  1  0.83405187  0.49647932  0.33213237  1
  Ag  Ag6  1  0.83382849  0.16381524  0.67786409  1
  Ag  Ag7  1  0.00237256  0.67017689  -0.00076895  1
  Ag  Ag8  1  0.83513664  0.33143142  0.50064993  1
  Ag  Ag9  1  0.00350543  0.83951935  0.82660543  1
  Ag  Ag10  1  0.00041327  0.16293269  0.15984617  1
  Ag  Ag11  1  0.16614911  0.83734933  0.32063794  1
  Ag  Ag12  1  0.84364600  0.84251867  0.67001604  1
  Ag  Ag13  1  0.50178688  0.32190409  0.83591805  1
  Ag  Ag14  1  0.66661071  0.00563210  -0.00140984  1
  Ag  Ag15  1  0.67002401  0.66364755  0.33162198  1
  Ag  Ag16  1  0.33161793  0.32479815  0.00040915  1
  Ag  Ag17  1  0.49071336  0.49051138  0.00161583  1
  Ag  Ag18  1  0.84762284  0.00324369  0.15860835  1
  Ag  Ag19  1  0.83715400  0.67205466  0.82803348  1
  Ag  Ag20  1  0.16557116  0.83681927  0.00783379  1
  Ag  Ag21  1  0.00840597  0.83566718  0.16333232  1
  Ag  Ag22  1  0.66618824  0.16760589  0.50268365  1
  Ag  Ag23  1  0.83475506  0.00670265  0.83695036  1
  Ag  Ag24  1  0.00801717  0.49748728  0.16636637  1
  Ag  Ag25  1  0.00200747  0.67780364  0.67356391  1
  Ag  Ag26  1  0.67309141  0.33142796  0.33724145  1
  Ag  Ag27  1  0.16661062  0.32580947  0.49197446  1
  Ag  Ag28  1  0.00227697  0.83451631  0.51456362  1
  Ag  Ag29  1  0.00458042  -0.00890501  0.66903894  1
  Ag  Ag30  1  0.16721060  0.16353106  0.00278328  1
  Ag  Ag31  1  0.32761374  0.32781858  0.32919934  1
  Ag  Ag32  1  0.48809975  0.66557401  0.16371049  1
  Ag  Ag33  1  0.48633816  0.00361767  0.50700678  1
  Ag  Ag34  1  0.16685884  0.67859873  0.16483116  1
  Ag  Ag35  1  0.17017095  0.49624060  0.00802592  1
  Ag  Ag36  1  0.67404011  0.16554260  0.15372761  1
  Ag  Ag37  1  0.16970218  0.00366315  0.49814983  1
  Ag  Ag38  1  0.32736270  -0.00052265  0.66568884  1
  Ag  Ag39  1  0.49942998  0.00453657  0.83517135  1
  Ag  Ag40  1  0.32930955  0.00386384  0.33414448  1
  Ag  Ag41  1  -0.00788571  0.15903122  0.83878658  1
  Ag  Ag42  1  0.33212481  0.00524921  -0.00103693  1
  Ag  Ag43  1  0.67389175  0.32670539  0.66452531  1
  Ag  Ag44  1  0.33408001  0.16371949  0.50273723  1
  Ag  Ag45  1  0.67891092  0.16570022  0.83782615  1
  Ag  Ag46  1  0.32178801  0.83459632  0.16095867  1
  Ag  Ag47  1  0.49826857  0.16638220  -0.00231579  1
  Ag  Ag48  1  0.83044163  0.31928754  0.82829968  1
  Ag  Ag49  1  0.16685296  0.33313044  0.16808624  1
  Ag  Ag50  1  0.00443643  0.33265071  0.33042471  1
  Ag  Ag51  1  0.32254436  0.83788418  0.83561368  1
  Ag  Ag52  1  0.83451694  0.16501767  -0.00860755  1
  Ag  Ag53  1  0.83611211  0.66451790  0.50386710  1
  Sb  Sb54  1  0.33163873  0.49112957  0.49386419  1
  Sb  Sb55  1  0.67183642  0.67272476  0.00306391  1
  Sb  Sb56  1  0.32604777  0.66819781  0.00024256  1
  Sb  Sb57  1  0.33390368  0.66750991  0.33247115  1
  Sb  Sb58  1  0.83599832  0.49489981  0.00423798  1
  Sb  Sb59  1  -0.00177349  0.66465268  0.33044738  1
  Sb  Sb60  1  0.50334453  0.16653479  0.67245674  1
  Sb  Sb61  1  0.16719658  0.16479498  0.32788462  1
  Sb  Sb62  1  0.66868762  0.00644173  0.67058883  1
  Sb  Sb63  1  0.84344545  0.84169057  -0.00554312  1
  Sb  Sb64  1  0.67226524  0.84127374  0.83340372  1
  Sb  Sb65  1  0.49852011  0.16790845  0.32843631  1
  Sb  Sb66  1  0.83581075  0.49675942  0.66422256  1
  Sb  Sb67  1  0.33334526  0.50165235  0.83966820  1
  Sb  Sb68  1  0.84130318  0.83120723  0.33575480  1
  Sb  Sb69  1  0.16719765  0.50293441  0.67075496  1
  Sb  Sb70  1  0.00127905  0.16441883  0.50068683  1
  Sb  Sb71  1  0.00519732  0.00245102  0.33245687  1
  Sb  Sb72  1  0.66229777  0.32403003  -0.00022906  1
  Sb  Sb73  1  -0.00014666  0.50210309  0.49510299  1
  Sb  Sb74  1  0.66748770  0.49431405  0.16612963  1
  Sb  Sb75  1  0.00554790  0.33072304  0.00421189  1
  Sb  Sb76  1  0.49953744  0.32606878  0.50457133  1
  Sb  Sb77  1  0.32434722  0.84173860  0.50125942  1
  Sb  Sb78  1  0.83294268  0.17031337  0.33218818  1
  Sb  Sb79  1  0.66824307  0.49039252  0.83511009  1
  Sb  Sb80  1  0.16371208  0.16104521  0.67050349  1
  Sb  Sb81  1  0.67176220  0.66272944  0.66407386  1
  Sb  Sb82  1  0.66177082  0.00431514  0.32955892  1
  Sb  Sb83  1  0.49739839  0.49682129  0.67324367  1
  Sb  Sb84  1  0.49342017  -0.00093404  0.16234277  1
  Sb  Sb85  1  0.67443625  0.83896876  0.50041918  1
  Sb  Sb86  1  0.32856510  0.16502169  0.16491084  1
  Sb  Sb87  1  0.50225899  0.49870356  0.32667456  1
  Sb  Sb88  1  0.33249849  0.16139845  0.83253666  1
  Sb  Sb89  1  0.49006778  0.83780434  -0.00015560  1
  Sb  Sb90  1  0.49417623  0.33395172  0.16120523  1
  Sb  Sb91  1  0.66861738  0.49284306  0.49796518  1
  Sb  Sb92  1  0.66818830  0.83780610  0.16702477  1
  Sb  Sb93  1  0.16711926  0.33027208  0.83551103  1
  Sb  Sb94  1  0.50136571  0.66977950  0.83916636  1
  Sb  Sb95  1  0.16294962  0.67096547  0.49716664  1
  Sb  Sb96  1  0.16541808  -0.00169744  0.83649875  1
  Sb  Sb97  1  0.00505155  -0.00063935  -0.00360437  1
  Sb  Sb98  1  0.83975205  0.67148282  0.16604021  1
  Sb  Sb99  1  0.49582522  0.83692042  0.66787853  1
  Sb  Sb100  1  -0.00116163  0.50079640  0.83952771  1
  Sb  Sb101  1  0.00073904  0.33099463  0.66388144  1
  Sb  Sb102  1  0.83823023  0.32655487  0.16755943  1
  Sb  Sb103  1  0.49266046  0.83520772  0.33150697  1
  Sb  Sb104  1  0.83759184  0.00384016  0.50337512  1
  Sb  Sb105  1  0.16171389  0.67130299  0.83941379  1
  Sb  Sb106  1  0.50223515  0.67447534  0.49698410  1
  Sb  Sb107  1  0.16289333  0.49825833  0.32547510  1
  Te  Te108  1  0.16428605  0.17233083  0.16211373  1
  Te  Te109  1  0.16891363  0.16592057  0.50180336  1
  Te  Te110  1  0.15718775  0.16702245  0.84101239  1
  Te  Te111  1  0.16557255  0.49238745  0.16490098  1
  Te  Te112  1  0.16629393  0.49249606  0.49991122  1
  Te  Te113  1  0.16679350  0.50019488  0.84446421  1
  Te  Te114  1  0.16725718  0.83470303  0.16436592  1
  Te  Te115  1  0.16134518  0.83534003  0.50815549  1
  Te  Te116  1  0.16418936  0.83254469  0.82805341  1
  Te  Te117  1  0.50619682  0.16642251  0.15955117  1
  Te  Te118  1  0.49838871  0.16156440  0.49988527  1
  Te  Te119  1  0.49744252  0.16468114  0.83772549  1
  Te  Te120  1  0.49919299  0.50399950  0.16052227  1
  Te  Te121  1  0.50018126  0.50326933  0.50040033  1
  Te  Te122  1  0.50058164  0.49854296  0.84206783  1
  Te  Te123  1  0.49822332  0.82686769  0.16662499  1
  Te  Te124  1  0.50205976  0.84299360  0.49963609  1
  Te  Te125  1  0.49930213  0.83978426  0.83364335  1
  Te  Te126  1  0.83463436  0.16238197  0.16579381  1
  Te  Te127  1  0.83275992  0.17104094  0.50107663  1
  Te  Te128  1  0.83493604  0.16360462  0.83417555  1
  Te  Te129  1  0.83699482  0.50045865  0.17052374  1
  Te  Te130  1  0.83377256  0.49716771  0.49440106  1
  Te  Te131  1  0.83273237  0.50543001  0.83431265  1
  Te  Te132  1  0.83670008  0.84056611  0.16631964  1
  Te  Te133  1  0.84045751  0.83176104  0.50345192  1
  Te  Te134  1  0.83772784  0.83313899  0.83008131  1
  Te  Te135  1  0.17089322  0.00010480  0.00339240  1
  Te  Te136  1  0.16989876  -0.00143000  0.33367784  1
  Te  Te137  1  0.16624715  -0.00200723  0.66503740  1
  Te  Te138  1  0.17092568  0.33174822  0.00132473  1
  Te  Te139  1  0.16767918  0.33309812  0.33317336  1
  Te  Te140  1  0.17030024  0.33379275  0.66455948  1
  Te  Te141  1  0.16263929  0.66997429  0.00492990  1
  Te  Te142  1  0.16698549  0.67128465  0.32868122  1
  Te  Te143  1  0.16689298  0.66969330  0.66570308  1
  Te  Te144  1  0.49435027  0.00342677  -0.00307640  1
  Te  Te145  1  0.49189442  0.00043376  0.33716116  1
  Te  Te146  1  0.49589931  0.00090194  0.66876574  1
  Te  Te147  1  0.49603354  0.33080937  -0.00369890  1
  Te  Te148  1  0.49693061  0.33466855  0.33470471  1
  Te  Te149  1  0.49389215  0.33299417  0.67298988  1
  Te  Te150  1  0.50251376  0.66651581  0.00477947  1
  Te  Te151  1  0.50559674  0.66673499  0.32835950  1
  Te  Te152  1  0.49701117  0.66582555  0.66689496  1
  Te  Te153  1  0.83230496  0.00400373  -0.00087298  1
  Te  Te154  1  0.83167975  -0.00131556  0.32899749  1
  Te  Te155  1  0.83516028  0.00222460  0.66831827  1
  Te  Te156  1  0.83327776  0.32854094  -0.00433359  1
  Te  Te157  1  0.83159082  0.33551283  0.33443288  1
  Te  Te158  1  0.83393022  0.33045043  0.66555434  1
  Te  Te159  1  0.83850891  0.66534279  -0.00372516  1
  Te  Te160  1  0.83068689  0.66359104  0.33637338  1
  Te  Te161  1  0.83443351  0.66382736  0.66445371  1
  Te  Te162  1  -0.00068730  0.16691443  -0.00015275  1
  Te  Te163  1  -0.00000040  0.17293650  0.32910914  1
  Te  Te164  1  -0.00440538  0.16458863  0.66885709  1
  Te  Te165  1  0.00358182  0.50296109  0.00643482  1
  Te  Te166  1  -0.00361648  0.49556227  0.32776226  1
  Te  Te167  1  0.00186192  0.50922362  0.66710096  1
  Te  Te168  1  0.00502121  0.83134065  0.00300610  1
  Te  Te169  1  0.00639216  0.83389751  0.32426984  1
  Te  Te170  1  -0.00171631  0.83297595  0.67051251  1
  Te  Te171  1  0.33234807  0.16603840  -0.00058545  1
  Te  Te172  1  0.33349425  0.16711284  0.33719613  1
  Te  Te173  1  0.33213581  0.16521462  0.66524422  1
  Te  Te174  1  0.33196202  0.50230686  0.00479817  1
  Te  Te175  1  0.33395393  0.49557036  0.32585251  1
  Te  Te176  1  0.33241579  0.49244962  0.66659031  1
  Te  Te177  1  0.32689685  0.83430774  -0.00126230  1
  Te  Te178  1  0.32664653  0.83567532  0.33041588  1
  Te  Te179  1  0.33189037  0.83825801  0.66797199  1
  Te  Te180  1  0.66803197  0.16347202  -0.00245109  1
  Te  Te181  1  0.66511309  0.17141836  0.33989550  1
  Te  Te182  1  0.67008536  0.16962725  0.66708137  1
  Te  Te183  1  0.66214102  0.50219998  0.00135150  1
  Te  Te184  1  0.67042154  0.49682842  0.33228593  1
  Te  Te185  1  0.66544954  0.48846870  0.66646236  1
  Te  Te186  1  0.66648188  0.84246972  0.00089243  1
  Te  Te187  1  0.66675469  0.82983829  0.33381932  1
  Te  Te188  1  0.67328381  0.83162294  0.66594453  1
  Te  Te189  1  0.00463416  0.00233215  0.16777734  1
  Te  Te190  1  0.00527573  -0.00302617  0.50215489  1
  Te  Te191  1  -0.00237803  -0.00133335  0.83069465  1
  Te  Te192  1  0.00311705  0.33218127  0.16907194  1
  Te  Te193  1  0.00032615  0.33303220  0.49622213  1
  Te  Te194  1  -0.00650720  0.33313853  0.83243702  1
  Te  Te195  1  0.00365178  0.66916271  0.16415777  1
  Te  Te196  1  -0.00379588  0.66998513  0.50040412  1
  Te  Te197  1  -0.00255658  0.66737929  0.83383718  1
  Te  Te198  1  0.32937001  -0.00211030  0.16615061  1
  Te  Te199  1  0.32941409  0.00201126  0.50079675  1
  Te  Te200  1  0.33319282  -0.00230128  0.83424887  1
  Te  Te201  1  0.33070556  0.33231673  0.16488558  1
  Te  Te202  1  0.33223876  0.32772573  0.49994008  1
  Te  Te203  1  0.33519123  0.33304961  0.83530236  1
  Te  Te204  1  0.32994651  0.66759118  0.16768523  1
  Te  Te205  1  0.33472176  0.66485715  0.50520845  1
  Te  Te206  1  0.33545288  0.67209398  0.82685610  1
  Te  Te207  1  0.66316525  0.00527058  0.16333727  1
  Te  Te208  1  0.66714231  0.00651979  0.49939007  1
  Te  Te209  1  0.66704010  0.00539055  0.83636235  1
  Te  Te210  1  0.66646781  0.32658347  0.17197642  1
  Te  Te211  1  0.66696245  0.32779567  0.50070827  1
  Te  Te212  1  0.66742876  0.32699708  0.83183409  1
  Te  Te213  1  0.66948425  0.66708390  0.17066879  1
  Te  Te214  1  0.67104031  0.66693404  0.49564830  1
  Te  Te215  1  0.67156429  0.66723075  0.83249394  1
