# generated using pymatgen
data_AgSbTe2
_symmetry_space_group_name_H-M   'P 1'
_cell_length_a   18.34381684
_cell_length_b   18.34675683
_cell_length_c   18.34223738
_cell_angle_alpha   89.99881935
_cell_angle_beta   89.99432982
_cell_angle_gamma   90.00170448
_symmetry_Int_Tables_number   1
_chemical_formula_structural   AgSbTe2
_chemical_formula_sum   'Ag54 Sb54 Te108'
_cell_volume   6173.07164479
_cell_formula_units_Z   54
loop_
 _symmetry_equiv_pos_site_id
 _symmetry_equiv_pos_as_xyz
  1  'x, y, z'
loop_
 _atom_site_type_symbol
 _atom_site_label
 _atom_site_symmetry_multiplicity
 _atom_site_fract_x
 _atom_site_fract_y
 _atom_site_fract_z
 _atom_site_occupancy
  Ag  Ag0  1  0.18379831  -0.01644532  0.83496202  1
  Ag  Ag1  1  0.32134680  0.67428412  -0.00668360  1
  Ag  Ag2  1  0.66527126  0.50621604  0.83158242  1
  Ag  Ag3  1  0.65805873  0.82508436  0.83446771  1
  Ag  Ag4  1  0.17865583  0.66970158  0.84270062  1
  Ag  Ag5  1  0.33998142  0.83620485  0.83285817  1
  Ag  Ag6  1  0.50403098  0.33033788  0.82977097  1
  Ag  Ag7  1  0.82800128  0.66688655  0.50286561  1
  Ag  Ag8  1  0.16598175  0.66285769  0.15377235  1
  Ag  Ag9  1  0.33851757  -0.00475922  0.67808520  1
  Ag  Ag10  1  0.66658992  0.66978661  -0.00613356  1
  Ag  Ag11  1  0.50222602  0.17414889  0.67456172  1
  Ag  Ag12  1  0.66637554  0.33459762  -0.00367295  1
  Ag  Ag13  1  0.00328288  0.50303084  0.16820172  1
  Ag  Ag14  1  0.50274657  0.50210306  0.67166885  1
  Ag  Ag15  1  0.34612628  0.15061636  0.83730145  1
  Ag  Ag16  1  0.34603483  0.33071111  0.67130713  1
  Ag  Ag17  1  0.82790154  0.34196960  0.49662498  1
  Ag  Ag18  1  0.33923417  0.67706659  0.67609157  1
  Ag  Ag19  1  0.82992628  0.83059164  0.00247421  1
  Ag  Ag20  1  0.50895819  0.66991882  0.51379357  1
  Ag  Ag21  1  0.49930343  0.67464608  0.83125901  1
  Ag  Ag22  1  0.33279293  -0.00578163  -0.01022998  1
  Ag  Ag23  1  0.66841308  0.33309645  0.33185886  1
  Ag  Ag24  1  0.82494870  0.66826835  0.83505010  1
  Ag  Ag25  1  -0.01082211  0.82878772  0.49877516  1
  Ag  Ag26  1  0.16446214  0.51052208  0.00376932  1
  Ag  Ag27  1  0.66698340  0.83907830  0.16936990  1
  Ag  Ag28  1  0.34628918  0.16342170  0.15594604  1
  Ag  Ag29  1  0.49897478  0.83025327  0.67318637  1
  Ag  Ag30  1  -0.00291742  0.66247886  0.32731578  1
  Ag  Ag31  1  0.49751122  -0.00331100  0.83436216  1
  Ag  Ag32  1  0.66653732  0.82574486  0.49619272  1
  Ag  Ag33  1  0.83564004  0.50800388  0.33430038  1
  Ag  Ag34  1  0.82797256  0.82851839  0.32920539  1
  Ag  Ag35  1  0.50227216  0.00356966  0.16402766  1
  Ag  Ag36  1  0.18056764  0.83089740  0.68002877  1
  Ag  Ag37  1  -0.00447367  0.50573089  0.83854455  1
  Ag  Ag38  1  0.16943300  0.82203504  -0.00458227  1
  Ag  Ag39  1  0.34395354  -0.00255072  0.32897364  1
  Ag  Ag40  1  0.82093048  0.16851300  0.67339339  1
  Ag  Ag41  1  -0.01423374  0.34490658  0.33104336  1
  Ag  Ag42  1  0.17039481  0.34307934  0.16639125  1
  Ag  Ag43  1  0.66316645  0.15967730  0.16120005  1
  Ag  Ag44  1  0.66230764  0.16897304  0.83813860  1
  Ag  Ag45  1  0.66302494  0.33171745  0.67687655  1
  Ag  Ag46  1  0.82046145  -0.00258059  0.16470169  1
  Ag  Ag47  1  0.66810089  0.50677893  0.50315105  1
  Ag  Ag48  1  0.00953005  0.66497797  -0.00026625  1
  Ag  Ag49  1  0.66330067  -0.01119667  0.32628295  1
  Ag  Ag50  1  0.51006822  0.83381533  0.33658162  1
  Ag  Ag51  1  0.82779133  0.15960954  -0.00184402  1
  Ag  Ag52  1  0.15345596  0.50164820  0.32298778  1
  Ag  Ag53  1  0.50284819  0.32564068  0.16167989  1
  Sb  Sb54  1  0.50270858  0.16086429  0.33319328  1
  Sb  Sb55  1  0.16509116  0.82917052  0.32911426  1
  Sb  Sb56  1  -0.00429712  0.82712079  0.16798473  1
  Sb  Sb57  1  0.33831066  0.33205290  -0.00280313  1
  Sb  Sb58  1  0.49859149  0.50038623  -0.00498033  1
  Sb  Sb59  1  0.17507018  0.16230196  0.67218716  1
  Sb  Sb60  1  0.34001251  0.50713992  0.83332271  1
  Sb  Sb61  1  0.66095918  -0.00169655  0.00347958  1
  Sb  Sb62  1  0.00376780  -0.00242804  0.66972901  1
  Sb  Sb63  1  0.00314911  0.66725712  0.67014544  1
  Sb  Sb64  1  0.16920114  0.17158127  0.32894338  1
  Sb  Sb65  1  0.66627633  0.16750211  0.50071909  1
  Sb  Sb66  1  0.33010981  0.67143015  0.33088509  1
  Sb  Sb67  1  -0.00761853  0.50619105  0.49662791  1
  Sb  Sb68  1  0.82728652  0.83459947  0.66775963  1
  Sb  Sb69  1  0.33902382  0.83188908  0.50739519  1
  Sb  Sb70  1  0.32805969  0.49664599  0.16521824  1
  Sb  Sb71  1  0.65911215  0.66256442  0.67147833  1
  Sb  Sb72  1  -0.00398536  0.34097697  0.00389965  1
  Sb  Sb73  1  0.17338711  -0.00283535  0.16209862  1
  Sb  Sb74  1  0.50253576  0.83369010  -0.00400144  1
  Sb  Sb75  1  0.50145447  -0.00684569  0.50206597  1
  Sb  Sb76  1  -0.00449126  0.17335244  0.16545650  1
  Sb  Sb77  1  0.50583451  0.16539279  -0.00603367  1
  Sb  Sb78  1  -0.00504144  0.33636596  0.66335846  1
  Sb  Sb79  1  0.34008458  0.50162018  0.50215966  1
  Sb  Sb80  1  0.33957758  0.83844804  0.15900837  1
  Sb  Sb81  1  0.00174536  0.82588693  0.83190032  1
  Sb  Sb82  1  0.49800817  0.66951343  0.16214463  1
  Sb  Sb83  1  0.82645582  -0.00442785  0.83829440  1
  Sb  Sb84  1  0.33873526  0.33042282  0.33338082  1
  Sb  Sb85  1  -0.00469132  0.17334827  0.83452598  1
  Sb  Sb86  1  0.17357301  0.50542205  0.67145941  1
  Sb  Sb87  1  0.16898285  -0.00478953  0.50537682  1
  Sb  Sb88  1  0.82945795  -0.00422325  0.49677887  1
  Sb  Sb89  1  0.67003170  0.50132250  0.16543592  1
  Sb  Sb90  1  0.50854755  0.33962817  0.50550730  1
  Sb  Sb91  1  0.67180620  0.66890523  0.33244183  1
  Sb  Sb92  1  0.82925230  0.16513619  0.33144968  1
  Sb  Sb93  1  0.83589039  0.67034949  0.16459073  1
  Sb  Sb94  1  -0.00360181  -0.00347827  0.33057550  1
  Sb  Sb95  1  -0.00501994  0.16506913  0.49953239  1
  Sb  Sb96  1  0.82729045  0.33103261  0.16913112  1
  Sb  Sb97  1  0.17479593  0.34047041  0.83789400  1
  Sb  Sb98  1  0.33647671  0.16557054  0.50527283  1
  Sb  Sb99  1  0.82556548  0.49904822  0.66395069  1
  Sb  Sb100  1  0.16510322  0.16668358  -0.00026516  1
  Sb  Sb101  1  0.50485350  0.50391203  0.33649018  1
  Sb  Sb102  1  0.66004169  0.00270869  0.66662042  1
  Sb  Sb103  1  0.16223696  0.33716801  0.49526646  1
  Sb  Sb104  1  0.82408719  0.33834407  0.83132586  1
  Sb  Sb105  1  0.00280045  -0.00832505  -0.00075439  1
  Sb  Sb106  1  0.16534943  0.66745601  0.50189813  1
  Sb  Sb107  1  0.83457949  0.50509318  0.00204272  1
  Te  Te108  1  0.16774922  0.16863821  0.16528308  1
  Te  Te109  1  0.16469064  0.16630315  0.50096961  1
  Te  Te110  1  0.16722571  0.16933424  0.83451709  1
  Te  Te111  1  0.16551246  0.50187276  0.16581200  1
  Te  Te112  1  0.16615736  0.50125784  0.49755162  1
  Te  Te113  1  0.16475851  0.50617525  0.83686516  1
  Te  Te114  1  0.16640107  0.82860512  0.15992259  1
  Te  Te115  1  0.16377104  0.83222028  0.50019833  1
  Te  Te116  1  0.16263053  0.82898065  0.83529831  1
  Te  Te117  1  0.50298164  0.16572871  0.16914027  1
  Te  Te118  1  0.50038500  0.16707251  0.51016084  1
  Te  Te119  1  0.50137848  0.16766516  0.83301570  1
  Te  Te120  1  0.49963035  0.49549108  0.16789764  1
  Te  Te121  1  0.50710270  0.50765260  0.50433545  1
  Te  Te122  1  0.50549386  0.49637352  0.83111130  1
  Te  Te123  1  0.50512798  0.83658829  0.17180952  1
  Te  Te124  1  0.50468905  0.82869497  0.49813097  1
  Te  Te125  1  0.49964207  0.83478880  0.83383646  1
  Te  Te126  1  0.82830806  0.16172032  0.16333120  1
  Te  Te127  1  0.83256183  0.16784639  0.50563590  1
  Te  Te128  1  0.82854084  0.16596951  0.83472678  1
  Te  Te129  1  0.83894964  0.49930719  0.17282602  1
  Te  Te130  1  0.82789782  0.50286860  0.49740954  1
  Te  Te131  1  0.83014269  0.50524014  0.83242784  1
  Te  Te132  1  0.83002115  0.83621600  0.16700162  1
  Te  Te133  1  0.82770115  0.83041551  0.50080829  1
  Te  Te134  1  0.83073256  0.82971686  0.83595410  1
  Te  Te135  1  0.17028965  -0.00141103  -0.00514599  1
  Te  Te136  1  0.16590610  -0.00005984  0.33233170  1
  Te  Te137  1  0.17357398  -0.00575535  0.67274114  1
  Te  Te138  1  0.16573945  0.33498716  0.00623309  1
  Te  Te139  1  0.17013434  0.33933520  0.32787158  1
  Te  Te140  1  0.16702163  0.33405144  0.66579567  1
  Te  Te141  1  0.16537301  0.66652614  -0.00215497  1
  Te  Te142  1  0.16218237  0.66180954  0.33396788  1
  Te  Te143  1  0.17360706  0.67098498  0.66915564  1
  Te  Te144  1  0.49189242  -0.00011721  0.00154214  1
  Te  Te145  1  0.50371184  -0.00390421  0.33350204  1
  Te  Te146  1  0.49700965  -0.00508318  0.66836068  1
  Te  Te147  1  0.50537648  0.33384437  0.00090634  1
  Te  Te148  1  0.50485559  0.33427824  0.33335555  1
  Te  Te149  1  0.50364832  0.33466070  0.66702209  1
  Te  Te150  1  0.50607389  0.66581245  -0.00508230  1
  Te  Te151  1  0.49807973  0.67189514  0.33102393  1
  Te  Te152  1  0.49822757  0.66764830  0.67028504  1
  Te  Te153  1  0.83614652  -0.00390182  0.00387150  1
  Te  Te154  1  0.82947785  -0.00479517  0.32861995  1
  Te  Te155  1  0.83369605  0.00669351  0.66823294  1
  Te  Te156  1  0.82765498  0.33205110  -0.00016416  1
  Te  Te157  1  0.82997384  0.33130012  0.33491940  1
  Te  Te158  1  0.82781122  0.32993234  0.66223853  1
  Te  Te159  1  0.82615217  0.66890178  -0.00219400  1
  Te  Te160  1  0.83668222  0.66797529  0.33202980  1
  Te  Te161  1  0.83470011  0.66688706  0.66598493  1
  Te  Te162  1  -0.01007240  0.16717068  -0.00010106  1
  Te  Te163  1  0.00010779  0.17247795  0.33332817  1
  Te  Te164  1  -0.00358388  0.16683145  0.66682611  1
  Te  Te165  1  0.00116382  0.50469672  0.00086190  1
  Te  Te166  1  -0.00315883  0.50139538  0.33471353  1
  Te  Te167  1  0.00173609  0.50014726  0.67211910  1
  Te  Te168  1  -0.00480741  0.82617064  0.00043271  1
  Te  Te169  1  -0.00348859  0.82875843  0.33591755  1
  Te  Te170  1  -0.00118757  0.83360043  0.65988405  1
  Te  Te171  1  0.33120327  0.16513837  -0.00246597  1
  Te  Te172  1  0.33443351  0.16141218  0.33170393  1
  Te  Te173  1  0.33896080  0.16536688  0.67205218  1
  Te  Te174  1  0.32692038  0.50248767  0.00013184  1
  Te  Te175  1  0.33162690  0.50064024  0.33429862  1
  Te  Te176  1  0.34021335  0.49390245  0.66660091  1
  Te  Te177  1  0.33165665  0.83331470  -0.00424481  1
  Te  Te178  1  0.33285264  0.83725372  0.33268620  1
  Te  Te179  1  0.33685842  0.83460675  0.66908248  1
  Te  Te180  1  0.66971972  0.16552616  0.00143728  1
  Te  Te181  1  0.66703785  0.17097153  0.32818163  1
  Te  Te182  1  0.66287322  0.16884447  0.66726993  1
  Te  Te183  1  0.66686763  0.49819007  -0.00329812  1
  Te  Te184  1  0.67078330  0.49781167  0.33485756  1
  Te  Te185  1  0.66314720  0.49428698  0.66767997  1
  Te  Te186  1  0.66867337  0.83337743  -0.00496297  1
  Te  Te187  1  0.66847768  0.83022191  0.33161416  1
  Te  Te188  1  0.66194924  0.83581719  0.67071215  1
  Te  Te189  1  0.00002716  0.00226504  0.16633296  1
  Te  Te190  1  -0.00053954  -0.00837344  0.49940224  1
  Te  Te191  1  0.00278884  0.00305420  0.83402156  1
  Te  Te192  1  0.00356528  0.33928551  0.17087191  1
  Te  Te193  1  -0.00634996  0.33405626  0.49366153  1
  Te  Te194  1  0.00138694  0.34217146  0.83362514  1
  Te  Te195  1  0.00258716  0.66283075  0.16573019  1
  Te  Te196  1  -0.00439221  0.66998650  0.49908781  1
  Te  Te197  1  -0.00352794  0.66337797  0.83583620  1
  Te  Te198  1  0.33702475  0.00410241  0.16926640  1
  Te  Te199  1  0.33337807  -0.00019904  0.49001150  1
  Te  Te200  1  0.33823023  -0.00366806  0.83382561  1
  Te  Te201  1  0.33713101  0.32631883  0.16585213  1
  Te  Te202  1  0.33217280  0.33302149  0.50653554  1
  Te  Te203  1  0.34015809  0.33427966  0.83090536  1
  Te  Te204  1  0.32896477  0.66776184  0.16098182  1
  Te  Te205  1  0.33788153  0.66669954  0.50326321  1
  Te  Te206  1  0.33750223  0.66824562  0.83388956  1
  Te  Te207  1  0.66312266  -0.00069898  0.16656154  1
  Te  Te208  1  0.66665616  -0.00447169  0.48976021  1
  Te  Te209  1  0.66075426  0.00504533  0.83375644  1
  Te  Te210  1  0.66355128  0.33478503  0.16535019  1
  Te  Te211  1  0.67068545  0.33355486  0.49427303  1
  Te  Te212  1  0.66444093  0.32954487  0.83520874  1
  Te  Te213  1  0.66563398  0.66989548  0.15909070  1
  Te  Te214  1  0.66802579  0.66711937  0.49777773  1
  Te  Te215  1  0.66443481  0.66643406  0.83162352  1
