# generated using pymatgen
data_AgSbTe2
_symmetry_space_group_name_H-M   'P 1'
_cell_length_a   18.34351681
_cell_length_b   18.34379679
_cell_length_c   18.34662210
_cell_angle_alpha   90.00033279
_cell_angle_beta   89.99977141
_cell_angle_gamma   89.99709070
_symmetry_Int_Tables_number   1
_chemical_formula_structural   AgSbTe2
_chemical_formula_sum   'Ag54 Sb54 Te108'
_cell_volume   6173.45018118
_cell_formula_units_Z   54
loop_
 _symmetry_equiv_pos_site_id
 _symmetry_equiv_pos_as_xyz
  1  'x, y, z'
loop_
 _atom_site_type_symbol
 _atom_site_label
 _atom_site_symmetry_multiplicity
 _atom_site_fract_x
 _atom_site_fract_y
 _atom_site_fract_z
 _atom_site_occupancy
  Ag  Ag0  1  0.65732841  0.50255888  0.16558632  1
  Ag  Ag1  1  0.33017640  -0.00142611  0.32702447  1
  Ag  Ag2  1  0.65642162  0.84524065  0.84314618  1
  Ag  Ag3  1  0.66583473  0.16274782  0.83606848  1
  Ag  Ag4  1  0.82492046  0.16303772  0.00268995  1
  Ag  Ag5  1  0.00802701  0.84356660  0.16486863  1
  Ag  Ag6  1  0.33886822  0.15525207  0.16905262  1
  Ag  Ag7  1  0.66839326  0.33438222  0.66527129  1
  Ag  Ag8  1  0.00187619  0.83626076  0.49263455  1
  Ag  Ag9  1  0.83403317  0.00624244  0.50088175  1
  Ag  Ag10  1  0.65190046  0.83283724  0.16282364  1
  Ag  Ag11  1  0.33753257  0.83710450  0.16496808  1
  Ag  Ag12  1  0.82302721  0.49538456  0.66665678  1
  Ag  Ag13  1  0.66175683  0.66183779  0.32888579  1
  Ag  Ag14  1  0.49355790  -0.01439421  0.16409792  1
  Ag  Ag15  1  0.17304978  -0.00041686  0.16615200  1
  Ag  Ag16  1  0.49715218  0.34802853  0.16414035  1
  Ag  Ag17  1  0.49563439  0.83432428  0.00727732  1
  Ag  Ag18  1  0.49644112  0.83924724  0.32161053  1
  Ag  Ag19  1  -0.00169305  -0.00135159  0.00541899  1
  Ag  Ag20  1  0.33876743  0.83793562  0.84805346  1
  Ag  Ag21  1  0.00848150  0.00118518  0.32093881  1
  Ag  Ag22  1  -0.00909316  0.16103614  0.84245749  1
  Ag  Ag23  1  0.50277823  0.33693665  0.84263448  1
  Ag  Ag24  1  0.17146380  -0.00345812  0.84463504  1
  Ag  Ag25  1  0.50222067  0.66964285  0.84467630  1
  Ag  Ag26  1  0.50232151  0.50492486  0.00594680  1
  Ag  Ag27  1  0.33669059  0.49905339  0.48551261  1
  Ag  Ag28  1  0.17547536  0.31882664  0.16880714  1
  Ag  Ag29  1  0.83262621  0.00269965  0.83542269  1
  Ag  Ag30  1  0.00769733  0.15848215  0.16437227  1
  Ag  Ag31  1  0.33303121  -0.00203475  0.66714934  1
  Ag  Ag32  1  0.83036850  0.32658637  0.50272668  1
  Ag  Ag33  1  -0.00006628  0.66655717  0.67420428  1
  Ag  Ag34  1  0.66237261  0.33027081  0.33313409  1
  Ag  Ag35  1  0.17261379  0.84121315  0.32103333  1
  Ag  Ag36  1  0.34348982  0.67324494  0.00327986  1
  Ag  Ag37  1  0.16668163  0.15827259  0.32577473  1
  Ag  Ag38  1  0.34447960  0.50091217  0.16863121  1
  Ag  Ag39  1  0.00314712  0.67985165  -0.00007204  1
  Ag  Ag40  1  0.50160438  0.16453688  0.32240501  1
  Ag  Ag41  1  0.49886130  0.49981939  0.32021761  1
  Ag  Ag42  1  0.50301797  0.15162614  0.00510802  1
  Ag  Ag43  1  0.17782778  0.83723481  0.00400293  1
  Ag  Ag44  1  0.17856781  0.49961087  0.32805555  1
  Ag  Ag45  1  0.50162103  -0.00390480  0.84629078  1
  Ag  Ag46  1  0.16681953  0.83743122  0.67230482  1
  Ag  Ag47  1  0.82606544  0.16478893  0.32760926  1
  Ag  Ag48  1  0.50267893  0.49887211  0.67623659  1
  Ag  Ag49  1  0.65961908  -0.00008427  -0.00232687  1
  Ag  Ag50  1  0.49932119  0.66799508  0.16356531  1
  Ag  Ag51  1  0.66875184  0.16826609  0.49369820  1
  Ag  Ag52  1  -0.00602414  0.33517308  0.66742709  1
  Ag  Ag53  1  0.66024861  0.49683571  0.83641705  1
  Sb  Sb54  1  0.83259355  0.84177655  0.33206166  1
  Sb  Sb55  1  0.82746367  0.49359193  0.33695228  1
  Sb  Sb56  1  -0.00287402  0.32611541  0.33480372  1
  Sb  Sb57  1  0.82807883  0.32906500  0.17110624  1
  Sb  Sb58  1  0.16965732  0.50275659  0.66397942  1
  Sb  Sb59  1  0.83236813  0.16888776  0.66769672  1
  Sb  Sb60  1  0.82531600  0.49520140  -0.00390989  1
  Sb  Sb61  1  0.00237263  -0.00101731  0.66918897  1
  Sb  Sb62  1  0.50519443  0.33380700  0.49613901  1
  Sb  Sb63  1  0.34200221  0.50639978  0.83931859  1
  Sb  Sb64  1  0.50336963  0.00062543  0.49543914  1
  Sb  Sb65  1  0.82440365  0.32648879  0.82862005  1
  Sb  Sb66  1  0.50038218  0.66515300  0.49630722  1
  Sb  Sb67  1  0.33915172  0.66867340  0.32602579  1
  Sb  Sb68  1  0.66761661  0.66089892  0.66597768  1
  Sb  Sb69  1  0.17010321  0.15659112  0.00745144  1
  Sb  Sb70  1  0.00315975  0.50026230  0.16663427  1
  Sb  Sb71  1  0.82826221  0.67164393  0.83495212  1
  Sb  Sb72  1  0.33907914  0.16822192  0.49113608  1
  Sb  Sb73  1  0.16495946  0.16087158  0.66325889  1
  Sb  Sb74  1  0.00201230  0.50279792  0.49955314  1
  Sb  Sb75  1  0.16167800  0.33226400  0.49210150  1
  Sb  Sb76  1  0.33003306  0.83167749  0.49397756  1
  Sb  Sb77  1  0.16635408  0.66868887  0.49855686  1
  Sb  Sb78  1  0.16241695  -0.00125432  0.49286632  1
  Sb  Sb79  1  -0.00630762  0.16197715  0.49684042  1
  Sb  Sb80  1  0.83381967  0.66636408  0.50026267  1
  Sb  Sb81  1  0.67004152  0.84023228  0.49639486  1
  Sb  Sb82  1  0.17395835  0.50753388  0.00651674  1
  Sb  Sb83  1  0.66255213  0.00423162  0.67418941  1
  Sb  Sb84  1  0.00087422  0.32580142  -0.00190247  1
  Sb  Sb85  1  0.66174991  0.49361868  0.49844941  1
  Sb  Sb86  1  0.83390537  0.00317263  0.16364757  1
  Sb  Sb87  1  -0.00149013  0.67550013  0.32875803  1
  Sb  Sb88  1  0.33697017  0.33092628  0.66717005  1
  Sb  Sb89  1  0.83709503  0.83162176  0.66847311  1
  Sb  Sb90  1  0.33744541  0.33703797  0.00385095  1
  Sb  Sb91  1  0.17031444  0.32417894  0.83804162  1
  Sb  Sb92  1  -0.00592329  0.49656331  0.83250774  1
  Sb  Sb93  1  0.66291636  0.67267238  0.00236335  1
  Sb  Sb94  1  0.33191802  0.67127158  0.67176190  1
  Sb  Sb95  1  0.33903872  0.33169851  0.32967956  1
  Sb  Sb96  1  0.49604480  0.83082770  0.67280784  1
  Sb  Sb97  1  0.00326369  0.83913389  0.83817221  1
  Sb  Sb98  1  0.82724335  0.66765524  0.16537399  1
  Sb  Sb99  1  0.33918510  0.15627929  0.84277309  1
  Sb  Sb100  1  0.66472047  0.00267131  0.32511613  1
  Sb  Sb101  1  0.65812388  0.16493160  0.16455431  1
  Sb  Sb102  1  0.83046316  0.84151690  0.00003933  1
  Sb  Sb103  1  0.17296823  0.67531021  0.16604601  1
  Sb  Sb104  1  0.17109770  0.67354908  0.83577002  1
  Sb  Sb105  1  0.50166542  0.16901174  0.67190198  1
  Sb  Sb106  1  0.33612725  -0.00656568  0.00583898  1
  Sb  Sb107  1  0.66207007  0.32768821  0.00025467  1
  Te  Te108  1  0.16797066  0.16279859  0.16894285  1
  Te  Te109  1  0.16750191  0.16721978  0.48960684  1
  Te  Te110  1  0.16748435  0.15896649  0.83296416  1
  Te  Te111  1  0.16969709  0.50178512  0.16975788  1
  Te  Te112  1  0.17207933  0.49952452  0.49419624  1
  Te  Te113  1  0.16722776  0.49654894  0.83483098  1
  Te  Te114  1  0.16638467  0.83635436  0.16503915  1
  Te  Te115  1  0.16199273  0.83363824  0.50174191  1
  Te  Te116  1  0.17003954  0.83802723  0.83490075  1
  Te  Te117  1  0.49985639  0.16527320  0.16537877  1
  Te  Te118  1  0.50682006  0.16749257  0.49413961  1
  Te  Te119  1  0.50277740  0.16354786  0.83805197  1
  Te  Te120  1  0.50140311  0.50410522  0.16566924  1
  Te  Te121  1  0.49622864  0.49942229  0.50132443  1
  Te  Te122  1  0.50207929  0.49941653  0.83462734  1
  Te  Te123  1  0.49698126  0.82929549  0.16683288  1
  Te  Te124  1  0.50023948  0.83295999  0.49424245  1
  Te  Te125  1  0.49901299  0.83437360  0.83288672  1
  Te  Te126  1  0.83902753  0.16788579  0.16652828  1
  Te  Te127  1  0.82997728  0.16618312  0.49960795  1
  Te  Te128  1  0.83212540  0.16312612  0.83545457  1
  Te  Te129  1  0.82753883  0.49828820  0.16668231  1
  Te  Te130  1  0.83358069  0.49628381  0.50554003  1
  Te  Te131  1  0.82585489  0.49923196  0.82779548  1
  Te  Te132  1  0.83990927  0.83323189  0.16728160  1
  Te  Te133  1  0.83892076  0.83863428  0.50063623  1
  Te  Te134  1  0.82329018  0.83976438  0.83226777  1
  Te  Te135  1  0.16184324  -0.00380540  0.00224341  1
  Te  Te136  1  0.16741600  -0.00207581  0.33026099  1
  Te  Te137  1  0.17024072  -0.00361820  0.66638499  1
  Te  Te138  1  0.16817939  0.33585606  0.00750448  1
  Te  Te139  1  0.16459461  0.33724491  0.32778668  1
  Te  Te140  1  0.16338830  0.33291853  0.66743661  1
  Te  Te141  1  0.16327221  0.67443540  -0.00058125  1
  Te  Te142  1  0.16541392  0.66434318  0.33306562  1
  Te  Te143  1  0.16089554  0.67139419  0.66794870  1
  Te  Te144  1  0.49893743  -0.00450365  0.00265728  1
  Te  Te145  1  0.49828294  0.00019654  0.32996578  1
  Te  Te146  1  0.49455877  0.00005873  0.66680819  1
  Te  Te147  1  0.50042585  0.34191545  0.00197234  1
  Te  Te148  1  0.50303091  0.33435156  0.32998008  1
  Te  Te149  1  0.50369333  0.33649447  0.66713830  1
  Te  Te150  1  0.50288984  0.67088776  0.00106254  1
  Te  Te151  1  0.50247555  0.66307426  0.33075887  1
  Te  Te152  1  0.49993766  0.66147337  0.66835392  1
  Te  Te153  1  0.83660696  0.00555740  -0.00409988  1
  Te  Te154  1  0.83349914  0.00623383  0.33670392  1
  Te  Te155  1  0.83310578  -0.00030056  0.66881439  1
  Te  Te156  1  0.83289236  0.32447844  -0.00041386  1
  Te  Te157  1  0.82838164  0.32620766  0.33846302  1
  Te  Te158  1  0.83156309  0.33562743  0.66463458  1
  Te  Te159  1  0.84268640  0.66342228  -0.00125575  1
  Te  Te160  1  0.82594374  0.66493106  0.33370660  1
  Te  Te161  1  0.83887488  0.65991193  0.66742611  1
  Te  Te162  1  0.00362649  0.16288630  0.00076279  1
  Te  Te163  1  0.00202766  0.16228356  0.33125979  1
  Te  Te164  1  0.00051365  0.17147279  0.66783932  1
  Te  Te165  1  -0.00110444  0.49906398  -0.00098443  1
  Te  Te166  1  -0.00023110  0.50206287  0.33379450  1
  Te  Te167  1  0.00167741  0.50058962  0.66626325  1
  Te  Te168  1  -0.00354066  0.83737972  0.00196657  1
  Te  Te169  1  0.00121328  0.83809506  0.33084885  1
  Te  Te170  1  0.00413087  0.83054513  0.66984213  1
  Te  Te171  1  0.34127975  0.17032604  0.00917419  1
  Te  Te172  1  0.33599887  0.16395262  0.32886758  1
  Te  Te173  1  0.33290449  0.16128940  0.66285824  1
  Te  Te174  1  0.33961191  0.50880876  0.00577436  1
  Te  Te175  1  0.33627543  0.50187649  0.32848626  1
  Te  Te176  1  0.33754342  0.50067701  0.67064215  1
  Te  Te177  1  0.33456259  0.83170767  0.00342893  1
  Te  Te178  1  0.33270625  0.83471799  0.33088070  1
  Te  Te179  1  0.32799400  0.83666081  0.66172959  1
  Te  Te180  1  0.66488243  0.16204217  -0.00203253  1
  Te  Te181  1  0.66563036  0.16812400  0.33093206  1
  Te  Te182  1  0.66572849  0.17289211  0.67263919  1
  Te  Te183  1  0.66347324  0.50073127  -0.00000776  1
  Te  Te184  1  0.66361665  0.49702529  0.33175635  1
  Te  Te185  1  0.66381484  0.49636624  0.66525581  1
  Te  Te186  1  0.66498011  0.83745507  0.00123350  1
  Te  Te187  1  0.66357684  0.83405662  0.32893507  1
  Te  Te188  1  0.66665368  0.83069666  0.66768686  1
  Te  Te189  1  -0.00361251  0.00131591  0.16608617  1
  Te  Te190  1  -0.00491968  -0.00388673  0.50188700  1
  Te  Te191  1  -0.00178848  0.00299393  0.83424971  1
  Te  Te192  1  0.00176960  0.33151588  0.16645162  1
  Te  Te193  1  -0.00552971  0.33355192  0.50522664  1
  Te  Te194  1  0.00141344  0.32716060  0.82945973  1
  Te  Te195  1  -0.00133956  0.66880918  0.16194451  1
  Te  Te196  1  -0.00110430  0.67318050  0.50182824  1
  Te  Te197  1  -0.00111251  0.66659701  0.83507515  1
  Te  Te198  1  0.33384032  -0.00208817  0.16861640  1
  Te  Te199  1  0.33420468  0.00050867  0.49864867  1
  Te  Te200  1  0.33265555  -0.00307410  0.83124411  1
  Te  Te201  1  0.33476402  0.33883360  0.16764162  1
  Te  Te202  1  0.33131847  0.33945853  0.50054190  1
  Te  Te203  1  0.33995182  0.33078950  0.83341282  1
  Te  Te204  1  0.33776553  0.66767233  0.16315023  1
  Te  Te205  1  0.33339823  0.65880397  0.50289825  1
  Te  Te206  1  0.33893313  0.67416638  0.83900858  1
  Te  Te207  1  0.66415890  -0.00403359  0.16045440  1
  Te  Te208  1  0.67230977  0.00623772  0.50281244  1
  Te  Te209  1  0.66272624  0.00199480  0.83549296  1
  Te  Te210  1  0.66130124  0.33594702  0.16934537  1
  Te  Te211  1  0.67038632  0.32868499  0.50076620  1
  Te  Te212  1  0.66168134  0.33423162  0.83281176  1
  Te  Te213  1  0.66254158  0.66830661  0.16826710  1
  Te  Te214  1  0.66807645  0.66981865  0.49304628  1
  Te  Te215  1  0.66185869  0.66122224  0.83270998  1
