# generated using pymatgen
data_AgSbTe2
_symmetry_space_group_name_H-M   'P 1'
_cell_length_a   18.34866551
_cell_length_b   18.34599164
_cell_length_c   18.33259095
_cell_angle_alpha   90.00151095
_cell_angle_beta   90.00076079
_cell_angle_gamma   89.99946455
_symmetry_Int_Tables_number   1
_chemical_formula_structural   AgSbTe2
_chemical_formula_sum   'Ag54 Sb54 Te108'
_cell_volume   6171.19859928
_cell_formula_units_Z   54
loop_
 _symmetry_equiv_pos_site_id
 _symmetry_equiv_pos_as_xyz
  1  'x, y, z'
loop_
 _atom_site_type_symbol
 _atom_site_label
 _atom_site_symmetry_multiplicity
 _atom_site_fract_x
 _atom_site_fract_y
 _atom_site_fract_z
 _atom_site_occupancy
  Ag  Ag0  1  0.84218600  0.50152300  0.32117272  1
  Ag  Ag1  1  0.33014608  0.15722000  0.83089772  1
  Ag  Ag2  1  0.66315818  0.67456350  0.67389567  1
  Ag  Ag3  1  0.00415748  0.00290839  -0.00276892  1
  Ag  Ag4  1  0.33298907  0.83354452  0.51419628  1
  Ag  Ag5  1  0.00032444  0.82683507  0.16006282  1
  Ag  Ag6  1  0.33090339  0.67509894  0.66868680  1
  Ag  Ag7  1  0.33089177  0.50115909  0.83560797  1
  Ag  Ag8  1  0.33164543  0.50661523  0.15440992  1
  Ag  Ag9  1  0.66472050  0.82562968  0.16104626  1
  Ag  Ag10  1  0.50433300  0.66864593  0.16413854  1
  Ag  Ag11  1  0.33788680  0.16656142  0.51125243  1
  Ag  Ag12  1  0.49013079  0.32571696  0.50393285  1
  Ag  Ag13  1  0.66627784  0.16557290  0.16351687  1
  Ag  Ag14  1  0.66295508  0.33189442  0.66747685  1
  Ag  Ag15  1  0.82528441  0.66683082  0.16442437  1
  Ag  Ag16  1  0.49519196  0.49755000  0.00195738  1
  Ag  Ag17  1  0.66599827  0.66234689  -0.00163056  1
  Ag  Ag18  1  0.17256746  0.34613573  0.50581424  1
  Ag  Ag19  1  0.49884419  0.15772665  0.66591792  1
  Ag  Ag20  1  0.82601793  0.83185038  0.66979165  1
  Ag  Ag21  1  0.49039602  0.83256960  0.33760080  1
  Ag  Ag22  1  0.01369884  0.50124772  0.49252924  1
  Ag  Ag23  1  0.49850793  0.16997040  -0.00532326  1
  Ag  Ag24  1  0.33666527  -0.01186485  0.67144876  1
  Ag  Ag25  1  0.65326792  -0.00723448  0.66915532  1
  Ag  Ag26  1  -0.00331953  0.50656988  0.16320581  1
  Ag  Ag27  1  0.83213017  0.49824835  0.00278711  1
  Ag  Ag28  1  0.16907055  0.17194088  0.33748005  1
  Ag  Ag29  1  0.17394982  0.83001667  0.33563086  1
  Ag  Ag30  1  0.33001757  0.49985559  0.50239591  1
  Ag  Ag31  1  0.66122101  0.50940175  0.84072980  1
  Ag  Ag32  1  0.82659701  0.16900545  0.00093123  1
  Ag  Ag33  1  0.49599939  0.00559443  0.50772903  1
  Ag  Ag34  1  0.16680297  0.50286416  0.33555288  1
  Ag  Ag35  1  0.17069689  -0.00679736  0.83462563  1
  Ag  Ag36  1  0.83180797  -0.01128281  0.16296429  1
  Ag  Ag37  1  0.33034108  0.34003901  -0.00458978  1
  Ag  Ag38  1  0.67171728  0.50917004  0.15905813  1
  Ag  Ag39  1  0.01291928  0.15978206  0.83639772  1
  Ag  Ag40  1  0.01363625  0.66947305  0.66859912  1
  Ag  Ag41  1  0.17515615  0.49813095  0.00096646  1
  Ag  Ag42  1  0.33459942  0.82741765  0.16356080  1
  Ag  Ag43  1  0.33122805  0.00204259  -0.00924601  1
  Ag  Ag44  1  0.32921087  0.83561895  0.82681961  1
  Ag  Ag45  1  0.01211085  0.83481341  0.83378053  1
  Ag  Ag46  1  0.17094363  0.33570136  0.83120820  1
  Ag  Ag47  1  0.65544271  0.16742457  0.50629993  1
  Ag  Ag48  1  0.00703209  0.33599128  -0.00267953  1
  Ag  Ag49  1  0.16976973  0.66296810  0.50712966  1
  Ag  Ag50  1  0.17851933  0.82930506  0.67294910  1
  Ag  Ag51  1  0.17034549  0.66986469  0.82834798  1
  Ag  Ag52  1  0.66456925  0.82872853  0.82800409  1
  Ag  Ag53  1  0.49258643  0.83758005  0.66529701  1
  Sb  Sb54  1  0.66272697  0.49768823  0.50065445  1
  Sb  Sb55  1  0.33639771  0.16586468  0.16189705  1
  Sb  Sb56  1  -0.00245114  0.66581435  -0.00259235  1
  Sb  Sb57  1  0.83107085  0.50588228  0.67092607  1
  Sb  Sb58  1  0.17284873  -0.00300583  0.50538899  1
  Sb  Sb59  1  0.00277680  0.66548363  0.33490579  1
  Sb  Sb60  1  0.66538069  0.33368197  0.33604947  1
  Sb  Sb61  1  0.83329691  0.83252640  -0.00134428  1
  Sb  Sb62  1  0.33109355  0.66818362  0.33754382  1
  Sb  Sb63  1  0.16814438  0.66525398  0.16438766  1
  Sb  Sb64  1  0.49994427  0.33797900  0.16761929  1
  Sb  Sb65  1  0.83441531  0.82847331  0.33073632  1
  Sb  Sb66  1  0.49288766  -0.00104387  0.82889123  1
  Sb  Sb67  1  0.49578792  0.50526275  0.32835349  1
  Sb  Sb68  1  0.83463455  0.33474270  0.50234827  1
  Sb  Sb69  1  0.66540750  -0.00163258  0.33414930  1
  Sb  Sb70  1  0.00205719  -0.00133449  0.32607781  1
  Sb  Sb71  1  0.17492039  0.16125729  0.66799574  1
  Sb  Sb72  1  0.66149960  0.16453944  0.83310459  1
  Sb  Sb73  1  0.83677390  0.33388236  0.83594121  1
  Sb  Sb74  1  0.00538862  0.50387108  0.83732000  1
  Sb  Sb75  1  0.16863733  0.50710044  0.66722846  1
  Sb  Sb76  1  0.49867449  0.83341109  -0.00270388  1
  Sb  Sb77  1  0.33665190  0.66493976  -0.00496159  1
  Sb  Sb78  1  0.50244824  -0.00586148  0.16888369  1
  Sb  Sb79  1  0.00412882  -0.00690729  0.67307615  1
  Sb  Sb80  1  0.83647274  0.17106199  0.32635440  1
  Sb  Sb81  1  0.00995450  0.82804291  0.50490083  1
  Sb  Sb82  1  0.82715751  -0.00105505  0.49799752  1
  Sb  Sb83  1  0.49431224  0.33389579  0.83012727  1
  Sb  Sb84  1  0.00650205  0.17249151  0.50751573  1
  Sb  Sb85  1  0.65660387  0.83642175  0.50507834  1
  Sb  Sb86  1  0.66592438  0.66691799  0.33104693  1
  Sb  Sb87  1  0.16518253  -0.00246742  0.16021733  1
  Sb  Sb88  1  0.83247934  0.34038183  0.16282576  1
  Sb  Sb89  1  0.49929242  0.50254774  0.67087454  1
  Sb  Sb90  1  0.82607291  0.15947994  0.67239099  1
  Sb  Sb91  1  0.83819079  -0.00219982  0.83863078  1
  Sb  Sb92  1  0.66312967  0.33893360  -0.00441597  1
  Sb  Sb93  1  0.33225855  -0.00341062  0.33503171  1
  Sb  Sb94  1  0.16747596  0.82809574  -0.00375410  1
  Sb  Sb95  1  0.16785395  0.33712213  0.16378836  1
  Sb  Sb96  1  0.00021675  0.33939704  0.67200526  1
  Sb  Sb97  1  0.16954694  0.17083368  -0.00082704  1
  Sb  Sb98  1  0.83299535  0.66766633  0.83653288  1
  Sb  Sb99  1  0.49440758  0.66687618  0.50035899  1
  Sb  Sb100  1  0.00390169  0.33656486  0.32764466  1
  Sb  Sb101  1  0.66387835  -0.00212327  -0.00336064  1
  Sb  Sb102  1  0.83726552  0.66605196  0.50006059  1
  Sb  Sb103  1  0.49616022  0.16172525  0.33646684  1
  Sb  Sb104  1  0.49781242  0.66673371  0.83583978  1
  Sb  Sb105  1  0.33599918  0.33420773  0.66879371  1
  Sb  Sb106  1  -0.00240416  0.16673946  0.15729253  1
  Sb  Sb107  1  0.33135143  0.33467176  0.33449718  1
  Te  Te108  1  0.16665509  0.16644811  0.17546874  1
  Te  Te109  1  0.17100424  0.16499826  0.49846838  1
  Te  Te110  1  0.17063449  0.16982069  0.83329882  1
  Te  Te111  1  0.16952667  0.50102101  0.16663623  1
  Te  Te112  1  0.16983193  0.50222921  0.50337963  1
  Te  Te113  1  0.16830523  0.49893996  0.83451019  1
  Te  Te114  1  0.16506400  0.83129156  0.16796887  1
  Te  Te115  1  0.17226822  0.83075873  0.49754326  1
  Te  Te116  1  0.16882878  0.83121235  0.83452675  1
  Te  Te117  1  0.50456130  0.16633040  0.16824667  1
  Te  Te118  1  0.49757852  0.16614592  0.49899123  1
  Te  Te119  1  0.49390027  0.16742950  0.83359470  1
  Te  Te120  1  0.49715211  0.50290065  0.16394783  1
  Te  Te121  1  0.49391505  0.49782728  0.49774592  1
  Te  Te122  1  0.50050005  0.49967646  0.83905486  1
  Te  Te123  1  0.50154371  0.83059743  0.16430317  1
  Te  Te124  1  0.49342025  0.83289725  0.50021814  1
  Te  Te125  1  0.50188317  0.83321574  0.82961627  1
  Te  Te126  1  0.83034401  0.16727428  0.16224679  1
  Te  Te127  1  0.83184840  0.16648095  0.49812196  1
  Te  Te128  1  0.83462713  0.16599922  0.84076196  1
  Te  Te129  1  0.83282342  0.50270154  0.16304507  1
  Te  Te130  1  0.83282490  0.50038081  0.49765508  1
  Te  Te131  1  0.82797223  0.50015870  0.83973070  1
  Te  Te132  1  0.83443026  0.82947107  0.16600229  1
  Te  Te133  1  0.83557904  0.83309041  0.50093116  1
  Te  Te134  1  0.82722929  0.83314050  0.83094134  1
  Te  Te135  1  0.16765375  0.00087274  -0.00524032  1
  Te  Te136  1  0.16550528  -0.00692558  0.33292940  1
  Te  Te137  1  0.17159492  -0.00655856  0.67289233  1
  Te  Te138  1  0.16879810  0.33706806  -0.00238232  1
  Te  Te139  1  0.16695510  0.33650078  0.34016316  1
  Te  Te140  1  0.16478931  0.32947968  0.66739970  1
  Te  Te141  1  0.16551547  0.65866615  -0.00632327  1
  Te  Te142  1  0.16607622  0.66594188  0.33813206  1
  Te  Te143  1  0.17021205  0.67018752  0.66764852  1
  Te  Te144  1  0.49602524  0.00700584  0.00175620  1
  Te  Te145  1  0.49950903  -0.00784964  0.34103164  1
  Te  Te146  1  0.49711208  0.00003973  0.66591306  1
  Te  Te147  1  0.49557017  0.33233334  0.00024071  1
  Te  Te148  1  0.49923527  0.33326355  0.34290524  1
  Te  Te149  1  0.50387079  0.33301966  0.66200237  1
  Te  Te150  1  0.50536406  0.66335504  0.00434396  1
  Te  Te151  1  0.49937188  0.67368430  0.32674259  1
  Te  Te152  1  0.50232342  0.67077865  0.66608669  1
  Te  Te153  1  0.83383377  0.00373701  0.00489827  1
  Te  Te154  1  0.83391380  0.00091395  0.32417771  1
  Te  Te155  1  0.83297186  -0.00683070  0.66622549  1
  Te  Te156  1  0.83713870  0.33180568  -0.00082371  1
  Te  Te157  1  0.83477317  0.34277861  0.33407091  1
  Te  Te158  1  0.82671397  0.33180603  0.66770363  1
  Te  Te159  1  0.82886484  0.66306197  0.00470850  1
  Te  Te160  1  0.83437901  0.66007516  0.32812980  1
  Te  Te161  1  0.82387429  0.67200007  0.66671080  1
  Te  Te162  1  0.00245255  0.16592884  -0.00419499  1
  Te  Te163  1  0.00567375  0.16757387  0.33568762  1
  Te  Te164  1  -0.00378115  0.16691428  0.67497259  1
  Te  Te165  1  -0.00301590  0.49916968  0.00163623  1
  Te  Te166  1  0.00383207  0.50029139  0.33080657  1
  Te  Te167  1  -0.00416051  0.50712438  0.66585651  1
  Te  Te168  1  0.00020106  0.83594779  -0.00115924  1
  Te  Te169  1  0.00339011  0.83320487  0.32966429  1
  Te  Te170  1  -0.00065745  0.82903743  0.66943646  1
  Te  Te171  1  0.33579131  0.16507490  -0.00183909  1
  Te  Te172  1  0.32824104  0.16619030  0.33304305  1
  Te  Te173  1  0.33867326  0.16821982  0.66894911  1
  Te  Te174  1  0.33462196  0.50202563  -0.00291324  1
  Te  Te175  1  0.32795995  0.50069838  0.33770670  1
  Te  Te176  1  0.33514994  0.50289975  0.66883097  1
  Te  Te177  1  0.33364318  0.83631873  0.00258572  1
  Te  Te178  1  0.33258981  0.83290951  0.32137012  1
  Te  Te179  1  0.33453807  0.83215287  0.66982909  1
  Te  Te180  1  0.66427640  0.16698421  0.00018512  1
  Te  Te181  1  0.66798809  0.16628303  0.33120044  1
  Te  Te182  1  0.66197479  0.16503283  0.66636813  1
  Te  Te183  1  0.66580952  0.49921012  0.00077348  1
  Te  Te184  1  0.66567795  0.49928634  0.32761881  1
  Te  Te185  1  0.66610484  0.50148590  0.66996786  1
  Te  Te186  1  0.66628962  0.82998004  0.00052122  1
  Te  Te187  1  0.66629539  0.83334396  0.32718982  1
  Te  Te188  1  0.66491446  0.83403114  0.66602395  1
  Te  Te189  1  -0.00385750  -0.00165906  0.15867697  1
  Te  Te190  1  -0.00202547  0.00181981  0.49969523  1
  Te  Te191  1  0.00455447  -0.00279705  0.83751680  1
  Te  Te192  1  0.00057450  0.33863383  0.15816279  1
  Te  Te193  1  0.00597264  0.33995501  0.50237448  1
  Te  Te194  1  0.00621657  0.33315996  0.83699427  1
  Te  Te195  1  0.00043210  0.66668846  0.16495272  1
  Te  Te196  1  0.00426028  0.66121758  0.50605338  1
  Te  Te197  1  0.00197103  0.67220450  0.82959316  1
  Te  Te198  1  0.33370028  -0.00293859  0.16176183  1
  Te  Te199  1  0.33609598  -0.00062407  0.50188740  1
  Te  Te200  1  0.33127442  -0.00176612  0.83222079  1
  Te  Te201  1  0.33421064  0.33789209  0.15940149  1
  Te  Te202  1  0.33057919  0.33282211  0.50065591  1
  Te  Te203  1  0.33020948  0.33944042  0.83520959  1
  Te  Te204  1  0.33472697  0.66577918  0.16469640  1
  Te  Te205  1  0.33095472  0.66761776  0.50446186  1
  Te  Te206  1  0.33176449  0.66761323  0.83038186  1
  Te  Te207  1  0.66989015  0.00037687  0.16504084  1
  Te  Te208  1  0.66124447  0.00464166  0.50466213  1
  Te  Te209  1  0.66906453  -0.00342907  0.82909982  1
  Te  Te210  1  0.66525206  0.32897205  0.16695525  1
  Te  Te211  1  0.66682470  0.32924014  0.50402454  1
  Te  Te212  1  0.66594720  0.33326332  0.82817145  1
  Te  Te213  1  0.66630256  0.66614467  0.16712976  1
  Te  Te214  1  0.66674717  0.66637079  0.50477520  1
  Te  Te215  1  0.66665534  0.66764785  0.83538955  1
