# generated using pymatgen
data_AgSbTe2
_symmetry_space_group_name_H-M   'P 1'
_cell_length_a   18.35057698
_cell_length_b   18.34638968
_cell_length_c   18.33918398
_cell_angle_alpha   89.99896456
_cell_angle_beta   90.00311747
_cell_angle_gamma   89.99823493
_symmetry_Int_Tables_number   1
_chemical_formula_structural   AgSbTe2
_chemical_formula_sum   'Ag54 Sb54 Te108'
_cell_volume   6174.19503577
_cell_formula_units_Z   54
loop_
 _symmetry_equiv_pos_site_id
 _symmetry_equiv_pos_as_xyz
  1  'x, y, z'
loop_
 _atom_site_type_symbol
 _atom_site_label
 _atom_site_symmetry_multiplicity
 _atom_site_fract_x
 _atom_site_fract_y
 _atom_site_fract_z
 _atom_site_occupancy
  Ag  Ag0  1  0.66262048  0.84051121  0.49879041  1
  Ag  Ag1  1  0.84103727  0.49074339  0.33521976  1
  Ag  Ag2  1  0.33206046  0.16171184  0.50858597  1
  Ag  Ag3  1  0.65993469  0.32634452  0.66326539  1
  Ag  Ag4  1  0.68060915  0.00457083  0.00274515  1
  Ag  Ag5  1  0.32801056  0.31727766  0.67142070  1
  Ag  Ag6  1  0.16977045  0.32443034  0.16597436  1
  Ag  Ag7  1  0.32715084  0.00269123  0.66656316  1
  Ag  Ag8  1  0.00311894  0.83519096  0.83232290  1
  Ag  Ag9  1  0.16958885  0.67228783  0.82858824  1
  Ag  Ag10  1  0.16408413  0.00572038  0.17033495  1
  Ag  Ag11  1  0.84401454  0.00551083  0.16306205  1
  Ag  Ag12  1  0.01014197  0.00309108  0.66829255  1
  Ag  Ag13  1  0.17169010  0.84634688  0.33954011  1
  Ag  Ag14  1  0.16705383  -0.00220740  0.82517893  1
  Ag  Ag15  1  0.33107288  0.50309791  0.83636006  1
  Ag  Ag16  1  0.84151674  0.16678395  0.33629104  1
  Ag  Ag17  1  0.32689358  0.00604777  -0.00172300  1
  Ag  Ag18  1  0.67125718  0.16328036  0.49864430  1
  Ag  Ag19  1  0.17101523  0.84103126  0.66420901  1
  Ag  Ag20  1  0.84283427  0.16804134  0.65694712  1
  Ag  Ag21  1  0.33238341  0.16717559  0.82362466  1
  Ag  Ag22  1  0.49321571  0.16733833  0.00340271  1
  Ag  Ag23  1  0.32688200  0.00315768  0.33398078  1
  Ag  Ag24  1  -0.00146654  0.16611994  0.50259456  1
  Ag  Ag25  1  0.01024426  0.67177938  0.67176778  1
  Ag  Ag26  1  0.83367761  0.66702749  0.49895137  1
  Ag  Ag27  1  0.00318231  0.00378124  0.00318997  1
  Ag  Ag28  1  0.48513483  0.16323283  0.66491279  1
  Ag  Ag29  1  0.49214638  0.84296286  0.34036153  1
  Ag  Ag30  1  0.48943296  0.32743190  0.16325001  1
  Ag  Ag31  1  0.33130764  0.49630207  0.15514465  1
  Ag  Ag32  1  0.16584641  0.49866679  0.33307714  1
  Ag  Ag33  1  -0.00212666  0.16256882  0.17235039  1
  Ag  Ag34  1  0.49592015  0.16240853  0.33356069  1
  Ag  Ag35  1  0.48721628  0.84071651  0.66146226  1
  Ag  Ag36  1  0.33569566  0.84232184  0.50534617  1
  Ag  Ag37  1  0.00781851  0.32015951  0.67025071  1
  Ag  Ag38  1  0.33011765  0.66047950  -0.01048630  1
  Ag  Ag39  1  0.16870204  0.49652539  0.66717662  1
  Ag  Ag40  1  0.83793810  0.16445107  0.00615441  1
  Ag  Ag41  1  0.00859072  0.00406538  0.32582956  1
  Ag  Ag42  1  0.16424520  0.16203395  0.33548396  1
  Ag  Ag43  1  0.32672021  0.67135095  0.67169778  1
  Ag  Ag44  1  0.49198397  0.48756497  -0.00017249  1
  Ag  Ag45  1  0.48557010  0.66856727  0.83346889  1
  Ag  Ag46  1  0.83406435  0.32261650  0.50210820  1
  Ag  Ag47  1  0.33085079  0.33013661  -0.00197724  1
  Ag  Ag48  1  0.00547054  0.67299366  -0.00577485  1
  Ag  Ag49  1  0.83909909  0.84749363  0.00005563  1
  Ag  Ag50  1  0.17006469  0.15978673  0.66119969  1
  Ag  Ag51  1  0.00605340  0.32141370  -0.00234769  1
  Ag  Ag52  1  0.66708849  0.66918203  0.33552419  1
  Ag  Ag53  1  0.67225513  0.16506925  0.17279995  1
  Sb  Sb54  1  0.16325996  0.32895296  0.50088055  1
  Sb  Sb55  1  0.00007477  0.49418609  0.49974770  1
  Sb  Sb56  1  0.66523863  0.66445134  0.66162830  1
  Sb  Sb57  1  0.50128207  0.67091983  0.50443203  1
  Sb  Sb58  1  0.83677549  0.32459108  0.17056626  1
  Sb  Sb59  1  0.84234172  0.00248437  0.83930988  1
  Sb  Sb60  1  0.66081599  0.16494797  0.83112314  1
  Sb  Sb61  1  0.66286053  0.49191498  0.16784106  1
  Sb  Sb62  1  0.33431460  0.67092034  0.33639610  1
  Sb  Sb63  1  0.00854970  0.50386816  0.83247953  1
  Sb  Sb64  1  0.00770234  0.16103535  0.83052200  1
  Sb  Sb65  1  0.66785113  0.33042646  0.33700988  1
  Sb  Sb66  1  0.16824463  0.00241050  0.49955402  1
  Sb  Sb67  1  0.49014458  -0.00253597  0.83310390  1
  Sb  Sb68  1  0.33111589  0.32612812  0.33359182  1
  Sb  Sb69  1  0.66497254  0.32392953  -0.00274303  1
  Sb  Sb70  1  0.66569457  0.00213111  0.32973956  1
  Sb  Sb71  1  0.84088747  0.49422796  0.66156313  1
  Sb  Sb72  1  0.49785610  0.00175520  0.49955913  1
  Sb  Sb73  1  0.83910519  0.66710238  0.82917286  1
  Sb  Sb74  1  0.00635135  0.49116575  0.16657607  1
  Sb  Sb75  1  0.83279047  0.49536753  0.00589281  1
  Sb  Sb76  1  0.83729803  0.83890405  0.66789071  1
  Sb  Sb77  1  0.00232197  0.84200497  0.16215941  1
  Sb  Sb78  1  0.49052188  0.49690642  0.67298554  1
  Sb  Sb79  1  0.32998033  0.16949544  0.16697445  1
  Sb  Sb80  1  0.16482637  0.83686397  -0.00454755  1
  Sb  Sb81  1  0.66544667  0.00636762  0.66920636  1
  Sb  Sb82  1  0.83536390  0.00355459  0.49632415  1
  Sb  Sb83  1  0.83532780  0.84007084  0.33182053  1
  Sb  Sb84  1  0.16727714  0.16434589  0.00243924  1
  Sb  Sb85  1  0.49874871  0.83840605  -0.00231933  1
  Sb  Sb86  1  0.33124184  0.49736521  0.50351911  1
  Sb  Sb87  1  0.49491017  0.00749782  0.16593950  1
  Sb  Sb88  1  0.16668916  0.66851169  0.16298101  1
  Sb  Sb89  1  0.00223696  0.32320373  0.33433025  1
  Sb  Sb90  1  0.83523936  0.67175408  0.16923220  1
  Sb  Sb91  1  0.66911895  0.49717099  0.49969096  1
  Sb  Sb92  1  0.83666508  0.32946675  0.82796596  1
  Sb  Sb93  1  0.00222324  0.83914221  0.50433246  1
  Sb  Sb94  1  0.66553869  0.67249670  0.00395082  1
  Sb  Sb95  1  0.00006275  0.67220557  0.33431038  1
  Sb  Sb96  1  0.65772918  0.50034679  0.83371517  1
  Sb  Sb97  1  0.49774293  0.66370206  0.16326215  1
  Sb  Sb98  1  0.17306261  0.49950215  -0.00274417  1
  Sb  Sb99  1  0.49450412  0.33235135  0.83654169  1
  Sb  Sb100  1  0.16977370  0.32947429  0.83349380  1
  Sb  Sb101  1  0.66903349  0.83505399  0.82874426  1
  Sb  Sb102  1  0.16282823  0.66787814  0.50880563  1
  Sb  Sb103  1  0.32682640  0.83350316  0.82572991  1
  Sb  Sb104  1  0.49659321  0.49766541  0.32783132  1
  Sb  Sb105  1  0.50167651  0.32764107  0.49925033  1
  Sb  Sb106  1  0.66587503  0.84127193  0.17076569  1
  Sb  Sb107  1  0.33209813  0.83307511  0.17034400  1
  Te  Te108  1  0.16293231  0.16583210  0.16877261  1
  Te  Te109  1  0.16561896  0.16836718  0.49815314  1
  Te  Te110  1  0.17352180  0.16277034  0.82591122  1
  Te  Te111  1  0.17097712  0.49973950  0.16835284  1
  Te  Te112  1  0.16631203  0.49821931  0.49757740  1
  Te  Te113  1  0.17323810  0.50458194  0.82915729  1
  Te  Te114  1  0.16690149  0.83663948  0.17742395  1
  Te  Te115  1  0.16992104  0.83153517  0.50047175  1
  Te  Te116  1  0.16188632  0.83480996  0.82954561  1
  Te  Te117  1  0.50113548  0.16828127  0.16644775  1
  Te  Te118  1  0.49951667  0.16754930  0.50029627  1
  Te  Te119  1  0.49295941  0.16560898  0.83105355  1
  Te  Te120  1  0.49534215  0.49359903  0.16117158  1
  Te  Te121  1  0.50049262  0.49870146  0.49879900  1
  Te  Te122  1  0.49176878  0.50539789  0.83970986  1
  Te  Te123  1  0.50074105  0.83278549  0.17560629  1
  Te  Te124  1  0.49946102  0.83352491  0.50124943  1
  Te  Te125  1  0.50354153  0.82874368  0.82824327  1
  Te  Te126  1  0.83516251  0.16478768  0.16696429  1
  Te  Te127  1  0.83445698  0.16557419  0.49789636  1
  Te  Te128  1  0.83097188  0.16701520  0.83758849  1
  Te  Te129  1  0.83270238  0.49982981  0.17493950  1
  Te  Te130  1  0.83359988  0.50283706  0.49363283  1
  Te  Te131  1  0.83172390  0.49897790  0.83440356  1
  Te  Te132  1  0.83328787  0.84009313  0.16050617  1
  Te  Te133  1  0.83004926  0.83104393  0.50003000  1
  Te  Te134  1  0.83874427  0.83319318  0.83918751  1
  Te  Te135  1  0.16589922  -0.00092273  0.00352179  1
  Te  Te136  1  0.16721167  0.00329431  0.33439606  1
  Te  Te137  1  0.16707046  -0.00010764  0.66491777  1
  Te  Te138  1  0.16732303  0.33372079  0.00264175  1
  Te  Te139  1  0.16535255  0.33665167  0.32830822  1
  Te  Te140  1  0.16752930  0.33446700  0.66719741  1
  Te  Te141  1  0.16789582  0.66820175  -0.00472102  1
  Te  Te142  1  0.16580518  0.66032623  0.33239966  1
  Te  Te143  1  0.16653863  0.66872443  0.66831488  1
  Te  Te144  1  0.48790254  0.00572191  -0.00021609  1
  Te  Te145  1  0.49570822  0.00118078  0.33166558  1
  Te  Te146  1  0.49778707  0.00095025  0.66783335  1
  Te  Te147  1  0.49814887  0.32870524  0.00203514  1
  Te  Te148  1  0.49971591  0.32839666  0.32671673  1
  Te  Te149  1  0.49425509  0.32903512  0.66703980  1
  Te  Te150  1  0.49653523  0.67016001  -0.00404140  1
  Te  Te151  1  0.50327989  0.66719357  0.33293164  1
  Te  Te152  1  0.49912545  0.66665476  0.67174328  1
  Te  Te153  1  0.83946870  0.00475767  0.00174061  1
  Te  Te154  1  0.83504462  0.00651738  0.32681213  1
  Te  Te155  1  0.83383579  0.00661776  0.66852971  1
  Te  Te156  1  0.83626041  0.32842780  0.00026460  1
  Te  Te157  1  0.83510195  0.33064147  0.33820045  1
  Te  Te158  1  0.84328930  0.32966718  0.66234929  1
  Te  Te159  1  0.83531772  0.66442917  0.00011667  1
  Te  Te160  1  0.83191368  0.67144363  0.33618647  1
  Te  Te161  1  0.83443877  0.66590567  0.66141138  1
  Te  Te162  1  0.00106092  0.16429456  -0.00404543  1
  Te  Te163  1  0.00188669  0.16353001  0.33401454  1
  Te  Te164  1  0.00123717  0.16423149  0.66890173  1
  Te  Te165  1  -0.00144754  0.50173906  0.00003602  1
  Te  Te166  1  -0.00002634  0.50250646  0.33237193  1
  Te  Te167  1  0.00728229  0.50870744  0.66629717  1
  Te  Te168  1  -0.00066737  0.83360708  -0.00285382  1
  Te  Te169  1  0.00506861  0.84110784  0.33519280  1
  Te  Te170  1  0.00160758  0.83333158  0.66890417  1
  Te  Te171  1  0.33346218  0.16937774  0.00161004  1
  Te  Te172  1  0.33346021  0.16300027  0.33473148  1
  Te  Te173  1  0.33018477  0.16222438  0.66505812  1
  Te  Te174  1  0.33439423  0.49841463  -0.00305294  1
  Te  Te175  1  0.32990922  0.50099576  0.33451388  1
  Te  Te176  1  0.32861531  0.50900614  0.66946245  1
  Te  Te177  1  0.33387281  0.83639483  0.00193854  1
  Te  Te178  1  0.33303753  0.83533371  0.33789588  1
  Te  Te179  1  0.33134445  0.83413390  0.66473174  1
  Te  Te180  1  0.66521179  0.16359143  -0.00082253  1
  Te  Te181  1  0.66253562  0.16602607  0.33555110  1
  Te  Te182  1  0.67082834  0.16824700  0.66347000  1
  Te  Te183  1  0.65942997  0.50039888  0.00120820  1
  Te  Te184  1  0.66837641  0.50453475  0.33255787  1
  Te  Te185  1  0.66716673  0.49100335  0.66694627  1
  Te  Te186  1  0.67059968  0.83966438  0.00131720  1
  Te  Te187  1  0.66632475  0.83347983  0.33825565  1
  Te  Te188  1  0.66696233  0.83460753  0.66051593  1
  Te  Te189  1  0.00294377  0.00356750  0.16558545  1
  Te  Te190  1  -0.00153686  0.00549201  0.50568738  1
  Te  Te191  1  0.00662441  -0.00391057  0.83227538  1
  Te  Te192  1  0.00434763  0.32617128  0.16135757  1
  Te  Te193  1  -0.00442896  0.32752977  0.50533683  1
  Te  Te194  1  0.00216316  0.33568281  0.83470416  1
  Te  Te195  1  -0.00000637  0.66506586  0.15972539  1
  Te  Te196  1  -0.00480657  0.66779052  0.50263791  1
  Te  Te197  1  0.00392416  0.67018431  0.83322377  1
  Te  Te198  1  0.32715377  -0.00124972  0.16693491  1
  Te  Te199  1  0.33364685  0.00133877  0.50054219  1
  Te  Te200  1  0.32773947  0.00190320  0.83390484  1
  Te  Te201  1  0.33053105  0.33628554  0.16684600  1
  Te  Te202  1  0.33390502  0.32804084  0.50684754  1
  Te  Te203  1  0.33242572  0.33218672  0.83472736  1
  Te  Te204  1  0.33341458  0.65951133  0.16156153  1
  Te  Te205  1  0.33322660  0.66902740  0.50507559  1
  Te  Te206  1  0.32946435  0.67041646  0.83295316  1
  Te  Te207  1  0.66695420  0.00719839  0.16185771  1
  Te  Te208  1  0.66828399  0.00125868  0.49997555  1
  Te  Te209  1  0.66558375  -0.00146124  0.84298708  1
  Te  Te210  1  0.66491712  0.32462534  0.16625395  1
  Te  Te211  1  0.67147132  0.32762114  0.50438779  1
  Te  Te212  1  0.66564651  0.33406997  0.82391878  1
  Te  Te213  1  0.66654131  0.66634671  0.17309954  1
  Te  Te214  1  0.66997264  0.66752472  0.49599715  1
  Te  Te215  1  0.66564332  0.66652410  0.83404586  1
