# generated using pymatgen
data_AgSbTe2
_symmetry_space_group_name_H-M   'P 1'
_cell_length_a   18.32047176
_cell_length_b   18.32306673
_cell_length_c   18.31910230
_cell_angle_alpha   89.99823362
_cell_angle_beta   90.00063063
_cell_angle_gamma   90.00096040
_symmetry_Int_Tables_number   1
_chemical_formula_structural   AgSbTe2
_chemical_formula_sum   'Ag54 Sb54 Te108'
_cell_volume   6149.48863906
_cell_formula_units_Z   54
loop_
 _symmetry_equiv_pos_site_id
 _symmetry_equiv_pos_as_xyz
  1  'x, y, z'
loop_
 _atom_site_type_symbol
 _atom_site_label
 _atom_site_symmetry_multiplicity
 _atom_site_fract_x
 _atom_site_fract_y
 _atom_site_fract_z
 _atom_site_occupancy
  Ag  Ag0  1  0.83194579  0.33981865  0.17761952  1
  Ag  Ag1  1  0.84109156  0.33167339  0.49488314  1
  Ag  Ag2  1  0.66118286  0.00398281  0.66657553  1
  Ag  Ag3  1  0.33352018  0.17426133  0.16928108  1
  Ag  Ag4  1  0.66257308  0.66707465  0.00766713  1
  Ag  Ag5  1  0.16302097  0.17233021  0.66885508  1
  Ag  Ag6  1  0.67188439  0.49298067  0.49862599  1
  Ag  Ag7  1  0.16288382  0.17152364  0.33934386  1
  Ag  Ag8  1  0.83094835  0.50348725  0.00858084  1
  Ag  Ag9  1  0.16712487  0.33344551  0.83017059  1
  Ag  Ag10  1  0.33435254  -0.00252858  0.67186479  1
  Ag  Ag11  1  0.32717791  0.15911408  0.83393847  1
  Ag  Ag12  1  0.32947069  0.66947895  0.67524056  1
  Ag  Ag13  1  0.32668776  0.33209670  0.32980165  1
  Ag  Ag14  1  -0.00274770  0.17225646  0.49945682  1
  Ag  Ag15  1  0.65886179  0.83157328  0.83877835  1
  Ag  Ag16  1  0.00992418  0.17026520  0.82585750  1
  Ag  Ag17  1  0.66279637  0.66467029  0.32541629  1
  Ag  Ag18  1  0.00790862  0.49992348  0.82943199  1
  Ag  Ag19  1  0.49630105  0.00025118  0.49541936  1
  Ag  Ag20  1  0.00316815  0.01395979  0.33477439  1
  Ag  Ag21  1  0.84131103  0.17579209  0.33924308  1
  Ag  Ag22  1  0.17819958  0.83184622  -0.00385959  1
  Ag  Ag23  1  0.84085158  0.16805783  0.65900163  1
  Ag  Ag24  1  0.66781668  0.32724252  0.66274866  1
  Ag  Ag25  1  0.66381541  0.82697511  0.16345642  1
  Ag  Ag26  1  0.00812856  0.66102147  0.67429283  1
  Ag  Ag27  1  0.33814423  0.49604075  0.16620557  1
  Ag  Ag28  1  0.49762994  0.82711190  0.00021057  1
  Ag  Ag29  1  0.49453245  0.34640832  0.16880292  1
  Ag  Ag30  1  -0.00296921  0.66420188  -0.00487272  1
  Ag  Ag31  1  0.16557785  0.49432711  0.67134265  1
  Ag  Ag32  1  0.15990867  0.33102471  0.49446460  1
  Ag  Ag33  1  0.33371202  0.83644108  0.50233289  1
  Ag  Ag34  1  0.84045384  0.00110651  0.83252651  1
  Ag  Ag35  1  0.49615035  -0.00272760  0.16957612  1
  Ag  Ag36  1  0.50103689  0.50962818  0.00922846  1
  Ag  Ag37  1  0.49212137  0.66699739  0.84210941  1
  Ag  Ag38  1  0.00161151  0.33099505  0.33577865  1
  Ag  Ag39  1  0.82259663  0.65722006  0.16802614  1
  Ag  Ag40  1  0.17561514  0.33329658  0.17560048  1
  Ag  Ag41  1  0.33732005  0.66177371  0.33313300  1
  Ag  Ag42  1  0.17040243  0.00494561  0.83210227  1
  Ag  Ag43  1  0.83072884  0.49563170  0.32795106  1
  Ag  Ag44  1  0.33345452  -0.00253674  -0.00891500  1
  Ag  Ag45  1  0.49909628  0.50176532  0.32824269  1
  Ag  Ag46  1  0.17312439  0.66367243  0.83259211  1
  Ag  Ag47  1  0.33293835  0.00220536  0.33322385  1
  Ag  Ag48  1  0.67573128  0.17460472  0.50156173  1
  Ag  Ag49  1  0.50284333  0.66386647  0.16102470  1
  Ag  Ag50  1  0.33318058  0.83060442  0.83277974  1
  Ag  Ag51  1  0.83231557  0.83176206  0.33262324  1
  Ag  Ag52  1  -0.00326313  0.49053226  0.50106500  1
  Ag  Ag53  1  0.32711780  0.50746258  0.83610196  1
  Sb  Sb54  1  0.49743252  0.17034949  0.33319027  1
  Sb  Sb55  1  0.49241954  0.34002949  0.83899444  1
  Sb  Sb56  1  0.84003819  0.33050414  0.83006033  1
  Sb  Sb57  1  0.16860679  0.50401538  -0.00630049  1
  Sb  Sb58  1  0.82979152  0.82777574  0.00278969  1
  Sb  Sb59  1  0.66297486  0.16504316  0.17392774  1
  Sb  Sb60  1  0.00234439  0.00239129  0.66437102  1
  Sb  Sb61  1  0.66630657  0.16158772  0.82649508  1
  Sb  Sb62  1  0.33697112  0.66903650  -0.00255492  1
  Sb  Sb63  1  0.66651901  0.34229140  -0.00162872  1
  Sb  Sb64  1  0.83435733  0.17240519  0.00073087  1
  Sb  Sb65  1  0.33845660  0.83192252  0.16358301  1
  Sb  Sb66  1  0.00459668  -0.00410076  0.00132006  1
  Sb  Sb67  1  0.33266433  0.33241400  0.00618277  1
  Sb  Sb68  1  0.49352580  -0.00491252  0.83414344  1
  Sb  Sb69  1  0.17561514  0.00588967  0.16459351  1
  Sb  Sb70  1  0.00450775  0.83452030  0.49875531  1
  Sb  Sb71  1  0.82975646  0.00813735  0.50110771  1
  Sb  Sb72  1  0.49733771  0.83319949  0.67221530  1
  Sb  Sb73  1  0.66948535  0.33859300  0.33641379  1
  Sb  Sb74  1  0.17170352  0.66168449  0.16225676  1
  Sb  Sb75  1  0.49538893  0.50066597  0.66525095  1
  Sb  Sb76  1  0.66305268  0.83365316  0.49907168  1
  Sb  Sb77  1  0.16798571  0.16482628  -0.00421302  1
  Sb  Sb78  1  0.50092022  0.82930033  0.32728640  1
  Sb  Sb79  1  0.83335390  0.65880740  0.49347401  1
  Sb  Sb80  1  0.66237315  0.50500781  0.17292312  1
  Sb  Sb81  1  0.00567521  0.16907006  0.17049142  1
  Sb  Sb82  1  0.16791862  0.83840908  0.32797723  1
  Sb  Sb83  1  0.49771630  0.66955985  0.49680450  1
  Sb  Sb84  1  0.82873028  0.00087891  0.16611908  1
  Sb  Sb85  1  0.49755776  0.16503109  0.00146678  1
  Sb  Sb86  1  0.17140453  0.00611603  0.50323499  1
  Sb  Sb87  1  0.00134061  0.33823129  0.00286014  1
  Sb  Sb88  1  0.00186885  0.33485931  0.65950175  1
  Sb  Sb89  1  0.00385705  0.83166120  0.83306476  1
  Sb  Sb90  1  0.66107587  -0.00745896  -0.00426501  1
  Sb  Sb91  1  -0.00014837  0.66141000  0.33297658  1
  Sb  Sb92  1  0.83905143  0.49504189  0.66472690  1
  Sb  Sb93  1  0.83491663  0.66933341  0.83750339  1
  Sb  Sb94  1  0.00082587  0.49860508  0.16684414  1
  Sb  Sb95  1  0.33156562  0.50251052  0.49838610  1
  Sb  Sb96  1  0.66473386  -0.00315940  0.33709962  1
  Sb  Sb97  1  0.33033098  0.16333242  0.49881473  1
  Sb  Sb98  1  0.16705752  0.66015016  0.50572981  1
  Sb  Sb99  1  0.33220400  0.33272228  0.66419280  1
  Sb  Sb100  1  0.83264386  0.83802895  0.66383239  1
  Sb  Sb101  1  -0.00501896  0.83198162  0.16742084  1
  Sb  Sb102  1  0.66507880  0.66751842  0.66731409  1
  Sb  Sb103  1  0.16757562  0.49361576  0.33669339  1
  Sb  Sb104  1  0.49715386  0.16548258  0.66579453  1
  Sb  Sb105  1  0.66632699  0.50369442  0.82930626  1
  Sb  Sb106  1  0.49947622  0.33098417  0.49392023  1
  Sb  Sb107  1  0.17034575  0.83350821  0.67116766  1
  Te  Te108  1  0.17229002  0.17302235  0.16879306  1
  Te  Te109  1  0.16342686  0.17071098  0.50047753  1
  Te  Te110  1  0.16881186  0.16650621  0.83313522  1
  Te  Te111  1  0.17251831  0.49351689  0.16507861  1
  Te  Te112  1  0.16308191  0.49322078  0.50618490  1
  Te  Te113  1  0.16709333  0.50138139  0.83258185  1
  Te  Te114  1  0.16513597  0.83269418  0.15854304  1
  Te  Te115  1  0.17290697  0.83317035  0.49813070  1
  Te  Te116  1  0.17041111  0.83200776  0.83614517  1
  Te  Te117  1  0.49502520  0.16190003  0.16723508  1
  Te  Te118  1  0.50583179  0.16204740  0.49937555  1
  Te  Te119  1  0.49149157  0.16988084  0.83430042  1
  Te  Te120  1  0.49939595  0.50274969  0.16808132  1
  Te  Te121  1  0.50339219  0.50023448  0.49513085  1
  Te  Te122  1  0.49690321  0.50532993  0.83382956  1
  Te  Te123  1  0.50376871  0.83048841  0.16235801  1
  Te  Te124  1  0.49507049  0.83815478  0.49823812  1
  Te  Te125  1  0.49733726  0.82972126  0.83794938  1
  Te  Te126  1  0.83255683  0.17008727  0.17058006  1
  Te  Te127  1  0.83566037  0.16942622  0.49983914  1
  Te  Te128  1  0.83462399  0.16270719  0.83237069  1
  Te  Te129  1  0.83494767  0.49998764  0.16754255  1
  Te  Te130  1  0.83468883  0.49362442  0.49828520  1
  Te  Te131  1  0.83655017  0.49952991  0.83445673  1
  Te  Te132  1  0.82730834  0.83255843  0.17075573  1
  Te  Te133  1  0.83343893  0.83337316  0.49413397  1
  Te  Te134  1  0.83152175  0.83935433  0.83328318  1
  Te  Te135  1  0.17081739  -0.00524237  -0.00352309  1
  Te  Te136  1  0.16784746  0.00511340  0.33266809  1
  Te  Te137  1  0.17000458  0.00330692  0.67076943  1
  Te  Te138  1  0.16609269  0.33346489  -0.00269258  1
  Te  Te139  1  0.16670908  0.33185732  0.33409963  1
  Te  Te140  1  0.16835203  0.33233721  0.66988174  1
  Te  Te141  1  0.16274393  0.67038838  -0.00418435  1
  Te  Te142  1  0.17199118  0.66832689  0.33214430  1
  Te  Te143  1  0.16883433  0.66555766  0.67110597  1
  Te  Te144  1  0.49422352  -0.00316645  0.00443709  1
  Te  Te145  1  0.49727986  -0.00058577  0.33262100  1
  Te  Te146  1  0.49648868  -0.00070681  0.66346357  1
  Te  Te147  1  0.50105383  0.33848489  0.00791646  1
  Te  Te148  1  0.49615054  0.33783055  0.32749194  1
  Te  Te149  1  0.50616738  0.33382126  0.66677037  1
  Te  Te150  1  0.50053943  0.66606409  0.00000347  1
  Te  Te151  1  0.49887320  0.66322742  0.33128418  1
  Te  Te152  1  0.49388159  0.66620815  0.67089673  1
  Te  Te153  1  0.83393637  0.00061239  -0.00539417  1
  Te  Te154  1  0.83392866  0.00000455  0.33256072  1
  Te  Te155  1  0.83444686  0.00530200  0.67059072  1
  Te  Te156  1  0.83301593  0.34140129  0.00345948  1
  Te  Te157  1  0.83193737  0.33448728  0.33480818  1
  Te  Te158  1  0.82838485  0.32786003  0.66358440  1
  Te  Te159  1  0.83160734  0.66328024  0.00445355  1
  Te  Te160  1  0.83475563  0.66394443  0.32810637  1
  Te  Te161  1  0.83566628  0.66779662  0.66573887  1
  Te  Te162  1  -0.00032558  0.16531244  -0.00851405  1
  Te  Te163  1  0.00131094  0.17020814  0.33302614  1
  Te  Te164  1  0.00116683  0.16640349  0.66620882  1
  Te  Te165  1  -0.00281114  0.50442625  -0.00346431  1
  Te  Te166  1  -0.00268137  0.49526552  0.33728808  1
  Te  Te167  1  0.00375950  0.50085336  0.66772705  1
  Te  Te168  1  -0.00017256  0.82704942  0.00001900  1
  Te  Te169  1  -0.00451355  0.83382809  0.33413859  1
  Te  Te170  1  0.00055387  0.82409206  0.66463330  1
  Te  Te171  1  0.33344274  0.16039096  0.00098485  1
  Te  Te172  1  0.33184986  0.16578806  0.33172207  1
  Te  Te173  1  0.32903901  0.16447286  0.66877359  1
  Te  Te174  1  0.33772030  0.49940810  -0.00025753  1
  Te  Te175  1  0.33386401  0.50102425  0.33281305  1
  Te  Te176  1  0.32819948  0.50219212  0.66925664  1
  Te  Te177  1  0.33610879  0.83615987  -0.00228818  1
  Te  Te178  1  0.33310512  0.83684826  0.33459239  1
  Te  Te179  1  0.33314699  0.83363232  0.66862491  1
  Te  Te180  1  0.66656795  0.16604000  -0.00057027  1
  Te  Te181  1  0.67167459  0.16553604  0.34005188  1
  Te  Te182  1  0.66622464  0.16435356  0.66322259  1
  Te  Te183  1  0.66589562  0.50693506  -0.00357873  1
  Te  Te184  1  0.66872128  0.50387956  0.33832568  1
  Te  Te185  1  0.66685156  0.49794356  0.66052741  1
  Te  Te186  1  0.66326562  0.82826894  -0.00064989  1
  Te  Te187  1  0.67017414  0.82831452  0.33116750  1
  Te  Te188  1  0.66668817  0.83863444  0.67040634  1
  Te  Te189  1  0.00064554  0.00062681  0.17292954  1
  Te  Te190  1  0.00064251  0.00319065  0.49511211  1
  Te  Te191  1  0.00362273  0.00210584  0.83337385  1
  Te  Te192  1  -0.00354935  0.33322009  0.17145687  1
  Te  Te193  1  0.00058355  0.33280099  0.49755031  1
  Te  Te194  1  0.00473266  0.33386006  0.83508761  1
  Te  Te195  1  -0.00026691  0.66531856  0.16270202  1
  Te  Te196  1  0.00116308  0.66280869  0.50344800  1
  Te  Te197  1  0.00072846  0.66472336  0.83369905  1
  Te  Te198  1  0.33655385  -0.00129383  0.17194451  1
  Te  Te199  1  0.33561483  -0.00186878  0.49935588  1
  Te  Te200  1  0.33262250  -0.00096686  0.83222040  1
  Te  Te201  1  0.33437487  0.33398740  0.16858376  1
  Te  Te202  1  0.33081311  0.33279035  0.49352207  1
  Te  Te203  1  0.32825031  0.33510611  0.83310320  1
  Te  Te204  1  0.33729597  0.66274062  0.17099856  1
  Te  Te205  1  0.33245082  0.67140062  0.49772931  1
  Te  Te206  1  0.33287388  0.66718377  0.83457368  1
  Te  Te207  1  0.65982901  -0.00437338  0.16539517  1
  Te  Te208  1  0.66115492  0.00024212  0.50523800  1
  Te  Te209  1  0.66347009  -0.00494194  0.82850381  1
  Te  Te210  1  0.66820165  0.33111045  0.16588877  1
  Te  Te211  1  0.66464447  0.33306909  0.50161206  1
  Te  Te212  1  0.66592290  0.33245283  0.82878186  1
  Te  Te213  1  0.66564474  0.66673191  0.16803446  1
  Te  Te214  1  0.66581380  0.66394211  0.49737466  1
  Te  Te215  1  0.66535704  0.67131601  0.83301205  1
