# generated using pymatgen
data_AgSbTe2
_symmetry_space_group_name_H-M   'P 1'
_cell_length_a   18.35628069
_cell_length_b   18.34222978
_cell_length_c   18.34259030
_cell_angle_alpha   89.99818582
_cell_angle_beta   89.99950403
_cell_angle_gamma   90.00188090
_symmetry_Int_Tables_number   1
_chemical_formula_structural   AgSbTe2
_chemical_formula_sum   'Ag54 Sb54 Te108'
_cell_volume   6175.86060371
_cell_formula_units_Z   54
loop_
 _symmetry_equiv_pos_site_id
 _symmetry_equiv_pos_as_xyz
  1  'x, y, z'
loop_
 _atom_site_type_symbol
 _atom_site_label
 _atom_site_symmetry_multiplicity
 _atom_site_fract_x
 _atom_site_fract_y
 _atom_site_fract_z
 _atom_site_occupancy
  Ag  Ag0  1  0.67639473  0.49564453  0.16491379  1
  Ag  Ag1  1  0.32200498  0.33070571  0.65985997  1
  Ag  Ag2  1  0.15952161  0.48879336  0.66376180  1
  Ag  Ag3  1  0.17511574  0.17184048  0.33253855  1
  Ag  Ag4  1  0.83177849  0.01257794  0.17733785  1
  Ag  Ag5  1  -0.00021595  0.82179553  0.82929700  1
  Ag  Ag6  1  0.83875359  0.49391940  0.33504851  1
  Ag  Ag7  1  0.15924974  0.48960823  0.33850921  1
  Ag  Ag8  1  0.66793984  0.66413071  -0.00368862  1
  Ag  Ag9  1  0.15771944  0.65697224  0.83693620  1
  Ag  Ag10  1  0.49347671  0.33454963  0.50540599  1
  Ag  Ag11  1  0.83954519  0.48973199  0.66939880  1
  Ag  Ag12  1  0.16582239  0.82279406  -0.00168131  1
  Ag  Ag13  1  -0.00418819  0.49998328  0.82615875  1
  Ag  Ag14  1  0.32583405  0.49296485  0.50022452  1
  Ag  Ag15  1  0.49911521  0.01261525  0.17152760  1
  Ag  Ag16  1  0.33237189  0.01405257  0.66489168  1
  Ag  Ag17  1  0.32162795  0.66884429  -0.00235265  1
  Ag  Ag18  1  -0.00328963  0.49363185  0.16937850  1
  Ag  Ag19  1  0.66615433  0.33088215  0.33428984  1
  Ag  Ag20  1  0.00276257  0.17158682  0.17097813  1
  Ag  Ag21  1  0.49256324  0.17100180  0.33353029  1
  Ag  Ag22  1  0.16667386  0.33604960  0.82327860  1
  Ag  Ag23  1  0.84000769  0.65178791  0.83217394  1
  Ag  Ag24  1  0.17255024  0.17767042  0.66718146  1
  Ag  Ag25  1  0.33610191  0.33046130  0.34050210  1
  Ag  Ag26  1  0.49786499  0.65819612  0.50395509  1
  Ag  Ag27  1  -0.00895617  0.00562783  0.33372982  1
  Ag  Ag28  1  0.67707452  0.49530883  0.83370963  1
  Ag  Ag29  1  0.17225638  0.33583868  0.50924119  1
  Ag  Ag30  1  0.48889927  0.17290183  0.66483665  1
  Ag  Ag31  1  0.83605586  0.00059655  0.49143375  1
  Ag  Ag32  1  0.83712006  0.83592811  0.66411425  1
  Ag  Ag33  1  0.00474227  0.66556757  -0.00432913  1
  Ag  Ag34  1  0.32870250  0.16715542  0.17395340  1
  Ag  Ag35  1  0.83303665  0.16628247  0.33334526  1
  Ag  Ag36  1  0.50373812  0.33236350  0.82499345  1
  Ag  Ag37  1  0.33322659  0.17104295  0.82434581  1
  Ag  Ag38  1  0.83057708  0.33285876  0.17396933  1
  Ag  Ag39  1  0.50069852  0.65823305  0.83161031  1
  Ag  Ag40  1  0.50372707  0.32979902  0.17721371  1
  Ag  Ag41  1  0.83566137  0.85047902  0.33789198  1
  Ag  Ag42  1  0.00947786  0.33503920  0.66821607  1
  Ag  Ag43  1  0.00245714  0.49974936  0.50659089  1
  Ag  Ag44  1  -0.00301904  0.82867560  0.50342784  1
  Ag  Ag45  1  0.33291469  0.01357912  0.33170910  1
  Ag  Ag46  1  0.17049486  0.16600896  0.00348811  1
  Ag  Ag47  1  0.33114456  0.00731811  0.00268994  1
  Ag  Ag48  1  0.16554130  0.66235036  0.15644190  1
  Ag  Ag49  1  0.66035511  0.17834036  0.82914835  1
  Ag  Ag50  1  0.68033844  0.01430203  0.33144001  1
  Ag  Ag51  1  0.66711660  0.33135796  0.67367825  1
  Ag  Ag52  1  0.83472990  0.17370067  0.66551764  1
  Ag  Ag53  1  0.83002736  0.33584964  0.81827025  1
  Sb  Sb54  1  0.33247088  0.66136471  0.33007105  1
  Sb  Sb55  1  0.50172895  0.00718217  0.49524788  1
  Sb  Sb56  1  0.66613653  0.01047955  0.66203118  1
  Sb  Sb57  1  0.50552434  0.84316319  0.33485636  1
  Sb  Sb58  1  0.50147188  0.48994464  0.33546582  1
  Sb  Sb59  1  0.32788924  0.83484576  0.83317882  1
  Sb  Sb60  1  0.00436539  -0.00275442  0.00514306  1
  Sb  Sb61  1  0.49422250  0.16778712  0.00172918  1
  Sb  Sb62  1  0.83946895  0.83155607  -0.00025373  1
  Sb  Sb63  1  0.15997901  0.83344172  0.67121456  1
  Sb  Sb64  1  0.83783789  0.66045559  0.16213666  1
  Sb  Sb65  1  0.49991224  0.48943527  0.66645214  1
  Sb  Sb66  1  0.32626918  0.82861862  0.50062074  1
  Sb  Sb67  1  0.50015622  0.49987185  -0.00213890  1
  Sb  Sb68  1  0.49779047  0.00623477  0.83598651  1
  Sb  Sb69  1  0.16090365  0.83647900  0.32982189  1
  Sb  Sb70  1  0.49296152  0.83177781  -0.00115428  1
  Sb  Sb71  1  -0.00054649  0.17106136  0.49598203  1
  Sb  Sb72  1  0.83445119  0.49930094  -0.00482945  1
  Sb  Sb73  1  0.66706171  0.66032276  0.32991725  1
  Sb  Sb74  1  0.33043475  0.49276131  0.17045100  1
  Sb  Sb75  1  0.16444947  0.00706965  0.49820401  1
  Sb  Sb76  1  0.83151062  0.66685166  0.50410116  1
  Sb  Sb77  1  0.66843463  0.17081717  0.49908759  1
  Sb  Sb78  1  0.66684737  0.33596996  -0.00202206  1
  Sb  Sb79  1  0.67281452  0.83342642  0.49971815  1
  Sb  Sb80  1  -0.00122443  0.65682966  0.67308988  1
  Sb  Sb81  1  0.83510498  0.33069943  0.50061998  1
  Sb  Sb82  1  -0.00064417  0.66406940  0.32994667  1
  Sb  Sb83  1  0.33400581  0.66097267  0.67198089  1
  Sb  Sb84  1  0.33199122  0.33066446  -0.00122151  1
  Sb  Sb85  1  0.83845168  0.16712203  0.00167393  1
  Sb  Sb86  1  0.33232078  0.17350585  0.49944208  1
  Sb  Sb87  1  0.16540656  0.49895795  -0.00251209  1
  Sb  Sb88  1  0.33156200  0.84137907  0.16628476  1
  Sb  Sb89  1  0.16422337  0.33387767  0.16803643  1
  Sb  Sb90  1  0.67026092  0.83049057  0.16765488  1
  Sb  Sb91  1  0.00100257  0.33846350  -0.00386541  1
  Sb  Sb92  1  0.33085451  0.49368520  0.82948772  1
  Sb  Sb93  1  0.00179660  0.00643718  0.66226893  1
  Sb  Sb94  1  -0.00025708  0.83406656  0.16780839  1
  Sb  Sb95  1  0.49659823  0.66123150  0.16446515  1
  Sb  Sb96  1  0.66757981  0.65808213  0.67224634  1
  Sb  Sb97  1  0.66253299  -0.00143672  0.00618865  1
  Sb  Sb98  1  0.00317611  0.17216904  0.83438403  1
  Sb  Sb99  1  0.16764914  0.65703731  0.50316624  1
  Sb  Sb100  1  0.66959378  0.49585598  0.50119482  1
  Sb  Sb101  1  0.83399393  0.00488676  0.83165866  1
  Sb  Sb102  1  0.16692887  0.00498097  0.83369984  1
  Sb  Sb103  1  0.66697571  0.17305248  0.16595256  1
  Sb  Sb104  1  -0.00027628  0.33143180  0.33751102  1
  Sb  Sb105  1  0.16667172  0.00345767  0.16739727  1
  Sb  Sb106  1  0.67396209  0.82697233  0.83300531  1
  Sb  Sb107  1  0.50400792  0.83834852  0.66649366  1
  Te  Te108  1  0.16602466  0.16754490  0.17062533  1
  Te  Te109  1  0.16421531  0.17317834  0.49903968  1
  Te  Te110  1  0.16848990  0.17021741  0.82784461  1
  Te  Te111  1  0.16420658  0.50159181  0.17068833  1
  Te  Te112  1  0.16401343  0.49677711  0.49988369  1
  Te  Te113  1  0.16564440  0.49764581  0.83164978  1
  Te  Te114  1  0.16569729  0.82538845  0.16087807  1
  Te  Te115  1  0.15858392  0.83082152  0.50051664  1
  Te  Te116  1  0.16127805  0.83015131  0.83729753  1
  Te  Te117  1  0.50096360  0.16991361  0.16836924  1
  Te  Te118  1  0.50243336  0.17219176  0.49974415  1
  Te  Te119  1  0.49796790  0.16987658  0.83170622  1
  Te  Te120  1  0.50158710  0.49310069  0.16716638  1
  Te  Te121  1  0.49925398  0.49791785  0.50051080  1
  Te  Te122  1  0.50088297  0.49807285  0.83111620  1
  Te  Te123  1  0.50074767  0.83540271  0.16774559  1
  Te  Te124  1  0.49899451  0.82959787  0.50076357  1
  Te  Te125  1  0.50180064  0.82862148  0.83205221  1
  Te  Te126  1  0.83329173  0.17012772  0.16698304  1
  Te  Te127  1  0.83438294  0.16213003  0.49957025  1
  Te  Te128  1  0.83452568  0.17175527  0.83236773  1
  Te  Te129  1  0.83519586  0.49773498  0.16872848  1
  Te  Te130  1  0.83687563  0.50082475  0.50181435  1
  Te  Te131  1  0.83495101  0.49607524  0.83124997  1
  Te  Te132  1  0.83481836  0.83261683  0.17268407  1
  Te  Te133  1  0.83789364  0.83365309  0.49925635  1
  Te  Te134  1  0.83951938  0.83687001  0.83152575  1
  Te  Te135  1  0.17158322  0.00523124  0.00055962  1
  Te  Te136  1  0.17247988  0.00471910  0.33303744  1
  Te  Te137  1  0.17205611  0.00513719  0.66562406  1
  Te  Te138  1  0.16669441  0.32667443  -0.00503784  1
  Te  Te139  1  0.16623089  0.33162594  0.33123190  1
  Te  Te140  1  0.16660167  0.33353083  0.66801793  1
  Te  Te141  1  0.16472312  0.66303040  -0.00411791  1
  Te  Te142  1  0.16790270  0.66631291  0.33197354  1
  Te  Te143  1  0.16840283  0.66455588  0.67411713  1
  Te  Te144  1  0.49321000  -0.00134613  0.00771558  1
  Te  Te145  1  0.49318341  0.00685144  0.33102173  1
  Te  Te146  1  0.49627861  0.00795658  0.66535750  1
  Te  Te147  1  0.49900327  0.33321848  -0.00400489  1
  Te  Te148  1  0.49981377  0.33028056  0.33428123  1
  Te  Te149  1  0.50774651  0.32990969  0.66667661  1
  Te  Te150  1  0.50329636  0.66720157  -0.00376347  1
  Te  Te151  1  0.49968705  0.66922087  0.33509689  1
  Te  Te152  1  0.50037655  0.66883494  0.66833104  1
  Te  Te153  1  0.83255798  -0.00186082  0.00806282  1
  Te  Te154  1  0.83519621  0.00503818  0.33221666  1
  Te  Te155  1  0.83336957  -0.00054838  0.66374255  1
  Te  Te156  1  0.83394676  0.33202554  0.00950344  1
  Te  Te157  1  0.83334547  0.33344486  0.33532308  1
  Te  Te158  1  0.82623679  0.33290196  0.66179386  1
  Te  Te159  1  0.83261623  0.66838037  -0.00640957  1
  Te  Te160  1  0.83187055  0.65615553  0.33313310  1
  Te  Te161  1  0.83271850  0.67247688  0.67199136  1
  Te  Te162  1  0.00681052  0.16581277  0.00568380  1
  Te  Te163  1  -0.00623009  0.16528557  0.33086146  1
  Te  Te164  1  -0.00412332  0.17193972  0.66635992  1
  Te  Te165  1  0.00053218  0.50522589  0.00661778  1
  Te  Te166  1  0.00028760  0.49911195  0.32971934  1
  Te  Te167  1  -0.00068925  0.49689070  0.66729524  1
  Te  Te168  1  0.00597239  0.82965397  -0.00292653  1
  Te  Te169  1  -0.00373554  0.83656343  0.33655632  1
  Te  Te170  1  -0.00264100  0.83782522  0.66630703  1
  Te  Te171  1  0.32918820  0.16523111  0.00245787  1
  Te  Te172  1  0.33339120  0.17065414  0.33459850  1
  Te  Te173  1  0.33274181  0.17108870  0.66471155  1
  Te  Te174  1  0.33271096  0.50817440  0.00146156  1
  Te  Te175  1  0.32965179  0.49464506  0.33804820  1
  Te  Te176  1  0.33044006  0.49435045  0.66232141  1
  Te  Te177  1  0.32617097  0.83249701  -0.00073951  1
  Te  Te178  1  0.33311147  0.83547490  0.33404759  1
  Te  Te179  1  0.33340035  0.83888642  0.66695798  1
  Te  Te180  1  0.66679630  0.16314669  -0.00955786  1
  Te  Te181  1  0.67180510  0.17032586  0.33184430  1
  Te  Te182  1  0.67421451  0.17064229  0.66949119  1
  Te  Te183  1  0.66684802  0.50422578  -0.00152945  1
  Te  Te184  1  0.67122451  0.49441674  0.33024660  1
  Te  Te185  1  0.67219412  0.49358611  0.67037429  1
  Te  Te186  1  0.66626978  0.82678878  -0.00001335  1
  Te  Te187  1  0.67413669  0.83261981  0.33360643  1
  Te  Te188  1  0.67424073  0.83675077  0.66645238  1
  Te  Te189  1  -0.00328224  0.00295868  0.17173245  1
  Te  Te190  1  -0.00287400  -0.00216521  0.49536911  1
  Te  Te191  1  -0.00071483  -0.00511459  0.83461137  1
  Te  Te192  1  -0.00305920  0.33282082  0.16436722  1
  Te  Te193  1  0.00370489  0.33887822  0.50650985  1
  Te  Te194  1  -0.00299161  0.33696030  0.83000603  1
  Te  Te195  1  0.00404534  0.66439819  0.16146326  1
  Te  Te196  1  -0.00015100  0.66411736  0.49920337  1
  Te  Te197  1  -0.00087026  0.66251633  0.83413629  1
  Te  Te198  1  0.33378454  0.00578988  0.16769852  1
  Te  Te199  1  0.33312427  -0.00432098  0.50007944  1
  Te  Te200  1  0.33385230  0.00548757  0.83358839  1
  Te  Te201  1  0.33637872  0.32809187  0.16762009  1
  Te  Te202  1  0.33264401  0.33604110  0.50029450  1
  Te  Te203  1  0.33500551  0.33044671  0.83245034  1
  Te  Te204  1  0.33044361  0.66678075  0.16141298  1
  Te  Te205  1  0.33702919  0.66046694  0.50076840  1
  Te  Te206  1  0.33849222  0.66691120  0.83688021  1
  Te  Te207  1  0.66570720  -0.00156691  0.17144045  1
  Te  Te208  1  0.67080504  0.00005058  0.49149147  1
  Te  Te209  1  0.66532231  0.00125609  0.83464679  1
  Te  Te210  1  0.66692126  0.33643204  0.16578896  1
  Te  Te211  1  0.65918996  0.33503453  0.49342322  1
  Te  Te212  1  0.66801940  0.33511766  0.83575704  1
  Te  Te213  1  0.66541453  0.65889130  0.16173339  1
  Te  Te214  1  0.65883966  0.66538308  0.50016038  1
  Te  Te215  1  0.66493982  0.66195962  0.83574802  1
