# generated using pymatgen
data_AgSbTe2
_symmetry_space_group_name_H-M   'P 1'
_cell_length_a   18.32396886
_cell_length_b   18.32163810
_cell_length_c   18.32935042
_cell_angle_alpha   90.00111264
_cell_angle_beta   90.00171874
_cell_angle_gamma   90.00320284
_symmetry_Int_Tables_number   1
_chemical_formula_structural   AgSbTe2
_chemical_formula_sum   'Ag54 Sb54 Te108'
_cell_volume   6153.62346932
_cell_formula_units_Z   54
loop_
 _symmetry_equiv_pos_site_id
 _symmetry_equiv_pos_as_xyz
  1  'x, y, z'
loop_
 _atom_site_type_symbol
 _atom_site_label
 _atom_site_symmetry_multiplicity
 _atom_site_fract_x
 _atom_site_fract_y
 _atom_site_fract_z
 _atom_site_occupancy
  Ag  Ag0  1  0.34035968  0.49652415  0.15536782  1
  Ag  Ag1  1  0.84252270  0.83567121  0.00284932  1
  Ag  Ag2  1  0.48811504  0.50364485  0.00286207  1
  Ag  Ag3  1  0.16694154  0.33663469  0.83585908  1
  Ag  Ag4  1  0.00230627  0.83189446  0.49425266  1
  Ag  Ag5  1  0.49829527  0.82794280  0.00320592  1
  Ag  Ag6  1  0.15957674  0.66953793  0.50029453  1
  Ag  Ag7  1  0.17012071  0.33472498  0.16393445  1
  Ag  Ag8  1  0.83745550  0.82851208  0.32792682  1
  Ag  Ag9  1  0.83722614  0.16186953  -0.00454153  1
  Ag  Ag10  1  0.00124610  0.83918455  0.16864734  1
  Ag  Ag11  1  0.15914699  0.83251868  0.00141160  1
  Ag  Ag12  1  0.83599804  0.33899442  0.16554728  1
  Ag  Ag13  1  0.83067233  0.50753425  0.33692581  1
  Ag  Ag14  1  0.33132283  0.34132434  0.00347547  1
  Ag  Ag15  1  0.50446188  0.50507160  0.32489727  1
  Ag  Ag16  1  0.15435272  0.83531663  0.33501248  1
  Ag  Ag17  1  0.83493070  0.32805665  0.83730802  1
  Ag  Ag18  1  0.33656711  0.49798225  0.84232692  1
  Ag  Ag19  1  -0.00137747  -0.00585463  0.32684741  1
  Ag  Ag20  1  0.15935490  -0.00190897  0.17009893  1
  Ag  Ag21  1  0.67743800  0.16287348  0.83394804  1
  Ag  Ag22  1  0.83861195  0.66218041  0.49302420  1
  Ag  Ag23  1  -0.00004286  -0.00364741  -0.00000306  1
  Ag  Ag24  1  0.66866465  0.67112494  0.33306996  1
  Ag  Ag25  1  0.33471734  0.65451075  0.00010775  1
  Ag  Ag26  1  0.16255971  0.33824497  0.50219897  1
  Ag  Ag27  1  0.16663688  0.49898688  0.66670360  1
  Ag  Ag28  1  0.50033550  0.66485945  0.49788018  1
  Ag  Ag29  1  0.49253013  0.34152306  0.84243308  1
  Ag  Ag30  1  0.33192272  0.33916614  0.32315307  1
  Ag  Ag31  1  0.00086797  -0.00291030  0.67139335  1
  Ag  Ag32  1  -0.00392257  0.15945483  0.83813857  1
  Ag  Ag33  1  -0.00312377  0.84087030  0.83949075  1
  Ag  Ag34  1  0.31870758  -0.00154206  0.66788985  1
  Ag  Ag35  1  0.49091233  0.34141946  0.16206265  1
  Ag  Ag36  1  0.49648918  -0.00274818  0.16701680  1
  Ag  Ag37  1  0.65887660  0.49915961  0.16902902  1
  Ag  Ag38  1  0.67448178  -0.00857677  0.33273866  1
  Ag  Ag39  1  0.83779079  0.49816804  0.65804683  1
  Ag  Ag40  1  0.49726778  0.50148947  0.67585370  1
  Ag  Ag41  1  0.83392493  0.66406174  0.17428409  1
  Ag  Ag42  1  0.67352128  0.83756097  0.83480805  1
  Ag  Ag43  1  0.16209988  -0.00999010  0.50405165  1
  Ag  Ag44  1  0.67022081  -0.00158952  0.66983033  1
  Ag  Ag45  1  0.49965957  0.66075176  0.83636578  1
  Ag  Ag46  1  0.16216025  0.84047407  0.66420109  1
  Ag  Ag47  1  -0.00052087  0.15724661  0.15992024  1
  Ag  Ag48  1  0.17440978  0.49994664  -0.00112981  1
  Ag  Ag49  1  0.16424250  0.15842332  0.66753559  1
  Ag  Ag50  1  0.83760817  0.00249248  0.83472115  1
  Ag  Ag51  1  -0.00096503  0.50538808  0.50065368  1
  Ag  Ag52  1  0.84083546  0.34263301  0.49813491  1
  Ag  Ag53  1  0.50469730  0.82611848  0.32661025  1
  Sb  Sb54  1  0.66271625  0.66782457  0.00407389  1
  Sb  Sb55  1  0.16985574  0.66358868  0.83177734  1
  Sb  Sb56  1  0.50479577  0.16810855  -0.00011677  1
  Sb  Sb57  1  0.15863095  0.00159702  0.83154863  1
  Sb  Sb58  1  0.32331674  0.83141461  0.49884905  1
  Sb  Sb59  1  0.49588701  -0.00817472  0.49576168  1
  Sb  Sb60  1  0.32892349  0.33362150  0.66945650  1
  Sb  Sb61  1  0.00220003  0.32960596  0.66712770  1
  Sb  Sb62  1  0.67315184  0.83179894  0.49932204  1
  Sb  Sb63  1  0.67071450  0.83007306  0.16629604  1
  Sb  Sb64  1  0.33097166  0.82978855  0.83497470  1
  Sb  Sb65  1  0.32720083  0.17326543  0.16541737  1
  Sb  Sb66  1  0.16025212  0.16726874  -0.00286841  1
  Sb  Sb67  1  0.67334264  0.50161702  0.49554842  1
  Sb  Sb68  1  0.66555503  0.33619964  0.33103003  1
  Sb  Sb69  1  0.66838110  0.33231273  0.66923184  1
  Sb  Sb70  1  0.66345936  0.33466520  -0.00041098  1
  Sb  Sb71  1  0.67061284  0.16429072  0.50542654  1
  Sb  Sb72  1  0.00254935  0.32998111  0.33296139  1
  Sb  Sb73  1  0.33226964  0.66775785  0.67023422  1
  Sb  Sb74  1  0.33050895  0.16738013  0.50084607  1
  Sb  Sb75  1  0.32895024  0.17235480  0.83357682  1
  Sb  Sb76  1  0.16504275  0.50293636  0.33412857  1
  Sb  Sb77  1  0.32935407  0.00018314  0.33392179  1
  Sb  Sb78  1  0.33777538  0.66249593  0.32869469  1
  Sb  Sb79  1  0.32989745  0.82934995  0.16543667  1
  Sb  Sb80  1  0.67205463  -0.00271279  0.00103353  1
  Sb  Sb81  1  -0.00038045  0.50019730  0.17001946  1
  Sb  Sb82  1  0.00166965  0.67115321  0.66389456  1
  Sb  Sb83  1  0.83836243  -0.00166007  0.16282080  1
  Sb  Sb84  1  0.00328321  0.33013505  0.00033507  1
  Sb  Sb85  1  0.66675130  0.66933175  0.66349283  1
  Sb  Sb86  1  0.83924506  0.83123409  0.66677223  1
  Sb  Sb87  1  0.32797304  -0.00033580  -0.00296264  1
  Sb  Sb88  1  0.50341048  0.66353069  0.16563532  1
  Sb  Sb89  1  0.66156792  0.50016292  0.83695483  1
  Sb  Sb90  1  0.83489404  0.16630071  0.32860252  1
  Sb  Sb91  1  0.82896675  0.66785201  0.83314925  1
  Sb  Sb92  1  0.16238445  0.66754277  0.16976121  1
  Sb  Sb93  1  0.83880750  0.16895686  0.67373001  1
  Sb  Sb94  1  0.67234563  0.16836955  0.16273778  1
  Sb  Sb95  1  0.00291187  0.49942340  0.82942264  1
  Sb  Sb96  1  0.84055935  -0.00222978  0.50247722  1
  Sb  Sb97  1  0.50166137  0.16802078  0.33070358  1
  Sb  Sb98  1  0.16434426  0.16331547  0.33509845  1
  Sb  Sb99  1  0.00215444  0.16405700  0.50220454  1
  Sb  Sb100  1  0.32801739  0.50087142  0.50081080  1
  Sb  Sb101  1  0.49774485  0.34387117  0.49798882  1
  Sb  Sb102  1  -0.00665373  0.67395720  0.33507561  1
  Sb  Sb103  1  0.00427420  0.67390962  0.00041777  1
  Sb  Sb104  1  0.83501591  0.50147046  0.00190085  1
  Sb  Sb105  1  0.49728574  0.17016311  0.67084490  1
  Sb  Sb106  1  0.50588067  -0.00168380  0.83684456  1
  Sb  Sb107  1  0.49729118  0.83004075  0.66747849  1
  Te  Te108  1  0.16067063  0.16614231  0.16651868  1
  Te  Te109  1  0.16585857  0.17374523  0.50563013  1
  Te  Te110  1  0.16176407  0.17307089  0.82998618  1
  Te  Te111  1  0.16713428  0.49767923  0.16546393  1
  Te  Te112  1  0.16180614  0.50022257  0.50081388  1
  Te  Te113  1  0.16755257  0.49727793  0.83291249  1
  Te  Te114  1  0.16380353  0.83517845  0.16595764  1
  Te  Te115  1  0.16237439  0.83202799  0.49997292  1
  Te  Te116  1  0.16319736  0.83214799  0.83582290  1
  Te  Te117  1  0.50259944  0.16890168  0.16607572  1
  Te  Te118  1  0.50092159  0.16752917  0.50058704  1
  Te  Te119  1  0.50264427  0.17315973  0.83410166  1
  Te  Te120  1  0.49971904  0.50028477  0.16519774  1
  Te  Te121  1  0.50021391  0.50382617  0.49814208  1
  Te  Te122  1  0.50025121  0.49922995  0.83575706  1
  Te  Te123  1  0.50021203  0.83385595  0.16580602  1
  Te  Te124  1  0.50087774  0.82711393  0.49764499  1
  Te  Te125  1  0.49973108  0.83066616  0.83588007  1
  Te  Te126  1  0.83763213  0.17189342  0.16109638  1
  Te  Te127  1  0.83527672  0.17610505  0.50057332  1
  Te  Te128  1  0.83566118  0.16664239  0.83460675  1
  Te  Te129  1  0.83436732  0.49909800  0.16782279  1
  Te  Te130  1  0.83524125  0.50083550  0.49861748  1
  Te  Te131  1  0.83304399  0.49795006  0.83179185  1
  Te  Te132  1  0.83554316  0.83286216  0.16661416  1
  Te  Te133  1  0.84023922  0.82946462  0.49685364  1
  Te  Te134  1  0.83411836  0.83294002  0.83428142  1
  Te  Te135  1  0.16295877  -0.00352671  0.00353979  1
  Te  Te136  1  0.16561312  -0.00393548  0.33158281  1
  Te  Te137  1  0.16211784  -0.00118390  0.66749348  1
  Te  Te138  1  0.16866445  0.33344164  0.00039342  1
  Te  Te139  1  0.16921654  0.33363971  0.33134964  1
  Te  Te140  1  0.16690413  0.33962172  0.66608593  1
  Te  Te141  1  0.17154865  0.66740218  0.00076177  1
  Te  Te142  1  0.16927738  0.67306682  0.33860088  1
  Te  Te143  1  0.16822027  0.66226576  0.66173039  1
  Te  Te144  1  0.49794656  -0.00208603  0.00530088  1
  Te  Te145  1  0.49782058  -0.00294342  0.32953340  1
  Te  Te146  1  0.50624782  0.00010448  0.66580065  1
  Te  Te147  1  0.49747256  0.33461105  0.00101722  1
  Te  Te148  1  0.49770519  0.33779165  0.32929191  1
  Te  Te149  1  0.49885687  0.33943015  0.66842922  1
  Te  Te150  1  0.49776563  0.66632394  -0.00073893  1
  Te  Te151  1  0.50370768  0.66539515  0.33285510  1
  Te  Te152  1  0.49936682  0.66191707  0.66533708  1
  Te  Te153  1  0.83739245  -0.00387316  -0.00331860  1
  Te  Te154  1  0.83443615  -0.00291676  0.33441613  1
  Te  Te155  1  0.83379523  -0.00011046  0.67012119  1
  Te  Te156  1  0.83404558  0.33456375  -0.00019617  1
  Te  Te157  1  0.83359994  0.33463850  0.33098722  1
  Te  Te158  1  0.83478342  0.33826353  0.66750544  1
  Te  Te159  1  0.83229472  0.67221919  0.00215045  1
  Te  Te160  1  0.83110074  0.66716432  0.33414295  1
  Te  Te161  1  0.83267335  0.65921851  0.66167328  1
  Te  Te162  1  -0.00424624  0.16323060  -0.00082149  1
  Te  Te163  1  -0.00049748  0.15683801  0.32743491  1
  Te  Te164  1  0.00485398  0.15963302  0.67040809  1
  Te  Te165  1  0.00800351  0.50257795  -0.00034443  1
  Te  Te166  1  -0.00552790  0.49782476  0.33822873  1
  Te  Te167  1  0.00107565  0.50007610  0.66252929  1
  Te  Te168  1  0.00134650  0.83567575  0.00064178  1
  Te  Te169  1  -0.00182066  0.83646003  0.33230220  1
  Te  Te170  1  0.00349302  0.83717207  0.66559809  1
  Te  Te171  1  0.33368615  0.17315239  -0.00067972  1
  Te  Te172  1  0.33370644  0.17592510  0.33326585  1
  Te  Te173  1  0.32693164  0.15998280  0.66726447  1
  Te  Te174  1  0.33150744  0.49761416  -0.00127347  1
  Te  Te175  1  0.33560999  0.49706666  0.33271265  1
  Te  Te176  1  0.33320316  0.50047011  0.67009794  1
  Te  Te177  1  0.33652220  0.83261416  -0.00008545  1
  Te  Te178  1  0.34267540  0.83271025  0.33213186  1
  Te  Te179  1  0.32682316  0.83827533  0.66732163  1
  Te  Te180  1  0.67554413  0.16553757  -0.00608962  1
  Te  Te181  1  0.66739771  0.15611196  0.33367615  1
  Te  Te182  1  0.66610406  0.16020015  0.67270494  1
  Te  Te183  1  0.66388265  0.50141926  0.00718200  1
  Te  Te184  1  0.66805823  0.50101149  0.32990496  1
  Te  Te185  1  0.66386280  0.50063815  0.66768091  1
  Te  Te186  1  0.66172064  0.83316814  -0.00403476  1
  Te  Te187  1  0.66634524  0.83267161  0.33290037  1
  Te  Te188  1  0.66686431  0.83813731  0.67103145  1
  Te  Te189  1  -0.00028621  -0.00150719  0.16547852  1
  Te  Te190  1  0.00391285  -0.00251693  0.50042700  1
  Te  Te191  1  -0.00143288  -0.00080784  0.83521341  1
  Te  Te192  1  0.00020381  0.33203811  0.16702305  1
  Te  Te193  1  0.00089444  0.33406193  0.49965992  1
  Te  Te194  1  -0.00006891  0.33121586  0.83366602  1
  Te  Te195  1  -0.00644105  0.67277301  0.16726444  1
  Te  Te196  1  -0.00010537  0.66684564  0.49964446  1
  Te  Te197  1  -0.00127829  0.67480994  0.83225549  1
  Te  Te198  1  0.33331182  0.00220667  0.16634126  1
  Te  Te199  1  0.32562397  0.00006405  0.50495490  1
  Te  Te200  1  0.33585525  0.00231140  0.82852950  1
  Te  Te201  1  0.33143785  0.33525099  0.16476173  1
  Te  Te202  1  0.32768749  0.33389401  0.49715925  1
  Te  Te203  1  0.33217341  0.33746050  0.83538163  1
  Te  Te204  1  0.33082533  0.65888707  0.16106665  1
  Te  Te205  1  0.33761184  0.66629457  0.49971940  1
  Te  Te206  1  0.33833877  0.66157302  0.83819921  1
  Te  Te207  1  0.66192492  0.00038019  0.17168461  1
  Te  Te208  1  0.66697533  -0.00054032  0.49876919  1
  Te  Te209  1  0.67095206  -0.00149005  0.83374996  1
  Te  Te210  1  0.67043270  0.33652163  0.16674541  1
  Te  Te211  1  0.67285806  0.33140047  0.49999822  1
  Te  Te212  1  0.67233771  0.33020651  0.83312334  1
  Te  Te213  1  0.67350161  0.66254501  0.17232192  1
  Te  Te214  1  0.66583812  0.66712022  0.49429566  1
  Te  Te215  1  0.66045173  0.67260046  0.83233768  1
