# generated using pymatgen
data_AgSbTe2
_symmetry_space_group_name_H-M   'P 1'
_cell_length_a   18.32790326
_cell_length_b   18.32899776
_cell_length_c   18.33718585
_cell_angle_alpha   90.00259613
_cell_angle_beta   89.99818141
_cell_angle_gamma   90.00421706
_symmetry_Int_Tables_number   1
_chemical_formula_structural   AgSbTe2
_chemical_formula_sum   'Ag54 Sb54 Te108'
_cell_volume   6160.04928511
_cell_formula_units_Z   54
loop_
 _symmetry_equiv_pos_site_id
 _symmetry_equiv_pos_as_xyz
  1  'x, y, z'
loop_
 _atom_site_type_symbol
 _atom_site_label
 _atom_site_symmetry_multiplicity
 _atom_site_fract_x
 _atom_site_fract_y
 _atom_site_fract_z
 _atom_site_occupancy
  Ag  Ag0  1  0.50366298  0.66232210  0.50493282  1
  Ag  Ag1  1  0.00400651  0.66174291  0.67151653  1
  Ag  Ag2  1  0.50019905  0.83653478  -0.00339605  1
  Ag  Ag3  1  0.82637305  0.33532920  0.48915299  1
  Ag  Ag4  1  0.66023999  0.16295634  0.84084817  1
  Ag  Ag5  1  0.34037332  0.32932856  0.33382479  1
  Ag  Ag6  1  -0.00381211  0.33372156  0.33339649  1
  Ag  Ag7  1  0.83791753  0.49260632  0.33243096  1
  Ag  Ag8  1  0.17166251  -0.00316069  0.16949013  1
  Ag  Ag9  1  0.50508631  0.33323368  0.49430453  1
  Ag  Ag10  1  0.16463966  0.16008124  0.00953165  1
  Ag  Ag11  1  0.50003685  0.67694110  0.83288237  1
  Ag  Ag12  1  0.66734647  0.33009264  0.33186470  1
  Ag  Ag13  1  0.50169155  0.84048127  0.67611805  1
  Ag  Ag14  1  0.50084354  -0.00261884  0.83676348  1
  Ag  Ag15  1  0.65997097  0.84027123  0.83480052  1
  Ag  Ag16  1  0.49476011  0.15787961  0.66522235  1
  Ag  Ag17  1  0.15832791  0.49797368  0.33696291  1
  Ag  Ag18  1  0.66802039  0.32090938  0.00461099  1
  Ag  Ag19  1  0.16557634  0.50016035  0.66146594  1
  Ag  Ag20  1  -0.00173322  0.50008092  0.49562650  1
  Ag  Ag21  1  0.00721556  0.01109816  0.33114523  1
  Ag  Ag22  1  0.83188946  0.49464281  0.00474830  1
  Ag  Ag23  1  -0.00018794  0.50272433  0.82787228  1
  Ag  Ag24  1  0.65571287  0.00032750  0.67433217  1
  Ag  Ag25  1  0.33920438  0.00495634  0.67217300  1
  Ag  Ag26  1  0.49733057  0.50218315  0.66376546  1
  Ag  Ag27  1  0.34167343  -0.00032594  -0.00051634  1
  Ag  Ag28  1  0.83698839  0.17485068  0.32719101  1
  Ag  Ag29  1  0.16424760  0.16478489  0.32993748  1
  Ag  Ag30  1  0.33380682  0.16532047  0.50066406  1
  Ag  Ag31  1  0.16579405  0.84052507  0.32542268  1
  Ag  Ag32  1  0.66678512  0.16762888  0.16122229  1
  Ag  Ag33  1  -0.00235642  0.66518197  0.00619549  1
  Ag  Ag34  1  0.84111409  0.66500224  0.16450936  1
  Ag  Ag35  1  0.66667006  0.49809353  0.49848289  1
  Ag  Ag36  1  0.00324465  0.65773505  0.32945952  1
  Ag  Ag37  1  0.66703172  0.66916906  0.00123665  1
  Ag  Ag38  1  0.50332359  0.32022307  0.17535914  1
  Ag  Ag39  1  0.65953548  0.00234875  -0.00312690  1
  Ag  Ag40  1  0.17506821  0.83784443  0.00720916  1
  Ag  Ag41  1  0.34033471  0.16334782  0.82830066  1
  Ag  Ag42  1  0.83161829  0.33361149  0.83748281  1
  Ag  Ag43  1  0.66192214  0.83101053  0.50315581  1
  Ag  Ag44  1  0.82496339  0.17174143  0.00845341  1
  Ag  Ag45  1  0.16794738  0.00370056  0.48723396  1
  Ag  Ag46  1  0.16286156  0.67394906  0.16487854  1
  Ag  Ag47  1  -0.00191546  0.16567391  0.17116971  1
  Ag  Ag48  1  0.49543656  0.00105473  0.15998455  1
  Ag  Ag49  1  0.49811007  0.17155190  0.33427851  1
  Ag  Ag50  1  0.16669977  0.66637609  0.84111157  1
  Ag  Ag51  1  0.49992227  0.67123300  0.16443485  1
  Ag  Ag52  1  0.17415014  0.16598157  0.66480606  1
  Ag  Ag53  1  0.33210718  0.83530594  0.16531356  1
  Sb  Sb54  1  -0.00224226  0.82803036  0.49765133  1
  Sb  Sb55  1  -0.00151667  0.82674240  0.83514668  1
  Sb  Sb56  1  0.66106279  0.16868668  0.49947095  1
  Sb  Sb57  1  -0.00058875  0.17012938  0.83803851  1
  Sb  Sb58  1  0.82799085  0.33306406  0.16995457  1
  Sb  Sb59  1  0.66741161  0.49631906  0.16852635  1
  Sb  Sb60  1  0.33633215  0.83880890  0.49669134  1
  Sb  Sb61  1  0.16852835  0.66816625  0.49745263  1
  Sb  Sb62  1  0.83283918  0.00070380  0.16680717  1
  Sb  Sb63  1  0.00515386  0.17335310  0.49178830  1
  Sb  Sb64  1  0.50280863  0.15893393  0.00083911  1
  Sb  Sb65  1  0.50634775  0.50658935  -0.00439219  1
  Sb  Sb66  1  0.83722209  0.83215946  0.33221524  1
  Sb  Sb67  1  0.33430299  0.49408523  0.49941629  1
  Sb  Sb68  1  0.32899484  0.00617348  0.33100599  1
  Sb  Sb69  1  0.66431184  0.32942856  0.66554627  1
  Sb  Sb70  1  0.00106650  0.33721257  0.66152506  1
  Sb  Sb71  1  0.15905036  0.50313766  0.00204279  1
  Sb  Sb72  1  0.83264505  0.66128425  0.83988402  1
  Sb  Sb73  1  0.82217747  0.00667345  0.83545656  1
  Sb  Sb74  1  0.33921751  0.83830217  0.83773842  1
  Sb  Sb75  1  0.17134886  0.33058914  0.17034791  1
  Sb  Sb76  1  0.50461299  0.32969321  0.83444948  1
  Sb  Sb77  1  0.17260801  -0.00199004  0.83804703  1
  Sb  Sb78  1  0.66725139  0.00644161  0.33190469  1
  Sb  Sb79  1  0.49639037  0.00276911  0.50134975  1
  Sb  Sb80  1  0.66920478  0.49818428  0.83084318  1
  Sb  Sb81  1  0.49544507  0.83735036  0.33066850  1
  Sb  Sb82  1  0.82566911  0.83213773  0.66720601  1
  Sb  Sb83  1  0.33536611  0.16049166  0.16829144  1
  Sb  Sb84  1  -0.00584274  0.33592964  0.00581887  1
  Sb  Sb85  1  0.66590497  0.66931491  0.66984849  1
  Sb  Sb86  1  0.83116100  0.16844701  0.66644417  1
  Sb  Sb87  1  0.17311817  0.83403101  0.66814724  1
  Sb  Sb88  1  0.83068411  0.65983630  0.49460638  1
  Sb  Sb89  1  -0.00137299  0.49874251  0.17199593  1
  Sb  Sb90  1  0.16260612  0.33487382  0.83426205  1
  Sb  Sb91  1  0.82953208  0.83388793  0.00059229  1
  Sb  Sb92  1  0.00148641  -0.00152625  0.00449425  1
  Sb  Sb93  1  0.83571996  0.00694218  0.49688964  1
  Sb  Sb94  1  0.65938911  0.83626154  0.16474872  1
  Sb  Sb95  1  0.32992217  0.66198975  0.33302948  1
  Sb  Sb96  1  0.50148835  0.49471106  0.33642570  1
  Sb  Sb97  1  0.34086922  0.32243282  0.00520390  1
  Sb  Sb98  1  0.33556211  0.32517592  0.66155844  1
  Sb  Sb99  1  0.66889299  0.66240336  0.32898686  1
  Sb  Sb100  1  0.00659653  0.83354679  0.16744247  1
  Sb  Sb101  1  0.33353484  0.50387525  0.16759973  1
  Sb  Sb102  1  0.00612692  -0.00175365  0.66203616  1
  Sb  Sb103  1  0.33038919  0.49624152  0.83094390  1
  Sb  Sb104  1  0.83418076  0.50005600  0.66413910  1
  Sb  Sb105  1  0.16845770  0.32966431  0.49583865  1
  Sb  Sb106  1  0.33380947  0.67072992  0.66752358  1
  Sb  Sb107  1  0.33372664  0.67260313  0.00053983  1
  Te  Te108  1  0.16888044  0.16509992  0.16838144  1
  Te  Te109  1  0.17016057  0.16487418  0.49935083  1
  Te  Te110  1  0.16645955  0.16680713  0.82985158  1
  Te  Te111  1  0.16679963  0.50561625  0.17149111  1
  Te  Te112  1  0.16446816  0.49987398  0.50036068  1
  Te  Te113  1  0.16243127  0.50366330  0.83116306  1
  Te  Te114  1  0.16802729  0.83422460  0.16584242  1
  Te  Te115  1  0.16698801  0.83941741  0.49868757  1
  Te  Te116  1  0.16756442  0.82668534  0.83703410  1
  Te  Te117  1  0.50127164  0.16335980  0.16771748  1
  Te  Te118  1  0.49711138  0.16963664  0.49973106  1
  Te  Te119  1  0.50083236  0.16521055  0.83182171  1
  Te  Te120  1  0.49960303  0.51061586  0.16533851  1
  Te  Te121  1  0.50103993  0.49923211  0.50180355  1
  Te  Te122  1  0.49941978  0.50119178  0.82681156  1
  Te  Te123  1  0.49545841  0.83521849  0.16445787  1
  Te  Te124  1  0.50262314  0.83113133  0.49819423  1
  Te  Te125  1  0.50096455  0.83494001  0.83500048  1
  Te  Te126  1  0.83177471  0.16537852  0.16764375  1
  Te  Te127  1  0.83346865  0.17442499  0.49664645  1
  Te  Te128  1  0.83044235  0.17302568  0.83525552  1
  Te  Te129  1  0.83286250  0.50597227  0.16625006  1
  Te  Te130  1  0.83216477  0.49581475  0.49706981  1
  Te  Te131  1  0.83700201  0.49509380  0.83492971  1
  Te  Te132  1  0.83168042  0.82572625  0.16699936  1
  Te  Te133  1  0.82456054  0.83350949  0.49977952  1
  Te  Te134  1  0.82365188  0.83356008  0.83335070  1
  Te  Te135  1  0.16565868  -0.00079154  0.00347198  1
  Te  Te136  1  0.16752758  0.00189400  0.33013973  1
  Te  Te137  1  0.17058151  0.00272894  0.66948939  1
  Te  Te138  1  0.16758664  0.32803214  0.00163948  1
  Te  Te139  1  0.16151176  0.33135741  0.33344532  1
  Te  Te140  1  0.16773839  0.33405312  0.66568690  1
  Te  Te141  1  0.16667728  0.66780250  0.00136331  1
  Te  Te142  1  0.16486519  0.66391310  0.33252896  1
  Te  Te143  1  0.16515408  0.66544788  0.66618153  1
  Te  Te144  1  0.50083374  -0.00169801  -0.00039473  1
  Te  Te145  1  0.49899547  0.00638685  0.32873810  1
  Te  Te146  1  0.49939156  0.00100352  0.66308302  1
  Te  Te147  1  0.50822197  0.33779452  0.00343172  1
  Te  Te148  1  0.50371000  0.33309320  0.33364049  1
  Te  Te149  1  0.49995119  0.33697646  0.66460076  1
  Te  Te150  1  0.50042730  0.67129184  -0.00252655  1
  Te  Te151  1  0.49954739  0.66677776  0.33098122  1
  Te  Te152  1  0.50058111  0.66608805  0.66813979  1
  Te  Te153  1  0.83067408  0.00675975  0.00104426  1
  Te  Te154  1  0.84093508  0.00433428  0.33263651  1
  Te  Te155  1  0.83109454  0.00040511  0.66577500  1
  Te  Te156  1  0.82942300  0.33308773  0.00242748  1
  Te  Te157  1  0.83136656  0.33263515  0.33149826  1
  Te  Te158  1  0.83323175  0.33349735  0.66784332  1
  Te  Te159  1  0.83350023  0.66722909  0.00363390  1
  Te  Te160  1  0.83750803  0.66419543  0.32772236  1
  Te  Te161  1  0.84243765  0.66647024  0.66660245  1
  Te  Te162  1  0.00262184  0.16738149  0.00541172  1
  Te  Te163  1  0.00119789  0.16911165  0.33159831  1
  Te  Te164  1  0.00580852  0.16619465  0.66703621  1
  Te  Te165  1  -0.00600262  0.50339873  -0.00263142  1
  Te  Te166  1  -0.00137399  0.49812081  0.33337123  1
  Te  Te167  1  0.00216312  0.50205364  0.66605026  1
  Te  Te168  1  0.00158251  0.82700151  -0.00021528  1
  Te  Te169  1  0.00524155  0.83051584  0.33421436  1
  Te  Te170  1  0.00073639  0.82647823  0.66634536  1
  Te  Te171  1  0.32768508  0.16084717  -0.00259400  1
  Te  Te172  1  0.33484141  0.17021170  0.33447419  1
  Te  Te173  1  0.33455031  0.16429418  0.66650020  1
  Te  Te174  1  0.33140261  0.49368164  -0.00126566  1
  Te  Te175  1  0.32566175  0.49111237  0.33390192  1
  Te  Te176  1  0.33098542  0.49975040  0.66633069  1
  Te  Te177  1  0.33426525  0.83856698  0.00302951  1
  Te  Te178  1  0.32673123  0.83169678  0.32869034  1
  Te  Te179  1  0.34098353  0.84086530  0.66571837  1
  Te  Te180  1  0.66602897  0.16400933  0.00057022  1
  Te  Te181  1  0.66532375  0.16973860  0.33254785  1
  Te  Te182  1  0.66309123  0.16177079  0.66941659  1
  Te  Te183  1  0.67299445  0.50719591  -0.00099647  1
  Te  Te184  1  0.67084818  0.49494085  0.33742702  1
  Te  Te185  1  0.66274394  0.50075582  0.66095371  1
  Te  Te186  1  0.66364024  0.83302811  -0.00141981  1
  Te  Te187  1  0.66728966  0.83437235  0.33791300  1
  Te  Te188  1  0.66110397  0.83603900  0.66762413  1
  Te  Te189  1  0.00301523  0.00425185  0.17080835  1
  Te  Te190  1  0.00551374  -0.00222356  0.49449512  1
  Te  Te191  1  -0.00247041  -0.00178094  0.83179067  1
  Te  Te192  1  0.00341987  0.32661904  0.17187340  1
  Te  Te193  1  -0.00337335  0.33990063  0.49509844  1
  Te  Te194  1  -0.00562402  0.33927327  0.83393751  1
  Te  Te195  1  0.00275520  0.66609413  0.16716804  1
  Te  Te196  1  -0.00008970  0.66116451  0.49448125  1
  Te  Te197  1  0.00063439  0.66330056  0.83524980  1
  Te  Te198  1  0.33309416  -0.00327244  0.16420429  1
  Te  Te199  1  0.32869500  0.00460234  0.50282165  1
  Te  Te200  1  0.33828205  0.00380872  0.83493836  1
  Te  Te201  1  0.34270844  0.33473587  0.17277432  1
  Te  Te202  1  0.33902603  0.32712459  0.49461636  1
  Te  Te203  1  0.33236286  0.32455622  0.83531297  1
  Te  Te204  1  0.33437174  0.67188075  0.16647909  1
  Te  Te205  1  0.34279160  0.66781648  0.50057948  1
  Te  Te206  1  0.33409516  0.66497930  0.83316013  1
  Te  Te207  1  0.66403066  0.00401617  0.16356398  1
  Te  Te208  1  0.66828742  -0.00360042  0.50078468  1
  Te  Te209  1  0.66150466  0.00086929  0.83435157  1
  Te  Te210  1  0.66188774  0.33045692  0.16658950  1
  Te  Te211  1  0.66604880  0.33517121  0.49917379  1
  Te  Te212  1  0.67082732  0.32994806  0.83714173  1
  Te  Te213  1  0.66121470  0.66795417  0.16278983  1
  Te  Te214  1  0.66380737  0.66484571  0.49948928  1
  Te  Te215  1  0.66379868  0.66651561  0.83726878  1
