# generated using pymatgen
data_AgSbTe2
_symmetry_space_group_name_H-M   'P 1'
_cell_length_a   18.34328095
_cell_length_b   18.34808106
_cell_length_c   18.34816550
_cell_angle_alpha   89.99870416
_cell_angle_beta   89.99697118
_cell_angle_gamma   89.99837397
_symmetry_Int_Tables_number   1
_chemical_formula_structural   AgSbTe2
_chemical_formula_sum   'Ag54 Sb54 Te108'
_cell_volume   6175.33206912
_cell_formula_units_Z   54
loop_
 _symmetry_equiv_pos_site_id
 _symmetry_equiv_pos_as_xyz
  1  'x, y, z'
loop_
 _atom_site_type_symbol
 _atom_site_label
 _atom_site_symmetry_multiplicity
 _atom_site_fract_x
 _atom_site_fract_y
 _atom_site_fract_z
 _atom_site_occupancy
  Ag  Ag0  1  0.66473883  0.00329475  0.33182262  1
  Ag  Ag1  1  0.66989788  0.48561537  0.16925530  1
  Ag  Ag2  1  0.65907279  0.00651200  0.01331386  1
  Ag  Ag3  1  0.32814345  -0.00425750  0.33157187  1
  Ag  Ag4  1  0.16702630  0.32817026  0.17737729  1
  Ag  Ag5  1  0.32988513  0.83019093  0.82993176  1
  Ag  Ag6  1  0.66766807  0.32392551  0.32925041  1
  Ag  Ag7  1  0.00891008  0.49565971  0.49972596  1
  Ag  Ag8  1  0.49672914  0.33550116  0.83173756  1
  Ag  Ag9  1  0.32893018  0.84429706  0.17957951  1
  Ag  Ag10  1  0.33606471  -0.00017283  0.01364684  1
  Ag  Ag11  1  0.65765753  0.32713430  0.01103510  1
  Ag  Ag12  1  0.33003755  0.67854663  0.34263892  1
  Ag  Ag13  1  0.48770796  0.33116220  0.49973179  1
  Ag  Ag14  1  0.17013185  0.66601917  0.50067817  1
  Ag  Ag15  1  0.32893525  0.67203340  -0.00274879  1
  Ag  Ag16  1  0.00843968  0.16310662  0.49131164  1
  Ag  Ag17  1  0.49787857  0.16882999  0.01033541  1
  Ag  Ag18  1  0.33142011  0.33139330  0.65770260  1
  Ag  Ag19  1  0.00959014  0.00445708  0.33358658  1
  Ag  Ag20  1  0.32991484  0.83326542  0.49596280  1
  Ag  Ag21  1  0.33009900  0.16142878  0.17592376  1
  Ag  Ag22  1  0.01276752  0.16222002  0.17421764  1
  Ag  Ag23  1  0.32681776  -0.00701542  0.66006229  1
  Ag  Ag24  1  0.83561489  0.49729407  0.33361085  1
  Ag  Ag25  1  0.16664795  -0.00351994  0.16947904  1
  Ag  Ag26  1  0.17003007  0.67352911  0.17535750  1
  Ag  Ag27  1  0.83090727  0.33292225  0.83312383  1
  Ag  Ag28  1  0.66414608  0.16619079  0.17005457  1
  Ag  Ag29  1  0.84274978  0.00144825  0.16855122  1
  Ag  Ag30  1  0.65865476  0.67584768  0.66419253  1
  Ag  Ag31  1  0.32876070  0.16587555  0.49436930  1
  Ag  Ag32  1  0.01189835  0.84334028  0.17980428  1
  Ag  Ag33  1  0.48610473  0.66385165  0.83162538  1
  Ag  Ag34  1  0.32731915  0.49554755  0.50099960  1
  Ag  Ag35  1  0.48746372  0.16345345  0.33053023  1
  Ag  Ag36  1  0.33095395  0.67437361  0.66575057  1
  Ag  Ag37  1  0.16828393  0.83103741  0.65580355  1
  Ag  Ag38  1  0.01009495  0.83906703  0.49810610  1
  Ag  Ag39  1  0.48378293  0.84583791  0.33604613  1
  Ag  Ag40  1  0.16924317  0.33928338  0.49618906  1
  Ag  Ag41  1  0.66722727  -0.00184251  0.65851310  1
  Ag  Ag42  1  0.00892764  0.83146203  0.82990676  1
  Ag  Ag43  1  0.83331813  0.16460758  0.66505388  1
  Ag  Ag44  1  0.16781908  0.83949573  0.33554921  1
  Ag  Ag45  1  0.17043545  0.15972868  0.33366014  1
  Ag  Ag46  1  0.16810065  0.50962930  0.66186175  1
  Ag  Ag47  1  0.01061023  -0.00059343  0.65539596  1
  Ag  Ag48  1  0.65916051  0.83472680  0.49988507  1
  Ag  Ag49  1  0.00603254  0.32223889  0.33601646  1
  Ag  Ag50  1  0.16925991  0.66842004  0.82640622  1
  Ag  Ag51  1  0.33586624  0.33097256  -0.00241911  1
  Ag  Ag52  1  0.16879121  0.50103897  -0.00115471  1
  Ag  Ag53  1  0.00550529  0.50169222  0.82441938  1
  Sb  Sb54  1  0.83787836  0.66297023  0.83060851  1
  Sb  Sb55  1  0.00709096  0.67234406  0.66584297  1
  Sb  Sb56  1  0.83370240  0.00275623  0.83481061  1
  Sb  Sb57  1  0.83992349  0.67014202  0.16905722  1
  Sb  Sb58  1  0.00605507  0.32893935  0.66186509  1
  Sb  Sb59  1  0.16876295  -0.00673164  0.83694151  1
  Sb  Sb60  1  0.65652029  0.66649966  -0.00235111  1
  Sb  Sb61  1  0.66327893  0.84107014  0.17183022  1
  Sb  Sb62  1  0.32727272  0.50509567  0.82813348  1
  Sb  Sb63  1  0.33245338  0.16472160  0.83338263  1
  Sb  Sb64  1  0.48949901  0.66514048  0.50145286  1
  Sb  Sb65  1  0.00455820  -0.00146892  0.00593771  1
  Sb  Sb66  1  0.00913545  0.66672455  -0.00016116  1
  Sb  Sb67  1  0.66241185  0.83370240  0.82703217  1
  Sb  Sb68  1  0.49246940  0.50057226  0.66654134  1
  Sb  Sb69  1  0.49869099  0.16654925  0.66331550  1
  Sb  Sb70  1  0.00437978  0.33224583  0.00290629  1
  Sb  Sb71  1  0.83909842  0.83405449  0.33311417  1
  Sb  Sb72  1  0.83468825  0.32756883  0.16638869  1
  Sb  Sb73  1  0.83870991  0.66760130  0.49973612  1
  Sb  Sb74  1  0.49747732  -0.00033970  0.83335021  1
  Sb  Sb75  1  0.33079664  0.32806967  0.33549091  1
  Sb  Sb76  1  0.49514458  0.00207507  0.49698710  1
  Sb  Sb77  1  0.16687438  0.16248593  0.65675720  1
  Sb  Sb78  1  0.49096869  0.66695041  0.16540945  1
  Sb  Sb79  1  0.83336192  0.83588532  0.00138603  1
  Sb  Sb80  1  0.49581981  0.32962788  0.16797331  1
  Sb  Sb81  1  0.83885727  0.83808291  0.66597452  1
  Sb  Sb82  1  0.66037249  0.66949680  0.33683279  1
  Sb  Sb83  1  0.82878135  0.16671487  -0.00006670  1
  Sb  Sb84  1  0.83783645  0.16599907  0.33478024  1
  Sb  Sb85  1  0.16982865  0.33866745  0.83118637  1
  Sb  Sb86  1  0.49375430  0.00275924  0.17051610  1
  Sb  Sb87  1  0.16632510  0.49944690  0.33804605  1
  Sb  Sb88  1  0.16764885  -0.00436392  0.49255247  1
  Sb  Sb89  1  0.00835224  0.66890608  0.33470285  1
  Sb  Sb90  1  0.66479339  0.16668860  0.83573221  1
  Sb  Sb91  1  0.49357730  0.83903703  0.00400973  1
  Sb  Sb92  1  0.00027182  0.16587994  0.83205430  1
  Sb  Sb93  1  0.33184417  0.49791543  0.17023788  1
  Sb  Sb94  1  0.66988290  0.49776022  0.83639129  1
  Sb  Sb95  1  0.83725358  0.33140573  0.50007915  1
  Sb  Sb96  1  0.83571832  0.00042028  0.49686676  1
  Sb  Sb97  1  0.49879695  0.49546823  0.33339719  1
  Sb  Sb98  1  0.66207141  0.33108152  0.66447366  1
  Sb  Sb99  1  0.49008383  0.83301377  0.66178171  1
  Sb  Sb100  1  0.66436726  0.16409050  0.49547290  1
  Sb  Sb101  1  0.49280679  0.49498163  -0.00012972  1
  Sb  Sb102  1  0.83754346  0.49698278  0.00346965  1
  Sb  Sb103  1  0.17085778  0.82884092  0.00523407  1
  Sb  Sb104  1  0.17513700  0.17050316  0.01085354  1
  Sb  Sb105  1  0.66612913  0.50144431  0.49721950  1
  Sb  Sb106  1  0.00117700  0.49816164  0.17132327  1
  Sb  Sb107  1  0.83945692  0.49671190  0.66297329  1
  Te  Te108  1  0.16952366  0.16855110  0.17106670  1
  Te  Te109  1  0.16745734  0.17160206  0.49621141  1
  Te  Te110  1  0.16467872  0.16590402  0.83385021  1
  Te  Te111  1  0.16483353  0.49956853  0.16389665  1
  Te  Te112  1  0.16849486  0.50073122  0.50055814  1
  Te  Te113  1  0.16267823  0.50382209  0.83090426  1
  Te  Te114  1  0.16952110  0.83238139  0.16727829  1
  Te  Te115  1  0.16891681  0.83281757  0.49717184  1
  Te  Te116  1  0.16827484  0.82879772  0.83685457  1
  Te  Te117  1  0.49985696  0.16836615  0.16936822  1
  Te  Te118  1  0.49588527  0.17165923  0.49622378  1
  Te  Te119  1  0.49924545  0.17229553  0.83407967  1
  Te  Te120  1  0.51123349  0.50013862  0.16581786  1
  Te  Te121  1  0.49614836  0.49265513  0.50072114  1
  Te  Te122  1  0.50335637  0.50005086  0.83462184  1
  Te  Te123  1  0.49172893  0.83163316  0.17430877  1
  Te  Te124  1  0.50030137  0.83136637  0.49444835  1
  Te  Te125  1  0.49398739  0.82902565  0.83331716  1
  Te  Te126  1  0.82713034  0.16055630  0.16666210  1
  Te  Te127  1  0.83999167  0.16607767  0.50608612  1
  Te  Te128  1  0.83341499  0.17172938  0.82882169  1
  Te  Te129  1  0.83036700  0.50259195  0.17117122  1
  Te  Te130  1  0.83793663  0.50007481  0.49534394  1
  Te  Te131  1  0.84187200  0.49553432  0.83301478  1
  Te  Te132  1  0.84024177  0.83913846  0.16610962  1
  Te  Te133  1  0.83518211  0.83214836  0.50044303  1
  Te  Te134  1  0.84098007  0.83300103  0.83335380  1
  Te  Te135  1  0.17434492  0.00263500  0.00597135  1
  Te  Te136  1  0.16718405  -0.00050221  0.33093535  1
  Te  Te137  1  0.16650043  -0.00523615  0.67162071  1
  Te  Te138  1  0.17114164  0.33791051  -0.00005557  1
  Te  Te139  1  0.16455959  0.33395613  0.33575091  1
  Te  Te140  1  0.17254600  0.33165086  0.66249770  1
  Te  Te141  1  0.17156715  0.66209286  -0.00154811  1
  Te  Te142  1  0.17121992  0.66806770  0.33462190  1
  Te  Te143  1  0.16761141  0.66931096  0.66427688  1
  Te  Te144  1  0.49818442  0.00585157  -0.00119264  1
  Te  Te145  1  0.50245539  0.00189402  0.33502150  1
  Te  Te146  1  0.50381140  0.00003194  0.66592759  1
  Te  Te147  1  0.49893765  0.32943460  0.00104986  1
  Te  Te148  1  0.50358681  0.32899806  0.33705187  1
  Te  Te149  1  0.49442647  0.33388245  0.66665290  1
  Te  Te150  1  0.49187516  0.66646327  -0.00667690  1
  Te  Te151  1  0.49204368  0.66838450  0.33260404  1
  Te  Te152  1  0.49880903  0.66690690  0.67077151  1
  Te  Te153  1  0.82757723  0.00099218  0.00469932  1
  Te  Te154  1  0.82777066  -0.00069346  0.32762607  1
  Te  Te155  1  0.82929983  0.00473727  0.66829236  1
  Te  Te156  1  0.82861518  0.33436492  -0.00531902  1
  Te  Te157  1  0.83016792  0.33653228  0.33253787  1
  Te  Te158  1  0.83310661  0.32956951  0.67143528  1
  Te  Te159  1  0.83065388  0.66613146  -0.00013488  1
  Te  Te160  1  0.83092742  0.65990184  0.33297185  1
  Te  Te161  1  0.82455791  0.66558322  0.66679491  1
  Te  Te162  1  -0.00064014  0.16619560  0.00565390  1
  Te  Te163  1  -0.00079883  0.16573886  0.33220247  1
  Te  Te164  1  -0.00089046  0.16070125  0.66545781  1
  Te  Te165  1  0.00593575  0.49918927  -0.00070775  1
  Te  Te166  1  -0.00306787  0.50075934  0.33791892  1
  Te  Te167  1  0.00471388  0.49888794  0.66375565  1
  Te  Te168  1  -0.00014108  0.83353948  -0.00674569  1
  Te  Te169  1  0.00404888  0.83691876  0.33615483  1
  Te  Te170  1  0.00427905  0.83809547  0.66233590  1
  Te  Te171  1  0.33845675  0.16563810  -0.00153723  1
  Te  Te172  1  0.33138194  0.16599537  0.33434554  1
  Te  Te173  1  0.33360093  0.16697457  0.66285173  1
  Te  Te174  1  0.32842081  0.49614369  0.00221401  1
  Te  Te175  1  0.33448279  0.50689433  0.33923691  1
  Te  Te176  1  0.32825180  0.49706453  0.66188199  1
  Te  Te177  1  0.33499560  0.83687005  -0.00620492  1
  Te  Te178  1  0.32912329  0.83412900  0.33422215  1
  Te  Te179  1  0.33071420  0.83457753  0.66665447  1
  Te  Te180  1  0.66264822  0.16701698  0.00193044  1
  Te  Te181  1  0.67129527  0.16587819  0.33138454  1
  Te  Te182  1  0.66998528  0.16239756  0.66453017  1
  Te  Te183  1  0.66761978  0.49755854  0.00528644  1
  Te  Te184  1  0.66677419  0.50241215  0.33044092  1
  Te  Te185  1  0.66905827  0.50229847  0.66653839  1
  Te  Te186  1  0.66415544  0.83772728  -0.00070465  1
  Te  Te187  1  0.67106647  0.83712805  0.33902966  1
  Te  Te188  1  0.66792724  0.83451719  0.66289663  1
  Te  Te189  1  0.00318052  0.00069057  0.16751682  1
  Te  Te190  1  -0.00071654  0.00090585  0.49707380  1
  Te  Te191  1  -0.00054519  -0.00397034  0.83422533  1
  Te  Te192  1  0.00261998  0.32934168  0.17123704  1
  Te  Te193  1  0.00254801  0.33227630  0.49618448  1
  Te  Te194  1  -0.00095938  0.33560275  0.83362417  1
  Te  Te195  1  0.00702576  0.67173798  0.16639182  1
  Te  Te196  1  0.00625655  0.66763387  0.49995580  1
  Te  Te197  1  0.00522287  0.66640369  0.83278182  1
  Te  Te198  1  0.33066160  0.00126796  0.16996717  1
  Te  Te199  1  0.33338723  0.00056176  0.49974947  1
  Te  Te200  1  0.33479196  -0.00467085  0.82543519  1
  Te  Te201  1  0.32855408  0.33073205  0.16451876  1
  Te  Te202  1  0.33115140  0.33101490  0.49776725  1
  Te  Te203  1  0.33735620  0.33469325  0.83724330  1
  Te  Te204  1  0.32803141  0.66242195  0.16038936  1
  Te  Te205  1  0.33173441  0.67177453  0.50405941  1
  Te  Te206  1  0.32968072  0.66474321  0.83006395  1
  Te  Te207  1  0.66413896  0.00164532  0.16891729  1
  Te  Te208  1  0.66760403  -0.00242169  0.49797579  1
  Te  Te209  1  0.66621190  -0.00163371  0.83031137  1
  Te  Te210  1  0.66821573  0.33016549  0.16794091  1
  Te  Te211  1  0.66636398  0.33471012  0.49395251  1
  Te  Te212  1  0.66221687  0.33397506  0.83270608  1
  Te  Te213  1  0.66795348  0.67235239  0.16565125  1
  Te  Te214  1  0.66638544  0.66962666  0.50402921  1
  Te  Te215  1  0.66808587  0.66647673  0.82937476  1
