# generated using pymatgen
data_AgSbTe2
_symmetry_space_group_name_H-M   'P 1'
_cell_length_a   18.30989103
_cell_length_b   18.31229943
_cell_length_c   18.31395150
_cell_angle_alpha   89.99755195
_cell_angle_beta   89.99974238
_cell_angle_gamma   90.00027866
_symmetry_Int_Tables_number   1
_chemical_formula_structural   AgSbTe2
_chemical_formula_sum   'Ag54 Sb54 Te108'
_cell_volume   6140.59846608
_cell_formula_units_Z   54
loop_
 _symmetry_equiv_pos_site_id
 _symmetry_equiv_pos_as_xyz
  1  'x, y, z'
loop_
 _atom_site_type_symbol
 _atom_site_label
 _atom_site_symmetry_multiplicity
 _atom_site_fract_x
 _atom_site_fract_y
 _atom_site_fract_z
 _atom_site_occupancy
  Ag  Ag0  1  0.00005359  0.67264442  0.33760390  1
  Ag  Ag1  1  0.33080300  0.66956474  0.33816106  1
  Ag  Ag2  1  0.33571798  0.82841344  0.49360120  1
  Ag  Ag3  1  0.16394692  0.33547666  0.49258769  1
  Ag  Ag4  1  0.49711962  0.16528761  0.33580914  1
  Ag  Ag5  1  0.83148849  0.34543164  0.49815966  1
  Ag  Ag6  1  0.33666556  0.49983235  0.83080997  1
  Ag  Ag7  1  0.34011604  0.67459673  0.00595088  1
  Ag  Ag8  1  -0.00679493  -0.00637744  0.65915241  1
  Ag  Ag9  1  0.17077043  0.66958758  0.49591755  1
  Ag  Ag10  1  0.83882644  -0.00688049  0.17259262  1
  Ag  Ag11  1  0.83419441  0.50898541  0.00488607  1
  Ag  Ag12  1  0.50137305  -0.00568313  0.50494895  1
  Ag  Ag13  1  0.66312907  0.67117579  0.00491453  1
  Ag  Ag14  1  0.82927695  0.50851027  0.65453958  1
  Ag  Ag15  1  0.49905057  0.32770115  0.83681117  1
  Ag  Ag16  1  0.49799798  0.67008310  0.49703971  1
  Ag  Ag17  1  0.16968132  0.33104054  0.17255180  1
  Ag  Ag18  1  0.83191518  0.66651867  0.49814368  1
  Ag  Ag19  1  -0.00506699  0.66965709  0.65634067  1
  Ag  Ag20  1  -0.00063079  0.33758814  0.00245632  1
  Ag  Ag21  1  0.66288405  0.16601535  0.49843561  1
  Ag  Ag22  1  0.16141102  -0.00279933  0.17377091  1
  Ag  Ag23  1  0.34012757  0.50901583  0.50159387  1
  Ag  Ag24  1  0.00245548  -0.00254932  0.00477999  1
  Ag  Ag25  1  0.82735304  0.83013315  0.00597322  1
  Ag  Ag26  1  0.66866548  0.49878575  0.49684329  1
  Ag  Ag27  1  0.67005369  0.50559056  0.17130377  1
  Ag  Ag28  1  0.17667393  0.83598478  0.00899066  1
  Ag  Ag29  1  0.49881571  0.33784973  0.16450063  1
  Ag  Ag30  1  0.00207513  -0.00639235  0.33297152  1
  Ag  Ag31  1  0.83363960  -0.00771422  0.49760373  1
  Ag  Ag32  1  0.33666191  0.83155597  0.16623976  1
  Ag  Ag33  1  0.66659585  0.33582783  0.33548218  1
  Ag  Ag34  1  0.49928899  0.00196286  0.82889911  1
  Ag  Ag35  1  -0.00876744  0.50034630  0.16341721  1
  Ag  Ag36  1  0.49869054  0.15830340  -0.00525555  1
  Ag  Ag37  1  0.66407070  0.83337959  0.83758877  1
  Ag  Ag38  1  0.49989011  0.83439916  0.00084588  1
  Ag  Ag39  1  0.50052743  0.66738927  0.16892958  1
  Ag  Ag40  1  0.33481075  -0.00866861  0.00087464  1
  Ag  Ag41  1  0.16654633  -0.00513796  0.49110582  1
  Ag  Ag42  1  0.16330212  0.83667254  0.33160099  1
  Ag  Ag43  1  -0.00130378  0.50100809  0.83761090  1
  Ag  Ag44  1  0.50574753  0.83584630  0.66599887  1
  Ag  Ag45  1  0.50448802  0.50239193  0.66308680  1
  Ag  Ag46  1  0.66440183  -0.00471659  0.66222910  1
  Ag  Ag47  1  0.17137725  0.15723995  0.33459632  1
  Ag  Ag48  1  0.33968826  0.16743276  0.83593858  1
  Ag  Ag49  1  0.50091300  0.15706404  0.66617212  1
  Ag  Ag50  1  0.66337488  0.82871631  0.16223626  1
  Ag  Ag51  1  0.82769205  0.83190180  0.65718954  1
  Ag  Ag52  1  0.83199362  0.50755746  0.33705116  1
  Ag  Ag53  1  0.83701845  0.83144279  0.33673699  1
  Sb  Sb54  1  0.82883158  -0.00351629  0.83094302  1
  Sb  Sb55  1  0.16142616  0.50447099  0.33424912  1
  Sb  Sb56  1  0.67049124  0.00120655  0.33850172  1
  Sb  Sb57  1  0.66482636  0.33232714  0.66065344  1
  Sb  Sb58  1  0.16622611  0.83388456  0.65973122  1
  Sb  Sb59  1  0.50015087  0.66913819  0.83302883  1
  Sb  Sb60  1  0.16511508  0.50135082  0.66258933  1
  Sb  Sb61  1  0.50552950  0.49957454  0.33701438  1
  Sb  Sb62  1  0.66786272  0.33836617  0.00533972  1
  Sb  Sb63  1  0.17270550  0.16220284  0.65834838  1
  Sb  Sb64  1  0.66463423  0.83194285  0.49835411  1
  Sb  Sb65  1  -0.00233638  0.33595424  0.66851130  1
  Sb  Sb66  1  0.33497191  0.16012923  0.16469717  1
  Sb  Sb67  1  0.16733927  0.66792316  0.83010137  1
  Sb  Sb68  1  0.50040318  0.83501100  0.33304917  1
  Sb  Sb69  1  0.50291726  0.50450336  -0.00195556  1
  Sb  Sb70  1  0.17090373  -0.00113503  0.83371453  1
  Sb  Sb71  1  -0.00480815  0.83098575  0.83393896  1
  Sb  Sb72  1  0.66812352  0.66483008  0.33144358  1
  Sb  Sb73  1  0.33356098  0.66709107  0.66172059  1
  Sb  Sb74  1  0.33909672  -0.00227922  0.66769136  1
  Sb  Sb75  1  0.50173290  0.33426440  0.49868535  1
  Sb  Sb76  1  0.34061401  0.83248670  0.83749783  1
  Sb  Sb77  1  0.65820577  0.16070183  0.82841543  1
  Sb  Sb78  1  0.83327084  0.16374679  0.33597235  1
  Sb  Sb79  1  0.66439175  -0.00814910  -0.00196457  1
  Sb  Sb80  1  0.33574748  0.33889544  0.33412503  1
  Sb  Sb81  1  0.49998746  -0.00412285  0.16744956  1
  Sb  Sb82  1  0.33934387  0.16417970  0.50050672  1
  Sb  Sb83  1  -0.00229296  0.16300349  0.49983060  1
  Sb  Sb84  1  0.00111368  0.16602073  0.16750806  1
  Sb  Sb85  1  0.32816738  -0.00730006  0.33151688  1
  Sb  Sb86  1  0.82894379  0.67008365  0.17204182  1
  Sb  Sb87  1  0.83399303  0.66690814  0.82857807  1
  Sb  Sb88  1  0.33227037  0.33424072  0.00104185  1
  Sb  Sb89  1  0.66541768  0.50445886  0.83268021  1
  Sb  Sb90  1  0.83205183  0.33640601  0.17080638  1
  Sb  Sb91  1  0.66338987  0.16572893  0.17145140  1
  Sb  Sb92  1  0.00048875  0.83288845  0.49730692  1
  Sb  Sb93  1  0.82686825  0.16090435  0.66256867  1
  Sb  Sb94  1  0.00712270  0.16757058  0.83419388  1
  Sb  Sb95  1  0.17096717  0.33505311  0.83517185  1
  Sb  Sb96  1  0.33600955  0.33489883  0.66544283  1
  Sb  Sb97  1  0.17041423  0.67189093  0.17245441  1
  Sb  Sb98  1  0.17156385  0.16070901  0.00572937  1
  Sb  Sb99  1  0.82824786  0.33803177  0.83008167  1
  Sb  Sb100  1  0.16341410  0.50486426  0.00257480  1
  Sb  Sb101  1  0.66859536  0.67080204  0.66619852  1
  Sb  Sb102  1  0.82839213  0.16264431  0.00114093  1
  Sb  Sb103  1  0.33555524  0.50672319  0.16830764  1
  Sb  Sb104  1  -0.00147013  0.66887906  0.00391526  1
  Sb  Sb105  1  -0.00206750  0.33463550  0.33049758  1
  Sb  Sb106  1  -0.00091273  0.83202980  0.16767380  1
  Sb  Sb107  1  -0.00547761  0.50345666  0.49929585  1
  Te  Te108  1  0.16818303  0.16677716  0.17356110  1
  Te  Te109  1  0.16922378  0.16383078  0.49403771  1
  Te  Te110  1  0.17756011  0.16832356  0.83260160  1
  Te  Te111  1  0.16597881  0.49331143  0.16694755  1
  Te  Te112  1  0.17057710  0.50174215  0.49957048  1
  Te  Te113  1  0.16857226  0.49956251  0.83274004  1
  Te  Te114  1  0.16873958  0.83651988  0.16829534  1
  Te  Te115  1  0.17217529  0.83367590  0.49681774  1
  Te  Te116  1  0.16735036  0.83331870  0.83986655  1
  Te  Te117  1  0.49990387  0.17097134  0.16951614  1
  Te  Te118  1  0.50250222  0.16670455  0.50037176  1
  Te  Te119  1  0.49782841  0.16453148  0.83340028  1
  Te  Te120  1  0.50394981  0.50134951  0.16704494  1
  Te  Te121  1  0.50095029  0.50093782  0.50269520  1
  Te  Te122  1  0.49825706  0.49895621  0.82854023  1
  Te  Te123  1  0.49991132  0.82969734  0.16602822  1
  Te  Te124  1  0.49860521  0.83286626  0.50000854  1
  Te  Te125  1  0.50376224  0.83620097  0.83297974  1
  Te  Te126  1  0.83210562  0.15649060  0.16736631  1
  Te  Te127  1  0.82571331  0.16274365  0.50025976  1
  Te  Te128  1  0.83337785  0.16895120  0.83187976  1
  Te  Te129  1  0.83099136  0.50069921  0.16651057  1
  Te  Te130  1  0.83245015  0.50294976  0.49807218  1
  Te  Te131  1  0.83548466  0.49993859  0.83781144  1
  Te  Te132  1  0.83257205  0.83463417  0.16698493  1
  Te  Te133  1  0.83105914  0.83301553  0.49889647  1
  Te  Te134  1  0.82663559  0.83321089  0.83518772  1
  Te  Te135  1  0.16631728  -0.00338845  0.00091099  1
  Te  Te136  1  0.16545796  -0.00288906  0.33364789  1
  Te  Te137  1  0.15923661  -0.00092626  0.66166325  1
  Te  Te138  1  0.16167890  0.33101450  0.00450942  1
  Te  Te139  1  0.16589388  0.33330825  0.33262519  1
  Te  Te140  1  0.16500881  0.33134300  0.65925903  1
  Te  Te141  1  0.16806710  0.67455539  0.00076121  1
  Te  Te142  1  0.16505437  0.67131539  0.33782536  1
  Te  Te143  1  0.15840731  0.66854577  0.65811320  1
  Te  Te144  1  0.49801789  -0.00325866  0.00210215  1
  Te  Te145  1  0.49913383  0.00534117  0.33708511  1
  Te  Te146  1  0.50017510  -0.00298347  0.66500311  1
  Te  Te147  1  0.49993460  0.33374699  0.00233460  1
  Te  Te148  1  0.50271583  0.33046930  0.32928340  1
  Te  Te149  1  0.50050401  0.33781374  0.67067634  1
  Te  Te150  1  0.50007900  0.67004172  0.00052444  1
  Te  Te151  1  0.49601409  0.66688194  0.33495064  1
  Te  Te152  1  0.50124680  0.66801537  0.66226191  1
  Te  Te153  1  0.83548736  -0.00376611  0.00068040  1
  Te  Te154  1  0.83770583  -0.00239600  0.33595135  1
  Te  Te155  1  0.83324443  -0.00506945  0.66369620  1
  Te  Te156  1  0.83758662  0.33368851  0.00056665  1
  Te  Te157  1  0.83062146  0.33337894  0.33817774  1
  Te  Te158  1  0.83295017  0.33823236  0.66002639  1
  Te  Te159  1  0.83217434  0.66850352  0.00042615  1
  Te  Te160  1  0.83525493  0.66898391  0.33714530  1
  Te  Te161  1  0.83438047  0.66900581  0.66218582  1
  Te  Te162  1  -0.00028804  0.16295758  -0.00093388  1
  Te  Te163  1  0.00614906  0.16054187  0.33353456  1
  Te  Te164  1  -0.00030984  0.16036218  0.66880565  1
  Te  Te165  1  -0.00272571  0.50046443  0.00061559  1
  Te  Te166  1  -0.00657078  0.50184366  0.32922708  1
  Te  Te167  1  -0.00430466  0.50370143  0.67032906  1
  Te  Te168  1  -0.00617021  0.83716089  -0.00031319  1
  Te  Te169  1  -0.00155885  0.83342489  0.33252762  1
  Te  Te170  1  -0.00414605  0.83326845  0.66891493  1
  Te  Te171  1  0.33920116  0.16516497  -0.00281781  1
  Te  Te172  1  0.33448046  0.16739662  0.33297336  1
  Te  Te173  1  0.34106554  0.16622625  0.67183277  1
  Te  Te174  1  0.33258520  0.50481273  -0.00234177  1
  Te  Te175  1  0.33325129  0.50808478  0.33783336  1
  Te  Te176  1  0.33663728  0.50132184  0.66619130  1
  Te  Te177  1  0.33674982  0.83289495  -0.00005500  1
  Te  Te178  1  0.33308556  0.82894958  0.33270155  1
  Te  Te179  1  0.33797723  0.83256538  0.66388818  1
  Te  Te180  1  0.65881647  0.16774692  -0.00034407  1
  Te  Te181  1  0.66357581  0.17132818  0.33806506  1
  Te  Te182  1  0.65992985  0.16173828  0.66127025  1
  Te  Te183  1  0.67209942  0.50515535  0.00249013  1
  Te  Te184  1  0.67115513  0.49847975  0.33302049  1
  Te  Te185  1  0.66801858  0.50128576  0.66435336  1
  Te  Te186  1  0.66632266  0.83214970  0.00255942  1
  Te  Te187  1  0.67355404  0.83303927  0.32558122  1
  Te  Te188  1  0.66658211  0.83491810  0.66555948  1
  Te  Te189  1  0.00077909  -0.00018261  0.16691463  1
  Te  Te190  1  -0.00131018  -0.00018723  0.49881949  1
  Te  Te191  1  0.00101607  0.00067259  0.83644623  1
  Te  Te192  1  0.00042710  0.33674304  0.16303189  1
  Te  Te193  1  0.00119260  0.33241266  0.49992523  1
  Te  Te194  1  0.00062146  0.33821934  0.83871876  1
  Te  Te195  1  0.00210316  0.65909118  0.17258221  1
  Te  Te196  1  -0.00232144  0.66641356  0.49787164  1
  Te  Te197  1  0.00132045  0.66026190  0.83029256  1
  Te  Te198  1  0.33004551  -0.00679574  0.16172798  1
  Te  Te199  1  0.33433260  -0.00367733  0.49975595  1
  Te  Te200  1  0.33807172  0.00150968  0.83821311  1
  Te  Te201  1  0.33459264  0.33481425  0.16660212  1
  Te  Te202  1  0.32747937  0.33771273  0.49949814  1
  Te  Te203  1  0.33872341  0.33664325  0.83402646  1
  Te  Te204  1  0.33750081  0.67117160  0.16610414  1
  Te  Te205  1  0.33597081  0.66729547  0.50005232  1
  Te  Te206  1  0.33241224  0.66043588  0.83713424  1
  Te  Te207  1  0.67043712  -0.00365634  0.16759888  1
  Te  Te208  1  0.66472675  -0.00075791  0.50237496  1
  Te  Te209  1  0.66089452  -0.00528905  0.82727461  1
  Te  Te210  1  0.66355820  0.33657062  0.17210022  1
  Te  Te211  1  0.66910855  0.33745132  0.49627357  1
  Te  Te212  1  0.65860130  0.33330164  0.83491676  1
  Te  Te213  1  0.66288675  0.66631936  0.16552943  1
  Te  Te214  1  0.66492716  0.66195007  0.49934747  1
  Te  Te215  1  0.66714194  0.67266640  0.84232923  1
