# generated using pymatgen
data_AgSbTe2
_symmetry_space_group_name_H-M   'P 1'
_cell_length_a   18.34021513
_cell_length_b   18.33824963
_cell_length_c   18.34181026
_cell_angle_alpha   89.99823027
_cell_angle_beta   89.99957501
_cell_angle_gamma   89.99885972
_symmetry_Int_Tables_number   1
_chemical_formula_structural   AgSbTe2
_chemical_formula_sum   'Ag54 Sb54 Te108'
_cell_volume   6168.85414672
_cell_formula_units_Z   54
loop_
 _symmetry_equiv_pos_site_id
 _symmetry_equiv_pos_as_xyz
  1  'x, y, z'
loop_
 _atom_site_type_symbol
 _atom_site_label
 _atom_site_symmetry_multiplicity
 _atom_site_fract_x
 _atom_site_fract_y
 _atom_site_fract_z
 _atom_site_occupancy
  Ag  Ag0  1  0.83272963  0.66801715  0.82661051  1
  Ag  Ag1  1  0.50206848  0.50114052  0.66380090  1
  Ag  Ag2  1  0.34282038  0.50093152  0.17188360  1
  Ag  Ag3  1  -0.00764210  0.49899566  0.83154017  1
  Ag  Ag4  1  -0.00176431  0.66324247  -0.00163220  1
  Ag  Ag5  1  0.66922665  0.83122847  0.16616360  1
  Ag  Ag6  1  0.17287195  0.50178577  0.66453291  1
  Ag  Ag7  1  -0.01137787  0.16536237  0.50507108  1
  Ag  Ag8  1  0.83031626  0.32693618  0.17067211  1
  Ag  Ag9  1  -0.00887537  0.17252027  0.82348176  1
  Ag  Ag10  1  0.66862561  0.49401505  0.83020769  1
  Ag  Ag11  1  -0.00310120  0.66786652  0.33302565  1
  Ag  Ag12  1  0.50366347  0.66900255  0.17356745  1
  Ag  Ag13  1  0.15935072  0.66455129  0.82826082  1
  Ag  Ag14  1  0.67320720  0.17256959  0.50857793  1
  Ag  Ag15  1  0.83070958  0.16508631  0.34081607  1
  Ag  Ag16  1  0.16596499  0.49515961  0.33637121  1
  Ag  Ag17  1  -0.01109095  0.83023111  0.17625607  1
  Ag  Ag18  1  0.51202541  0.83150366  0.66149868  1
  Ag  Ag19  1  0.82590241  0.00362703  0.17516649  1
  Ag  Ag20  1  0.50661522  0.66852405  0.50335702  1
  Ag  Ag21  1  -0.01057560  0.83417905  0.49931816  1
  Ag  Ag22  1  0.66536215  0.00795366  0.66899024  1
  Ag  Ag23  1  0.16377201  0.82596831  0.66579513  1
  Ag  Ag24  1  0.82843106  0.67230458  0.50645543  1
  Ag  Ag25  1  0.50747493  0.32442375  0.50405853  1
  Ag  Ag26  1  0.82777189  0.83336845  0.65853139  1
  Ag  Ag27  1  0.82801622  0.83690921  0.34236831  1
  Ag  Ag28  1  -0.00951136  0.33576928  -0.00118525  1
  Ag  Ag29  1  0.82771153  0.00527411  0.49666111  1
  Ag  Ag30  1  0.51292686  0.16330795  0.34547229  1
  Ag  Ag31  1  0.50493601  0.00841122  0.82069173  1
  Ag  Ag32  1  0.50824722  -0.00632735  0.17292582  1
  Ag  Ag33  1  0.66434019  0.32461510  0.66694038  1
  Ag  Ag34  1  0.15711199  0.33554463  0.16990614  1
  Ag  Ag35  1  0.34440820  0.66436959  0.66892770  1
  Ag  Ag36  1  0.16473081  0.16962529  0.66473332  1
  Ag  Ag37  1  0.67042843  0.33275975  -0.00344561  1
  Ag  Ag38  1  0.50657674  0.32768936  0.82362421  1
  Ag  Ag39  1  0.82755976  0.32112352  0.49574443  1
  Ag  Ag40  1  0.66895200  0.17532368  0.82434548  1
  Ag  Ag41  1  0.66809233  0.33227415  0.34202368  1
  Ag  Ag42  1  0.82146250  0.16339755  0.65876279  1
  Ag  Ag43  1  0.33343265  0.66467857  -0.01083239  1
  Ag  Ag44  1  0.83249996  0.16889081  -0.00701202  1
  Ag  Ag45  1  0.66708122  0.83122670  0.82128838  1
  Ag  Ag46  1  0.66413689  0.66897387  0.66726254  1
  Ag  Ag47  1  0.66300796  0.50079756  0.16441306  1
  Ag  Ag48  1  0.50658858  0.16853877  0.66291433  1
  Ag  Ag49  1  0.16219668  0.17319204  0.34196972  1
  Ag  Ag50  1  0.33633843  0.50090678  0.50297853  1
  Ag  Ag51  1  0.51074978  0.83709059  0.34303848  1
  Ag  Ag52  1  0.34952247  0.16808865  0.82970443  1
  Ag  Ag53  1  0.50614735  0.00606499  0.50302946  1
  Sb  Sb54  1  -0.00446149  -0.00209902  0.33546476  1
  Sb  Sb55  1  0.67073539  0.83921897  0.50265208  1
  Sb  Sb56  1  0.83203940  0.83617034  0.00023143  1
  Sb  Sb57  1  -0.00485237  0.33377689  0.33210332  1
  Sb  Sb58  1  0.33946014  0.83451091  0.82930146  1
  Sb  Sb59  1  0.16057097  0.17010775  -0.00298479  1
  Sb  Sb60  1  -0.00288233  0.50191881  0.16425030  1
  Sb  Sb61  1  -0.00548443  0.83160876  0.82972551  1
  Sb  Sb62  1  0.16380962  0.00166024  0.50309587  1
  Sb  Sb63  1  0.34311980  -0.00077160  0.66644105  1
  Sb  Sb64  1  -0.00625539  0.33023504  0.66885685  1
  Sb  Sb65  1  0.33910605  0.00196261  0.33366650  1
  Sb  Sb66  1  0.66846358  0.16673767  0.16886526  1
  Sb  Sb67  1  0.33528505  0.33647928  0.00035405  1
  Sb  Sb68  1  0.50709097  0.33383694  0.16970526  1
  Sb  Sb69  1  0.83289759  0.49599981  -0.00146205  1
  Sb  Sb70  1  0.50135669  0.50092649  -0.00418785  1
  Sb  Sb71  1  0.33810866  0.82973935  0.50319769  1
  Sb  Sb72  1  0.17037344  -0.00036858  0.82865148  1
  Sb  Sb73  1  0.16596010  0.66633458  0.50523800  1
  Sb  Sb74  1  0.50556278  0.16765347  -0.00597132  1
  Sb  Sb75  1  0.66768182  0.66335726  -0.00516353  1
  Sb  Sb76  1  0.33834896  0.33336428  0.33362667  1
  Sb  Sb77  1  0.66776704  0.00455094  -0.00365941  1
  Sb  Sb78  1  -0.00446881  0.16535332  0.16914733  1
  Sb  Sb79  1  0.49857540  0.49883517  0.33954314  1
  Sb  Sb80  1  0.16513599  0.33293127  0.49886568  1
  Sb  Sb81  1  0.34214569  0.33583437  0.66593967  1
  Sb  Sb82  1  0.16419289  0.00334461  0.17031088  1
  Sb  Sb83  1  -0.00801392  0.00238555  0.66543444  1
  Sb  Sb84  1  0.33611350  0.49979282  0.83028827  1
  Sb  Sb85  1  0.00095636  0.50003352  0.50394304  1
  Sb  Sb86  1  0.33493120  0.17105497  0.16552397  1
  Sb  Sb87  1  -0.00322994  0.66606571  0.66723496  1
  Sb  Sb88  1  0.82755617  0.49979663  0.66814554  1
  Sb  Sb89  1  0.33952799  0.82739342  0.16746075  1
  Sb  Sb90  1  0.33947557  0.17023780  0.50457048  1
  Sb  Sb91  1  0.82962222  0.66713007  0.16684840  1
  Sb  Sb92  1  0.83411959  0.49903947  0.33455846  1
  Sb  Sb93  1  0.16630342  0.50018681  -0.00127805  1
  Sb  Sb94  1  0.33764742  -0.00196567  -0.00141860  1
  Sb  Sb95  1  0.82802758  0.00075292  0.82886027  1
  Sb  Sb96  1  0.16838753  0.66385094  0.16478390  1
  Sb  Sb97  1  0.82636037  0.33162436  0.83261386  1
  Sb  Sb98  1  0.16371845  0.82976168  -0.00487110  1
  Sb  Sb99  1  0.16170673  0.83264397  0.33827640  1
  Sb  Sb100  1  0.50459627  0.66590659  0.82673247  1
  Sb  Sb101  1  0.50228889  0.83203539  -0.00208081  1
  Sb  Sb102  1  0.66794716  0.00367939  0.33829948  1
  Sb  Sb103  1  0.16694813  0.33485678  0.83270664  1
  Sb  Sb104  1  -0.00419256  0.00121801  0.00006851  1
  Sb  Sb105  1  0.33321873  0.66480123  0.33734030  1
  Sb  Sb106  1  0.66318701  0.49368099  0.50477817  1
  Sb  Sb107  1  0.66905632  0.66452695  0.33903080  1
  Te  Te108  1  0.16698856  0.17157458  0.16849075  1
  Te  Te109  1  0.17071429  0.16685532  0.50020746  1
  Te  Te110  1  0.15743260  0.16617920  0.82840661  1
  Te  Te111  1  0.16381050  0.49687342  0.16930149  1
  Te  Te112  1  0.17036953  0.49861656  0.50055109  1
  Te  Te113  1  0.16890984  0.50324325  0.82902241  1
  Te  Te114  1  0.16637140  0.83523371  0.16815527  1
  Te  Te115  1  0.16157999  0.83483603  0.50460763  1
  Te  Te116  1  0.16522100  0.83052427  0.82688570  1
  Te  Te117  1  0.49792684  0.16454340  0.16971511  1
  Te  Te118  1  0.49964672  0.16636877  0.50155413  1
  Te  Te119  1  0.50544052  0.16721760  0.83220360  1
  Te  Te120  1  0.50253548  0.50101643  0.16798381  1
  Te  Te121  1  0.49718770  0.50575460  0.50287534  1
  Te  Te122  1  0.50411701  0.49744426  0.82749283  1
  Te  Te123  1  0.50371091  0.83225500  0.16537556  1
  Te  Te124  1  0.50134280  0.82972126  0.50000012  1
  Te  Te125  1  0.50644410  0.83553215  0.82876444  1
  Te  Te126  1  0.83371799  0.16617773  0.17130290  1
  Te  Te127  1  0.83281641  0.16526633  0.50025800  1
  Te  Te128  1  0.83098740  0.16527378  0.83009145  1
  Te  Te129  1  0.82747284  0.49543250  0.16634678  1
  Te  Te130  1  0.83509837  0.50890154  0.50082091  1
  Te  Te131  1  0.83274517  0.50469460  0.83288774  1
  Te  Te132  1  0.83117387  0.83380473  0.16711063  1
  Te  Te133  1  0.83293609  0.82981663  0.49907961  1
  Te  Te134  1  0.82770804  0.83278084  0.83036904  1
  Te  Te135  1  0.16825714  -0.00056762  -0.00011226  1
  Te  Te136  1  0.16712449  0.00705215  0.33447700  1
  Te  Te137  1  0.17056013  0.00269191  0.66663065  1
  Te  Te138  1  0.16497892  0.33291960  0.00496491  1
  Te  Te139  1  0.16466325  0.33410367  0.33169236  1
  Te  Te140  1  0.16683987  0.33286620  0.66563050  1
  Te  Te141  1  0.16468774  0.66659063  -0.00586031  1
  Te  Te142  1  0.16175424  0.66387737  0.33357170  1
  Te  Te143  1  0.16386334  0.66513810  0.66973694  1
  Te  Te144  1  0.50017394  0.00026996  0.00882055  1
  Te  Te145  1  0.50212434  -0.00080519  0.33301817  1
  Te  Te146  1  0.50237883  -0.00136992  0.66492574  1
  Te  Te147  1  0.50470169  0.33343120  -0.00148975  1
  Te  Te148  1  0.50703734  0.32926396  0.33771746  1
  Te  Te149  1  0.50206565  0.33149693  0.66542098  1
  Te  Te150  1  0.49713959  0.66600158  0.00651799  1
  Te  Te151  1  0.49987526  0.67024732  0.33485537  1
  Te  Te152  1  0.50029282  0.66929853  0.66711325  1
  Te  Te153  1  0.83382304  0.00659311  0.00997402  1
  Te  Te154  1  0.83308882  -0.00136297  0.33496117  1
  Te  Te155  1  0.82785185  -0.00115784  0.66266170  1
  Te  Te156  1  0.83289026  0.33035965  -0.00132851  1
  Te  Te157  1  0.82970576  0.33262047  0.33454024  1
  Te  Te158  1  0.82668726  0.33086727  0.66156185  1
  Te  Te159  1  0.83848399  0.66825396  -0.00375589  1
  Te  Te160  1  0.83684058  0.66976683  0.33400961  1
  Te  Te161  1  0.83061528  0.66572421  0.66806387  1
  Te  Te162  1  -0.00680088  0.17008044  0.00025686  1
  Te  Te163  1  -0.00314955  0.16735799  0.33853406  1
  Te  Te164  1  0.00327141  0.16729375  0.66476965  1
  Te  Te165  1  -0.00035788  0.50012304  -0.00594050  1
  Te  Te166  1  0.00447567  0.50522555  0.33471487  1
  Te  Te167  1  0.00564982  0.49769654  0.67241698  1
  Te  Te168  1  -0.00047582  0.82933069  0.00076469  1
  Te  Te169  1  -0.00188012  0.83035284  0.33539600  1
  Te  Te170  1  -0.00167587  0.83491223  0.66291136  1
  Te  Te171  1  0.33275271  0.16590165  -0.00825042  1
  Te  Te172  1  0.32759764  0.16803523  0.33283259  1
  Te  Te173  1  0.32851967  0.16578687  0.67116637  1
  Te  Te174  1  0.33363587  0.50508302  0.00431474  1
  Te  Te175  1  0.32827556  0.49919350  0.33238717  1
  Te  Te176  1  0.33497619  0.50294903  0.66557038  1
  Te  Te177  1  0.33172381  0.82464027  -0.00141819  1
  Te  Te178  1  0.33590059  0.83371164  0.33434679  1
  Te  Te179  1  0.32608501  0.82832917  0.66650515  1
  Te  Te180  1  0.67221699  0.17213722  -0.00318791  1
  Te  Te181  1  0.66857339  0.16913202  0.33487121  1
  Te  Te182  1  0.66349008  0.16468190  0.66725355  1
  Te  Te183  1  0.66649821  0.49416313  -0.00209983  1
  Te  Te184  1  0.66643150  0.49576032  0.32643067  1
  Te  Te185  1  0.66253117  0.50661295  0.67007544  1
  Te  Te186  1  0.66710121  0.83323089  0.00410588  1
  Te  Te187  1  0.66767217  0.83069185  0.32855156  1
  Te  Te188  1  0.66977739  0.82768307  0.66447710  1
  Te  Te189  1  -0.00224880  -0.00809367  0.16640474  1
  Te  Te190  1  -0.00453334  0.00136474  0.50069257  1
  Te  Te191  1  0.00062603  0.00669213  0.83368933  1
  Te  Te192  1  -0.00349073  0.33328539  0.16264242  1
  Te  Te193  1  -0.00702693  0.32831817  0.50013032  1
  Te  Te194  1  0.00111007  0.33455317  0.83726414  1
  Te  Te195  1  -0.00014090  0.67024766  0.16543653  1
  Te  Te196  1  -0.00293578  0.66773549  0.49697189  1
  Te  Te197  1  -0.00240017  0.66619870  0.83495108  1
  Te  Te198  1  0.33623731  -0.00083505  0.16537341  1
  Te  Te199  1  0.34211480  -0.00101169  0.49927463  1
  Te  Te200  1  0.34151288  0.00477921  0.83422039  1
  Te  Te201  1  0.33157791  0.33966823  0.16607073  1
  Te  Te202  1  0.33911414  0.34008182  0.49867823  1
  Te  Te203  1  0.33734829  0.32826216  0.83546929  1
  Te  Te204  1  0.33651599  0.66117050  0.16946444  1
  Te  Te205  1  0.33570195  0.66364177  0.50590343  1
  Te  Te206  1  0.33315684  0.66731672  0.83122132  1
  Te  Te207  1  0.66687739  -0.00318133  0.16366588  1
  Te  Te208  1  0.66637590  0.00625076  0.50377322  1
  Te  Te209  1  0.66335209  -0.00421517  0.83097847  1
  Te  Te210  1  0.67157525  0.33334486  0.16288461  1
  Te  Te211  1  0.66764126  0.33316086  0.50191280  1
  Te  Te212  1  0.66698453  0.33453564  0.82921333  1
  Te  Te213  1  0.66309480  0.66475423  0.16506360  1
  Te  Te214  1  0.66760254  0.66192669  0.50381297  1
  Te  Te215  1  0.67071195  0.66713007  0.83161500  1
