# generated using pymatgen
data_AgSbTe2
_symmetry_space_group_name_H-M   'P 1'
_cell_length_a   18.32544304
_cell_length_b   18.32036962
_cell_length_c   18.32676875
_cell_angle_alpha   90.00115453
_cell_angle_beta   90.00057564
_cell_angle_gamma   89.99812108
_symmetry_Int_Tables_number   1
_chemical_formula_structural   AgSbTe2
_chemical_formula_sum   'Ag54 Sb54 Te108'
_cell_volume   6152.82572477
_cell_formula_units_Z   54
loop_
 _symmetry_equiv_pos_site_id
 _symmetry_equiv_pos_as_xyz
  1  'x, y, z'
loop_
 _atom_site_type_symbol
 _atom_site_label
 _atom_site_symmetry_multiplicity
 _atom_site_fract_x
 _atom_site_fract_y
 _atom_site_fract_z
 _atom_site_occupancy
  Ag  Ag0  1  0.49677771  0.17385974  0.00686440  1
  Ag  Ag1  1  0.82700853  0.16910448  0.33279383  1
  Ag  Ag2  1  0.66411215  0.33312666  0.67257603  1
  Ag  Ag3  1  0.50024702  0.49660284  0.00151116  1
  Ag  Ag4  1  0.66199998  0.83168268  0.48856947  1
  Ag  Ag5  1  0.18091196  0.16940232  0.32725293  1
  Ag  Ag6  1  0.66412435  0.33420090  0.00182063  1
  Ag  Ag7  1  0.66308312  0.67837080  0.33116598  1
  Ag  Ag8  1  0.33302726  0.16643948  0.17443403  1
  Ag  Ag9  1  0.17267574  0.49342818  -0.00462860  1
  Ag  Ag10  1  -0.00163205  0.83197697  0.15939665  1
  Ag  Ag11  1  0.34001699  0.01157643  0.33520949  1
  Ag  Ag12  1  0.82897232  0.33790840  0.83274069  1
  Ag  Ag13  1  -0.00298083  0.17743233  0.82986034  1
  Ag  Ag14  1  0.17250965  0.32863536  0.16459088  1
  Ag  Ag15  1  0.81992229  0.33226481  0.16774953  1
  Ag  Ag16  1  0.49750260  0.16679818  0.66421974  1
  Ag  Ag17  1  0.66409747  0.49312965  0.16184738  1
  Ag  Ag18  1  0.83163903  0.83071638  0.00417006  1
  Ag  Ag19  1  0.50761462  0.66733077  0.83610341  1
  Ag  Ag20  1  0.66347860  0.33002247  0.32848612  1
  Ag  Ag21  1  0.67127438  0.49514345  0.83722281  1
  Ag  Ag22  1  0.81796621  0.83670508  0.32618781  1
  Ag  Ag23  1  0.66791655  0.17824949  0.83410175  1
  Ag  Ag24  1  0.16351569  0.83187512  0.00382210  1
  Ag  Ag25  1  0.49921509  -0.00096615  0.49627236  1
  Ag  Ag26  1  -0.00723304  0.82735384  0.83829770  1
  Ag  Ag27  1  0.17241558  0.66319217  0.50030504  1
  Ag  Ag28  1  0.50246334  0.33343229  0.16781079  1
  Ag  Ag29  1  0.50256685  0.66618115  0.16607153  1
  Ag  Ag30  1  0.00036981  0.66493429  0.66950517  1
  Ag  Ag31  1  -0.00764274  0.49937477  0.83144730  1
  Ag  Ag32  1  0.33692201  0.32800895  0.66230827  1
  Ag  Ag33  1  0.50094028  0.83478471  0.65636884  1
  Ag  Ag34  1  0.16272919  0.49566974  0.67396182  1
  Ag  Ag35  1  0.66380213  0.82899105  0.17651139  1
  Ag  Ag36  1  0.00763991  0.16951315  0.50262901  1
  Ag  Ag37  1  0.33876195  0.32479603  0.33301756  1
  Ag  Ag38  1  0.83483044  0.49643780  0.67324853  1
  Ag  Ag39  1  0.83148384  0.33191009  0.49817889  1
  Ag  Ag40  1  0.17315652  0.17464282  0.00676160  1
  Ag  Ag41  1  0.33344805  0.16819844  0.48674837  1
  Ag  Ag42  1  0.82779312  0.66013036  0.83317068  1
  Ag  Ag43  1  0.33715847  0.83897535  0.16716118  1
  Ag  Ag44  1  0.66949215  0.82820305  0.83532283  1
  Ag  Ag45  1  0.16200964  0.33432194  0.83534805  1
  Ag  Ag46  1  0.65828081  -0.00704095  0.33299434  1
  Ag  Ag47  1  0.49890308  0.67435503  0.49856594  1
  Ag  Ag48  1  0.17108049  0.00846200  0.16740839  1
  Ag  Ag49  1  0.49524556  0.16292044  0.33389711  1
  Ag  Ag50  1  0.33553726  0.66757229  0.00135632  1
  Ag  Ag51  1  0.16855521  0.33114661  0.50025187  1
  Ag  Ag52  1  0.33767744  0.01037421  0.65841522  1
  Ag  Ag53  1  0.50448177  0.84082080  0.33644899  1
  Sb  Sb54  1  0.83178625  0.00084658  0.83304484  1
  Sb  Sb55  1  0.33394646  -0.00148614  0.00448856  1
  Sb  Sb56  1  0.33419590  0.83157833  0.83839478  1
  Sb  Sb57  1  0.66569070  0.50129225  0.50040360  1
  Sb  Sb58  1  -0.00369835  0.50213966  0.15801551  1
  Sb  Sb59  1  -0.00442834  0.67085698  0.33748553  1
  Sb  Sb60  1  0.33308273  0.49374507  0.50113892  1
  Sb  Sb61  1  0.66771984  0.66357070  0.66826787  1
  Sb  Sb62  1  0.66157028  0.16621707  0.49751747  1
  Sb  Sb63  1  0.00156835  -0.00131201  0.00098377  1
  Sb  Sb64  1  0.83274377  0.16760791  0.00260217  1
  Sb  Sb65  1  0.50477709  0.33507033  0.83742803  1
  Sb  Sb66  1  0.83093030  0.66280248  0.50340820  1
  Sb  Sb67  1  0.16755507  0.49140177  0.33176482  1
  Sb  Sb68  1  0.17395867  0.00521336  0.49501222  1
  Sb  Sb69  1  0.82664036  0.00573921  0.49632658  1
  Sb  Sb70  1  0.00758534  -0.00206770  0.66774507  1
  Sb  Sb71  1  0.33543462  0.33459598  0.00195463  1
  Sb  Sb72  1  -0.00038663  0.33370081  -0.00266116  1
  Sb  Sb73  1  0.82578898  0.66644006  0.16231227  1
  Sb  Sb74  1  0.65954924  0.16991561  0.16770644  1
  Sb  Sb75  1  0.17228681  0.17401287  0.66606061  1
  Sb  Sb76  1  0.82813338  0.17491981  0.66413938  1
  Sb  Sb77  1  0.50254046  0.49838535  0.32804634  1
  Sb  Sb78  1  0.49604623  0.00079173  0.17406529  1
  Sb  Sb79  1  0.50102403  -0.00192861  0.82852104  1
  Sb  Sb80  1  0.00359156  0.66819513  -0.00569705  1
  Sb  Sb81  1  0.33440328  0.49800500  0.83459960  1
  Sb  Sb82  1  0.33307563  0.66423786  0.66864943  1
  Sb  Sb83  1  0.50179338  0.83194850  0.00457256  1
  Sb  Sb84  1  0.17127038  0.83761841  0.32809564  1
  Sb  Sb85  1  0.17242312  0.66489650  0.16825539  1
  Sb  Sb86  1  0.16750250  0.00602582  0.83893665  1
  Sb  Sb87  1  0.66355374  0.00175600  0.00516609  1
  Sb  Sb88  1  0.83575089  0.00111147  0.16926499  1
  Sb  Sb89  1  0.66007525  0.66249709  0.00080887  1
  Sb  Sb90  1  0.33643555  0.16917313  0.83470791  1
  Sb  Sb91  1  0.82948152  0.50144603  -0.00576455  1
  Sb  Sb92  1  0.66051763  0.00247766  0.66233964  1
  Sb  Sb93  1  0.33927067  0.49611337  0.16482115  1
  Sb  Sb94  1  0.34099883  0.66856321  0.33031031  1
  Sb  Sb95  1  0.00579909  0.16563337  0.16639477  1
  Sb  Sb96  1  0.50119526  0.49873146  0.67211663  1
  Sb  Sb97  1  -0.00465926  0.83649845  0.50106568  1
  Sb  Sb98  1  0.82618822  0.82826355  0.66918779  1
  Sb  Sb99  1  0.17162813  0.82878720  0.67029750  1
  Sb  Sb100  1  0.49994328  0.33148217  0.49558554  1
  Sb  Sb101  1  -0.00020040  0.33676552  0.66872481  1
  Sb  Sb102  1  0.34038934  0.83833433  0.49488534  1
  Sb  Sb103  1  0.82970559  0.49713979  0.33475594  1
  Sb  Sb104  1  0.00190605  0.00234089  0.33301228  1
  Sb  Sb105  1  0.16470194  0.66095429  0.83255558  1
  Sb  Sb106  1  0.00112419  0.49492891  0.50698728  1
  Sb  Sb107  1  -0.00161825  0.32981410  0.33442739  1
  Te  Te108  1  0.16640112  0.16849767  0.16647218  1
  Te  Te109  1  0.16905826  0.16965196  0.49868492  1
  Te  Te110  1  0.16267447  0.17084796  0.83627291  1
  Te  Te111  1  0.16539958  0.49558851  0.16088783  1
  Te  Te112  1  0.16559608  0.49676420  0.50160688  1
  Te  Te113  1  0.16677815  0.49677019  0.83423964  1
  Te  Te114  1  0.16867634  0.82932101  0.16426179  1
  Te  Te115  1  0.16495872  0.83024205  0.49950744  1
  Te  Te116  1  0.16472167  0.83344082  0.83924439  1
  Te  Te117  1  0.49606000  0.16833263  0.16845550  1
  Te  Te118  1  0.49600570  0.16634454  0.49886767  1
  Te  Te119  1  0.50570722  0.16682386  0.83036463  1
  Te  Te120  1  0.50462266  0.49881109  0.16190814  1
  Te  Te121  1  0.50015446  0.51083116  0.50203122  1
  Te  Te122  1  0.50489389  0.50456182  0.83871604  1
  Te  Te123  1  0.50137150  0.83254998  0.16799726  1
  Te  Te124  1  0.50122421  0.83312299  0.49811943  1
  Te  Te125  1  0.50188770  0.82945526  0.83651172  1
  Te  Te126  1  0.83761302  0.17158069  0.17013793  1
  Te  Te127  1  0.83312459  0.17254318  0.49676299  1
  Te  Te128  1  0.83205383  0.17063878  0.83406302  1
  Te  Te129  1  0.82858641  0.49400996  0.16485806  1
  Te  Te130  1  0.83385803  0.49299632  0.50733784  1
  Te  Te131  1  0.83253435  0.49911456  0.83356569  1
  Te  Te132  1  0.83118357  0.83355200  0.16701601  1
  Te  Te133  1  0.82739144  0.83278731  0.49707326  1
  Te  Te134  1  0.83374856  0.83376995  0.83317549  1
  Te  Te135  1  0.16807096  -0.00227300  0.00596377  1
  Te  Te136  1  0.17184749  0.00579193  0.32851662  1
  Te  Te137  1  0.17618120  -0.00141838  0.66596898  1
  Te  Te138  1  0.16810198  0.33303518  -0.00045203  1
  Te  Te139  1  0.16629081  0.32842858  0.33499200  1
  Te  Te140  1  0.16735260  0.33613896  0.66490943  1
  Te  Te141  1  0.17249685  0.66827403  0.00038714  1
  Te  Te142  1  0.16774603  0.66495527  0.33996823  1
  Te  Te143  1  0.16556636  0.66162628  0.66282048  1
  Te  Te144  1  0.49876670  0.01284127  -0.00140675  1
  Te  Te145  1  0.49990839  0.00196870  0.33434906  1
  Te  Te146  1  0.49671475  0.00098494  0.66170982  1
  Te  Te147  1  0.50150144  0.33351713  0.00315250  1
  Te  Te148  1  0.50041976  0.33187686  0.33060583  1
  Te  Te149  1  0.50053848  0.33168752  0.66610254  1
  Te  Te150  1  0.49664235  0.66609385  0.00123403  1
  Te  Te151  1  0.50375305  0.66579413  0.33140695  1
  Te  Te152  1  0.49950130  0.66854648  0.66771783  1
  Te  Te153  1  0.83214125  -0.00795413  0.00106216  1
  Te  Te154  1  0.82879683  0.00022194  0.33344657  1
  Te  Te155  1  0.83533906  -0.00018522  0.66395249  1
  Te  Te156  1  0.82842727  0.33335353  0.00022142  1
  Te  Te157  1  0.83181921  0.33191841  0.33273436  1
  Te  Te158  1  0.82933847  0.33671821  0.67007332  1
  Te  Te159  1  0.83470417  0.67136726  -0.00572869  1
  Te  Te160  1  0.82650970  0.66997604  0.33414104  1
  Te  Te161  1  0.83660289  0.66096008  0.67130940  1
  Te  Te162  1  0.00332397  0.16584724  -0.00665453  1
  Te  Te163  1  -0.00853454  0.16528650  0.33690790  1
  Te  Te164  1  -0.00000033  0.16478998  0.66895353  1
  Te  Te165  1  0.00799898  0.50102783  -0.00787720  1
  Te  Te166  1  -0.00104082  0.50315134  0.33178056  1
  Te  Te167  1  0.00135529  0.50288390  0.67189929  1
  Te  Te168  1  0.00092285  0.83313511  -0.00051802  1
  Te  Te169  1  -0.00186100  0.83475330  0.33086360  1
  Te  Te170  1  0.00063214  0.82899313  0.67063330  1
  Te  Te171  1  0.33307132  0.16650210  0.00242680  1
  Te  Te172  1  0.33609381  0.16847331  0.33123007  1
  Te  Te173  1  0.33777564  0.16867412  0.66879445  1
  Te  Te174  1  0.33465402  0.50432413  0.00049973  1
  Te  Te175  1  0.33338968  0.49002157  0.33298755  1
  Te  Te176  1  0.32779304  0.49349464  0.66723752  1
  Te  Te177  1  0.33078650  0.83105068  0.00576719  1
  Te  Te178  1  0.33899370  0.83589282  0.32722721  1
  Te  Te179  1  0.34030920  0.83321468  0.66723985  1
  Te  Te180  1  0.66492081  0.17004686  -0.00303854  1
  Te  Te181  1  0.66710039  0.17122090  0.33299927  1
  Te  Te182  1  0.66114658  0.17015761  0.66913295  1
  Te  Te183  1  0.66408779  0.49645770  0.00001120  1
  Te  Te184  1  0.66776739  0.48994929  0.32830167  1
  Te  Te185  1  0.66886601  0.49484996  0.67053486  1
  Te  Te186  1  0.66908368  0.83448419  -0.00550888  1
  Te  Te187  1  0.66310108  0.83476489  0.33276387  1
  Te  Te188  1  0.65990414  0.83359620  0.67412516  1
  Te  Te189  1  0.00751110  -0.00792770  0.16736168  1
  Te  Te190  1  0.00067769  0.00792209  0.50127866  1
  Te  Te191  1  -0.00019405  -0.00503743  0.83271612  1
  Te  Te192  1  0.00502727  0.33489269  0.16571709  1
  Te  Te193  1  0.00074199  0.32789396  0.50105454  1
  Te  Te194  1  -0.00069434  0.33506088  0.83342483  1
  Te  Te195  1  -0.00130729  0.67179323  0.16774485  1
  Te  Te196  1  0.00182449  0.66706169  0.50591317  1
  Te  Te197  1  -0.00114384  0.66656500  0.82938850  1
  Te  Te198  1  0.33048981  0.00156680  0.16988680  1
  Te  Te199  1  0.33818620  0.00457736  0.49762334  1
  Te  Te200  1  0.33288674  -0.00018250  0.82544602  1
  Te  Te201  1  0.33367661  0.33037402  0.16751260  1
  Te  Te202  1  0.33267715  0.32860899  0.50000782  1
  Te  Te203  1  0.32599479  0.33299105  0.82733075  1
  Te  Te204  1  0.34029207  0.66713561  0.16443231  1
  Te  Te205  1  0.33312961  0.66644177  0.49908751  1
  Te  Te206  1  0.33933106  0.66607668  0.83774583  1
  Te  Te207  1  0.66790539  -0.00661269  0.17256942  1
  Te  Te208  1  0.66043194  -0.00472774  0.49536191  1
  Te  Te209  1  0.66685131  -0.00258096  0.83335535  1
  Te  Te210  1  0.66373301  0.33116394  0.16499326  1
  Te  Te211  1  0.66900965  0.33428823  0.50000882  1
  Te  Te212  1  0.66606621  0.33459943  0.83357816  1
  Te  Te213  1  0.66260603  0.66780135  0.16784847  1
  Te  Te214  1  0.66351917  0.66942579  0.49723412  1
  Te  Te215  1  0.66760986  0.66612029  0.83426970  1
