# generated using pymatgen
data_AgSbTe2
_symmetry_space_group_name_H-M   'P 1'
_cell_length_a   18.32977297
_cell_length_b   18.32288249
_cell_length_c   18.32560781
_cell_angle_alpha   90.00100965
_cell_angle_beta   89.99676498
_cell_angle_gamma   90.00118830
_symmetry_Int_Tables_number   1
_chemical_formula_structural   AgSbTe2
_chemical_formula_sum   'Ag54 Sb54 Te108'
_cell_volume   6154.73373482
_cell_formula_units_Z   54
loop_
 _symmetry_equiv_pos_site_id
 _symmetry_equiv_pos_as_xyz
  1  'x, y, z'
loop_
 _atom_site_type_symbol
 _atom_site_label
 _atom_site_symmetry_multiplicity
 _atom_site_fract_x
 _atom_site_fract_y
 _atom_site_fract_z
 _atom_site_occupancy
  Ag  Ag0  1  0.17325685  0.50724177  0.67015558  1
  Ag  Ag1  1  0.33942055  0.32934066  0.67432963  1
  Ag  Ag2  1  0.33093756  0.66566249  0.67172835  1
  Ag  Ag3  1  0.49885883  0.33118096  0.82938259  1
  Ag  Ag4  1  0.16688473  0.16339355  0.32350771  1
  Ag  Ag5  1  0.49698613  0.49433428  0.66569643  1
  Ag  Ag6  1  0.33665071  0.17035360  0.50722696  1
  Ag  Ag7  1  0.17383883  0.66730158  0.50199516  1
  Ag  Ag8  1  0.49732395  0.82921077  0.00543204  1
  Ag  Ag9  1  -0.01081040  0.33414230  0.32261972  1
  Ag  Ag10  1  0.17303734  0.82654945  0.66897725  1
  Ag  Ag11  1  0.16238792  0.00543359  0.16634592  1
  Ag  Ag12  1  0.83255083  0.49312635  0.32703660  1
  Ag  Ag13  1  0.49638664  0.66831945  0.49739622  1
  Ag  Ag14  1  0.33225817  0.66714421  -0.00138200  1
  Ag  Ag15  1  0.33118193  0.83105463  0.83412730  1
  Ag  Ag16  1  0.33163233  0.17028222  0.83005402  1
  Ag  Ag17  1  0.17135778  0.67054561  0.16716417  1
  Ag  Ag18  1  -0.00149056  0.00528453  0.00492637  1
  Ag  Ag19  1  0.50190274  0.82999113  0.32946417  1
  Ag  Ag20  1  0.00310196  0.33267239  0.00519322  1
  Ag  Ag21  1  0.65876094  0.33481085  0.66208936  1
  Ag  Ag22  1  0.32644363  0.16533014  0.16618780  1
  Ag  Ag23  1  0.67295877  0.16501618  0.17317155  1
  Ag  Ag24  1  0.49374977  0.17828579  0.66065234  1
  Ag  Ag25  1  0.49268780  0.82839255  0.66765792  1
  Ag  Ag26  1  0.83087258  0.33447612  0.83887965  1
  Ag  Ag27  1  0.49569881  0.66927686  0.17041592  1
  Ag  Ag28  1  0.83272764  0.82865891  0.66607313  1
  Ag  Ag29  1  -0.00277429  0.66552765  0.33073256  1
  Ag  Ag30  1  0.17573490  0.17043709  0.66595200  1
  Ag  Ag31  1  0.83128605  0.49928711  0.66589644  1
  Ag  Ag32  1  0.32814946  0.33220685  -0.00404615  1
  Ag  Ag33  1  0.33278922  0.83205130  0.16349545  1
  Ag  Ag34  1  0.82359915  0.17580406  0.32775818  1
  Ag  Ag35  1  -0.00156502  0.49065273  0.16607437  1
  Ag  Ag36  1  0.51081126  0.16514253  0.33552380  1
  Ag  Ag37  1  0.83018401  0.83133377  0.33145970  1
  Ag  Ag38  1  0.65797828  0.66860309  0.00730273  1
  Ag  Ag39  1  0.00069911  0.17163396  0.16743287  1
  Ag  Ag40  1  0.16253151  0.49841211  0.00032662  1
  Ag  Ag41  1  0.17003057  0.17136990  0.00818346  1
  Ag  Ag42  1  0.83685407  0.32853003  0.16783573  1
  Ag  Ag43  1  0.67167264  0.32388599  0.33600797  1
  Ag  Ag44  1  0.66697616  0.49553205  0.49936219  1
  Ag  Ag45  1  0.16744565  0.83108875  0.32927219  1
  Ag  Ag46  1  0.83865931  0.49780640  0.00887804  1
  Ag  Ag47  1  0.65814271  0.17404409  0.48535153  1
  Ag  Ag48  1  0.66834970  0.66619503  0.33028796  1
  Ag  Ag49  1  0.00962917  0.83106754  0.83390446  1
  Ag  Ag50  1  0.83578755  0.00755588  0.16791011  1
  Ag  Ag51  1  0.16972670  0.66976563  0.83263662  1
  Ag  Ag52  1  0.67055940  0.00032297  0.00950592  1
  Ag  Ag53  1  0.66942279  0.01263878  0.32804156  1
  Sb  Sb54  1  0.15853958  0.50344560  0.33078273  1
  Sb  Sb55  1  0.00143721  0.83115304  0.50118442  1
  Sb  Sb56  1  0.49907982  0.50370636  -0.00300245  1
  Sb  Sb57  1  0.82951003  0.33435472  0.49419617  1
  Sb  Sb58  1  0.66631502  0.00395054  0.66324072  1
  Sb  Sb59  1  0.33307281  0.00164124  0.66760390  1
  Sb  Sb60  1  0.33225719  -0.00083507  0.00324896  1
  Sb  Sb61  1  0.50121869  -0.00269559  0.16772326  1
  Sb  Sb62  1  0.65989303  0.66167472  0.66411001  1
  Sb  Sb63  1  0.66878980  0.33399407  0.00161818  1
  Sb  Sb64  1  0.00131514  -0.00187431  0.67452630  1
  Sb  Sb65  1  0.16909415  0.33620524  0.50123215  1
  Sb  Sb66  1  0.50888064  0.50125573  0.33868541  1
  Sb  Sb67  1  0.66336776  0.83218520  0.83349763  1
  Sb  Sb68  1  0.83009284  0.83001961  0.00259576  1
  Sb  Sb69  1  0.49342021  0.66489149  0.83270896  1
  Sb  Sb70  1  0.17172958  0.83122661  0.00162227  1
  Sb  Sb71  1  -0.00412680  0.00089246  0.32500746  1
  Sb  Sb72  1  0.50325497  0.33424314  0.16318804  1
  Sb  Sb73  1  0.00599676  0.16586735  0.84103477  1
  Sb  Sb74  1  0.83402240  0.00401686  0.83957329  1
  Sb  Sb75  1  0.16052335  0.33073010  0.16534245  1
  Sb  Sb76  1  0.33386904  0.66744839  0.33101034  1
  Sb  Sb77  1  0.00523655  0.66477214  0.00608418  1
  Sb  Sb78  1  0.49899578  0.00255980  0.83440666  1
  Sb  Sb79  1  0.49504340  0.16382561  0.00245001  1
  Sb  Sb80  1  0.16716533  -0.00320410  0.83902935  1
  Sb  Sb81  1  0.00052976  0.33464088  0.67026286  1
  Sb  Sb82  1  0.32695324  0.50027391  0.16426900  1
  Sb  Sb83  1  0.83768939  0.17200441  0.00834049  1
  Sb  Sb84  1  0.66196784  0.83634686  0.16945551  1
  Sb  Sb85  1  0.33556724  0.32666061  0.33041631  1
  Sb  Sb86  1  0.83092847  0.66503537  0.49784467  1
  Sb  Sb87  1  0.33776081  0.49920211  0.50380232  1
  Sb  Sb88  1  0.33234271  0.49936038  0.83213090  1
  Sb  Sb89  1  -0.00340084  0.50143608  0.49493810  1
  Sb  Sb90  1  0.00295171  0.16894568  0.49048764  1
  Sb  Sb91  1  0.33339852  0.83379313  0.50094778  1
  Sb  Sb92  1  0.66444687  0.83135783  0.49606459  1
  Sb  Sb93  1  0.00759458  0.66600425  0.66269612  1
  Sb  Sb94  1  0.66775072  0.49897254  0.82942590  1
  Sb  Sb95  1  0.00568210  0.83455381  0.16479032  1
  Sb  Sb96  1  0.83154277  0.17023300  0.66133123  1
  Sb  Sb97  1  0.83804063  0.66379382  0.83325111  1
  Sb  Sb98  1  0.00108626  0.50277700  0.83890766  1
  Sb  Sb99  1  0.67219349  0.49760447  0.17164211  1
  Sb  Sb100  1  0.66193074  0.16931315  0.83547263  1
  Sb  Sb101  1  0.50037838  -0.00018997  0.49799313  1
  Sb  Sb102  1  0.16709744  -0.00153035  0.49412273  1
  Sb  Sb103  1  0.83051145  -0.00010957  0.49060852  1
  Sb  Sb104  1  0.83363663  0.66640711  0.16937070  1
  Sb  Sb105  1  0.50123767  0.33351441  0.50501426  1
  Sb  Sb106  1  0.16883337  0.33594645  0.83573472  1
  Sb  Sb107  1  0.33730513  0.00091781  0.32985240  1
  Te  Te108  1  0.16622447  0.16732902  0.16540730  1
  Te  Te109  1  0.17038588  0.16674888  0.50506710  1
  Te  Te110  1  0.17119426  0.16572564  0.82868508  1
  Te  Te111  1  0.16064646  0.50523177  0.16309518  1
  Te  Te112  1  0.16645457  0.50644032  0.50351042  1
  Te  Te113  1  0.16562646  0.50574305  0.83206631  1
  Te  Te114  1  0.17119673  0.83100174  0.16816539  1
  Te  Te115  1  0.16812933  0.82989128  0.49743391  1
  Te  Te116  1  0.17001392  0.83130000  0.83330280  1
  Te  Te117  1  0.49768587  0.16697717  0.17121811  1
  Te  Te118  1  0.49914446  0.16582275  0.49879141  1
  Te  Te119  1  0.49441678  0.16976172  0.83035458  1
  Te  Te120  1  0.49956117  0.50663787  0.16684126  1
  Te  Te121  1  0.50422608  0.50689695  0.50550264  1
  Te  Te122  1  0.50082579  0.49402933  0.82662461  1
  Te  Te123  1  0.49557080  0.83114642  0.16831968  1
  Te  Te124  1  0.49844529  0.82901485  0.49779489  1
  Te  Te125  1  0.49510343  0.83332858  0.83001120  1
  Te  Te126  1  0.83416279  0.16729829  0.16888026  1
  Te  Te127  1  0.83014527  0.16632168  0.49148116  1
  Te  Te128  1  0.83564480  0.17260116  0.83207122  1
  Te  Te129  1  0.83764773  0.49992489  0.16786660  1
  Te  Te130  1  0.82855966  0.50055612  0.50417272  1
  Te  Te131  1  0.83455379  0.49587442  0.82940144  1
  Te  Te132  1  0.83465532  0.83669364  0.17080035  1
  Te  Te133  1  0.83348221  0.83272621  0.50163602  1
  Te  Te134  1  0.83374404  0.83411044  0.83016540  1
  Te  Te135  1  0.16335510  0.00400233  0.00540441  1
  Te  Te136  1  0.16512013  -0.00226599  0.32836975  1
  Te  Te137  1  0.16513170  -0.00384389  0.66537474  1
  Te  Te138  1  0.16739201  0.33496997  -0.00056704  1
  Te  Te139  1  0.16652564  0.33093866  0.33406494  1
  Te  Te140  1  0.16927796  0.33320186  0.66877626  1
  Te  Te141  1  0.16967681  0.66408583  0.00192733  1
  Te  Te142  1  0.16729501  0.66794424  0.33060421  1
  Te  Te143  1  0.16881777  0.66692808  0.66654037  1
  Te  Te144  1  0.50602456  -0.00728887  0.00095965  1
  Te  Te145  1  0.50758074  -0.00160524  0.33273404  1
  Te  Te146  1  0.50277323  -0.00950004  0.66638204  1
  Te  Te147  1  0.49682991  0.33409203  -0.00607066  1
  Te  Te148  1  0.50504261  0.32968606  0.33231872  1
  Te  Te149  1  0.49930449  0.33429359  0.66858325  1
  Te  Te150  1  0.49664822  0.66849467  0.00043197  1
  Te  Te151  1  0.50066037  0.66725942  0.33262843  1
  Te  Te152  1  0.49622780  0.66856708  0.66592951  1
  Te  Te153  1  0.83284018  -0.00133067  0.00648676  1
  Te  Te154  1  0.82996122  -0.00631159  0.32723931  1
  Te  Te155  1  0.83280002  -0.00481871  0.66772921  1
  Te  Te156  1  0.83303678  0.33802092  0.00133115  1
  Te  Te157  1  0.83192781  0.33358277  0.33009935  1
  Te  Te158  1  0.83273940  0.33500862  0.66899603  1
  Te  Te159  1  0.83185581  0.66068174  0.00076777  1
  Te  Te160  1  0.83343446  0.67080230  0.33418460  1
  Te  Te161  1  0.83254453  0.66787092  0.66589859  1
  Te  Te162  1  0.00470183  0.16896525  0.00437559  1
  Te  Te163  1  0.00529360  0.16808181  0.32822774  1
  Te  Te164  1  0.00333448  0.16699524  0.66608356  1
  Te  Te165  1  0.00034474  0.49777035  0.00405243  1
  Te  Te166  1  -0.00638875  0.49943235  0.32880056  1
  Te  Te167  1  -0.00296361  0.49854850  0.66644439  1
  Te  Te168  1  -0.00082329  0.83360340  -0.00485057  1
  Te  Te169  1  0.00265912  0.83088803  0.33350469  1
  Te  Te170  1  0.00020982  0.83298231  0.67136323  1
  Te  Te171  1  0.33111584  0.16713668  0.00150211  1
  Te  Te172  1  0.32554793  0.16622149  0.32662711  1
  Te  Te173  1  0.33492905  0.16596521  0.66950481  1
  Te  Te174  1  0.32995747  0.50040114  -0.00089109  1
  Te  Te175  1  0.33369434  0.49564883  0.33432916  1
  Te  Te176  1  0.33231965  0.50093566  0.66637477  1
  Te  Te177  1  0.33671522  0.83139877  0.00126533  1
  Te  Te178  1  0.33359419  0.83395035  0.33064144  1
  Te  Te179  1  0.33205034  0.83316180  0.66680965  1
  Te  Te180  1  0.66531903  0.16316204  0.00399098  1
  Te  Te181  1  0.66702342  0.16797190  0.32995533  1
  Te  Te182  1  0.66276733  0.17143370  0.66654974  1
  Te  Te183  1  0.66953767  0.50403208  0.00135144  1
  Te  Te184  1  0.67274879  0.50545052  0.33766933  1
  Te  Te185  1  0.66784298  0.49727886  0.66329680  1
  Te  Te186  1  0.66210939  0.83007073  0.00033529  1
  Te  Te187  1  0.66493582  0.82465812  0.33407156  1
  Te  Te188  1  0.66803299  0.83406482  0.66524328  1
  Te  Te189  1  0.00088854  0.00183289  0.16241893  1
  Te  Te190  1  -0.00105400  0.00064988  0.50238065  1
  Te  Te191  1  -0.00067322  -0.00575939  0.84403186  1
  Te  Te192  1  -0.00259099  0.33188209  0.16594075  1
  Te  Te193  1  0.00059464  0.33395329  0.49174011  1
  Te  Te194  1  -0.00551560  0.33391757  0.84096683  1
  Te  Te195  1  0.00387404  0.66695745  0.17151543  1
  Te  Te196  1  0.00818263  0.66641192  0.49101390  1
  Te  Te197  1  0.00626638  0.67187955  0.83311243  1
  Te  Te198  1  0.32735275  -0.00055596  0.16615716  1
  Te  Te199  1  0.33307273  0.01268587  0.49829833  1
  Te  Te200  1  0.33316789  -0.00298575  0.83535178  1
  Te  Te201  1  0.33540848  0.33015928  0.16009063  1
  Te  Te202  1  0.33434968  0.32811969  0.50583583  1
  Te  Te203  1  0.33365962  0.33081234  0.83412535  1
  Te  Te204  1  0.33383558  0.66693320  0.16450126  1
  Te  Te205  1  0.33428065  0.66653094  0.50521806  1
  Te  Te206  1  0.33000335  0.66996078  0.83333619  1
  Te  Te207  1  0.66711769  0.00235645  0.16769778  1
  Te  Te208  1  0.66636509  0.00907514  0.49355699  1
  Te  Te209  1  0.66772588  0.00069541  0.84208591  1
  Te  Te210  1  0.67080839  0.32887946  0.17020761  1
  Te  Te211  1  0.66585292  0.33353306  0.50007078  1
  Te  Te212  1  0.66729049  0.33276370  0.82985002  1
  Te  Te213  1  0.66306719  0.66616784  0.16666829  1
  Te  Te214  1  0.66163376  0.66333679  0.49670442  1
  Te  Te215  1  0.66796823  0.66657199  0.84123631  1
