# generated using pymatgen
data_AgSbTe2
_symmetry_space_group_name_H-M   'P 1'
_cell_length_a   18.32324761
_cell_length_b   18.32181339
_cell_length_c   18.32372648
_cell_angle_alpha   89.99939297
_cell_angle_beta   89.99913905
_cell_angle_gamma   89.99911774
_symmetry_Int_Tables_number   1
_chemical_formula_structural   AgSbTe2
_chemical_formula_sum   'Ag54 Sb54 Te108'
_cell_volume   6151.55209640
_cell_formula_units_Z   54
loop_
 _symmetry_equiv_pos_site_id
 _symmetry_equiv_pos_as_xyz
  1  'x, y, z'
loop_
 _atom_site_type_symbol
 _atom_site_label
 _atom_site_symmetry_multiplicity
 _atom_site_fract_x
 _atom_site_fract_y
 _atom_site_fract_z
 _atom_site_occupancy
  Ag  Ag0  1  0.00304623  0.34210526  -0.00129097  1
  Ag  Ag1  1  0.00191672  0.15877711  0.48992840  1
  Ag  Ag2  1  0.33376963  0.83960400  0.49496411  1
  Ag  Ag3  1  0.49995621  0.65708324  0.16945818  1
  Ag  Ag4  1  0.00277021  0.00202540  0.00900615  1
  Ag  Ag5  1  0.33722378  -0.00140637  0.66758005  1
  Ag  Ag6  1  -0.00271461  -0.00553215  0.32740813  1
  Ag  Ag7  1  0.84183782  0.50643927  0.67076621  1
  Ag  Ag8  1  -0.00051108  0.49659297  0.15726718  1
  Ag  Ag9  1  0.15857697  0.83188914  0.33239658  1
  Ag  Ag10  1  0.33331763  0.49775472  0.16921365  1
  Ag  Ag11  1  0.84048604  0.83778199  0.33335344  1
  Ag  Ag12  1  -0.00093109  0.83791059  0.49419155  1
  Ag  Ag13  1  0.83939961  -0.00217747  0.49265801  1
  Ag  Ag14  1  0.66510427  0.83121169  0.83117988  1
  Ag  Ag15  1  0.83209580  0.83351474  0.66394569  1
  Ag  Ag16  1  -0.00111905  0.65479621  0.00581810  1
  Ag  Ag17  1  0.50362850  0.83690185  0.66660612  1
  Ag  Ag18  1  -0.00191990  0.66089231  0.66702009  1
  Ag  Ag19  1  0.49649820  -0.00239571  0.82893214  1
  Ag  Ag20  1  0.67188187  0.66435495  0.33119754  1
  Ag  Ag21  1  0.33159706  0.16384761  0.16663801  1
  Ag  Ag22  1  0.16854670  0.00287437  0.84273408  1
  Ag  Ag23  1  0.49700230  -0.00419464  0.50546171  1
  Ag  Ag24  1  0.49562551  0.33742985  0.16251219  1
  Ag  Ag25  1  -0.00440110  0.67002870  0.33159702  1
  Ag  Ag26  1  0.33060533  0.15823240  0.49240826  1
  Ag  Ag27  1  0.83719618  0.83737186  0.00709099  1
  Ag  Ag28  1  0.83897272  0.50341527  0.32571017  1
  Ag  Ag29  1  -0.00179523  0.49989863  0.84555646  1
  Ag  Ag30  1  0.49583504  0.33464764  0.83983686  1
  Ag  Ag31  1  0.33294321  0.33443452  0.32855163  1
  Ag  Ag32  1  0.15897867  0.00255799  0.16257179  1
  Ag  Ag33  1  0.67745631  0.16767372  0.16522984  1
  Ag  Ag34  1  0.83843518  0.15579838  0.32470413  1
  Ag  Ag35  1  0.16150239  0.16413125  0.00360580  1
  Ag  Ag36  1  0.15616637  0.49297198  0.00388221  1
  Ag  Ag37  1  0.00099708  0.34491544  0.67365798  1
  Ag  Ag38  1  0.49908811  0.67558202  0.49784047  1
  Ag  Ag39  1  0.66176110  -0.00365013  0.66847482  1
  Ag  Ag40  1  0.49625613  0.16588554  0.00442444  1
  Ag  Ag41  1  0.66862250  0.49816785  0.16587240  1
  Ag  Ag42  1  0.15689632  0.49883566  0.67607927  1
  Ag  Ag43  1  0.33366514  0.84111263  0.17124915  1
  Ag  Ag44  1  0.32570605  0.00198981  0.00235334  1
  Ag  Ag45  1  0.50307172  0.66656366  0.83540843  1
  Ag  Ag46  1  0.84134392  0.00469670  0.16984563  1
  Ag  Ag47  1  0.67208690  0.50427192  0.83943180  1
  Ag  Ag48  1  0.50067530  0.50401263  0.32531384  1
  Ag  Ag49  1  0.84488350  0.16045035  0.00819871  1
  Ag  Ag50  1  0.16590832  0.33446213  0.83743700  1
  Ag  Ag51  1  0.84272075  0.50016066  0.00649109  1
  Ag  Ag52  1  -0.00407237  0.16222981  0.16470369  1
  Ag  Ag53  1  0.15968363  0.50368005  0.32373064  1
  Sb  Sb54  1  0.16599499  0.00002723  0.49764004  1
  Sb  Sb55  1  0.33340011  0.50150468  0.49288732  1
  Sb  Sb56  1  0.16700217  0.66756613  0.49772419  1
  Sb  Sb57  1  0.66863695  0.00067536  -0.00289474  1
  Sb  Sb58  1  0.50190380  0.16906903  0.32670704  1
  Sb  Sb59  1  0.32965251  0.32859689  0.66390327  1
  Sb  Sb60  1  0.16953326  0.33252932  0.16191063  1
  Sb  Sb61  1  0.83721141  0.33749198  0.83537786  1
  Sb  Sb62  1  0.16507224  0.16833121  0.67141427  1
  Sb  Sb63  1  0.16506032  0.83195297  0.66284605  1
  Sb  Sb64  1  0.33161112  0.67002851  0.66480025  1
  Sb  Sb65  1  0.49990438  0.49635213  0.00562154  1
  Sb  Sb66  1  0.50154117  0.82909473  0.33731954  1
  Sb  Sb67  1  0.00334612  0.33508610  0.32913899  1
  Sb  Sb68  1  0.33719188  0.83684165  0.83345023  1
  Sb  Sb69  1  0.00151557  0.83552861  0.17144948  1
  Sb  Sb70  1  0.83317104  0.67266538  0.49728226  1
  Sb  Sb71  1  -0.00386224  0.82944561  0.83268966  1
  Sb  Sb72  1  0.83294641  0.33131179  0.16608123  1
  Sb  Sb73  1  0.83476066  -0.00169265  0.83572472  1
  Sb  Sb74  1  0.16261651  0.16626721  0.32634513  1
  Sb  Sb75  1  0.66748759  0.16178553  0.49223696  1
  Sb  Sb76  1  0.67082120  0.66458976  0.00317216  1
  Sb  Sb77  1  0.83639515  0.16342829  0.66596613  1
  Sb  Sb78  1  0.83717466  0.32899923  0.49874443  1
  Sb  Sb79  1  0.00064463  0.17134569  0.84234034  1
  Sb  Sb80  1  0.32828491  0.00146782  0.33104428  1
  Sb  Sb81  1  0.66583162  0.83231743  0.16387593  1
  Sb  Sb82  1  0.66998103  0.67024626  0.66473286  1
  Sb  Sb83  1  0.67116068  0.33386478  0.00161763  1
  Sb  Sb84  1  0.49903163  0.15910768  0.67041104  1
  Sb  Sb85  1  0.33332371  0.66489445  0.33169234  1
  Sb  Sb86  1  0.16430968  0.33261219  0.50208248  1
  Sb  Sb87  1  0.16667075  0.66678004  0.16723606  1
  Sb  Sb88  1  0.33019393  0.67054329  0.00276689  1
  Sb  Sb89  1  0.50216677  0.83724791  -0.00307968  1
  Sb  Sb90  1  0.33329040  0.16392389  0.83848360  1
  Sb  Sb91  1  0.32959774  0.32825628  0.00556127  1
  Sb  Sb92  1  0.66386411  0.33835230  0.32865378  1
  Sb  Sb93  1  0.67380900  -0.00539220  0.33511836  1
  Sb  Sb94  1  0.49674822  0.33104382  0.49833943  1
  Sb  Sb95  1  0.66791703  0.83425993  0.50384785  1
  Sb  Sb96  1  0.50081866  0.50503539  0.66702344  1
  Sb  Sb97  1  0.49885759  0.00158572  0.16620145  1
  Sb  Sb98  1  0.67052620  0.33189595  0.67269922  1
  Sb  Sb99  1  0.16699157  0.66565676  0.83464231  1
  Sb  Sb100  1  0.83295270  0.66622113  0.16851192  1
  Sb  Sb101  1  0.33146695  0.49850436  0.83988550  1
  Sb  Sb102  1  -0.00026852  0.50261414  0.49881164  1
  Sb  Sb103  1  0.66809977  0.50319164  0.49613645  1
  Sb  Sb104  1  0.66462237  0.16604497  0.84018252  1
  Sb  Sb105  1  0.16095501  0.83740477  0.00614211  1
  Sb  Sb106  1  0.83088654  0.66533112  0.83405350  1
  Sb  Sb107  1  0.00095751  -0.00212284  0.66568448  1
  Te  Te108  1  0.16753400  0.16486693  0.16328540  1
  Te  Te109  1  0.16651355  0.16585574  0.49929643  1
  Te  Te110  1  0.16713513  0.16659208  0.83965077  1
  Te  Te111  1  0.16444543  0.50086160  0.16535116  1
  Te  Te112  1  0.16811859  0.50019169  0.49711460  1
  Te  Te113  1  0.16474885  0.49957912  0.83495388  1
  Te  Te114  1  0.17198524  0.83614910  0.17223231  1
  Te  Te115  1  0.16662616  0.83394385  0.49453409  1
  Te  Te116  1  0.16745801  0.83792724  0.83272744  1
  Te  Te117  1  0.49349136  0.16812213  0.16396134  1
  Te  Te118  1  0.49670526  0.16230996  0.49831891  1
  Te  Te119  1  0.50013580  0.16617146  0.83926765  1
  Te  Te120  1  0.50137005  0.49876123  0.16675711  1
  Te  Te121  1  0.49961706  0.50184541  0.49570114  1
  Te  Te122  1  0.49991465  0.50015875  0.83439255  1
  Te  Te123  1  0.49652832  0.83130710  0.16630815  1
  Te  Te124  1  0.49937438  0.83524627  0.50332115  1
  Te  Te125  1  0.50299285  0.83630328  0.83002749  1
  Te  Te126  1  0.83533076  0.16771852  0.16593961  1
  Te  Te127  1  0.83587680  0.15944744  0.49722287  1
  Te  Te128  1  0.83148795  0.16798928  0.84128825  1
  Te  Te129  1  0.83294527  0.49947450  0.16563872  1
  Te  Te130  1  0.83250748  0.50025637  0.50031100  1
  Te  Te131  1  0.83461206  0.50055798  0.83234651  1
  Te  Te132  1  0.83211238  0.83788103  0.16683414  1
  Te  Te133  1  0.83490140  0.83745259  0.49926196  1
  Te  Te134  1  0.82837371  0.83230045  0.82822807  1
  Te  Te135  1  0.16603407  -0.00066948  0.00214015  1
  Te  Te136  1  0.16018285  -0.00197282  0.32837640  1
  Te  Te137  1  0.17218453  0.00005201  0.67290171  1
  Te  Te138  1  0.16439902  0.33256431  -0.00389530  1
  Te  Te139  1  0.17104328  0.33931940  0.33408047  1
  Te  Te140  1  0.16306151  0.33748915  0.67355334  1
  Te  Te141  1  0.15974034  0.66390102  -0.00073039  1
  Te  Te142  1  0.16046291  0.66584415  0.33288106  1
  Te  Te143  1  0.16125135  0.66060091  0.66664925  1
  Te  Te144  1  0.49867722  0.00335004  -0.00287338  1
  Te  Te145  1  0.50331259  -0.00080223  0.33977759  1
  Te  Te146  1  0.49836805  -0.00219944  0.66704166  1
  Te  Te147  1  0.49823951  0.32965542  0.00019554  1
  Te  Te148  1  0.49617232  0.33856780  0.33058504  1
  Te  Te149  1  0.49961134  0.33358056  0.67113282  1
  Te  Te150  1  0.49955521  0.66781607  -0.00125782  1
  Te  Te151  1  0.49954364  0.66404053  0.33127171  1
  Te  Te152  1  0.49993084  0.67234695  0.66701749  1
  Te  Te153  1  0.83545294  -0.00025590  0.00185949  1
  Te  Te154  1  0.83571372  -0.00182920  0.33254155  1
  Te  Te155  1  0.83221242  -0.00419207  0.66616117  1
  Te  Te156  1  0.84041179  0.33514537  -0.00017680  1
  Te  Te157  1  0.83285313  0.34173489  0.33364064  1
  Te  Te158  1  0.83881364  0.33683973  0.66726768  1
  Te  Te159  1  0.83929547  0.66732011  0.00106534  1
  Te  Te160  1  0.83478281  0.66462697  0.33389644  1
  Te  Te161  1  0.83709886  0.66759679  0.66414615  1
  Te  Te162  1  0.00122126  0.16100617  0.00290425  1
  Te  Te163  1  -0.00271115  0.16861371  0.33028809  1
  Te  Te164  1  -0.00046368  0.16800922  0.66395966  1
  Te  Te165  1  -0.00044215  0.49881388  0.00063577  1
  Te  Te166  1  0.00003568  0.50088999  0.33421067  1
  Te  Te167  1  -0.00057099  0.50084967  0.65981475  1
  Te  Te168  1  -0.00528100  0.83993456  -0.00027862  1
  Te  Te169  1  -0.00080713  0.83326520  0.33288132  1
  Te  Te170  1  -0.00254591  0.82919901  0.66348725  1
  Te  Te171  1  0.33218005  0.16281388  0.00442330  1
  Te  Te172  1  0.33293577  0.16930720  0.33075605  1
  Te  Te173  1  0.33223518  0.16057788  0.65928005  1
  Te  Te174  1  0.32801673  0.50102339  0.00805019  1
  Te  Te175  1  0.33302665  0.49833932  0.32953317  1
  Te  Te176  1  0.32926090  0.49914086  0.66509557  1
  Te  Te177  1  0.33243145  0.83924074  0.00559726  1
  Te  Te178  1  0.33192615  0.83336946  0.33263312  1
  Te  Te179  1  0.33388198  0.83741745  0.66249059  1
  Te  Te180  1  0.66487847  0.16776710  0.00733283  1
  Te  Te181  1  0.67398301  0.16729427  0.32477806  1
  Te  Te182  1  0.66793564  0.16123251  0.66674903  1
  Te  Te183  1  0.67163929  0.49986219  0.00057471  1
  Te  Te184  1  0.66771166  0.50373492  0.32957725  1
  Te  Te185  1  0.67073949  0.50017184  0.67142855  1
  Te  Te186  1  0.67411414  0.83228561  -0.00595234  1
  Te  Te187  1  0.67326495  0.82633700  0.33201496  1
  Te  Te188  1  0.66787754  0.83519710  0.67013383  1
  Te  Te189  1  -0.00039527  -0.00027212  0.16886414  1
  Te  Te190  1  -0.00091476  -0.00087884  0.49918130  1
  Te  Te191  1  0.00450832  -0.00112887  0.83523400  1
  Te  Te192  1  0.00075916  0.33508740  0.16208833  1
  Te  Te193  1  0.00020652  0.32303511  0.50461955  1
  Te  Te194  1  0.00319007  0.33731002  0.83389486  1
  Te  Te195  1  0.00005779  0.66081648  0.16762072  1
  Te  Te196  1  -0.00001538  0.67376498  0.49597133  1
  Te  Te197  1  0.00032448  0.66117410  0.83148413  1
  Te  Te198  1  0.33367738  0.00141720  0.16461614  1
  Te  Te199  1  0.33233129  -0.00056057  0.49803151  1
  Te  Te200  1  0.33416929  0.00012745  0.83448695  1
  Te  Te201  1  0.33579833  0.33390176  0.16869401  1
  Te  Te202  1  0.33246732  0.32675316  0.49461705  1
  Te  Te203  1  0.33423082  0.33235201  0.83233094  1
  Te  Te204  1  0.33839815  0.66385365  0.16601455  1
  Te  Te205  1  0.33933831  0.67363310  0.49954085  1
  Te  Te206  1  0.34189229  0.66776050  0.83375567  1
  Te  Te207  1  0.66928449  0.00339577  0.16638661  1
  Te  Te208  1  0.66419921  0.00038475  0.50553622  1
  Te  Te209  1  0.66361837  -0.00162447  0.82919868  1
  Te  Te210  1  0.65716862  0.33528389  0.16561492  1
  Te  Te211  1  0.66613568  0.33207744  0.50227166  1
  Te  Te212  1  0.65803265  0.33869744  0.83520799  1
  Te  Te213  1  0.66173267  0.66370032  0.16984665  1
  Te  Te214  1  0.65823456  0.66716798  0.49376476  1
  Te  Te215  1  0.66179212  0.66501274  0.83276377  1
