# generated using pymatgen
data_AgSbTe2
_symmetry_space_group_name_H-M   'P 1'
_cell_length_a   18.33489157
_cell_length_b   18.35076110
_cell_length_c   18.35087501
_cell_angle_alpha   90.00002256
_cell_angle_beta   89.99944235
_cell_angle_gamma   89.99932201
_symmetry_Int_Tables_number   1
_chemical_formula_structural   AgSbTe2
_chemical_formula_sum   'Ag54 Sb54 Te108'
_cell_volume   6174.32100209
_cell_formula_units_Z   54
loop_
 _symmetry_equiv_pos_site_id
 _symmetry_equiv_pos_as_xyz
  1  'x, y, z'
loop_
 _atom_site_type_symbol
 _atom_site_label
 _atom_site_symmetry_multiplicity
 _atom_site_fract_x
 _atom_site_fract_y
 _atom_site_fract_z
 _atom_site_occupancy
  Ag  Ag0  1  0.33370705  0.66401915  0.67964396  1
  Ag  Ag1  1  0.33139957  0.66601184  -0.00298827  1
  Ag  Ag2  1  0.66952839  0.16982936  0.83658749  1
  Ag  Ag3  1  0.17097831  0.83414763  0.67678949  1
  Ag  Ag4  1  0.16358910  0.16810193  -0.00338591  1
  Ag  Ag5  1  0.16736627  0.16863674  0.67643537  1
  Ag  Ag6  1  0.83850127  0.49533337  0.33072103  1
  Ag  Ag7  1  0.00172105  0.17061462  0.16152587  1
  Ag  Ag8  1  0.66788766  0.83411393  0.16117675  1
  Ag  Ag9  1  0.32767720  0.33030961  0.32643465  1
  Ag  Ag10  1  0.83368267  0.82898272  -0.00010095  1
  Ag  Ag11  1  0.33272126  0.50552759  0.83885953  1
  Ag  Ag12  1  -0.00082384  0.16851984  0.49426799  1
  Ag  Ag13  1  0.32792860  0.33565427  0.67411845  1
  Ag  Ag14  1  0.67733678  0.33389275  0.00362130  1
  Ag  Ag15  1  0.82933233  0.33060496  0.16594265  1
  Ag  Ag16  1  0.33083615  0.17044881  0.17157530  1
  Ag  Ag17  1  0.82427143  0.66015250  0.83659100  1
  Ag  Ag18  1  0.67120625  0.17206686  0.16899058  1
  Ag  Ag19  1  0.32871905  0.82416804  0.83763197  1
  Ag  Ag20  1  0.17031864  0.17149980  0.32624469  1
  Ag  Ag21  1  0.16593222  0.00889280  0.83379451  1
  Ag  Ag22  1  0.32911203  0.66405150  0.32379618  1
  Ag  Ag23  1  0.00792136  0.16892433  0.83954106  1
  Ag  Ag24  1  0.67790505  0.33035956  0.32130275  1
  Ag  Ag25  1  0.33325051  0.01229626  0.32954735  1
  Ag  Ag26  1  0.16717736  0.48902169  0.33411303  1
  Ag  Ag27  1  0.16656376  0.83570194  -0.00455655  1
  Ag  Ag28  1  -0.00035046  0.32799524  0.00197906  1
  Ag  Ag29  1  0.17086400  0.49340142  0.67180095  1
  Ag  Ag30  1  0.67009324  0.16673999  0.48637251  1
  Ag  Ag31  1  0.49611431  0.16930461  0.66504396  1
  Ag  Ag32  1  -0.00276270  0.33146291  0.32577503  1
  Ag  Ag33  1  0.66941864  0.66463181  -0.00439782  1
  Ag  Ag34  1  0.66550749  0.50874486  0.84073574  1
  Ag  Ag35  1  0.33389910  0.82993612  0.16455053  1
  Ag  Ag36  1  0.00132879  0.01233602  -0.00197134  1
  Ag  Ag37  1  0.32849408  0.33583176  0.00139383  1
  Ag  Ag38  1  0.66658036  0.48906640  0.16092000  1
  Ag  Ag39  1  0.00109990  0.66608876  0.00071264  1
  Ag  Ag40  1  0.00600568  0.65847671  0.32638745  1
  Ag  Ag41  1  0.65887924  0.66735764  0.68280997  1
  Ag  Ag42  1  0.83330541  0.33088848  0.48511570  1
  Ag  Ag43  1  0.66636637  0.83605986  0.49834361  1
  Ag  Ag44  1  0.00374690  0.00548284  0.67928958  1
  Ag  Ag45  1  0.50037370  0.16761043  0.33395153  1
  Ag  Ag46  1  0.66537809  0.82118885  0.83925758  1
  Ag  Ag47  1  0.33517841  0.49232303  0.16429437  1
  Ag  Ag48  1  0.66542411  0.01439466  0.32908335  1
  Ag  Ag49  1  0.33213576  0.83167971  0.50067093  1
  Ag  Ag50  1  0.83109285  0.01195838  0.16528752  1
  Ag  Ag51  1  0.51096106  0.66800071  0.83293864  1
  Ag  Ag52  1  0.83232373  0.33383684  0.83864093  1
  Ag  Ag53  1  0.16656945  0.32831539  0.83501563  1
  Sb  Sb54  1  0.00347796  0.66992731  0.67114405  1
  Sb  Sb55  1  0.50416317  0.00136489  0.16774330  1
  Sb  Sb56  1  0.49931392  0.33563329  0.83346525  1
  Sb  Sb57  1  0.83177578  0.00639677  0.49192140  1
  Sb  Sb58  1  0.83907072  0.16829586  0.00137002  1
  Sb  Sb59  1  0.16829132  0.66579808  0.16563374  1
  Sb  Sb60  1  0.50321679  0.32953889  0.49942958  1
  Sb  Sb61  1  0.33166252  0.50243668  0.49901571  1
  Sb  Sb62  1  0.49849119  0.66826158  0.50450050  1
  Sb  Sb63  1  0.00052119  0.00843347  0.32799216  1
  Sb  Sb64  1  0.17013296  0.49705142  -0.00011215  1
  Sb  Sb65  1  0.00052853  0.49238120  0.49712207  1
  Sb  Sb66  1  0.50290520  0.33162997  0.16763654  1
  Sb  Sb67  1  0.33088628  0.16903123  0.83653870  1
  Sb  Sb68  1  0.49647883  0.49389381  0.33180026  1
  Sb  Sb69  1  0.83684735  0.00171091  0.83947718  1
  Sb  Sb70  1  0.16602271  0.00255940  0.50488900  1
  Sb  Sb71  1  0.16433492  0.00359198  0.16136504  1
  Sb  Sb72  1  0.49481708  0.49743355  0.67027850  1
  Sb  Sb73  1  0.49774136  0.83735348  0.33367379  1
  Sb  Sb74  1  0.49930517  0.00179272  0.49906593  1
  Sb  Sb75  1  0.83178912  0.66226268  0.16056820  1
  Sb  Sb76  1  0.66435077  0.66289100  0.32756015  1
  Sb  Sb77  1  0.17056524  0.83615319  0.33031083  1
  Sb  Sb78  1  0.50092031  0.50067609  -0.00127286  1
  Sb  Sb79  1  0.67575496  0.00120804  0.00529099  1
  Sb  Sb80  1  0.49891347  0.83174631  -0.00101196  1
  Sb  Sb81  1  0.66385363  0.33413900  0.67077268  1
  Sb  Sb82  1  0.67180335  -0.00093951  0.66486580  1
  Sb  Sb83  1  0.00041294  0.83876664  0.49988473  1
  Sb  Sb84  1  0.49533540  0.83606471  0.66830894  1
  Sb  Sb85  1  0.83172875  0.50035301  0.00285859  1
  Sb  Sb86  1  0.49748188  0.16873115  0.00179096  1
  Sb  Sb87  1  0.83648228  0.16731368  0.66834141  1
  Sb  Sb88  1  0.83274911  0.17414360  0.32992712  1
  Sb  Sb89  1  0.83475156  0.83242367  0.67429244  1
  Sb  Sb90  1  0.00013270  0.49367766  0.16722000  1
  Sb  Sb91  1  0.16405897  0.32992967  0.49991393  1
  Sb  Sb92  1  0.83090977  0.82731975  0.32712971  1
  Sb  Sb93  1  0.00169093  0.49425027  0.83532098  1
  Sb  Sb94  1  0.49661720  -0.00232915  0.83189947  1
  Sb  Sb95  1  0.32514390  -0.00105954  0.00420742  1
  Sb  Sb96  1  0.33168036  0.16448713  0.49611906  1
  Sb  Sb97  1  0.16776581  0.66551882  0.83453310  1
  Sb  Sb98  1  0.32735938  0.00032689  0.66445414  1
  Sb  Sb99  1  0.00328245  0.83751342  0.83786368  1
  Sb  Sb100  1  -0.00019852  0.83719362  0.16334219  1
  Sb  Sb101  1  0.00517102  0.32739301  0.66973114  1
  Sb  Sb102  1  0.83182899  0.66445084  0.50305862  1
  Sb  Sb103  1  0.66898545  0.49733553  0.49895635  1
  Sb  Sb104  1  0.49766368  0.66732382  0.16174538  1
  Sb  Sb105  1  0.83605249  0.49798712  0.66689612  1
  Sb  Sb106  1  0.16632048  0.33131012  0.16326554  1
  Sb  Sb107  1  0.16741783  0.66790360  0.50015493  1
  Te  Te108  1  0.16731215  0.16627024  0.16643088  1
  Te  Te109  1  0.16212516  0.16570337  0.50031227  1
  Te  Te110  1  0.16805423  0.16828698  0.83547172  1
  Te  Te111  1  0.17427405  0.49983173  0.17292084  1
  Te  Te112  1  0.16643056  0.50009458  0.49676755  1
  Te  Te113  1  0.17055509  0.49254859  0.83193821  1
  Te  Te114  1  0.17175442  0.83616036  0.16087323  1
  Te  Te115  1  0.17041361  0.83513727  0.50312517  1
  Te  Te116  1  0.16827036  0.83234169  0.83481286  1
  Te  Te117  1  0.49573903  0.16596859  0.17198568  1
  Te  Te118  1  0.50714459  0.16643500  0.49916448  1
  Te  Te119  1  0.50166989  0.16559855  0.83030223  1
  Te  Te120  1  0.50011936  0.50078692  0.16753445  1
  Te  Te121  1  0.50158362  0.49958288  0.50108221  1
  Te  Te122  1  0.49906066  0.50657617  0.83233414  1
  Te  Te123  1  0.49930675  0.83439484  0.16691634  1
  Te  Te124  1  0.50474606  0.83461887  0.50102899  1
  Te  Te125  1  0.50183658  0.83015053  0.83264511  1
  Te  Te126  1  0.83166238  0.16945725  0.16510680  1
  Te  Te127  1  0.83260472  0.17161165  0.50151416  1
  Te  Te128  1  0.83143979  0.16948479  0.83500107  1
  Te  Te129  1  0.82922785  0.49488902  0.17101017  1
  Te  Te130  1  0.83328372  0.49259017  0.49470959  1
  Te  Te131  1  0.83018938  0.49765900  0.83247049  1
  Te  Te132  1  0.83083132  0.82985595  0.16083655  1
  Te  Te133  1  0.82799501  0.83368878  0.50093711  1
  Te  Te134  1  0.82953573  0.83379881  0.83865129  1
  Te  Te135  1  0.16092193  0.00049583  -0.00442901  1
  Te  Te136  1  0.16960711  0.00461658  0.33272156  1
  Te  Te137  1  0.16358019  0.00257335  0.67113399  1
  Te  Te138  1  0.16615787  0.33225331  -0.00349095  1
  Te  Te139  1  0.16613360  0.33108658  0.33434682  1
  Te  Te140  1  0.16940758  0.33187931  0.66796419  1
  Te  Te141  1  0.16807851  0.66845273  0.00031092  1
  Te  Te142  1  0.16696512  0.66778541  0.33343079  1
  Te  Te143  1  0.17117586  0.66943253  0.66673072  1
  Te  Te144  1  0.49987451  0.00150976  -0.00123563  1
  Te  Te145  1  0.50038866  0.00688177  0.33330936  1
  Te  Te146  1  0.50056607  0.00994727  0.66691453  1
  Te  Te147  1  0.49118062  0.33281712  -0.00099430  1
  Te  Te148  1  0.49300484  0.32668169  0.33429806  1
  Te  Te149  1  0.49175330  0.32832498  0.66612841  1
  Te  Te150  1  0.49718672  0.66674438  -0.00700743  1
  Te  Te151  1  0.49173899  0.66534446  0.33440603  1
  Te  Te152  1  0.49676861  0.66728187  0.67145990  1
  Te  Te153  1  0.84127244  -0.00829466  0.00486086  1
  Te  Te154  1  0.82982602  -0.00454098  0.32557365  1
  Te  Te155  1  0.84262250  -0.00151765  0.66562919  1
  Te  Te156  1  0.83520674  0.33427931  -0.00027566  1
  Te  Te157  1  0.83501988  0.33629558  0.32872041  1
  Te  Te158  1  0.83410167  0.33515562  0.67733630  1
  Te  Te159  1  0.83010789  0.66723234  -0.00348438  1
  Te  Te160  1  0.83535348  0.65862924  0.33389293  1
  Te  Te161  1  0.83090051  0.66554136  0.67237429  1
  Te  Te162  1  0.00250889  0.17040917  0.00047074  1
  Te  Te163  1  0.00314467  0.16970321  0.33065009  1
  Te  Te164  1  0.00401448  0.16449916  0.67235736  1
  Te  Te165  1  0.00203117  0.50505709  0.00142396  1
  Te  Te166  1  0.00380355  0.49786772  0.33218987  1
  Te  Te167  1  0.00948149  0.50232080  0.66573746  1
  Te  Te168  1  0.00373908  0.82389518  0.00118409  1
  Te  Te169  1  0.00076039  0.82802094  0.33293479  1
  Te  Te170  1  0.00715203  0.83819979  0.66621638  1
  Te  Te171  1  0.32938649  0.16841652  0.00481977  1
  Te  Te172  1  0.33171458  0.16891713  0.33489913  1
  Te  Te173  1  0.33020737  0.16813429  0.66398112  1
  Te  Te174  1  0.33295445  0.49964534  0.00103306  1
  Te  Te175  1  0.33090770  0.49940103  0.33169820  1
  Te  Te176  1  0.32972721  0.50019808  0.66698004  1
  Te  Te177  1  0.33093682  0.83279718  -0.00001014  1
  Te  Te178  1  0.33363239  0.82567279  0.32966011  1
  Te  Te179  1  0.33110220  0.83289318  0.66743548  1
  Te  Te180  1  0.66443585  0.16975425  0.00368530  1
  Te  Te181  1  0.66921415  0.17079763  0.32998245  1
  Te  Te182  1  0.66581959  0.16593563  0.67165371  1
  Te  Te183  1  0.66656542  0.49721499  0.00021358  1
  Te  Te184  1  0.66520345  0.49398242  0.33006413  1
  Te  Te185  1  0.66668898  0.50586299  0.66967460  1
  Te  Te186  1  0.66721346  0.83473341  -0.00127652  1
  Te  Te187  1  0.66562257  0.83081674  0.33167307  1
  Te  Te188  1  0.66632454  0.83098922  0.67057734  1
  Te  Te189  1  -0.00561843  0.00508761  0.16163638  1
  Te  Te190  1  -0.00186434  0.00790382  0.49787463  1
  Te  Te191  1  0.00330421  0.00382082  0.83753268  1
  Te  Te192  1  -0.00383049  0.33071683  0.16425317  1
  Te  Te193  1  -0.00541418  0.32680923  0.49744021  1
  Te  Te194  1  0.00022112  0.33049231  0.83669992  1
  Te  Te195  1  -0.00035160  0.66554167  0.16680721  1
  Te  Te196  1  -0.00243336  0.66830421  0.49721725  1
  Te  Te197  1  -0.00598994  0.66557915  0.83673883  1
  Te  Te198  1  0.33352346  0.00252500  0.17050938  1
  Te  Te199  1  0.33285848  -0.00824888  0.49275888  1
  Te  Te200  1  0.32851605  -0.00615555  0.83342738  1
  Te  Te201  1  0.33330893  0.33292140  0.16579602  1
  Te  Te202  1  0.33370312  0.33336186  0.49859256  1
  Te  Te203  1  0.33248406  0.33460260  0.83430532  1
  Te  Te204  1  0.33383503  0.66895353  0.16338346  1
  Te  Te205  1  0.33422520  0.67277135  0.49979982  1
  Te  Te206  1  0.32798894  0.66574719  0.83583777  1
  Te  Te207  1  0.67061083  -0.00200266  0.16998487  1
  Te  Te208  1  0.66763051  0.00038478  0.49506174  1
  Te  Te209  1  0.66695484  0.00797921  0.83356260  1
  Te  Te210  1  0.66704095  0.33228654  0.16432351  1
  Te  Te211  1  0.67177813  0.32910190  0.50227099  1
  Te  Te212  1  0.66586784  0.32994686  0.83558135  1
  Te  Te213  1  0.66447404  0.67249843  0.16062588  1
  Te  Te214  1  0.66643749  0.67124914  0.49856999  1
  Te  Te215  1  0.66784323  0.66529398  0.83851643  1
