# generated using pymatgen
data_AgSbTe2
_symmetry_space_group_name_H-M   'P 1'
_cell_length_a   18.33748437
_cell_length_b   18.33209039
_cell_length_c   18.33406294
_cell_angle_alpha   90.00040269
_cell_angle_beta   90.00171039
_cell_angle_gamma   90.00517033
_symmetry_Int_Tables_number   1
_chemical_formula_structural   AgSbTe2
_chemical_formula_sum   'Ag54 Sb54 Te108'
_cell_volume   6163.25962764
_cell_formula_units_Z   54
loop_
 _symmetry_equiv_pos_site_id
 _symmetry_equiv_pos_as_xyz
  1  'x, y, z'
loop_
 _atom_site_type_symbol
 _atom_site_label
 _atom_site_symmetry_multiplicity
 _atom_site_fract_x
 _atom_site_fract_y
 _atom_site_fract_z
 _atom_site_occupancy
  Ag  Ag0  1  -0.01241999  0.00335237  0.00090552  1
  Ag  Ag1  1  0.17514972  0.32974053  0.49131434  1
  Ag  Ag2  1  0.50154959  0.17433122  0.00073731  1
  Ag  Ag3  1  0.50385356  0.83110728  0.31972987  1
  Ag  Ag4  1  0.82814110  0.50248752  -0.00341626  1
  Ag  Ag5  1  0.50040539  0.65415352  0.49428977  1
  Ag  Ag6  1  0.66797333  0.33221511  0.33879245  1
  Ag  Ag7  1  0.83581736  0.16964100  0.65569488  1
  Ag  Ag8  1  0.66147950  0.83131998  0.16421632  1
  Ag  Ag9  1  0.66086239  0.49533472  0.50155616  1
  Ag  Ag10  1  -0.00191991  0.66120298  0.33129133  1
  Ag  Ag11  1  0.50833467  -0.01413135  0.16309554  1
  Ag  Ag12  1  0.66944849  -0.00653781  0.00433412  1
  Ag  Ag13  1  -0.00195827  0.17294008  0.83349560  1
  Ag  Ag14  1  0.83486350  0.00778029  0.84280031  1
  Ag  Ag15  1  0.34315799  0.66236750  0.00472116  1
  Ag  Ag16  1  0.83140271  0.83423965  0.66551697  1
  Ag  Ag17  1  -0.00361949  0.49384867  0.83598119  1
  Ag  Ag18  1  0.34330769  0.49475094  0.50022850  1
  Ag  Ag19  1  0.83039594  0.67317076  0.16382220  1
  Ag  Ag20  1  0.82735790  0.83508754  0.00790128  1
  Ag  Ag21  1  0.67904535  0.17732754  0.49890900  1
  Ag  Ag22  1  0.34675114  0.82278896  0.17002825  1
  Ag  Ag23  1  0.33098369  0.17572228  0.50081265  1
  Ag  Ag24  1  0.83727982  0.16882500  0.34146914  1
  Ag  Ag25  1  0.33005412  0.17492167  0.83034983  1
  Ag  Ag26  1  0.82977468  0.83709512  0.32603963  1
  Ag  Ag27  1  0.33442145  0.49505186  0.84056412  1
  Ag  Ag28  1  0.17727421  0.50203052  -0.00044526  1
  Ag  Ag29  1  0.15863400  0.16935374  0.65797187  1
  Ag  Ag30  1  0.49957418  0.67156189  0.16446942  1
  Ag  Ag31  1  0.82683310  0.32816433  0.49830618  1
  Ag  Ag32  1  0.16788755  0.33638974  0.17212687  1
  Ag  Ag33  1  0.00043259  0.33055875  0.33471639  1
  Ag  Ag34  1  0.15682569  0.17361550  0.33996774  1
  Ag  Ag35  1  0.82652370  0.49601342  0.67115679  1
  Ag  Ag36  1  0.33790886  0.82813544  0.49356807  1
  Ag  Ag37  1  -0.00918452  0.17038033  0.49309986  1
  Ag  Ag38  1  0.66809684  0.66355042  0.67069688  1
  Ag  Ag39  1  0.50049028  0.50148875  -0.00193984  1
  Ag  Ag40  1  0.66307698  0.66493739  0.00156506  1
  Ag  Ag41  1  0.50819289  0.82396653  0.00823052  1
  Ag  Ag42  1  0.50234661  0.33607734  0.83516942  1
  Ag  Ag43  1  0.82936068  -0.00527252  0.16153873  1
  Ag  Ag44  1  0.33335523  0.50404079  0.15795747  1
  Ag  Ag45  1  0.16688717  0.66047356  0.84257173  1
  Ag  Ag46  1  0.66506190  0.33630644  0.00390360  1
  Ag  Ag47  1  0.50429975  0.49954991  0.66234718  1
  Ag  Ag48  1  0.50229906  0.33682047  0.49936984  1
  Ag  Ag49  1  0.83087797  0.33107274  0.83108841  1
  Ag  Ag50  1  0.33031353  0.33313250  0.33722770  1
  Ag  Ag51  1  0.17615086  0.66086042  0.16263303  1
  Ag  Ag52  1  0.83186269  0.01449893  0.49853232  1
  Ag  Ag53  1  -0.00158186  0.16812839  0.17282917  1
  Sb  Sb54  1  0.50445279  0.00399410  0.49479811  1
  Sb  Sb55  1  0.16752641  0.49529991  0.67131044  1
  Sb  Sb56  1  0.50637640  0.82364765  0.66678742  1
  Sb  Sb57  1  0.16877768  0.17315502  0.00033744  1
  Sb  Sb58  1  0.50591118  0.00911494  0.84248081  1
  Sb  Sb59  1  0.67078331  -0.00459412  0.67030617  1
  Sb  Sb60  1  -0.00588875  0.00530663  0.67101932  1
  Sb  Sb61  1  0.16838996  0.49196534  0.32672740  1
  Sb  Sb62  1  0.33080620  0.16999036  0.16667042  1
  Sb  Sb63  1  0.33460304  0.00365033  0.33267613  1
  Sb  Sb64  1  0.33878464  0.66363189  0.66989290  1
  Sb  Sb65  1  0.33544618  0.00180380  0.66588038  1
  Sb  Sb66  1  0.49931206  0.50218187  0.33314636  1
  Sb  Sb67  1  0.66309720  0.50370010  0.16509913  1
  Sb  Sb68  1  0.00235584  0.49808416  0.16187312  1
  Sb  Sb69  1  0.33478475  0.33398873  0.65980955  1
  Sb  Sb70  1  0.16671035  0.82593040  0.00260350  1
  Sb  Sb71  1  -0.00481406  0.33133512  0.00231793  1
  Sb  Sb72  1  0.83298128  0.49712684  0.33239227  1
  Sb  Sb73  1  0.83553093  0.33218434  0.16772635  1
  Sb  Sb74  1  0.16457634  0.00081346  0.16548841  1
  Sb  Sb75  1  -0.00127535  0.49277311  0.50300711  1
  Sb  Sb76  1  0.83522113  0.66241665  0.83803195  1
  Sb  Sb77  1  0.82964943  0.16534957  0.00065911  1
  Sb  Sb78  1  0.33560908  0.83025865  0.83699989  1
  Sb  Sb79  1  0.49758920  0.65828580  0.83996411  1
  Sb  Sb80  1  0.50241089  0.16662268  0.33076266  1
  Sb  Sb81  1  0.16197857  0.01023035  0.49912362  1
  Sb  Sb82  1  -0.00629409  0.66411250  0.66361037  1
  Sb  Sb83  1  -0.00399538  0.83253102  0.83559348  1
  Sb  Sb84  1  0.16147486  0.00102210  0.83568840  1
  Sb  Sb85  1  -0.00512511  0.83460273  0.16669308  1
  Sb  Sb86  1  0.16756041  0.83458070  0.33141448  1
  Sb  Sb87  1  0.66981969  0.00291577  0.32848385  1
  Sb  Sb88  1  0.33771527  0.34018980  0.00219752  1
  Sb  Sb89  1  0.67066946  0.16415347  0.16781575  1
  Sb  Sb90  1  0.66772744  0.66397964  0.32977758  1
  Sb  Sb91  1  0.66898456  0.33850418  0.66192907  1
  Sb  Sb92  1  0.16653578  0.33622108  0.83435756  1
  Sb  Sb93  1  0.82857811  0.66283785  0.49675125  1
  Sb  Sb94  1  -0.00134257  0.83958528  0.49638093  1
  Sb  Sb95  1  0.49671218  0.33731590  0.16763489  1
  Sb  Sb96  1  0.16297829  0.83512614  0.66453374  1
  Sb  Sb97  1  -0.00356579  0.33109981  0.66183014  1
  Sb  Sb98  1  -0.00596702  0.00683889  0.32847769  1
  Sb  Sb99  1  0.33762820  -0.00383409  0.00182331  1
  Sb  Sb100  1  0.67180110  0.17069355  0.83076685  1
  Sb  Sb101  1  0.50360183  0.17352961  0.66769068  1
  Sb  Sb102  1  -0.00316905  0.66700837  0.00423267  1
  Sb  Sb103  1  0.33230815  0.66167469  0.32649799  1
  Sb  Sb104  1  0.66841692  0.83337220  0.84340634  1
  Sb  Sb105  1  0.17408848  0.65810950  0.49591992  1
  Sb  Sb106  1  0.66472677  0.83181922  0.49409983  1
  Sb  Sb107  1  0.66583040  0.49793242  0.83226692  1
  Te  Te108  1  0.16305274  0.16935368  0.16887374  1
  Te  Te109  1  0.17162958  0.17060210  0.50009546  1
  Te  Te110  1  0.16620740  0.16801128  0.83177044  1
  Te  Te111  1  0.16901426  0.50088025  0.16184363  1
  Te  Te112  1  0.16810944  0.49157917  0.50268578  1
  Te  Te113  1  0.17019045  0.50127298  0.83603401  1
  Te  Te114  1  0.17047239  0.82806810  0.16752212  1
  Te  Te115  1  0.17346691  0.83393013  0.49978913  1
  Te  Te116  1  0.16689353  0.82652311  0.83189834  1
  Te  Te117  1  0.49996652  0.16648271  0.16204360  1
  Te  Te118  1  0.49204357  0.17051410  0.49970048  1
  Te  Te119  1  0.49685405  0.17427368  0.83521425  1
  Te  Te120  1  0.49557258  0.50509718  0.16345716  1
  Te  Te121  1  0.50108398  0.49816032  0.49702885  1
  Te  Te122  1  0.49673347  0.49593030  0.83665159  1
  Te  Te123  1  0.50138108  0.83087781  0.16354903  1
  Te  Te124  1  0.49711509  0.83629636  0.50127121  1
  Te  Te125  1  0.49907382  0.83610360  0.83743738  1
  Te  Te126  1  0.83759960  0.16357887  0.16834455  1
  Te  Te127  1  0.83483311  0.16998880  0.49929672  1
  Te  Te128  1  0.83638618  0.16926506  0.83473814  1
  Te  Te129  1  0.83341801  0.50402368  0.16178756  1
  Te  Te130  1  0.83168250  0.49591256  0.50361726  1
  Te  Te131  1  0.83366748  0.49806947  0.83346333  1
  Te  Te132  1  0.83375676  0.83394592  0.16657184  1
  Te  Te133  1  0.83296413  0.83130386  0.50057667  1
  Te  Te134  1  0.83335995  0.83609079  0.82974581  1
  Te  Te135  1  0.16324675  -0.00083919  0.00008565  1
  Te  Te136  1  0.16527437  0.00909524  0.33238394  1
  Te  Te137  1  0.16575903  0.00785569  0.66762152  1
  Te  Te138  1  0.16615549  0.34105664  0.00541265  1
  Te  Te139  1  0.16577814  0.33075975  0.33267324  1
  Te  Te140  1  0.16563992  0.32771227  0.66286040  1
  Te  Te141  1  0.16302857  0.66168519  0.00274349  1
  Te  Te142  1  0.16157949  0.66653284  0.32770400  1
  Te  Te143  1  0.16526032  0.66671645  0.66769195  1
  Te  Te144  1  0.50409185  -0.00124888  0.00383502  1
  Te  Te145  1  0.50180604  -0.00660715  0.32634311  1
  Te  Te146  1  0.50299430  -0.00201847  0.66927519  1
  Te  Te147  1  0.50257049  0.33605648  0.00064113  1
  Te  Te148  1  0.50353753  0.33243445  0.33672350  1
  Te  Te149  1  0.50235905  0.33986095  0.66890705  1
  Te  Te150  1  0.50126987  0.66464094  0.00095751  1
  Te  Te151  1  0.49956854  0.67191557  0.33222469  1
  Te  Te152  1  0.50591056  0.65948251  0.66271201  1
  Te  Te153  1  0.82986974  0.00099126  0.00106571  1
  Te  Te154  1  0.83335822  -0.00136704  0.33314386  1
  Te  Te155  1  0.83216962  0.00150772  0.66365845  1
  Te  Te156  1  0.82860895  0.33609119  -0.00130710  1
  Te  Te157  1  0.83276834  0.33135368  0.33452717  1
  Te  Te158  1  0.83231056  0.33377780  0.67031603  1
  Te  Te159  1  0.83120792  0.66735742  0.00205290  1
  Te  Te160  1  0.83529205  0.66796161  0.32921253  1
  Te  Te161  1  0.82871680  0.66382507  0.66645957  1
  Te  Te162  1  0.00158281  0.16451878  -0.00274478  1
  Te  Te163  1  -0.00196776  0.16886622  0.33313765  1
  Te  Te164  1  -0.00252096  0.16697644  0.67118168  1
  Te  Te165  1  -0.00881276  0.49930677  -0.00518878  1
  Te  Te166  1  0.00036147  0.49785887  0.33371835  1
  Te  Te167  1  -0.00409823  0.49981810  0.67444537  1
  Te  Te168  1  -0.00537542  0.83921682  -0.00008750  1
  Te  Te169  1  -0.00401993  0.82995730  0.33400019  1
  Te  Te170  1  -0.00762056  0.83332895  0.66548208  1
  Te  Te171  1  0.33721672  0.16576226  -0.00299320  1
  Te  Te172  1  0.33436591  0.17126434  0.33519109  1
  Te  Te173  1  0.33481131  0.16667170  0.66892589  1
  Te  Te174  1  0.33567950  0.50208420  -0.00013490  1
  Te  Te175  1  0.33315271  0.49444231  0.33932250  1
  Te  Te176  1  0.33684184  0.50066274  0.66503949  1
  Te  Te177  1  0.33472488  0.82753301  0.00444020  1
  Te  Te178  1  0.33503222  0.83342237  0.33260091  1
  Te  Te179  1  0.33281611  0.83323177  0.66200554  1
  Te  Te180  1  0.66145336  0.17152828  -0.00045296  1
  Te  Te181  1  0.67016374  0.17102384  0.33757436  1
  Te  Te182  1  0.67131517  0.16354275  0.66014021  1
  Te  Te183  1  0.66645748  0.50142351  0.00070587  1
  Te  Te184  1  0.66693567  0.49339692  0.33876343  1
  Te  Te185  1  0.66632956  0.50360233  0.66389115  1
  Te  Te186  1  0.66800622  0.83077949  0.00404314  1
  Te  Te187  1  0.66788516  0.83270376  0.32709079  1
  Te  Te188  1  0.67221494  0.82626621  0.66462873  1
  Te  Te189  1  -0.00332141  0.00474966  0.16219592  1
  Te  Te190  1  -0.00593416  0.00750786  0.49988933  1
  Te  Te191  1  -0.00500218  0.00355896  0.83853574  1
  Te  Te192  1  0.00327000  0.33010762  0.17133676  1
  Te  Te193  1  -0.00460874  0.32920346  0.49530208  1
  Te  Te194  1  -0.00160781  0.33341678  0.83496702  1
  Te  Te195  1  -0.00471202  0.66605779  0.17078715  1
  Te  Te196  1  0.00332031  0.66634402  0.49445249  1
  Te  Te197  1  0.00473310  0.66212045  0.83266254  1
  Te  Te198  1  0.33525446  -0.00228395  0.16656181  1
  Te  Te199  1  0.33390423  0.00012992  0.49987835  1
  Te  Te200  1  0.33262495  0.00546027  0.83389615  1
  Te  Te201  1  0.32908041  0.33755387  0.17236939  1
  Te  Te202  1  0.33623582  0.33482454  0.49805659  1
  Te  Te203  1  0.33405634  0.33435238  0.83535066  1
  Te  Te204  1  0.33440893  0.66442441  0.16539193  1
  Te  Te205  1  0.33817494  0.66466222  0.49965024  1
  Te  Te206  1  0.32929697  0.66265360  0.83818381  1
  Te  Te207  1  0.66805436  -0.00186305  0.16300335  1
  Te  Te208  1  0.67143911  0.00201303  0.50024380  1
  Te  Te209  1  0.67411126  0.00206565  0.84146188  1
  Te  Te210  1  0.66611506  0.33386358  0.16613633  1
  Te  Te211  1  0.66597814  0.33430328  0.50050405  1
  Te  Te212  1  0.66639143  0.33263500  0.84050088  1
  Te  Te213  1  0.66698900  0.66903655  0.16389084  1
  Te  Te214  1  0.66100977  0.66394181  0.49842840  1
  Te  Te215  1  0.66606648  0.66710371  0.83509621  1
