# generated using pymatgen
data_AgSbTe2
_symmetry_space_group_name_H-M   'P 1'
_cell_length_a   18.31988562
_cell_length_b   18.32629123
_cell_length_c   18.32057278
_cell_angle_alpha   89.99702993
_cell_angle_beta   90.00303247
_cell_angle_gamma   90.00004197
_symmetry_Int_Tables_number   1
_chemical_formula_structural   AgSbTe2
_chemical_formula_sum   'Ag54 Sb54 Te108'
_cell_volume   6150.86773071
_cell_formula_units_Z   54
loop_
 _symmetry_equiv_pos_site_id
 _symmetry_equiv_pos_as_xyz
  1  'x, y, z'
loop_
 _atom_site_type_symbol
 _atom_site_label
 _atom_site_symmetry_multiplicity
 _atom_site_fract_x
 _atom_site_fract_y
 _atom_site_fract_z
 _atom_site_occupancy
  Ag  Ag0  1  0.33417866  0.67325596  0.00200145  1
  Ag  Ag1  1  0.49530065  0.32813721  0.15829581  1
  Ag  Ag2  1  0.16696928  0.66114318  0.50192101  1
  Ag  Ag3  1  0.82951145  0.15966879  0.33012417  1
  Ag  Ag4  1  0.65756149  0.33021087  0.66789162  1
  Ag  Ag5  1  0.66732716  0.49829481  0.83314084  1
  Ag  Ag6  1  0.33501379  0.32445551  0.67289039  1
  Ag  Ag7  1  0.32480646  0.50719294  0.50218233  1
  Ag  Ag8  1  0.17245623  0.16485255  0.66985839  1
  Ag  Ag9  1  0.33792114  0.67469959  0.34337473  1
  Ag  Ag10  1  0.66629689  0.50335006  0.50168847  1
  Ag  Ag11  1  0.82559148  0.16292246  0.00201495  1
  Ag  Ag12  1  0.49918843  0.32862751  0.83692293  1
  Ag  Ag13  1  0.00153851  0.16189232  0.50424919  1
  Ag  Ag14  1  0.00276023  0.50598202  0.83166823  1
  Ag  Ag15  1  0.65547527  -0.00038363  0.00062215  1
  Ag  Ag16  1  0.83629169  0.66700680  0.49806249  1
  Ag  Ag17  1  0.49550296  0.16167259  -0.00597224  1
  Ag  Ag18  1  0.49169144  0.66632931  0.50015765  1
  Ag  Ag19  1  0.33740945  -0.00080294  0.00117770  1
  Ag  Ag20  1  0.00396202  0.82715671  0.82665158  1
  Ag  Ag21  1  0.33779350  -0.00530093  0.32261335  1
  Ag  Ag22  1  0.17623192  0.17000770  -0.00394050  1
  Ag  Ag23  1  0.33185441  0.00393286  0.67018490  1
  Ag  Ag24  1  0.33787337  0.16274586  0.83432013  1
  Ag  Ag25  1  0.33609977  0.83891904  0.83520918  1
  Ag  Ag26  1  0.00429755  0.67196136  0.66407699  1
  Ag  Ag27  1  0.00188666  0.50075466  0.16181196  1
  Ag  Ag28  1  0.17726904  0.00240004  0.16371793  1
  Ag  Ag29  1  0.16893134  0.33997394  0.50411360  1
  Ag  Ag30  1  0.17479308  0.33195440  0.16453552  1
  Ag  Ag31  1  0.49325721  0.16685149  0.67499448  1
  Ag  Ag32  1  0.66183823  0.00422499  0.67384016  1
  Ag  Ag33  1  0.65600643  0.16567837  0.83298768  1
  Ag  Ag34  1  0.66647137  -0.00076356  0.32787247  1
  Ag  Ag35  1  0.00862451  0.50660761  0.50603124  1
  Ag  Ag36  1  0.16615578  0.49991961  0.66244577  1
  Ag  Ag37  1  0.66749966  0.49945140  0.16512152  1
  Ag  Ag38  1  0.00758037  0.82655503  0.50819142  1
  Ag  Ag39  1  0.66133912  0.83800682  0.83552804  1
  Ag  Ag40  1  0.33386024  0.32398557  -0.00396447  1
  Ag  Ag41  1  0.16686607  0.83594540  0.66498358  1
  Ag  Ag42  1  0.01186531  -0.00865302  0.66551036  1
  Ag  Ag43  1  0.16702108  0.49850299  -0.00222248  1
  Ag  Ag44  1  0.66332498  0.66910622  -0.00009825  1
  Ag  Ag45  1  0.83001002  0.83723145  0.33454462  1
  Ag  Ag46  1  0.32857971  0.82793878  0.50151497  1
  Ag  Ag47  1  0.66355046  0.66596273  0.33571058  1
  Ag  Ag48  1  0.00729318  0.66524054  -0.00772782  1
  Ag  Ag49  1  0.33296915  0.83687688  0.16195543  1
  Ag  Ag50  1  0.66622434  0.33706889  0.33522265  1
  Ag  Ag51  1  0.49827626  0.00335661  0.16135825  1
  Ag  Ag52  1  0.82600488  0.00049027  0.16819082  1
  Ag  Ag53  1  0.49583687  0.84145987  -0.00149763  1
  Sb  Sb54  1  0.00243970  0.16611059  0.83023364  1
  Sb  Sb55  1  0.49977484  0.66736523  0.16726841  1
  Sb  Sb56  1  0.49721363  -0.00392325  0.49694985  1
  Sb  Sb57  1  0.16609261  0.66648680  0.82841932  1
  Sb  Sb58  1  0.83111383  0.32973036  0.16725041  1
  Sb  Sb59  1  -0.00378319  0.33384364  0.33446521  1
  Sb  Sb60  1  -0.00075051  0.66712835  0.33895710  1
  Sb  Sb61  1  0.00663650  0.33407266  0.66562178  1
  Sb  Sb62  1  0.50034167  0.83361703  0.32979526  1
  Sb  Sb63  1  0.82602127  0.33256045  0.83389071  1
  Sb  Sb64  1  0.00468072  0.83077928  0.16502367  1
  Sb  Sb65  1  0.83853930  0.83432097  0.66264820  1
  Sb  Sb66  1  0.66102857  0.83407753  0.16383932  1
  Sb  Sb67  1  0.82894596  0.83632602  0.00355839  1
  Sb  Sb68  1  0.83802203  0.50017077  0.66567657  1
  Sb  Sb69  1  0.83190725  0.67086340  0.17019095  1
  Sb  Sb70  1  0.83574227  0.49766341  0.00071103  1
  Sb  Sb71  1  0.66584961  0.16642590  0.16090405  1
  Sb  Sb72  1  0.16644693  0.49996849  0.33592781  1
  Sb  Sb73  1  0.50019360  0.66339548  0.83129193  1
  Sb  Sb74  1  0.65874470  0.33186970  -0.00116624  1
  Sb  Sb75  1  0.32921294  0.16606931  0.50822932  1
  Sb  Sb76  1  0.49333090  0.84063035  0.67257649  1
  Sb  Sb77  1  0.17378946  0.83213050  -0.00487084  1
  Sb  Sb78  1  0.33299685  0.50292986  0.16853008  1
  Sb  Sb79  1  0.66478512  0.82895412  0.50315243  1
  Sb  Sb80  1  0.83324273  -0.00422063  0.49586922  1
  Sb  Sb81  1  0.16611219  0.16552502  0.33523103  1
  Sb  Sb82  1  0.49580946  0.49878111  -0.00051900  1
  Sb  Sb83  1  0.50188186  0.50102369  0.33375130  1
  Sb  Sb84  1  0.16781507  -0.00037946  0.50136330  1
  Sb  Sb85  1  0.49593079  0.49547416  0.66582418  1
  Sb  Sb86  1  0.49713429  0.33668312  0.50139228  1
  Sb  Sb87  1  0.50350489  0.16477995  0.33168086  1
  Sb  Sb88  1  0.83344845  0.16479474  0.66743507  1
  Sb  Sb89  1  0.33177438  0.50064516  0.83173517  1
  Sb  Sb90  1  0.17286380  0.33356649  0.83215170  1
  Sb  Sb91  1  0.33322733  0.15871496  0.15755465  1
  Sb  Sb92  1  0.00147050  0.16904477  0.16752157  1
  Sb  Sb93  1  0.16846080  0.83380903  0.33888574  1
  Sb  Sb94  1  0.16817067  0.66542863  0.16902416  1
  Sb  Sb95  1  0.67006868  0.17009958  0.50356575  1
  Sb  Sb96  1  0.83461251  0.66807959  0.83111862  1
  Sb  Sb97  1  0.66970400  0.66648304  0.66627600  1
  Sb  Sb98  1  0.17099422  -0.00028389  0.83436315  1
  Sb  Sb99  1  0.33724438  0.33165586  0.33329875  1
  Sb  Sb100  1  0.82938949  -0.00037585  0.83742050  1
  Sb  Sb101  1  0.82979868  0.50218618  0.33447919  1
  Sb  Sb102  1  0.00879299  0.33772371  -0.00088451  1
  Sb  Sb103  1  0.49951303  0.00746734  0.84055724  1
  Sb  Sb104  1  0.00311260  -0.00422102  -0.00424918  1
  Sb  Sb105  1  0.83570722  0.33693443  0.49992078  1
  Sb  Sb106  1  -0.00009452  -0.00106403  0.33606238  1
  Sb  Sb107  1  0.32874179  0.66914722  0.66440943  1
  Te  Te108  1  0.16637524  0.16887223  0.16414798  1
  Te  Te109  1  0.16181588  0.16974721  0.50334307  1
  Te  Te110  1  0.17043259  0.16723456  0.83318729  1
  Te  Te111  1  0.16476165  0.49742862  0.16393995  1
  Te  Te112  1  0.16674132  0.49916874  0.49999763  1
  Te  Te113  1  0.16347468  0.49982723  0.83439829  1
  Te  Te114  1  0.17186546  0.83738933  0.16748584  1
  Te  Te115  1  0.16728398  0.83353144  0.50431496  1
  Te  Te116  1  0.16613348  0.83324369  0.82610678  1
  Te  Te117  1  0.49980022  0.16764008  0.16253800  1
  Te  Te118  1  0.50020719  0.16730227  0.50670336  1
  Te  Te119  1  0.49892274  0.16978176  0.83293262  1
  Te  Te120  1  0.50561267  0.49494315  0.16657020  1
  Te  Te121  1  0.50467056  0.50459225  0.50041485  1
  Te  Te122  1  0.50594183  0.49306865  0.83225648  1
  Te  Te123  1  0.49371968  0.83621435  0.16056456  1
  Te  Te124  1  0.49424457  0.82796568  0.50178966  1
  Te  Te125  1  0.50045303  0.82977951  0.83854362  1
  Te  Te126  1  0.83459112  0.16211041  0.16601004  1
  Te  Te127  1  0.84011125  0.16763433  0.49765324  1
  Te  Te128  1  0.83110325  0.16642360  0.83933238  1
  Te  Te129  1  0.83244007  0.49939692  0.16713430  1
  Te  Te130  1  0.83055529  0.50494038  0.49941301  1
  Te  Te131  1  0.83023462  0.50021353  0.83351784  1
  Te  Te132  1  0.83577209  0.83954040  0.17240280  1
  Te  Te133  1  0.83465718  0.82871923  0.49575808  1
  Te  Te134  1  0.83217455  0.83303217  0.83409803  1
  Te  Te135  1  0.16998908  0.00244852  0.00361593  1
  Te  Te136  1  0.17201563  0.00111260  0.32584211  1
  Te  Te137  1  0.16894707  0.00139961  0.66681634  1
  Te  Te138  1  0.17320386  0.33300701  0.00054064  1
  Te  Te139  1  0.16759113  0.33175342  0.32963273  1
  Te  Te140  1  0.17090323  0.33246055  0.66517187  1
  Te  Te141  1  0.16729108  0.66399046  0.00182741  1
  Te  Te142  1  0.17365411  0.66723502  0.33933673  1
  Te  Te143  1  0.16315687  0.66449757  0.66233688  1
  Te  Te144  1  0.49907153  0.00107623  0.00276449  1
  Te  Te145  1  0.50071123  -0.00009236  0.32634956  1
  Te  Te146  1  0.50062856  0.00551412  0.66390548  1
  Te  Te147  1  0.49362086  0.33262521  -0.00004748  1
  Te  Te148  1  0.50638023  0.33081310  0.32889862  1
  Te  Te149  1  0.49710531  0.32948311  0.66691896  1
  Te  Te150  1  0.50174457  0.66772850  -0.00056628  1
  Te  Te151  1  0.50055157  0.66762527  0.33717030  1
  Te  Te152  1  0.50056616  0.66771275  0.66054717  1
  Te  Te153  1  0.83524147  0.00393113  0.00604593  1
  Te  Te154  1  0.83215921  -0.00057746  0.33011209  1
  Te  Te155  1  0.82431778  0.00065956  0.66580892  1
  Te  Te156  1  0.83500755  0.32430063  0.00146525  1
  Te  Te157  1  0.82485864  0.32591051  0.33295526  1
  Te  Te158  1  0.82038983  0.33228630  0.66606525  1
  Te  Te159  1  0.82618338  0.66688793  0.00145750  1
  Te  Te160  1  0.82851489  0.67132527  0.33729509  1
  Te  Te161  1  0.84181963  0.66713239  0.65964303  1
  Te  Te162  1  0.00500705  0.16596632  -0.00214713  1
  Te  Te163  1  -0.00544521  0.16672228  0.33960319  1
  Te  Te164  1  0.00355544  0.16554401  0.66419654  1
  Te  Te165  1  0.00229004  0.50431088  -0.00236700  1
  Te  Te166  1  -0.00217240  0.50013132  0.33369860  1
  Te  Te167  1  0.00415718  0.50040631  0.66681544  1
  Te  Te168  1  0.00049254  0.82626737  -0.00443647  1
  Te  Te169  1  -0.00449082  0.83306241  0.33596442  1
  Te  Te170  1  0.00160436  0.83380347  0.66700383  1
  Te  Te171  1  0.33433566  0.16476347  -0.00392302  1
  Te  Te172  1  0.33479339  0.15937293  0.33776449  1
  Te  Te173  1  0.33269833  0.16578200  0.67005552  1
  Te  Te174  1  0.32754914  0.50382237  0.00049061  1
  Te  Te175  1  0.33450967  0.50407624  0.33917605  1
  Te  Te176  1  0.32813476  0.49923862  0.66381698  1
  Te  Te177  1  0.33402218  0.83489797  -0.00311620  1
  Te  Te178  1  0.33402501  0.83437350  0.33639641  1
  Te  Te179  1  0.32950403  0.83593993  0.66978638  1
  Te  Te180  1  0.66353190  0.16435946  -0.00442828  1
  Te  Te181  1  0.66975849  0.16106809  0.33497038  1
  Te  Te182  1  0.66708047  0.16551209  0.67046625  1
  Te  Te183  1  0.66772011  0.50118929  -0.00028909  1
  Te  Te184  1  0.66750632  0.50303438  0.33411480  1
  Te  Te185  1  0.66687502  0.49899847  0.66769839  1
  Te  Te186  1  0.66376359  0.83491125  -0.00204705  1
  Te  Te187  1  0.66750797  0.83386491  0.33307540  1
  Te  Te188  1  0.66568957  0.83650049  0.67260138  1
  Te  Te189  1  0.00166006  -0.00038744  0.16609196  1
  Te  Te190  1  0.00042652  -0.00222767  0.50461080  1
  Te  Te191  1  -0.00187315  -0.00389381  0.82620644  1
  Te  Te192  1  0.00400473  0.33968591  0.16691419  1
  Te  Te193  1  0.00479772  0.34095982  0.49990105  1
  Te  Te194  1  -0.00288041  0.34041688  0.83180904  1
  Te  Te195  1  -0.00000345  0.66162950  0.16438434  1
  Te  Te196  1  0.00325557  0.66675098  0.49954346  1
  Te  Te197  1  0.00008963  0.66634982  0.83294877  1
  Te  Te198  1  0.33552947  -0.00243316  0.16444443  1
  Te  Te199  1  0.33274036  -0.00539157  0.50461553  1
  Te  Te200  1  0.33437276  -0.00070881  0.83203983  1
  Te  Te201  1  0.33420107  0.33514032  0.16684416  1
  Te  Te202  1  0.32961699  0.33701100  0.49974523  1
  Te  Te203  1  0.33798366  0.33427654  0.83297884  1
  Te  Te204  1  0.33426839  0.67165772  0.16351830  1
  Te  Te205  1  0.33208587  0.66725679  0.50198179  1
  Te  Te206  1  0.33414426  0.66971926  0.84009033  1
  Te  Te207  1  0.66508588  -0.00043724  0.16514683  1
  Te  Te208  1  0.66554742  -0.00086971  0.49664666  1
  Te  Te209  1  0.66568646  -0.00070581  0.83545295  1
  Te  Te210  1  0.66403953  0.33638890  0.16876574  1
  Te  Te211  1  0.66589938  0.33814773  0.49953854  1
  Te  Te212  1  0.66132338  0.33311602  0.83151821  1
  Te  Te213  1  0.66594161  0.66343946  0.16750876  1
  Te  Te214  1  0.66888167  0.66464016  0.49888865  1
  Te  Te215  1  0.66746081  0.66543148  0.83608531  1
