# generated using pymatgen
data_AgSbTe2
_symmetry_space_group_name_H-M   'P 1'
_cell_length_a   18.35702951
_cell_length_b   18.35140412
_cell_length_c   18.36270274
_cell_angle_alpha   90.00326502
_cell_angle_beta   90.00117361
_cell_angle_gamma   90.00216687
_symmetry_Int_Tables_number   1
_chemical_formula_structural   AgSbTe2
_chemical_formula_sum   'Ag54 Sb54 Te108'
_cell_volume   6185.97709683
_cell_formula_units_Z   54
loop_
 _symmetry_equiv_pos_site_id
 _symmetry_equiv_pos_as_xyz
  1  'x, y, z'
loop_
 _atom_site_type_symbol
 _atom_site_label
 _atom_site_symmetry_multiplicity
 _atom_site_fract_x
 _atom_site_fract_y
 _atom_site_fract_z
 _atom_site_occupancy
  Ag  Ag0  1  0.50325334  0.83070844  0.00281804  1
  Ag  Ag1  1  -0.01021148  0.66470666  0.33652367  1
  Ag  Ag2  1  0.67044326  0.33266087  0.34036440  1
  Ag  Ag3  1  -0.01112016  0.17193125  0.50449585  1
  Ag  Ag4  1  0.33907743  0.66944663  0.66794662  1
  Ag  Ag5  1  0.67004672  0.66619789  0.33673209  1
  Ag  Ag6  1  0.50597711  0.15998383  0.34385103  1
  Ag  Ag7  1  0.67143968  0.82912185  0.16689251  1
  Ag  Ag8  1  -0.00999506  0.00008134  0.34191496  1
  Ag  Ag9  1  -0.00211053  0.00920875  0.66106669  1
  Ag  Ag10  1  0.83557484  0.17714399  0.66916354  1
  Ag  Ag11  1  0.66964243  0.33389889  0.00064419  1
  Ag  Ag12  1  -0.00031398  0.82707094  0.83579528  1
  Ag  Ag13  1  0.83364447  0.49706802  0.33285213  1
  Ag  Ag14  1  0.83259066  0.33584179  0.17338949  1
  Ag  Ag15  1  0.83169075  0.33773676  0.49917883  1
  Ag  Ag16  1  -0.01229047  0.33804898  -0.00174662  1
  Ag  Ag17  1  0.83301773  0.49501650  0.00701813  1
  Ag  Ag18  1  0.83500184  -0.00224714  0.83534486  1
  Ag  Ag19  1  -0.00562787  0.16401620  0.81928826  1
  Ag  Ag20  1  0.83480691  0.49521225  0.65968383  1
  Ag  Ag21  1  0.34342040  0.83202688  0.16303893  1
  Ag  Ag22  1  -0.01034911  0.66358333  -0.01024494  1
  Ag  Ag23  1  0.67033139  0.66591464  0.00018436  1
  Ag  Ag24  1  -0.01028613  0.66598362  0.67141304  1
  Ag  Ag25  1  -0.00754786  0.49430519  0.49715045  1
  Ag  Ag26  1  0.33370864  0.83029317  0.83542555  1
  Ag  Ag27  1  0.14949812  0.66888075  0.82999310  1
  Ag  Ag28  1  0.83180530  0.00544477  0.16359285  1
  Ag  Ag29  1  0.50436694  0.16891916  0.66327527  1
  Ag  Ag30  1  0.67180068  0.33477309  0.65832653  1
  Ag  Ag31  1  -0.01200959  0.32173048  0.66330318  1
  Ag  Ag32  1  0.15055186  0.16540806  0.66494706  1
  Ag  Ag33  1  0.67376646  0.50586454  0.16755534  1
  Ag  Ag34  1  0.51209166  0.66670267  0.50375933  1
  Ag  Ag35  1  0.83138408  0.65742393  0.50793488  1
  Ag  Ag36  1  0.34580279  0.33254034  0.00044644  1
  Ag  Ag37  1  0.50242680  0.00784527  0.50046374  1
  Ag  Ag38  1  -0.00984092  0.82778342  0.16459685  1
  Ag  Ag39  1  0.34677345  0.66901079  0.34262858  1
  Ag  Ag40  1  0.50608470  0.66776225  0.82518956  1
  Ag  Ag41  1  -0.00846442  0.50612955  0.17308414  1
  Ag  Ag42  1  0.67137782  -0.00459329  0.00878186  1
  Ag  Ag43  1  0.51353361  0.32324483  0.50464308  1
  Ag  Ag44  1  0.32649684  -0.00292977  0.66574787  1
  Ag  Ag45  1  0.50283164  0.33423061  0.82659300  1
  Ag  Ag46  1  0.15918123  0.00330723  0.50315895  1
  Ag  Ag47  1  0.66955992  0.17228880  0.50082335  1
  Ag  Ag48  1  0.67046084  0.00030035  0.33108657  1
  Ag  Ag49  1  0.67275365  0.66155341  0.66087925  1
  Ag  Ag50  1  0.83231374  0.67159264  0.82638880  1
  Ag  Ag51  1  0.50432542  0.83168895  0.33063870  1
  Ag  Ag52  1  -0.01146274  0.33851107  0.34290030  1
  Ag  Ag53  1  0.83172142  0.17663522  -0.00777392  1
  Sb  Sb54  1  0.33797358  -0.00550022  0.33762199  1
  Sb  Sb55  1  0.33614657  0.83400762  0.50114675  1
  Sb  Sb56  1  0.34300598  0.00073173  -0.00367012  1
  Sb  Sb57  1  0.16635184  0.33673304  0.83171327  1
  Sb  Sb58  1  0.15705845  0.50128555  -0.00151743  1
  Sb  Sb59  1  0.16514414  0.83529424  0.66779488  1
  Sb  Sb60  1  0.50454856  0.67023677  0.16847038  1
  Sb  Sb61  1  0.16221953  0.66789932  0.16460998  1
  Sb  Sb62  1  0.67111571  0.50039665  0.83681877  1
  Sb  Sb63  1  -0.00846052  -0.00174219  -0.00157193  1
  Sb  Sb64  1  0.83463581  0.83193326  0.66847574  1
  Sb  Sb65  1  0.16418770  0.16487409  0.34041362  1
  Sb  Sb66  1  0.82994935  0.82977310  0.33000395  1
  Sb  Sb67  1  0.50735869  -0.00331158  0.17282369  1
  Sb  Sb68  1  0.50788367  0.50299226  -0.00113135  1
  Sb  Sb69  1  0.33836976  0.33356351  0.66856422  1
  Sb  Sb70  1  0.16157034  0.67044526  0.50347378  1
  Sb  Sb71  1  0.67369302  0.16830808  0.82784132  1
  Sb  Sb72  1  0.34207726  0.33746686  0.33072496  1
  Sb  Sb73  1  0.67570639  0.49746904  0.49586143  1
  Sb  Sb74  1  0.16734710  0.83286666  -0.00146370  1
  Sb  Sb75  1  0.15737429  0.49977673  0.66698728  1
  Sb  Sb76  1  0.49950336  0.83229654  0.66556811  1
  Sb  Sb77  1  0.15447156  0.33354532  0.16680081  1
  Sb  Sb78  1  0.82933150  0.82990013  0.00247436  1
  Sb  Sb79  1  0.15531759  0.16856414  -0.00678934  1
  Sb  Sb80  1  0.15749447  -0.00226625  0.17203204  1
  Sb  Sb81  1  0.83004162  0.33391306  0.83167944  1
  Sb  Sb82  1  -0.00619751  0.50138683  0.83134881  1
  Sb  Sb83  1  0.83089181  0.00485837  0.49989129  1
  Sb  Sb84  1  0.67097255  0.00152836  0.66372286  1
  Sb  Sb85  1  0.50865856  0.49964946  0.66467323  1
  Sb  Sb86  1  0.15716893  0.32807118  0.50200965  1
  Sb  Sb87  1  0.33828594  0.16593718  0.50225534  1
  Sb  Sb88  1  0.50903581  0.16623419  -0.00274368  1
  Sb  Sb89  1  0.82983118  0.17243473  0.33862923  1
  Sb  Sb90  1  0.83288856  0.66000330  0.16645687  1
  Sb  Sb91  1  -0.00234006  0.83371049  0.50035931  1
  Sb  Sb92  1  0.66777806  0.82936449  0.83864338  1
  Sb  Sb93  1  0.33696822  0.16310606  0.16593599  1
  Sb  Sb94  1  0.32985814  0.50199657  0.49963629  1
  Sb  Sb95  1  0.33643869  0.50515388  0.83404763  1
  Sb  Sb96  1  0.15876795  -0.00362707  0.82784940  1
  Sb  Sb97  1  0.50418444  -0.00106092  0.82823470  1
  Sb  Sb98  1  0.33036365  0.16333505  0.83076607  1
  Sb  Sb99  1  0.33697984  0.66519897  -0.00357326  1
  Sb  Sb100  1  0.16754128  0.83205577  0.33347776  1
  Sb  Sb101  1  0.33556993  0.50440175  0.16629900  1
  Sb  Sb102  1  -0.00561571  0.16703343  0.16989716  1
  Sb  Sb103  1  0.51049276  0.33285696  0.16815965  1
  Sb  Sb104  1  0.67113176  0.16623340  0.17260435  1
  Sb  Sb105  1  0.15499507  0.50114224  0.33377607  1
  Sb  Sb106  1  0.66516467  0.83222848  0.49451765  1
  Sb  Sb107  1  0.50989872  0.50361669  0.33610070  1
  Te  Te108  1  0.16900741  0.16545131  0.16495025  1
  Te  Te109  1  0.16567485  0.16183589  0.50585701  1
  Te  Te110  1  0.15971262  0.16645020  0.82631094  1
  Te  Te111  1  0.15872228  0.49967803  0.16557452  1
  Te  Te112  1  0.15677098  0.49957448  0.50039970  1
  Te  Te113  1  0.16878591  0.51017158  0.83347273  1
  Te  Te114  1  0.16510303  0.83514892  0.16584272  1
  Te  Te115  1  0.16824013  0.84412317  0.49992161  1
  Te  Te116  1  0.16684166  0.82826496  0.83337837  1
  Te  Te117  1  0.49972999  0.16519475  0.17192680  1
  Te  Te118  1  0.50147179  0.16851455  0.50025363  1
  Te  Te119  1  0.49837418  0.17033418  0.82872210  1
  Te  Te120  1  0.50642024  0.49891070  0.16678923  1
  Te  Te121  1  0.49445190  0.50874263  0.50037051  1
  Te  Te122  1  0.50068154  0.49830011  0.83257857  1
  Te  Te123  1  0.50228391  0.83489643  0.16648826  1
  Te  Te124  1  0.49937332  0.82623494  0.49462481  1
  Te  Te125  1  0.49788079  0.83192651  0.83563309  1
  Te  Te126  1  0.83361755  0.16693952  0.15744892  1
  Te  Te127  1  0.83025154  0.16878566  0.50462581  1
  Te  Te128  1  0.83645638  0.16478801  0.83051579  1
  Te  Te129  1  0.83367740  0.49677097  0.16725034  1
  Te  Te130  1  0.83654327  0.49819276  0.49939910  1
  Te  Te131  1  0.83338118  0.51187014  0.83353549  1
  Te  Te132  1  0.83140929  0.84252460  0.16739987  1
  Te  Te133  1  0.83284493  0.82072131  0.49887029  1
  Te  Te134  1  0.83811767  0.83359066  0.83441679  1
  Te  Te135  1  0.17035517  0.00288532  0.00149082  1
  Te  Te136  1  0.16337813  -0.00020581  0.34062544  1
  Te  Te137  1  0.16548693  0.00284484  0.66487575  1
  Te  Te138  1  0.16630958  0.33280709  -0.00000238  1
  Te  Te139  1  0.16679224  0.33301512  0.33312684  1
  Te  Te140  1  0.16903374  0.32828076  0.66660480  1
  Te  Te141  1  0.16370825  0.66696521  -0.00640898  1
  Te  Te142  1  0.16460636  0.66658270  0.33424072  1
  Te  Te143  1  0.17140017  0.66624886  0.66976322  1
  Te  Te144  1  0.50996619  -0.00345407  -0.00045991  1
  Te  Te145  1  0.50254287  -0.00161376  0.33808019  1
  Te  Te146  1  0.50273059  0.00129687  0.66207673  1
  Te  Te147  1  0.50498309  0.33389938  -0.00229364  1
  Te  Te148  1  0.50768494  0.33306385  0.33724742  1
  Te  Te149  1  0.50259809  0.33355448  0.66555074  1
  Te  Te150  1  0.50447399  0.67016566  -0.00076606  1
  Te  Te151  1  0.50401662  0.66906996  0.33514703  1
  Te  Te152  1  0.50054576  0.66586451  0.66473202  1
  Te  Te153  1  0.82931195  -0.00214933  -0.00048032  1
  Te  Te154  1  0.83200571  0.00201622  0.33271276  1
  Te  Te155  1  0.83878089  0.00054261  0.66833636  1
  Te  Te156  1  0.83140444  0.33512738  -0.00878534  1
  Te  Te157  1  0.83229967  0.33182060  0.33394601  1
  Te  Te158  1  0.83219845  0.33577559  0.66984043  1
  Te  Te159  1  0.83215272  0.66420209  0.00164239  1
  Te  Te160  1  0.83098267  0.66315270  0.33153118  1
  Te  Te161  1  0.83033636  0.66830251  0.66699718  1
  Te  Te162  1  -0.00736317  0.16962662  0.00106706  1
  Te  Te163  1  0.00104808  0.16438003  0.33940575  1
  Te  Te164  1  -0.00499180  0.16577377  0.66467964  1
  Te  Te165  1  -0.00538584  0.50112296  0.00153181  1
  Te  Te166  1  -0.00584337  0.49808011  0.33374019  1
  Te  Te167  1  -0.00506807  0.50742462  0.66354847  1
  Te  Te168  1  0.00210852  0.82907389  0.00074093  1
  Te  Te169  1  0.00004358  0.83351618  0.32961123  1
  Te  Te170  1  0.00128567  0.82412858  0.67087833  1
  Te  Te171  1  0.33431216  0.17102606  -0.00091284  1
  Te  Te172  1  0.33891534  0.16775627  0.33295465  1
  Te  Te173  1  0.34388221  0.16500112  0.66758869  1
  Te  Te174  1  0.33197643  0.49342521  0.00219172  1
  Te  Te175  1  0.33177591  0.50734965  0.33051420  1
  Te  Te176  1  0.32965018  0.50527565  0.66673139  1
  Te  Te177  1  0.33816884  0.83400660  -0.00040077  1
  Te  Te178  1  0.33717079  0.82822125  0.33039322  1
  Te  Te179  1  0.33366261  0.83335374  0.67058739  1
  Te  Te180  1  0.67084256  0.16795972  -0.00197259  1
  Te  Te181  1  0.66510248  0.16752752  0.33811128  1
  Te  Te182  1  0.66606557  0.16749947  0.66175463  1
  Te  Te183  1  0.67051664  0.50171923  0.00501418  1
  Te  Te184  1  0.67205006  0.50099801  0.32837974  1
  Te  Te185  1  0.67359487  0.49998622  0.66729049  1
  Te  Te186  1  0.66353956  0.83137161  0.00377634  1
  Te  Te187  1  0.66437908  0.83284963  0.32931031  1
  Te  Te188  1  0.66602636  0.82564864  0.66718473  1
  Te  Te189  1  -0.00644163  -0.00481772  0.16835093  1
  Te  Te190  1  -0.00241107  0.00053347  0.50084169  1
  Te  Te191  1  -0.00444184  -0.00160066  0.83172201  1
  Te  Te192  1  -0.00731936  0.33466091  0.16305262  1
  Te  Te193  1  -0.00426241  0.33224144  0.50242810  1
  Te  Te194  1  0.00229005  0.33108390  0.83241943  1
  Te  Te195  1  0.00053963  0.66802097  0.17249023  1
  Te  Te196  1  -0.00137184  0.66743978  0.49603309  1
  Te  Te197  1  -0.00575704  0.66572299  0.83390722  1
  Te  Te198  1  0.33113240  -0.00700710  0.16691693  1
  Te  Te199  1  0.34121799  -0.00009037  0.50576262  1
  Te  Te200  1  0.33426645  -0.00589039  0.82753116  1
  Te  Te201  1  0.33254609  0.33365150  0.16269681  1
  Te  Te202  1  0.33680493  0.33526728  0.49687912  1
  Te  Te203  1  0.33699630  0.33262170  0.83799419  1
  Te  Te204  1  0.33145080  0.67107857  0.16694799  1
  Te  Te205  1  0.32868998  0.66756321  0.50125211  1
  Te  Te206  1  0.34680409  0.67039930  0.83182277  1
  Te  Te207  1  0.67109434  -0.00081300  0.16870369  1
  Te  Te208  1  0.66266386  0.00093910  0.49584474  1
  Te  Te209  1  0.67317626  -0.00084852  0.83384476  1
  Te  Te210  1  0.67274936  0.33348243  0.16346714  1
  Te  Te211  1  0.66926283  0.33492297  0.50088848  1
  Te  Te212  1  0.66188507  0.33318635  0.83611996  1
  Te  Te213  1  0.66606473  0.66797204  0.16590886  1
  Te  Te214  1  0.66918111  0.66601562  0.49880145  1
  Te  Te215  1  0.66573555  0.66685034  0.83586085  1
