# generated using pymatgen
data_AgSbTe2
_symmetry_space_group_name_H-M   'P 1'
_cell_length_a   18.31484269
_cell_length_b   18.31017540
_cell_length_c   18.30850502
_cell_angle_alpha   89.99742967
_cell_angle_beta   90.00026662
_cell_angle_gamma   89.99982475
_symmetry_Int_Tables_number   1
_chemical_formula_structural   AgSbTe2
_chemical_formula_sum   'Ag54 Sb54 Te108'
_cell_volume   6139.72020629
_cell_formula_units_Z   54
loop_
 _symmetry_equiv_pos_site_id
 _symmetry_equiv_pos_as_xyz
  1  'x, y, z'
loop_
 _atom_site_type_symbol
 _atom_site_label
 _atom_site_symmetry_multiplicity
 _atom_site_fract_x
 _atom_site_fract_y
 _atom_site_fract_z
 _atom_site_occupancy
  Ag  Ag0  1  0.33149087  0.49860941  0.83379265  1
  Ag  Ag1  1  0.49988084  -0.00758355  0.82923930  1
  Ag  Ag2  1  0.49075541  0.32770887  0.49808129  1
  Ag  Ag3  1  0.16469699  0.16983306  0.66186665  1
  Ag  Ag4  1  -0.00009060  0.66172599  -0.00239994  1
  Ag  Ag5  1  0.49448055  -0.00117222  0.50391853  1
  Ag  Ag6  1  0.83608773  0.66924409  0.50226823  1
  Ag  Ag7  1  0.84274330  0.33108409  0.84164822  1
  Ag  Ag8  1  -0.00147525  0.16481382  0.83346397  1
  Ag  Ag9  1  0.00261090  0.50355350  0.50267995  1
  Ag  Ag10  1  0.49831851  0.32760514  0.16135973  1
  Ag  Ag11  1  0.83469590  0.00839071  0.16354990  1
  Ag  Ag12  1  0.66107783  0.66898955  0.33833581  1
  Ag  Ag13  1  0.16592915  0.33099719  0.15897367  1
  Ag  Ag14  1  0.83957770  0.48731642  -0.00184975  1
  Ag  Ag15  1  0.16432513  0.33414973  0.83536894  1
  Ag  Ag16  1  -0.00072984  0.00411798  -0.00808178  1
  Ag  Ag17  1  0.00440492  0.32531248  0.33038646  1
  Ag  Ag18  1  0.83273798  0.17467615  -0.00253525  1
  Ag  Ag19  1  0.16808225  0.49334482  0.66717188  1
  Ag  Ag20  1  0.49809278  0.67425111  0.83670163  1
  Ag  Ag21  1  0.66518133  0.66366208  -0.00001642  1
  Ag  Ag22  1  0.83443871  0.32699515  0.15438091  1
  Ag  Ag23  1  0.32940144  0.33584545  -0.00312001  1
  Ag  Ag24  1  -0.00751239  0.33277470  -0.00062497  1
  Ag  Ag25  1  0.16935371  0.32826347  0.50598377  1
  Ag  Ag26  1  0.33502155  0.65875683  -0.00496272  1
  Ag  Ag27  1  0.00006329  0.83274621  0.50724670  1
  Ag  Ag28  1  0.33615389  0.67208944  0.34099009  1
  Ag  Ag29  1  -0.00106142  -0.00305581  0.66660607  1
  Ag  Ag30  1  0.32895790  0.16762041  0.49833587  1
  Ag  Ag31  1  0.16767114  0.00537693  0.50236702  1
  Ag  Ag32  1  0.16403219  0.83520877  0.66402595  1
  Ag  Ag33  1  0.66612056  0.16906379  0.16275770  1
  Ag  Ag34  1  0.16768166  0.16890302  0.34260834  1
  Ag  Ag35  1  0.32953201  0.00117802  0.33787702  1
  Ag  Ag36  1  0.16312607  0.49433412  -0.00746092  1
  Ag  Ag37  1  0.32830476  0.33604006  0.66842729  1
  Ag  Ag38  1  0.66679204  0.83053286  0.50870590  1
  Ag  Ag39  1  0.50135707  0.83474016  -0.01060205  1
  Ag  Ag40  1  0.84150381  0.16172967  0.67150468  1
  Ag  Ag41  1  -0.00405838  0.84028686  0.82590404  1
  Ag  Ag42  1  0.83448369  0.83894668  0.66581271  1
  Ag  Ag43  1  0.66411574  0.83369426  0.82653844  1
  Ag  Ag44  1  0.33550644  0.17032735  0.16804338  1
  Ag  Ag45  1  0.67999278  0.33445924  0.00088419  1
  Ag  Ag46  1  0.16468159  0.66641482  0.50301841  1
  Ag  Ag47  1  0.00605949  0.00413923  0.34160107  1
  Ag  Ag48  1  0.67038478  0.50889530  0.50155803  1
  Ag  Ag49  1  0.67155562  -0.00423441  0.66614377  1
  Ag  Ag50  1  0.50369212  0.16860194  0.00059941  1
  Ag  Ag51  1  0.50028103  0.83440267  0.34142337  1
  Ag  Ag52  1  0.33056391  0.66396112  0.66651887  1
  Ag  Ag53  1  0.50432036  0.83691962  0.66890633  1
  Sb  Sb54  1  0.33237168  0.49285315  0.16096067  1
  Sb  Sb55  1  0.33069066  0.00351059  0.00311723  1
  Sb  Sb56  1  0.00688206  0.16392855  0.50532022  1
  Sb  Sb57  1  0.83425895  0.49893361  0.33134477  1
  Sb  Sb58  1  0.33706146  0.82862897  0.83072372  1
  Sb  Sb59  1  0.00837289  0.32676538  0.66944101  1
  Sb  Sb60  1  0.49889687  0.49747785  -0.00158561  1
  Sb  Sb61  1  0.16655014  0.00423358  0.82733626  1
  Sb  Sb62  1  0.49366074  0.16305314  0.33012799  1
  Sb  Sb63  1  0.66181889  0.16415715  0.49782404  1
  Sb  Sb64  1  0.66340489  0.50370183  0.83070557  1
  Sb  Sb65  1  0.49890337  0.66452761  0.16262947  1
  Sb  Sb66  1  0.50289314  0.00474095  0.16682763  1
  Sb  Sb67  1  0.49726233  0.16164395  0.67045588  1
  Sb  Sb68  1  0.66912318  0.33605064  0.32993393  1
  Sb  Sb69  1  0.66159065  0.67431962  0.66641958  1
  Sb  Sb70  1  0.16939644  0.83849267  0.34180285  1
  Sb  Sb71  1  0.66903429  0.00131060  -0.00461685  1
  Sb  Sb72  1  0.66583436  0.83714322  0.16528391  1
  Sb  Sb73  1  -0.00036846  0.16875817  0.16023824  1
  Sb  Sb74  1  0.33421531  0.83769172  0.16702510  1
  Sb  Sb75  1  0.67025331  0.16269701  0.83683944  1
  Sb  Sb76  1  0.83098447  0.83546722  -0.00705019  1
  Sb  Sb77  1  0.84014237  0.49917563  0.66913870  1
  Sb  Sb78  1  0.33032635  0.49662234  0.50471354  1
  Sb  Sb79  1  0.00501609  0.49853682  0.83229690  1
  Sb  Sb80  1  0.16383477  0.17409612  -0.00197786  1
  Sb  Sb81  1  0.16311291  0.00873106  0.17254273  1
  Sb  Sb82  1  0.83846525  0.33623011  0.50211670  1
  Sb  Sb83  1  0.17104798  0.66220126  0.82762493  1
  Sb  Sb84  1  0.83259142  0.66636165  0.16648648  1
  Sb  Sb85  1  0.66729469  0.49495366  0.16645272  1
  Sb  Sb86  1  0.00575459  0.67470270  0.66820778  1
  Sb  Sb87  1  0.00026190  0.49509403  0.16499558  1
  Sb  Sb88  1  0.49909476  0.50301503  0.33671900  1
  Sb  Sb89  1  0.83175212  0.66558569  0.83037727  1
  Sb  Sb90  1  0.33351392  0.83685884  0.50204479  1
  Sb  Sb91  1  0.84033701  0.16604852  0.33222709  1
  Sb  Sb92  1  0.66367880  0.32889311  0.66961453  1
  Sb  Sb93  1  0.49493453  0.50399389  0.66551974  1
  Sb  Sb94  1  0.49845517  0.67141119  0.50334486  1
  Sb  Sb95  1  0.16818475  0.82884196  -0.00891140  1
  Sb  Sb96  1  0.32881052  0.17219231  0.83238976  1
  Sb  Sb97  1  0.83459533  0.00436870  0.83343467  1
  Sb  Sb98  1  0.16852244  0.65989268  0.16914099  1
  Sb  Sb99  1  0.49679167  0.33137136  0.83560884  1
  Sb  Sb100  1  0.66559732  -0.00351498  0.33783584  1
  Sb  Sb101  1  0.32852151  0.33133615  0.33337369  1
  Sb  Sb102  1  0.83086338  0.83391768  0.34080578  1
  Sb  Sb103  1  -0.00054160  0.83686504  0.16498080  1
  Sb  Sb104  1  0.16608982  0.49384405  0.33883891  1
  Sb  Sb105  1  0.00154287  0.66828456  0.33618115  1
  Sb  Sb106  1  0.33103964  0.00040022  0.66204555  1
  Sb  Sb107  1  0.83696056  -0.00311314  0.50198618  1
  Te  Te108  1  0.17083525  0.17244486  0.16869143  1
  Te  Te109  1  0.16730871  0.16701744  0.50173477  1
  Te  Te110  1  0.16159947  0.17126915  0.82771579  1
  Te  Te111  1  0.16627446  0.49171765  0.16016903  1
  Te  Te112  1  0.16470609  0.49992402  0.50370503  1
  Te  Te113  1  0.17023261  0.49631259  0.83165946  1
  Te  Te114  1  0.16702522  0.83326518  0.16645344  1
  Te  Te115  1  0.16547063  0.83250157  0.50410099  1
  Te  Te116  1  0.16103414  0.83436597  0.82538674  1
  Te  Te117  1  0.49959746  0.16893929  0.16324916  1
  Te  Te118  1  0.49493870  0.16585432  0.50042347  1
  Te  Te119  1  0.50049783  0.16215974  0.83915109  1
  Te  Te120  1  0.50053389  0.48846472  0.16845139  1
  Te  Te121  1  0.50477208  0.49334378  0.50115220  1
  Te  Te122  1  0.49476153  0.50634664  0.83178087  1
  Te  Te123  1  0.50046852  0.83422972  0.16596089  1
  Te  Te124  1  0.50109743  0.83597179  0.50210441  1
  Te  Te125  1  0.50027108  0.83395958  0.83179768  1
  Te  Te126  1  0.83240023  0.16800428  0.16582838  1
  Te  Te127  1  0.83182746  0.16679080  0.50587503  1
  Te  Te128  1  0.83598574  0.17005833  0.83361976  1
  Te  Te129  1  0.83317500  0.49504281  0.15914859  1
  Te  Te130  1  0.83430405  0.50454585  0.50051047  1
  Te  Te131  1  0.83233006  0.49513210  0.83758209  1
  Te  Te132  1  0.83239120  0.83831304  0.16695139  1
  Te  Te133  1  0.83213718  0.83056186  0.50561021  1
  Te  Te134  1  0.83321148  0.83314308  0.82603660  1
  Te  Te135  1  0.16026482  -0.00164831  0.00111060  1
  Te  Te136  1  0.16692752  0.00463162  0.33820762  1
  Te  Te137  1  0.16472491  0.00079083  0.66269518  1
  Te  Te138  1  0.16990024  0.33372470  -0.00232797  1
  Te  Te139  1  0.16333863  0.33014152  0.33563155  1
  Te  Te140  1  0.16800812  0.33228700  0.66612301  1
  Te  Te141  1  0.16807698  0.66172279  0.00042311  1
  Te  Te142  1  0.17091327  0.66688123  0.33784572  1
  Te  Te143  1  0.17063953  0.66728073  0.66297565  1
  Te  Te144  1  0.49925353  -0.00015678  -0.00187855  1
  Te  Te145  1  0.49706188  -0.00453823  0.33696498  1
  Te  Te146  1  0.49759920  -0.00311891  0.66505448  1
  Te  Te147  1  0.49234886  0.33030246  0.00044367  1
  Te  Te148  1  0.50047925  0.33261448  0.33748426  1
  Te  Te149  1  0.49466696  0.33198183  0.66368037  1
  Te  Te150  1  0.50007607  0.66672324  -0.00163494  1
  Te  Te151  1  0.49884478  0.67124998  0.33146452  1
  Te  Te152  1  0.49346482  0.67153955  0.67140248  1
  Te  Te153  1  0.83747137  0.00214007  0.00148913  1
  Te  Te154  1  0.83830028  0.00067381  0.32927755  1
  Te  Te155  1  0.83552481  0.00029047  0.66693550  1
  Te  Te156  1  0.83535498  0.33181826  -0.00174527  1
  Te  Te157  1  0.84044693  0.33308041  0.33005651  1
  Te  Te158  1  0.83223219  0.32908091  0.67159147  1
  Te  Te159  1  0.83277122  0.66723774  0.00021319  1
  Te  Te160  1  0.82997682  0.66618301  0.33787560  1
  Te  Te161  1  0.83321550  0.66783895  0.66163106  1
  Te  Te162  1  -0.00286538  0.16799682  -0.00508454  1
  Te  Te163  1  0.00578962  0.16566722  0.33400199  1
  Te  Te164  1  0.00075893  0.16114118  0.67084737  1
  Te  Te165  1  0.00114690  0.49769516  -0.00141749  1
  Te  Te166  1  0.00006995  0.49912102  0.34064231  1
  Te  Te167  1  0.00630491  0.50196320  0.66222565  1
  Te  Te168  1  -0.00012646  0.83502906  -0.00336130  1
  Te  Te169  1  0.00015457  0.83858542  0.33799290  1
  Te  Te170  1  0.00045481  0.83528268  0.66653109  1
  Te  Te171  1  0.33530427  0.16989910  0.00181110  1
  Te  Te172  1  0.32918138  0.16477069  0.33547676  1
  Te  Te173  1  0.32949558  0.17119738  0.66403609  1
  Te  Te174  1  0.33198943  0.49875404  -0.00333569  1
  Te  Te175  1  0.33219564  0.51028168  0.33206479  1
  Te  Te176  1  0.32862563  0.49895945  0.67041494  1
  Te  Te177  1  0.33792116  0.83106015  -0.00051433  1
  Te  Te178  1  0.33749404  0.83313466  0.33273965  1
  Te  Te179  1  0.33083046  0.82896838  0.66724021  1
  Te  Te180  1  0.66777797  0.16850918  0.00232462  1
  Te  Te181  1  0.66715670  0.16642925  0.32780642  1
  Te  Te182  1  0.66954598  0.15974475  0.66662388  1
  Te  Te183  1  0.66922063  0.50010128  -0.00129904  1
  Te  Te184  1  0.66728859  0.50644901  0.33978834  1
  Te  Te185  1  0.66844119  0.49829662  0.66092704  1
  Te  Te186  1  0.66279700  0.83134150  -0.00249526  1
  Te  Te187  1  0.66277715  0.82912186  0.33506309  1
  Te  Te188  1  0.66499917  0.83537644  0.66686285  1
  Te  Te189  1  -0.00409777  0.00119629  0.16700173  1
  Te  Te190  1  0.00299282  -0.00266553  0.50205379  1
  Te  Te191  1  0.00073642  -0.00011334  0.83170605  1
  Te  Te192  1  0.00160329  0.33282352  0.16518840  1
  Te  Te193  1  0.00382237  0.33573308  0.49841628  1
  Te  Te194  1  0.00265194  0.33295833  0.83583341  1
  Te  Te195  1  0.00011576  0.66744855  0.15984714  1
  Te  Te196  1  0.00160099  0.66930417  0.49968077  1
  Te  Te197  1  0.00017049  0.66981765  0.83967515  1
  Te  Te198  1  0.33279573  0.00794139  0.17322699  1
  Te  Te199  1  0.33215013  0.00340284  0.49712514  1
  Te  Te200  1  0.33871948  0.00095869  0.83480934  1
  Te  Te201  1  0.33262705  0.32865117  0.16663340  1
  Te  Te202  1  0.33157714  0.33101031  0.50018413  1
  Te  Te203  1  0.33046759  0.33656377  0.83330206  1
  Te  Te204  1  0.33314164  0.66654331  0.16257666  1
  Te  Te205  1  0.33033983  0.66511472  0.50119474  1
  Te  Te206  1  0.33568713  0.66302558  0.83489038  1
  Te  Te207  1  0.67219860  0.00578985  0.16754845  1
  Te  Te208  1  0.66320846  -0.00433509  0.50471228  1
  Te  Te209  1  0.66225112  -0.00515260  0.82836378  1
  Te  Te210  1  0.66669804  0.32993534  0.16316166  1
  Te  Te211  1  0.66651223  0.33412457  0.49938915  1
  Te  Te212  1  0.66616746  0.33447283  0.83890576  1
  Te  Te213  1  0.66683953  0.66651822  0.16411854  1
  Te  Te214  1  0.66451905  0.66898569  0.49986809  1
  Te  Te215  1  0.66362669  0.67076219  0.83764896  1
