# generated using pymatgen
data_AgSbTe2
_symmetry_space_group_name_H-M   'P 1'
_cell_length_a   18.29973013
_cell_length_b   18.30360996
_cell_length_c   18.30195572
_cell_angle_alpha   90.00095649
_cell_angle_beta   90.00091853
_cell_angle_gamma   89.99868543
_symmetry_Int_Tables_number   1
_chemical_formula_structural   AgSbTe2
_chemical_formula_sum   'Ag54 Sb54 Te108'
_cell_volume   6130.26061048
_cell_formula_units_Z   54
loop_
 _symmetry_equiv_pos_site_id
 _symmetry_equiv_pos_as_xyz
  1  'x, y, z'
loop_
 _atom_site_type_symbol
 _atom_site_label
 _atom_site_symmetry_multiplicity
 _atom_site_fract_x
 _atom_site_fract_y
 _atom_site_fract_z
 _atom_site_occupancy
  Ag  Ag0  1  0.50009551  0.33412606  0.16773817  1
  Ag  Ag1  1  0.16911712  0.66392952  0.16458755  1
  Ag  Ag2  1  0.82907065  0.15903021  0.33816103  1
  Ag  Ag3  1  -0.00684063  0.49822231  0.49999866  1
  Ag  Ag4  1  -0.00528097  0.83002453  0.16395339  1
  Ag  Ag5  1  0.83072822  0.16021710  0.66568884  1
  Ag  Ag6  1  0.67144536  0.66437289  -0.00580529  1
  Ag  Ag7  1  -0.00407739  0.33485415  0.00143140  1
  Ag  Ag8  1  0.50822084  0.66944733  0.83280506  1
  Ag  Ag9  1  -0.01303419  -0.00052420  0.33171144  1
  Ag  Ag10  1  0.50279464  0.66566699  0.49509131  1
  Ag  Ag11  1  0.17057627  0.33578774  0.16728477  1
  Ag  Ag12  1  0.66520630  0.66312228  0.67345100  1
  Ag  Ag13  1  0.66688498  0.49450645  0.50609804  1
  Ag  Ag14  1  0.32644958  0.16029042  0.83569746  1
  Ag  Ag15  1  0.33358271  0.49711260  0.16842833  1
  Ag  Ag16  1  -0.00554230  0.66561622  0.00134599  1
  Ag  Ag17  1  0.83196407  -0.00231956  0.82764483  1
  Ag  Ag18  1  0.83147072  0.84103424  0.67042070  1
  Ag  Ag19  1  0.00526964  0.50285904  0.16325759  1
  Ag  Ag20  1  0.16172271  0.33222608  0.49936417  1
  Ag  Ag21  1  0.83024464  0.00450363  0.50050487  1
  Ag  Ag22  1  0.83634798  0.83467857  -0.00152276  1
  Ag  Ag23  1  0.66444960  0.16511584  0.17140168  1
  Ag  Ag24  1  0.16533432  0.83806689  0.67404435  1
  Ag  Ag25  1  0.66731980  0.32664109  0.33465695  1
  Ag  Ag26  1  -0.00546436  0.49737364  0.83650661  1
  Ag  Ag27  1  0.16336013  0.16412997  0.67573978  1
  Ag  Ag28  1  0.82805765  0.32659896  0.50077388  1
  Ag  Ag29  1  0.66545362  0.33513882  0.66163402  1
  Ag  Ag30  1  0.82669379  0.84029188  0.33177707  1
  Ag  Ag31  1  0.50322662  0.50796424  0.33351650  1
  Ag  Ag32  1  0.50503491  0.82793549  0.32942357  1
  Ag  Ag33  1  0.16000594  0.16427250  -0.00604918  1
  Ag  Ag34  1  0.34140785  0.66809575  0.33000050  1
  Ag  Ag35  1  0.16511396  0.00241088  0.83210928  1
  Ag  Ag36  1  0.67285937  0.33456649  0.00249108  1
  Ag  Ag37  1  0.33750720  0.33145909  0.66594442  1
  Ag  Ag38  1  0.50503031  0.50175840  0.66335276  1
  Ag  Ag39  1  0.83605976  0.16365464  -0.00337397  1
  Ag  Ag40  1  0.15958034  0.83631416  -0.00268618  1
  Ag  Ag41  1  0.33239760  0.83842799  0.83014067  1
  Ag  Ag42  1  0.49843180  0.66619205  0.17196870  1
  Ag  Ag43  1  0.67092699  0.17230903  0.49662660  1
  Ag  Ag44  1  0.66826828  0.83645906  0.16912885  1
  Ag  Ag45  1  0.00068534  0.16789095  0.83625036  1
  Ag  Ag46  1  0.50401872  -0.00129325  0.16614418  1
  Ag  Ag47  1  0.67026824  0.00450023  0.33462649  1
  Ag  Ag48  1  0.67098302  0.00064098  0.66538151  1
  Ag  Ag49  1  0.66881118  0.50526480  0.82768533  1
  Ag  Ag50  1  0.33434876  0.83239857  0.50373117  1
  Ag  Ag51  1  0.50355749  -0.00466841  0.83468854  1
  Ag  Ag52  1  0.33832535  0.17358764  0.16332832  1
  Ag  Ag53  1  0.82618846  0.67251876  0.83493652  1
  Sb  Sb54  1  0.50466007  0.83112596  0.00302716  1
  Sb  Sb55  1  0.83055539  0.33197722  0.16739465  1
  Sb  Sb56  1  0.16928445  0.49832947  0.66618664  1
  Sb  Sb57  1  0.83004724  0.67019340  0.16107782  1
  Sb  Sb58  1  0.82764773  0.50090976  0.33543171  1
  Sb  Sb59  1  0.33981166  0.33607991  0.33349405  1
  Sb  Sb60  1  0.66532148  0.83316351  0.49631768  1
  Sb  Sb61  1  0.67004523  -0.00052860  0.00118403  1
  Sb  Sb62  1  0.66433046  0.49874567  0.16729193  1
  Sb  Sb63  1  0.33183351  0.33003466  0.00049481  1
  Sb  Sb64  1  0.50834126  -0.00485286  0.49962640  1
  Sb  Sb65  1  0.16703249  0.83430902  0.33043703  1
  Sb  Sb66  1  -0.00846778  0.17058808  0.50431447  1
  Sb  Sb67  1  -0.00896004  0.00005424  0.66653752  1
  Sb  Sb68  1  0.33998105  -0.00321433  0.33187314  1
  Sb  Sb69  1  0.15976285  0.00350995  0.50756698  1
  Sb  Sb70  1  0.50355481  0.82968300  0.66646759  1
  Sb  Sb71  1  0.82778755  -0.00137259  0.17024265  1
  Sb  Sb72  1  0.66713831  0.82972452  0.83638537  1
  Sb  Sb73  1  0.33557921  0.83186637  0.16459451  1
  Sb  Sb74  1  0.16570730  0.32584119  0.83469487  1
  Sb  Sb75  1  0.33589722  0.16506838  0.50041387  1
  Sb  Sb76  1  0.33898108  0.00243947  0.66924215  1
  Sb  Sb77  1  0.50322456  0.50117039  0.00232599  1
  Sb  Sb78  1  -0.00326798  0.33269268  0.66937426  1
  Sb  Sb79  1  0.50375682  0.16677259  0.00152381  1
  Sb  Sb80  1  0.33627766  0.50063269  0.83594353  1
  Sb  Sb81  1  0.33329983  0.00020337  -0.00278499  1
  Sb  Sb82  1  0.50850668  0.16576450  0.33036971  1
  Sb  Sb83  1  0.16561157  0.67278287  0.83821940  1
  Sb  Sb84  1  -0.00678065  0.33080014  0.32992480  1
  Sb  Sb85  1  -0.00274220  -0.00063449  0.00278042  1
  Sb  Sb86  1  0.82558977  0.49804425  0.66727330  1
  Sb  Sb87  1  -0.00679492  0.66667446  0.67316301  1
  Sb  Sb88  1  0.16962667  0.66425096  0.49698351  1
  Sb  Sb89  1  0.17054247  0.00095117  0.16166635  1
  Sb  Sb90  1  0.50686502  0.33865206  0.49613375  1
  Sb  Sb91  1  0.82681401  0.66785783  0.50511901  1
  Sb  Sb92  1  0.16196526  0.49892178  0.00156231  1
  Sb  Sb93  1  -0.00101828  0.83638673  0.83894288  1
  Sb  Sb94  1  0.16957217  0.49895600  0.33106302  1
  Sb  Sb95  1  0.33815216  0.50168332  0.49634525  1
  Sb  Sb96  1  0.33996642  0.66562106  0.66455599  1
  Sb  Sb97  1  0.16047312  0.16681431  0.33180764  1
  Sb  Sb98  1  0.83219607  0.33033211  0.83065321  1
  Sb  Sb99  1  0.83387920  0.50094062  -0.00185086  1
  Sb  Sb100  1  0.33377929  0.66840097  0.00385274  1
  Sb  Sb101  1  0.00056933  0.66828685  0.32564950  1
  Sb  Sb102  1  -0.00250961  0.16652904  0.16097726  1
  Sb  Sb103  1  0.50492979  0.17001962  0.66870605  1
  Sb  Sb104  1  -0.00041570  0.82983583  0.49645414  1
  Sb  Sb105  1  0.66958294  0.16743695  0.83383556  1
  Sb  Sb106  1  0.50271082  0.33377096  0.83554052  1
  Sb  Sb107  1  0.66209211  0.66861534  0.33184935  1
  Te  Te108  1  0.16875481  0.16892371  0.16377733  1
  Te  Te109  1  0.16613498  0.17201632  0.50345706  1
  Te  Te110  1  0.16665917  0.16428221  0.83351436  1
  Te  Te111  1  0.16606907  0.49937856  0.16694726  1
  Te  Te112  1  0.16445090  0.49454351  0.49935416  1
  Te  Te113  1  0.16245947  0.50094042  0.83292490  1
  Te  Te114  1  0.16634430  0.83171289  0.16226111  1
  Te  Te115  1  0.17044122  0.83393218  0.50380112  1
  Te  Te116  1  0.16708476  0.83753330  0.83393949  1
  Te  Te117  1  0.50180074  0.16720499  0.16590120  1
  Te  Te118  1  0.50730866  0.16579370  0.49962472  1
  Te  Te119  1  0.49368940  0.16156340  0.83446457  1
  Te  Te120  1  0.49867955  0.50183398  0.16859881  1
  Te  Te121  1  0.50306775  0.50458227  0.49940816  1
  Te  Te122  1  0.50239567  0.50357802  0.83092333  1
  Te  Te123  1  0.50155814  0.83209993  0.16810923  1
  Te  Te124  1  0.49618692  0.82813090  0.49653882  1
  Te  Te125  1  0.49659978  0.83427433  0.83476095  1
  Te  Te126  1  0.82863647  0.16563189  0.16273273  1
  Te  Te127  1  0.83122297  0.16605102  0.50138821  1
  Te  Te128  1  0.83486973  0.16430655  0.83397732  1
  Te  Te129  1  0.84228993  0.50081977  0.16866990  1
  Te  Te130  1  0.83162799  0.49753267  0.50099001  1
  Te  Te131  1  0.83379710  0.50389291  0.83183190  1
  Te  Te132  1  0.83238341  0.83440787  0.16483441  1
  Te  Te133  1  0.83418496  0.83658231  0.50070090  1
  Te  Te134  1  0.83387833  0.83480630  0.83400492  1
  Te  Te135  1  0.16493300  0.00044737  -0.00549616  1
  Te  Te136  1  0.16526090  0.00054099  0.33601737  1
  Te  Te137  1  0.16652772  0.00027452  0.67140531  1
  Te  Te138  1  0.16360736  0.32881153  0.00477998  1
  Te  Te139  1  0.16634501  0.33198130  0.33098554  1
  Te  Te140  1  0.16694663  0.33053266  0.66453983  1
  Te  Te141  1  0.16250367  0.66996930  0.00501266  1
  Te  Te142  1  0.17238090  0.66686006  0.32696037  1
  Te  Te143  1  0.16677947  0.67190166  0.66661369  1
  Te  Te144  1  0.50163055  -0.00122487  -0.00144945  1
  Te  Te145  1  0.50688851  -0.00541172  0.33096056  1
  Te  Te146  1  0.50854579  -0.00029722  0.66965962  1
  Te  Te147  1  0.50574193  0.33376544  0.00681345  1
  Te  Te148  1  0.50646841  0.33641371  0.32843131  1
  Te  Te149  1  0.50318793  0.33745325  0.66715135  1
  Te  Te150  1  0.50494133  0.66717822  -0.00245671  1
  Te  Te151  1  0.50087479  0.66770121  0.33165448  1
  Te  Te152  1  0.50456180  0.66361646  0.66938197  1
  Te  Te153  1  0.83381330  -0.00025808  -0.00741018  1
  Te  Te154  1  0.82914324  -0.00119481  0.33366490  1
  Te  Te155  1  0.83006408  0.00008876  0.66779612  1
  Te  Te156  1  0.83299620  0.32922610  -0.00028380  1
  Te  Te157  1  0.82671410  0.33058484  0.33768232  1
  Te  Te158  1  0.82920267  0.32775915  0.66266961  1
  Te  Te159  1  0.83277593  0.66932918  -0.00399767  1
  Te  Te160  1  0.83295441  0.67552461  0.33527477  1
  Te  Te161  1  0.82704600  0.67253905  0.67234440  1
  Te  Te162  1  -0.00180756  0.16802380  -0.00326685  1
  Te  Te163  1  -0.00827543  0.16204629  0.33277371  1
  Te  Te164  1  -0.00018571  0.16681363  0.67214619  1
  Te  Te165  1  -0.00127017  0.49921793  0.00031117  1
  Te  Te166  1  -0.00210714  0.49983165  0.33241835  1
  Te  Te167  1  0.00019184  0.50071399  0.66806516  1
  Te  Te168  1  -0.00223310  0.83161655  0.00391302  1
  Te  Te169  1  -0.00239330  0.83592932  0.32844336  1
  Te  Te170  1  -0.00023277  0.83237991  0.66622207  1
  Te  Te171  1  0.32874472  0.16673153  0.00022089  1
  Te  Te172  1  0.33343712  0.16634610  0.32912155  1
  Te  Te173  1  0.33172952  0.17041335  0.66783895  1
  Te  Te174  1  0.33186979  0.49864405  0.00765153  1
  Te  Te175  1  0.33956278  0.50363238  0.32853349  1
  Te  Te176  1  0.33953567  0.49433554  0.66628688  1
  Te  Te177  1  0.32520468  0.83352206  -0.00628540  1
  Te  Te178  1  0.33639947  0.82992534  0.33518841  1
  Te  Te179  1  0.33174059  0.83344340  0.66847355  1
  Te  Te180  1  0.67144082  0.17111920  0.00208887  1
  Te  Te181  1  0.66922539  0.16623516  0.33157393  1
  Te  Te182  1  0.67048045  0.16770728  0.66715586  1
  Te  Te183  1  0.66851694  0.49961913  -0.00392451  1
  Te  Te184  1  0.66289002  0.49680723  0.33647408  1
  Te  Te185  1  0.66550386  0.49913061  0.66727859  1
  Te  Te186  1  0.67202747  0.82909955  0.00688738  1
  Te  Te187  1  0.66638846  0.83496007  0.32980691  1
  Te  Te188  1  0.67085977  0.83514552  0.66514865  1
  Te  Te189  1  0.00210630  -0.00479141  0.17193558  1
  Te  Te190  1  -0.00828823  -0.00138807  0.49383165  1
  Te  Te191  1  -0.00175447  0.00469197  0.83277957  1
  Te  Te192  1  0.00224286  0.33532708  0.16286611  1
  Te  Te193  1  -0.00074527  0.33793223  0.49852466  1
  Te  Te194  1  -0.00106219  0.33477390  0.83905812  1
  Te  Te195  1  0.00095056  0.66710390  0.16230719  1
  Te  Te196  1  0.00017049  0.65886885  0.49911653  1
  Te  Te197  1  -0.00219190  0.66329760  0.83975246  1
  Te  Te198  1  0.34139168  0.00578810  0.16721830  1
  Te  Te199  1  0.33367178  -0.00551879  0.50035220  1
  Te  Te200  1  0.33432988  -0.00014109  0.83176259  1
  Te  Te201  1  0.33385483  0.33328627  0.16747366  1
  Te  Te202  1  0.33070936  0.33217923  0.50382191  1
  Te  Te203  1  0.33443076  0.33111074  0.82857540  1
  Te  Te204  1  0.33619989  0.66457675  0.16847794  1
  Te  Te205  1  0.33738698  0.67005208  0.49600821  1
  Te  Te206  1  0.33747507  0.66937261  0.83408623  1
  Te  Te207  1  0.66220169  0.00045766  0.16731716  1
  Te  Te208  1  0.67120004  0.00136369  0.49972122  1
  Te  Te209  1  0.66666503  -0.00101298  0.83151467  1
  Te  Te210  1  0.66422611  0.33352588  0.16527208  1
  Te  Te211  1  0.66743985  0.33318352  0.50126013  1
  Te  Te212  1  0.66655604  0.33877421  0.83455894  1
  Te  Te213  1  0.66269234  0.66740004  0.16205459  1
  Te  Te214  1  0.66235327  0.66219015  0.50416844  1
  Te  Te215  1  0.66614589  0.66609263  0.83400187  1
