# generated using pymatgen
data_AgSbTe2
_symmetry_space_group_name_H-M   'P 1'
_cell_length_a   18.35562805
_cell_length_b   18.35424372
_cell_length_c   18.35593913
_cell_angle_alpha   90.00297761
_cell_angle_beta   89.99807899
_cell_angle_gamma   90.00453556
_symmetry_Int_Tables_number   1
_chemical_formula_structural   AgSbTe2
_chemical_formula_sum   'Ag54 Sb54 Te108'
_cell_volume   6184.18324646
_cell_formula_units_Z   54
loop_
 _symmetry_equiv_pos_site_id
 _symmetry_equiv_pos_as_xyz
  1  'x, y, z'
loop_
 _atom_site_type_symbol
 _atom_site_label
 _atom_site_symmetry_multiplicity
 _atom_site_fract_x
 _atom_site_fract_y
 _atom_site_fract_z
 _atom_site_occupancy
  Ag  Ag0  1  0.82829196  0.49472112  0.32968902  1
  Ag  Ag1  1  0.50255472  0.16085286  0.32899807  1
  Ag  Ag2  1  0.17565888  0.00428161  0.84205979  1
  Ag  Ag3  1  0.66216397  0.66697519  0.32440510  1
  Ag  Ag4  1  0.00283469  0.32653733  0.00483539  1
  Ag  Ag5  1  0.81875211  0.67717400  0.16832647  1
  Ag  Ag6  1  0.66485069  0.83994025  0.16657627  1
  Ag  Ag7  1  -0.00653372  0.16220026  0.16073581  1
  Ag  Ag8  1  0.50352866  0.32063589  0.84455730  1
  Ag  Ag9  1  0.50383591  0.67914151  0.16840864  1
  Ag  Ag10  1  0.33646201  0.50184959  0.16782549  1
  Ag  Ag11  1  0.83597646  0.84398021  0.66568385  1
  Ag  Ag12  1  0.49744761  0.32390775  0.49730565  1
  Ag  Ag13  1  0.49798442  0.00057818  0.16574343  1
  Ag  Ag14  1  0.66512013  0.66417859  0.00860468  1
  Ag  Ag15  1  0.66655116  0.16783149  0.84536362  1
  Ag  Ag16  1  0.33920739  0.16559315  0.49969187  1
  Ag  Ag17  1  0.33873454  0.48949715  0.48833922  1
  Ag  Ag18  1  0.33852768  0.00556749  0.00257630  1
  Ag  Ag19  1  0.33787315  0.00190923  0.32223194  1
  Ag  Ag20  1  0.33380647  0.00368085  0.67683747  1
  Ag  Ag21  1  0.49997851  0.50072459  0.32508136  1
  Ag  Ag22  1  0.51005094  0.16784972  -0.00096404  1
  Ag  Ag23  1  0.16587179  0.32320792  0.16212840  1
  Ag  Ag24  1  -0.00507086  0.16399483  0.84455499  1
  Ag  Ag25  1  0.65905306  0.01377187  0.00506993  1
  Ag  Ag26  1  0.33592229  0.84260326  0.84318151  1
  Ag  Ag27  1  0.49412527  0.00423725  0.84312846  1
  Ag  Ag28  1  0.66425954  0.48531639  0.84021308  1
  Ag  Ag29  1  0.49975808  0.66631919  0.48559973  1
  Ag  Ag30  1  0.17438827  0.00387027  0.16130641  1
  Ag  Ag31  1  0.65705463  0.32688540  -0.00147803  1
  Ag  Ag32  1  0.82397474  0.16840343  0.00160423  1
  Ag  Ag33  1  -0.00347621  0.83674094  0.48855027  1
  Ag  Ag34  1  0.82946672  0.00198651  0.16729120  1
  Ag  Ag35  1  0.33821737  0.32191675  0.00128544  1
  Ag  Ag36  1  0.49826639  0.49015686  0.00780949  1
  Ag  Ag37  1  0.49564350  0.00701142  0.48517187  1
  Ag  Ag38  1  0.34168050  0.84285660  0.16524880  1
  Ag  Ag39  1  0.00187112  0.00239723  0.67171105  1
  Ag  Ag40  1  0.82846568  0.16300917  0.32014659  1
  Ag  Ag41  1  0.82876985  0.83872872  0.32220958  1
  Ag  Ag42  1  -0.00207519  0.33122977  0.32578940  1
  Ag  Ag43  1  0.50337054  0.83897734  0.32781102  1
  Ag  Ag44  1  0.66870755  0.16004799  0.15723751  1
  Ag  Ag45  1  0.83322697  0.16183361  0.67862852  1
  Ag  Ag46  1  0.82353022  0.32546534  0.83782341  1
  Ag  Ag47  1  0.17390492  0.16167707  0.67865705  1
  Ag  Ag48  1  0.17936116  0.48732494  0.00733164  1
  Ag  Ag49  1  0.50082140  0.16328716  0.67858639  1
  Ag  Ag50  1  -0.00058740  0.84650381  0.83797564  1
  Ag  Ag51  1  0.16643264  0.16800789  0.00079648  1
  Ag  Ag52  1  -0.01209487  0.84234857  0.16542824  1
  Ag  Ag53  1  0.18336693  0.49661464  0.32150555  1
  Sb  Sb54  1  0.50343656  0.84369970  0.66070039  1
  Sb  Sb55  1  0.33859128  0.16056687  0.83650209  1
  Sb  Sb56  1  0.00561904  0.50317258  0.49543559  1
  Sb  Sb57  1  0.65969622  -0.00147920  0.32368010  1
  Sb  Sb58  1  0.65873537  0.49940122  0.49893651  1
  Sb  Sb59  1  0.82819741  0.00086176  0.49640607  1
  Sb  Sb60  1  0.50197274  0.67007344  0.84199303  1
  Sb  Sb61  1  -0.00335198  0.49087255  0.83718555  1
  Sb  Sb62  1  0.16929371  0.66822403  0.16602477  1
  Sb  Sb63  1  0.82759239  0.49199362  0.00675633  1
  Sb  Sb64  1  0.34004242  0.66914728  0.00347546  1
  Sb  Sb65  1  0.00290302  0.00293858  0.33024546  1
  Sb  Sb66  1  0.83707129  0.32671366  0.16182737  1
  Sb  Sb67  1  0.17335455  0.66679145  0.49670678  1
  Sb  Sb68  1  0.17182908  0.00137237  0.49855301  1
  Sb  Sb69  1  0.82818968  0.32993622  0.50028103  1
  Sb  Sb70  1  0.49886254  0.49295250  0.66608906  1
  Sb  Sb71  1  -0.00091993  0.32161734  0.67032151  1
  Sb  Sb72  1  0.16350058  0.84337606  0.66843943  1
  Sb  Sb73  1  0.66510469  0.66970981  0.66663665  1
  Sb  Sb74  1  0.33610071  0.67519854  0.66515332  1
  Sb  Sb75  1  0.17039593  0.32238705  0.84354569  1
  Sb  Sb76  1  0.83352060  0.00657139  0.83953507  1
  Sb  Sb77  1  0.33527926  0.32330506  0.67147582  1
  Sb  Sb78  1  0.17202161  0.33083504  0.49250768  1
  Sb  Sb79  1  0.33404450  0.33163115  0.32567257  1
  Sb  Sb80  1  0.66686901  0.84059435  0.84133757  1
  Sb  Sb81  1  0.65890888  0.16527899  0.49690760  1
  Sb  Sb82  1  0.50119396  0.84189861  0.00808090  1
  Sb  Sb83  1  0.83311204  0.49690509  0.66393838  1
  Sb  Sb84  1  0.16918652  0.48817909  0.66918831  1
  Sb  Sb85  1  0.83269275  0.84241425  0.00394895  1
  Sb  Sb86  1  -0.00196706  0.68088506  0.66584851  1
  Sb  Sb87  1  0.49638387  0.32889010  0.16453608  1
  Sb  Sb88  1  0.66587548  0.00334253  0.67468420  1
  Sb  Sb89  1  0.83106659  0.66576583  0.84135035  1
  Sb  Sb90  1  0.66118635  0.50070871  0.16260205  1
  Sb  Sb91  1  0.66823081  0.83458150  0.49036133  1
  Sb  Sb92  1  0.16860374  0.16880864  0.32724800  1
  Sb  Sb93  1  0.33654995  0.16406762  0.16547658  1
  Sb  Sb94  1  0.00239500  0.49588191  0.16723907  1
  Sb  Sb95  1  0.82694673  0.66906824  0.49094846  1
  Sb  Sb96  1  0.33416976  0.84011798  0.49578446  1
  Sb  Sb97  1  0.16671045  0.67367817  0.83648862  1
  Sb  Sb98  1  0.00192302  0.00762225  0.00010446  1
  Sb  Sb99  1  0.66700040  0.33463181  0.32516981  1
  Sb  Sb100  1  0.16769073  0.83093212  0.32936528  1
  Sb  Sb101  1  0.00294512  0.16277453  0.49839777  1
  Sb  Sb102  1  -0.00731062  0.66567418  0.32924105  1
  Sb  Sb103  1  0.33830812  0.50188663  0.83868569  1
  Sb  Sb104  1  0.34264910  0.66798540  0.33145804  1
  Sb  Sb105  1  0.16701283  0.83779046  0.00188794  1
  Sb  Sb106  1  -0.00474389  0.66292791  0.00339605  1
  Sb  Sb107  1  0.66446694  0.32957671  0.67578750  1
  Te  Te108  1  0.16623156  0.16452975  0.16524266  1
  Te  Te109  1  0.17229893  0.16658891  0.50174252  1
  Te  Te110  1  0.16363345  0.16278320  0.83501828  1
  Te  Te111  1  0.16816282  0.50276104  0.16555564  1
  Te  Te112  1  0.17482175  0.49921180  0.49838453  1
  Te  Te113  1  0.16714814  0.49985498  0.83671560  1
  Te  Te114  1  0.17184556  0.83839118  0.16747331  1
  Te  Te115  1  0.15821995  0.83241867  0.49928422  1
  Te  Te116  1  0.16486243  0.84116930  0.83444581  1
  Te  Te117  1  0.50198914  0.16441667  0.16721052  1
  Te  Te118  1  0.49832921  0.16478834  0.49002213  1
  Te  Te119  1  0.49911524  0.16463032  0.83665770  1
  Te  Te120  1  0.49726617  0.49370761  0.16647086  1
  Te  Te121  1  0.49605174  0.50274921  0.50067123  1
  Te  Te122  1  0.50443834  0.50178860  0.83387626  1
  Te  Te123  1  0.50159489  0.83576488  0.16873978  1
  Te  Te124  1  0.50040211  0.83157234  0.49315665  1
  Te  Te125  1  0.49777048  0.83795790  0.83005421  1
  Te  Te126  1  0.83395536  0.16577753  0.16319828  1
  Te  Te127  1  0.83289444  0.16692303  0.49935788  1
  Te  Te128  1  0.83306601  0.16623790  0.83646120  1
  Te  Te129  1  0.83446966  0.50358381  0.17177245  1
  Te  Te130  1  0.83220813  0.49978586  0.49394080  1
  Te  Te131  1  0.82837437  0.49585403  0.83308770  1
  Te  Te132  1  0.83078124  0.83616000  0.16544532  1
  Te  Te133  1  0.83670049  0.83390708  0.50137873  1
  Te  Te134  1  0.83626504  0.83413040  0.83205292  1
  Te  Te135  1  0.16848119  0.00182699  0.00083499  1
  Te  Te136  1  0.17369811  -0.00013043  0.32776979  1
  Te  Te137  1  0.16753597  0.00567980  0.66557886  1
  Te  Te138  1  0.16810435  0.33089725  0.00242505  1
  Te  Te139  1  0.16328795  0.33762764  0.32668125  1
  Te  Te140  1  0.16649204  0.32161110  0.66621175  1
  Te  Te141  1  0.16572067  0.65736081  0.00012476  1
  Te  Te142  1  0.16452669  0.65546612  0.33341378  1
  Te  Te143  1  0.16668279  0.66361627  0.66648558  1
  Te  Te144  1  0.49911300  0.00182236  0.00323826  1
  Te  Te145  1  0.49801014  0.00008791  0.32827011  1
  Te  Te146  1  0.49821250  0.00475714  0.67240325  1
  Te  Te147  1  0.49802614  0.33000711  0.00115777  1
  Te  Te148  1  0.50023524  0.33539856  0.33551528  1
  Te  Te149  1  0.49922437  0.32525806  0.66204537  1
  Te  Te150  1  0.50487248  0.65902001  0.00589159  1
  Te  Te151  1  0.50217152  0.66319204  0.32838841  1
  Te  Te152  1  0.50041119  0.66812387  0.66593621  1
  Te  Te153  1  0.82775888  0.00673048  0.00625306  1
  Te  Te154  1  0.83485196  0.00114486  0.33010708  1
  Te  Te155  1  0.83466421  0.00276161  0.66448873  1
  Te  Te156  1  0.83881826  0.32904111  -0.00361671  1
  Te  Te157  1  0.83439129  0.33006754  0.33398657  1
  Te  Te158  1  0.83308932  0.32837682  0.67259778  1
  Te  Te159  1  0.82819847  0.66308122  0.00781484  1
  Te  Te160  1  0.82739142  0.67303220  0.32789237  1
  Te  Te161  1  0.83280737  0.66742936  0.66573938  1
  Te  Te162  1  0.00607865  0.16731282  0.00185005  1
  Te  Te163  1  -0.00166007  0.17033145  0.33129275  1
  Te  Te164  1  -0.00557137  0.16106919  0.66436524  1
  Te  Te165  1  0.00232337  0.49251865  0.00023150  1
  Te  Te166  1  -0.00976596  0.49526994  0.33413895  1
  Te  Te167  1  0.00136990  0.50107632  0.66614187  1
  Te  Te168  1  -0.00011922  0.83130178  0.00136653  1
  Te  Te169  1  -0.00224389  0.83352012  0.32818431  1
  Te  Te170  1  -0.00307882  0.84201135  0.67580405  1
  Te  Te171  1  0.32680646  0.16512009  0.00022673  1
  Te  Te172  1  0.33626164  0.16453885  0.33613577  1
  Te  Te173  1  0.33741348  0.16162994  0.66377196  1
  Te  Te174  1  0.33734029  0.50279562  0.00233346  1
  Te  Te175  1  0.33900149  0.49894360  0.33134043  1
  Te  Te176  1  0.33190443  0.50165384  0.66498635  1
  Te  Te177  1  0.33369676  0.83722840  0.00316356  1
  Te  Te178  1  0.33597155  0.83769799  0.32849560  1
  Te  Te179  1  0.33277170  0.84246483  0.66544768  1
  Te  Te180  1  0.66533531  0.16900464  0.00049670  1
  Te  Te181  1  0.66796147  0.16755089  0.33024128  1
  Te  Te182  1  0.66689490  0.16666059  0.66741147  1
  Te  Te183  1  0.66334777  0.49782297  -0.00225058  1
  Te  Te184  1  0.66503042  0.50205801  0.33349005  1
  Te  Te185  1  0.66754487  0.50156844  0.67529708  1
  Te  Te186  1  0.66719095  0.82539743  0.00606569  1
  Te  Te187  1  0.66720430  0.83004503  0.32740796  1
  Te  Te188  1  0.67551388  0.83463810  0.66842078  1
  Te  Te189  1  -0.00054287  0.00135944  0.16668661  1
  Te  Te190  1  -0.00007449  -0.00436567  0.50229739  1
  Te  Te191  1  -0.00143186  0.00368518  0.83327103  1
  Te  Te192  1  0.00341735  0.33026192  0.16572008  1
  Te  Te193  1  0.00020309  0.33432831  0.49691386  1
  Te  Te194  1  -0.00047657  0.32592493  0.83744740  1
  Te  Te195  1  -0.00053021  0.67588536  0.16569858  1
  Te  Te196  1  -0.00043101  0.67452142  0.49893722  1
  Te  Te197  1  -0.00064935  0.67042958  0.83431391  1
  Te  Te198  1  0.33453586  0.00191251  0.16306215  1
  Te  Te199  1  0.33745176  0.00289957  0.49946561  1
  Te  Te200  1  0.33283042  -0.00065123  0.83575915  1
  Te  Te201  1  0.32724720  0.33961592  0.16129228  1
  Te  Te202  1  0.33703295  0.33102098  0.50092878  1
  Te  Te203  1  0.34073963  0.33734421  0.83913483  1
  Te  Te204  1  0.33810059  0.66560364  0.16692197  1
  Te  Te205  1  0.34016109  0.66685219  0.50006305  1
  Te  Te206  1  0.33329050  0.68006159  0.83269851  1
  Te  Te207  1  0.66666384  -0.00008920  0.16468264  1
  Te  Te208  1  0.65596903  -0.00125939  0.50301327  1
  Te  Te209  1  0.66220986  0.00495224  0.84216917  1
  Te  Te210  1  0.66934862  0.32731464  0.15987982  1
  Te  Te211  1  0.65891181  0.33392939  0.50074224  1
  Te  Te212  1  0.66320603  0.32773228  0.83784164  1
  Te  Te213  1  0.66315099  0.66168496  0.16770066  1
  Te  Te214  1  0.65881197  0.66693903  0.49680493  1
  Te  Te215  1  0.66765053  0.66906423  0.83687775  1
