# generated using pymatgen
data_AgSbTe2
_symmetry_space_group_name_H-M   'P 1'
_cell_length_a   18.34155836
_cell_length_b   18.34325107
_cell_length_c   18.33560482
_cell_angle_alpha   89.99869959
_cell_angle_beta   90.00469816
_cell_angle_gamma   90.00103542
_symmetry_Int_Tables_number   1
_chemical_formula_structural   AgSbTe2
_chemical_formula_sum   'Ag54 Sb54 Te108'
_cell_volume   6168.90071865
_cell_formula_units_Z   54
loop_
 _symmetry_equiv_pos_site_id
 _symmetry_equiv_pos_as_xyz
  1  'x, y, z'
loop_
 _atom_site_type_symbol
 _atom_site_label
 _atom_site_symmetry_multiplicity
 _atom_site_fract_x
 _atom_site_fract_y
 _atom_site_fract_z
 _atom_site_occupancy
  Ag  Ag0  1  0.16769542  0.33122904  0.50234141  1
  Ag  Ag1  1  0.16384307  0.17588512  0.33577916  1
  Ag  Ag2  1  0.83937852  0.83744078  0.67731355  1
  Ag  Ag3  1  0.32391025  0.33255063  -0.00883360  1
  Ag  Ag4  1  0.83307420  0.66776263  0.83155794  1
  Ag  Ag5  1  0.16902602  0.33040196  0.82129944  1
  Ag  Ag6  1  0.00781270  0.33023246  0.33090455  1
  Ag  Ag7  1  0.16111635  0.48538416  0.66696668  1
  Ag  Ag8  1  0.16856748  0.33362680  0.18044111  1
  Ag  Ag9  1  0.00611630  0.00460394  -0.00256041  1
  Ag  Ag10  1  0.16484172  0.48791860  0.33483316  1
  Ag  Ag11  1  0.50102531  0.00285655  0.16745836  1
  Ag  Ag12  1  0.16701678  0.17432893  -0.01062535  1
  Ag  Ag13  1  0.66632138  -0.00095908  0.66702380  1
  Ag  Ag14  1  0.84100963  0.33446848  0.83105716  1
  Ag  Ag15  1  0.83957063  0.49563973  0.67844490  1
  Ag  Ag16  1  0.33178622  0.00772468  0.67464293  1
  Ag  Ag17  1  0.00953294  0.33009779  -0.00701211  1
  Ag  Ag18  1  0.32304095  0.17517330  0.83074352  1
  Ag  Ag19  1  0.32312549  0.83557444  0.83556849  1
  Ag  Ag20  1  0.16123485  0.83579489  0.67682510  1
  Ag  Ag21  1  0.33511020  0.65492873  -0.00677826  1
  Ag  Ag22  1  0.16526228  0.17400102  0.67243839  1
  Ag  Ag23  1  0.67452226  0.83158060  0.83551832  1
  Ag  Ag24  1  0.33375991  0.48706255  0.83448503  1
  Ag  Ag25  1  0.84423067  0.16746884  0.33820488  1
  Ag  Ag26  1  0.31983166  0.32687422  0.67989718  1
  Ag  Ag27  1  0.49973212  0.49920536  0.00146810  1
  Ag  Ag28  1  0.00933415  0.33396159  0.67685898  1
  Ag  Ag29  1  0.67241691  -0.00161823  0.33413610  1
  Ag  Ag30  1  0.83663157  -0.00635953  0.83072020  1
  Ag  Ag31  1  -0.00272074  0.49492091  0.16761785  1
  Ag  Ag32  1  0.83831230  0.84192990  0.33486601  1
  Ag  Ag33  1  0.00199128  0.83856249  0.83237453  1
  Ag  Ag34  1  0.16180852  0.83635650  0.33254689  1
  Ag  Ag35  1  0.49878906  0.66797941  0.50648608  1
  Ag  Ag36  1  0.83196317  0.49878165  -0.00543836  1
  Ag  Ag37  1  0.49736469  0.49697532  0.32487269  1
  Ag  Ag38  1  0.49835385  -0.00216066  0.49834027  1
  Ag  Ag39  1  0.49784786  0.66291629  0.83532988  1
  Ag  Ag40  1  -0.00088960  0.65471220  0.67217438  1
  Ag  Ag41  1  0.83859707  0.49699550  0.32915627  1
  Ag  Ag42  1  0.66763989  0.83106323  0.16288093  1
  Ag  Ag43  1  0.84208271  0.16797390  0.67075888  1
  Ag  Ag44  1  -0.00342387  0.00996351  0.32582629  1
  Ag  Ag45  1  0.66930072  0.50138331  0.16411754  1
  Ag  Ag46  1  0.66068739  0.66456995  -0.00313976  1
  Ag  Ag47  1  0.00466614  0.17204183  0.83183853  1
  Ag  Ag48  1  0.16821441  0.83912459  -0.00804908  1
  Ag  Ag49  1  0.32585827  0.00299268  -0.00860943  1
  Ag  Ag50  1  0.48314356  0.33985947  0.83901400  1
  Ag  Ag51  1  0.49321591  0.33610836  0.16179906  1
  Ag  Ag52  1  0.32939517  0.16879166  0.51171843  1
  Ag  Ag53  1  0.31993914  0.33285463  0.33206616  1
  Sb  Sb54  1  0.33144041  0.83831011  0.50648579  1
  Sb  Sb55  1  0.49205855  0.17279433  -0.00198404  1
  Sb  Sb56  1  0.00147869  0.17256578  0.16504945  1
  Sb  Sb57  1  0.67038692  0.33187682  0.33048289  1
  Sb  Sb58  1  0.66710647  0.16750130  0.16786798  1
  Sb  Sb59  1  0.66992438  0.16226008  0.83212215  1
  Sb  Sb60  1  0.32893692  0.66565490  0.67406568  1
  Sb  Sb61  1  0.33051456  0.16998664  0.16159539  1
  Sb  Sb62  1  0.84203248  0.17128609  -0.00540732  1
  Sb  Sb63  1  0.83205846  0.66449488  0.16014850  1
  Sb  Sb64  1  -0.00090804  0.66343427  0.33833952  1
  Sb  Sb65  1  0.66513567  0.50048359  0.49504088  1
  Sb  Sb66  1  0.33222945  0.49455723  0.50476179  1
  Sb  Sb67  1  0.00065751  0.49696668  0.50037290  1
  Sb  Sb68  1  0.33426915  0.66035269  0.32985274  1
  Sb  Sb69  1  0.50120421  0.66296631  0.16165303  1
  Sb  Sb70  1  0.49474311  0.82887843  -0.00198989  1
  Sb  Sb71  1  0.66974355  0.33005809  0.67035619  1
  Sb  Sb72  1  0.16333415  0.00609374  0.83471246  1
  Sb  Sb73  1  0.00112694  0.83601951  0.50608046  1
  Sb  Sb74  1  0.49980251  0.49935959  0.67094505  1
  Sb  Sb75  1  0.66653709  0.50405338  0.83804654  1
  Sb  Sb76  1  0.16623965  0.66078863  0.16512687  1
  Sb  Sb77  1  0.83061186  0.66616476  0.50628721  1
  Sb  Sb78  1  0.49592167  0.16988403  0.33342982  1
  Sb  Sb79  1  -0.00293858  0.82947105  0.16390294  1
  Sb  Sb80  1  0.66680426  -0.00747599  -0.00111958  1
  Sb  Sb81  1  0.00197492  0.49415957  0.83481692  1
  Sb  Sb82  1  0.49833811  -0.00042251  0.83461169  1
  Sb  Sb83  1  0.83743009  0.33643098  0.16387308  1
  Sb  Sb84  1  0.16998493  0.00611312  0.50055253  1
  Sb  Sb85  1  0.83086487  -0.00053592  0.16536476  1
  Sb  Sb86  1  0.84030218  0.33289218  0.50362980  1
  Sb  Sb87  1  0.16959659  0.00487640  0.16463170  1
  Sb  Sb88  1  0.33441914  0.83546817  0.16052648  1
  Sb  Sb89  1  0.33181909  0.00542678  0.33371953  1
  Sb  Sb90  1  0.83706887  0.83025786  -0.00501832  1
  Sb  Sb91  1  0.49977650  0.83411527  0.67035030  1
  Sb  Sb92  1  0.00239870  0.66368826  -0.00761350  1
  Sb  Sb93  1  0.00649042  0.16683603  0.50299710  1
  Sb  Sb94  1  0.83194021  0.00123639  0.50352326  1
  Sb  Sb95  1  0.66184809  0.16380769  0.50127014  1
  Sb  Sb96  1  0.17092200  0.66297730  0.50242346  1
  Sb  Sb97  1  0.00158097  0.00498328  0.67184663  1
  Sb  Sb98  1  0.66767035  0.66956582  0.32843442  1
  Sb  Sb99  1  0.16668011  0.49227778  -0.00187925  1
  Sb  Sb100  1  0.33330434  0.49507748  0.16048634  1
  Sb  Sb101  1  0.16710026  0.66455818  0.83329884  1
  Sb  Sb102  1  0.67184227  0.67137909  0.67489673  1
  Sb  Sb103  1  0.48986655  0.33324569  0.50006860  1
  Sb  Sb104  1  0.49254050  0.16630038  0.66831729  1
  Sb  Sb105  1  0.49953161  0.83220718  0.33153989  1
  Sb  Sb106  1  0.66496307  0.33902780  -0.00063728  1
  Sb  Sb107  1  0.66687487  0.83474746  0.50216224  1
  Te  Te108  1  0.16562920  0.17295510  0.17385814  1
  Te  Te109  1  0.17168081  0.16989774  0.49869533  1
  Te  Te110  1  0.16519822  0.16701145  0.83246420  1
  Te  Te111  1  0.16413347  0.49502252  0.16994706  1
  Te  Te112  1  0.16746700  0.49629353  0.50182181  1
  Te  Te113  1  0.17043117  0.49741196  0.82858005  1
  Te  Te114  1  0.16591795  0.83256915  0.17115692  1
  Te  Te115  1  0.16728924  0.83265595  0.49341236  1
  Te  Te116  1  0.16383410  0.83095318  0.83437121  1
  Te  Te117  1  0.50065078  0.16880364  0.16607234  1
  Te  Te118  1  0.49158410  0.16160295  0.50045600  1
  Te  Te119  1  0.49893525  0.17368215  0.83328856  1
  Te  Te120  1  0.50029727  0.49805560  0.16438657  1
  Te  Te121  1  0.49952681  0.50358346  0.49720922  1
  Te  Te122  1  0.49934349  0.50023789  0.83589716  1
  Te  Te123  1  0.50636209  0.83616573  0.16589717  1
  Te  Te124  1  0.49908531  0.83357363  0.49994629  1
  Te  Te125  1  0.50454868  0.82964339  0.83412352  1
  Te  Te126  1  0.83267573  0.16804490  0.17648490  1
  Te  Te127  1  0.83187505  0.16677641  0.49912862  1
  Te  Te128  1  0.83682211  0.16894023  0.83036444  1
  Te  Te129  1  0.83129867  0.49971578  0.16816663  1
  Te  Te130  1  0.83242909  0.50090193  0.49255983  1
  Te  Te131  1  0.83348450  0.50014554  0.83431926  1
  Te  Te132  1  0.82828570  0.83138305  0.17295845  1
  Te  Te133  1  0.83336462  0.83250453  0.49398940  1
  Te  Te134  1  0.83434635  0.83333983  0.83398255  1
  Te  Te135  1  0.16611909  0.00011528  0.00090082  1
  Te  Te136  1  0.16355025  -0.00295339  0.33229767  1
  Te  Te137  1  0.17031769  -0.00523139  0.66471622  1
  Te  Te138  1  0.16656792  0.33390620  -0.00427016  1
  Te  Te139  1  0.16471204  0.33290381  0.33655530  1
  Te  Te140  1  0.16614810  0.33061984  0.66410961  1
  Te  Te141  1  0.17112165  0.67257916  0.00035327  1
  Te  Te142  1  0.16732522  0.67173355  0.33393975  1
  Te  Te143  1  0.16138515  0.67661407  0.66569953  1
  Te  Te144  1  0.49814074  0.00157745  0.00343128  1
  Te  Te145  1  0.50075769  0.00060962  0.33245719  1
  Te  Te146  1  0.50041518  -0.00003112  0.66489217  1
  Te  Te147  1  0.49901526  0.33799737  -0.00056989  1
  Te  Te148  1  0.50202509  0.33755628  0.33164863  1
  Te  Te149  1  0.49921807  0.33428572  0.67155794  1
  Te  Te150  1  0.49805219  0.66258193  -0.00436856  1
  Te  Te151  1  0.49981070  0.66003082  0.33381835  1
  Te  Te152  1  0.50012343  0.66589992  0.66997750  1
  Te  Te153  1  0.83751070  0.00174791  -0.00534962  1
  Te  Te154  1  0.83307463  0.00075245  0.33334242  1
  Te  Te155  1  0.83473824  -0.00108971  0.66868124  1
  Te  Te156  1  0.83542545  0.33731430  -0.00343391  1
  Te  Te157  1  0.83706803  0.33353000  0.33446439  1
  Te  Te158  1  0.83644073  0.33358406  0.66826015  1
  Te  Te159  1  0.83370729  0.66162283  -0.00639098  1
  Te  Te160  1  0.83276790  0.66116879  0.33515478  1
  Te  Te161  1  0.83709632  0.66781650  0.67091374  1
  Te  Te162  1  0.00552029  0.16774846  -0.00209910  1
  Te  Te163  1  0.00173234  0.16787791  0.33319308  1
  Te  Te164  1  0.00234937  0.17043905  0.66872090  1
  Te  Te165  1  -0.00227055  0.49677452  0.00353643  1
  Te  Te166  1  0.00278069  0.49941936  0.33243715  1
  Te  Te167  1  -0.00021780  0.49541694  0.66711382  1
  Te  Te168  1  0.00447927  0.83475216  -0.00279124  1
  Te  Te169  1  -0.00241871  0.83016718  0.33227847  1
  Te  Te170  1  -0.00123505  0.84030797  0.67065218  1
  Te  Te171  1  0.32733771  0.16872440  -0.00466722  1
  Te  Te172  1  0.32874636  0.17066862  0.33228912  1
  Te  Te173  1  0.33061727  0.16726124  0.67064248  1
  Te  Te174  1  0.33358287  0.49618491  -0.00510137  1
  Te  Te175  1  0.33103684  0.49649440  0.33411001  1
  Te  Te176  1  0.33119055  0.49705583  0.67246413  1
  Te  Te177  1  0.32913335  0.84267341  -0.00250196  1
  Te  Te178  1  0.32994028  0.83203666  0.33295431  1
  Te  Te179  1  0.33032521  0.83532157  0.67204721  1
  Te  Te180  1  0.66835354  0.16438318  0.00109608  1
  Te  Te181  1  0.66750484  0.15933633  0.33396844  1
  Te  Te182  1  0.67516916  0.15921444  0.66630404  1
  Te  Te183  1  0.66805797  0.50428761  0.00356653  1
  Te  Te184  1  0.66655592  0.50081102  0.32757729  1
  Te  Te185  1  0.67534745  0.50005981  0.66471556  1
  Te  Te186  1  0.66786429  0.82754882  -0.00023911  1
  Te  Te187  1  0.66815932  0.83696112  0.33023261  1
  Te  Te188  1  0.67196219  0.83831983  0.67023993  1
  Te  Te189  1  -0.00046107  -0.00164163  0.16504426  1
  Te  Te190  1  -0.00054116  0.00072046  0.48471285  1
  Te  Te191  1  -0.00292623  0.00020563  0.83562350  1
  Te  Te192  1  0.00258227  0.33690949  0.16954339  1
  Te  Te193  1  0.00621757  0.33199259  0.49250002  1
  Te  Te194  1  0.00067954  0.33314514  0.83366981  1
  Te  Te195  1  -0.00046871  0.65670411  0.16623965  1
  Te  Te196  1  -0.00044334  0.66769868  0.51225812  1
  Te  Te197  1  -0.00356754  0.67156564  0.82952501  1
  Te  Te198  1  0.34051862  0.00116903  0.16242435  1
  Te  Te199  1  0.33789314  0.00478286  0.50205983  1
  Te  Te200  1  0.33602961  -0.00505517  0.83309476  1
  Te  Te201  1  0.33294211  0.33354946  0.17089546  1
  Te  Te202  1  0.32984230  0.32886067  0.49391954  1
  Te  Te203  1  0.32909558  0.33133628  0.83495983  1
  Te  Te204  1  0.33394118  0.66706520  0.15550760  1
  Te  Te205  1  0.33974087  0.66754401  0.50036865  1
  Te  Te206  1  0.33510312  0.67620247  0.83648129  1
  Te  Te207  1  0.66324056  -0.00261037  0.16840027  1
  Te  Te208  1  0.66006368  -0.00085218  0.50006195  1
  Te  Te209  1  0.66879752  -0.00539580  0.83062671  1
  Te  Te210  1  0.66008003  0.33900838  0.16621885  1
  Te  Te211  1  0.66444244  0.33236205  0.50050614  1
  Te  Te212  1  0.67549882  0.33211658  0.83416692  1
  Te  Te213  1  0.66622611  0.66640833  0.16009834  1
  Te  Te214  1  0.65797740  0.66756898  0.50049991  1
  Te  Te215  1  0.66716267  0.67025668  0.83744092  1
