# generated using pymatgen
data_AgSbTe2
_symmetry_space_group_name_H-M   'P 1'
_cell_length_a   18.34208856
_cell_length_b   18.35329827
_cell_length_c   18.35088021
_cell_angle_alpha   89.99735909
_cell_angle_beta   90.00095417
_cell_angle_gamma   89.99750890
_symmetry_Int_Tables_number   1
_chemical_formula_structural   AgSbTe2
_chemical_formula_sum   'Ag54 Sb54 Te108'
_cell_volume   6177.60033845
_cell_formula_units_Z   54
loop_
 _symmetry_equiv_pos_site_id
 _symmetry_equiv_pos_as_xyz
  1  'x, y, z'
loop_
 _atom_site_type_symbol
 _atom_site_label
 _atom_site_symmetry_multiplicity
 _atom_site_fract_x
 _atom_site_fract_y
 _atom_site_fract_z
 _atom_site_occupancy
  Ag  Ag0  1  0.34556445  0.66996221  -0.00115212  1
  Ag  Ag1  1  0.82559591  0.83279484  0.66147834  1
  Ag  Ag2  1  0.50378845  0.82489577  0.65808224  1
  Ag  Ag3  1  -0.00782337  0.83274949  0.49490615  1
  Ag  Ag4  1  0.34206586  0.67308321  0.67210293  1
  Ag  Ag5  1  0.50589090  0.33540110  0.16982529  1
  Ag  Ag6  1  0.49900498  0.67230345  0.16697162  1
  Ag  Ag7  1  0.33832816  0.50176739  0.83243532  1
  Ag  Ag8  1  0.50191892  0.82699703  0.01541614  1
  Ag  Ag9  1  0.66336281  0.17006262  0.49585759  1
  Ag  Ag10  1  -0.00247665  0.50186335  0.16885235  1
  Ag  Ag11  1  -0.00042477  0.50150171  0.84304165  1
  Ag  Ag12  1  0.34089416  0.00250126  0.33691742  1
  Ag  Ag13  1  -0.00346985  0.66212602  0.32844523  1
  Ag  Ag14  1  0.82481036  0.33459727  0.17003036  1
  Ag  Ag15  1  0.50343216  0.16233422  0.65305649  1
  Ag  Ag16  1  -0.00076912  0.66504943  0.00734104  1
  Ag  Ag17  1  0.82567075  0.83167237  0.00854871  1
  Ag  Ag18  1  0.82658757  0.83531752  0.33421913  1
  Ag  Ag19  1  0.82483939  0.50725511  0.66208244  1
  Ag  Ag20  1  -0.00729016  0.34642213  0.01243124  1
  Ag  Ag21  1  0.82500435  0.16849037  0.33652257  1
  Ag  Ag22  1  0.16443445  0.49619121  0.33166497  1
  Ag  Ag23  1  0.50437478  0.51056390  0.66236092  1
  Ag  Ag24  1  0.50102157  0.66612555  0.82439373  1
  Ag  Ag25  1  0.34625573  0.32724771  0.33222278  1
  Ag  Ag26  1  0.50191523  -0.00395247  0.49653019  1
  Ag  Ag27  1  0.34264609  0.83206704  0.17524262  1
  Ag  Ag28  1  0.66432091  0.49627086  0.49744335  1
  Ag  Ag29  1  0.49968178  0.50958311  0.00833570  1
  Ag  Ag30  1  0.82768240  0.66869776  0.83112476  1
  Ag  Ag31  1  0.50002038  -0.01132968  0.17998782  1
  Ag  Ag32  1  -0.00141799  -0.00269631  0.33433794  1
  Ag  Ag33  1  0.66391903  0.17416085  0.17560782  1
  Ag  Ag34  1  0.34378073  0.83617924  0.49412027  1
  Ag  Ag35  1  0.17618978  0.66585355  0.16854171  1
  Ag  Ag36  1  0.83556046  -0.00959177  0.82104606  1
  Ag  Ag37  1  0.50028474  0.67802178  0.50983863  1
  Ag  Ag38  1  0.33673471  0.16653585  0.82629492  1
  Ag  Ag39  1  0.33811017  -0.01076113  0.00210410  1
  Ag  Ag40  1  0.65845768  0.66674324  0.66441885  1
  Ag  Ag41  1  0.66846981  0.33395642  0.01128769  1
  Ag  Ag42  1  0.34073957  -0.00659346  0.65643638  1
  Ag  Ag43  1  0.82514540  -0.00201711  0.49788906  1
  Ag  Ag44  1  0.50230029  0.16285413  0.33425174  1
  Ag  Ag45  1  0.65958613  0.83589288  0.16908016  1
  Ag  Ag46  1  0.17722466  0.17217733  0.33418681  1
  Ag  Ag47  1  -0.00909910  0.33901870  0.33012144  1
  Ag  Ag48  1  0.66485438  0.33136095  0.33072398  1
  Ag  Ag49  1  0.50234444  0.50035432  0.33251806  1
  Ag  Ag50  1  0.34504550  0.15659082  0.49791708  1
  Ag  Ag51  1  0.50204847  0.83611723  0.33119653  1
  Ag  Ag52  1  0.82435571  0.15787387  0.65638656  1
  Ag  Ag53  1  0.83140920  0.49427976  0.33441668  1
  Sb  Sb54  1  0.83186229  0.32920426  0.49081357  1
  Sb  Sb55  1  0.33772094  0.66861936  0.33099540  1
  Sb  Sb56  1  0.83105301  0.50385629  0.00169378  1
  Sb  Sb57  1  0.83153992  0.16407237  0.00214319  1
  Sb  Sb58  1  0.16731115  0.00184005  0.83339365  1
  Sb  Sb59  1  -0.00024335  0.17112569  0.83219207  1
  Sb  Sb60  1  0.66638379  0.83248225  0.83584796  1
  Sb  Sb61  1  0.50048618  0.16495586  0.00315366  1
  Sb  Sb62  1  0.66455254  0.66251801  0.33738315  1
  Sb  Sb63  1  -0.00314978  0.16076504  0.49378699  1
  Sb  Sb64  1  0.16990209  0.66514954  0.83817600  1
  Sb  Sb65  1  0.66264108  0.00084771  0.00194959  1
  Sb  Sb66  1  0.16730279  0.50145176  0.00587674  1
  Sb  Sb67  1  0.17006014  0.50204947  0.66177149  1
  Sb  Sb68  1  0.17023950  0.16778566  0.00865418  1
  Sb  Sb69  1  0.16832023  0.33280983  0.49512015  1
  Sb  Sb70  1  0.17221646  0.66651082  0.49325678  1
  Sb  Sb71  1  0.17242196  0.83213256  0.66457170  1
  Sb  Sb72  1  -0.00051141  -0.00526457  0.00534353  1
  Sb  Sb73  1  0.66457863  0.33639129  0.66203317  1
  Sb  Sb74  1  0.16665714  0.33836254  0.17132754  1
  Sb  Sb75  1  0.33573178  0.50504528  0.16716729  1
  Sb  Sb76  1  -0.00532431  0.17265993  0.17232678  1
  Sb  Sb77  1  0.82793733  0.00150252  0.17325662  1
  Sb  Sb78  1  -0.00739672  0.50540158  0.49294704  1
  Sb  Sb79  1  0.16771145  0.33530813  0.83584266  1
  Sb  Sb80  1  0.66318070  0.83502474  0.49459135  1
  Sb  Sb81  1  0.50024839  -0.00384028  0.83028077  1
  Sb  Sb82  1  -0.00663370  0.33451792  0.66234669  1
  Sb  Sb83  1  0.82826455  0.66550865  0.16745262  1
  Sb  Sb84  1  0.66308142  0.66417644  -0.00188109  1
  Sb  Sb85  1  -0.00844020  0.82845341  0.83129271  1
  Sb  Sb86  1  0.66410792  0.50120674  0.82989575  1
  Sb  Sb87  1  -0.00259067  0.66726945  0.66534277  1
  Sb  Sb88  1  0.50010831  0.33047315  0.49147117  1
  Sb  Sb89  1  0.83243913  0.33702920  0.83718540  1
  Sb  Sb90  1  0.17275551  -0.00069907  0.49597458  1
  Sb  Sb91  1  0.66587471  0.49812877  0.17141902  1
  Sb  Sb92  1  0.17531270  -0.00467206  0.17166255  1
  Sb  Sb93  1  0.17245043  0.16512463  0.65928370  1
  Sb  Sb94  1  0.49994536  0.33913194  0.83817505  1
  Sb  Sb95  1  0.33772717  0.83095243  0.83313316  1
  Sb  Sb96  1  -0.00270187  -0.00189504  0.66067336  1
  Sb  Sb97  1  0.33621829  0.33666469  0.00566572  1
  Sb  Sb98  1  0.66388220  -0.00546517  0.66460137  1
  Sb  Sb99  1  0.17209379  0.83074336  0.00205595  1
  Sb  Sb100  1  -0.00168241  0.82857165  0.17205030  1
  Sb  Sb101  1  0.34094912  0.16136584  0.17335840  1
  Sb  Sb102  1  0.16905609  0.83194750  0.33314365  1
  Sb  Sb103  1  0.66353585  0.00561573  0.33449166  1
  Sb  Sb104  1  0.34292807  0.50336065  0.49935720  1
  Sb  Sb105  1  0.66252404  0.16687194  0.82983079  1
  Sb  Sb106  1  0.33867578  0.33330705  0.66049497  1
  Sb  Sb107  1  0.82646372  0.67052829  0.50160079  1
  Te  Te108  1  0.16650689  0.16524004  0.17622987  1
  Te  Te109  1  0.16937115  0.16674257  0.49188559  1
  Te  Te110  1  0.17293356  0.16744515  0.83196765  1
  Te  Te111  1  0.16408480  0.50549215  0.17269851  1
  Te  Te112  1  0.16661422  0.50043072  0.49183093  1
  Te  Te113  1  0.16661007  0.50052547  0.83031696  1
  Te  Te114  1  0.17373014  0.82595279  0.16655839  1
  Te  Te115  1  0.16417588  0.83224198  0.50112030  1
  Te  Te116  1  0.16201735  0.83387649  0.83283672  1
  Te  Te117  1  0.50429583  0.17219935  0.16912151  1
  Te  Te118  1  0.50115748  0.16694196  0.49642291  1
  Te  Te119  1  0.49476695  0.16589596  0.83481513  1
  Te  Te120  1  0.49982247  0.49716923  0.16805591  1
  Te  Te121  1  0.50306391  0.49951316  0.49976090  1
  Te  Te122  1  0.49735716  0.50456085  0.83013602  1
  Te  Te123  1  0.49854672  0.83395046  0.16922087  1
  Te  Te124  1  0.50187779  0.83567330  0.49887884  1
  Te  Te125  1  0.50080182  0.82755200  0.82363338  1
  Te  Te126  1  0.82686549  0.16944826  0.16936028  1
  Te  Te127  1  0.83193069  0.16268756  0.49927923  1
  Te  Te128  1  0.83294596  0.16603789  0.83118828  1
  Te  Te129  1  0.83595284  0.49724408  0.16902382  1
  Te  Te130  1  0.82727869  0.50167322  0.50071063  1
  Te  Te131  1  0.83683060  0.50393836  0.83245910  1
  Te  Te132  1  0.82939335  0.83381031  0.16962225  1
  Te  Te133  1  0.82998960  0.83621273  0.49688537  1
  Te  Te134  1  0.83156529  0.83113162  0.82789041  1
  Te  Te135  1  0.17393670  -0.00003793  0.00142188  1
  Te  Te136  1  0.16197917  0.00519386  0.33322431  1
  Te  Te137  1  0.17472375  0.00056126  0.66715922  1
  Te  Te138  1  0.15621472  0.33286274  0.00290539  1
  Te  Te139  1  0.16451999  0.33446990  0.33362851  1
  Te  Te140  1  0.16468154  0.33239948  0.66642260  1
  Te  Te141  1  0.16000935  0.66591179  0.00697194  1
  Te  Te142  1  0.16306902  0.66278017  0.32849157  1
  Te  Te143  1  0.17552196  0.66633523  0.66575680  1
  Te  Te144  1  0.49575639  -0.00503226  -0.00384330  1
  Te  Te145  1  0.49930342  -0.00146423  0.33546817  1
  Te  Te146  1  0.49760674  0.00556483  0.66700093  1
  Te  Te147  1  0.50223074  0.33441274  0.00605890  1
  Te  Te148  1  0.50281189  0.33696361  0.33176326  1
  Te  Te149  1  0.50072096  0.32858554  0.67081773  1
  Te  Te150  1  0.50196884  0.66692565  0.00448065  1
  Te  Te151  1  0.50123342  0.66605005  0.32688649  1
  Te  Te152  1  0.49809904  0.66597689  0.66690888  1
  Te  Te153  1  0.83476307  -0.00800301  0.00180562  1
  Te  Te154  1  0.83482002  -0.00293640  0.33602911  1
  Te  Te155  1  0.83280405  -0.00093162  0.66381897  1
  Te  Te156  1  0.83417900  0.33172484  0.00569093  1
  Te  Te157  1  0.83060834  0.33333680  0.33105912  1
  Te  Te158  1  0.83110825  0.33625046  0.66867742  1
  Te  Te159  1  0.83345550  0.67097738  -0.00353873  1
  Te  Te160  1  0.83591532  0.66955356  0.33538039  1
  Te  Te161  1  0.83360288  0.66697258  0.66840060  1
  Te  Te162  1  0.00144731  0.16468334  -0.00019271  1
  Te  Te163  1  -0.00868262  0.16785183  0.33339473  1
  Te  Te164  1  -0.00329894  0.16620522  0.66544680  1
  Te  Te165  1  -0.00078384  0.50286069  0.00231238  1
  Te  Te166  1  -0.00656709  0.50192238  0.33263700  1
  Te  Te167  1  -0.00095302  0.49945688  0.66536365  1
  Te  Te168  1  -0.00253657  0.82804763  0.00084622  1
  Te  Te169  1  0.00242895  0.83319082  0.33475842  1
  Te  Te170  1  -0.00375183  0.83368617  0.66072524  1
  Te  Te171  1  0.33133361  0.16724745  -0.00491017  1
  Te  Te172  1  0.33959524  0.16399839  0.33399333  1
  Te  Te173  1  0.33635462  0.16711532  0.66416000  1
  Te  Te174  1  0.33630572  0.50292133  -0.00259783  1
  Te  Te175  1  0.33848154  0.49847219  0.33424927  1
  Te  Te176  1  0.33785132  0.50106157  0.66781958  1
  Te  Te177  1  0.33790251  0.83077791  -0.00104964  1
  Te  Te178  1  0.33538766  0.83469346  0.33411286  1
  Te  Te179  1  0.33736741  0.83364888  0.66563741  1
  Te  Te180  1  0.66753453  0.17115283  0.00303734  1
  Te  Te181  1  0.66480878  0.16866271  0.33348308  1
  Te  Te182  1  0.66647272  0.16817861  0.66253858  1
  Te  Te183  1  0.66123234  0.49499245  -0.00008095  1
  Te  Te184  1  0.66693777  0.49680526  0.33596400  1
  Te  Te185  1  0.66534796  0.50142307  0.66350936  1
  Te  Te186  1  0.66482675  0.83426150  0.00448672  1
  Te  Te187  1  0.66583516  0.83106570  0.32979399  1
  Te  Te188  1  0.66576636  0.82767568  0.66637416  1
  Te  Te189  1  0.00226078  0.00056182  0.17291169  1
  Te  Te190  1  -0.00198574  -0.00546102  0.49516470  1
  Te  Te191  1  -0.00527030  0.00175696  0.83446172  1
  Te  Te192  1  0.00068267  0.33780524  0.16908432  1
  Te  Te193  1  0.00078525  0.33390519  0.49169245  1
  Te  Te194  1  0.00030797  0.34013107  0.83449121  1
  Te  Te195  1  -0.00640522  0.66359422  0.16787659  1
  Te  Te196  1  0.00307542  0.67292744  0.49645717  1
  Te  Te197  1  0.00136425  0.66090066  0.83263430  1
  Te  Te198  1  0.33897683  -0.00511054  0.16644426  1
  Te  Te199  1  0.33628429  -0.00198659  0.49844251  1
  Te  Te200  1  0.33200818  0.00386744  0.83674410  1
  Te  Te201  1  0.33526990  0.33258921  0.17230066  1
  Te  Te202  1  0.33286620  0.32963677  0.49238921  1
  Te  Te203  1  0.33309588  0.33568399  0.83562759  1
  Te  Te204  1  0.33534418  0.66979866  0.16406575  1
  Te  Te205  1  0.33984077  0.67141559  0.50274400  1
  Te  Te206  1  0.33545088  0.66389511  0.83608318  1
  Te  Te207  1  0.65973119  -0.00178700  0.16507030  1
  Te  Te208  1  0.66453939  0.00679123  0.50285380  1
  Te  Te209  1  0.67841638  0.00222272  0.83394025  1
  Te  Te210  1  0.66683687  0.33573099  0.16946888  1
  Te  Te211  1  0.66709681  0.33344085  0.49512489  1
  Te  Te212  1  0.66702103  0.33228263  0.84433545  1
  Te  Te213  1  0.66025826  0.67216638  0.16542385  1
  Te  Te214  1  0.65940985  0.66200478  0.50459312  1
  Te  Te215  1  0.66728136  0.66627563  0.82758768  1
