# generated using pymatgen
data_AgSbTe2
_symmetry_space_group_name_H-M   'P 1'
_cell_length_a   18.32529919
_cell_length_b   18.32268420
_cell_length_c   18.32205192
_cell_angle_alpha   90.00402851
_cell_angle_beta   90.00073355
_cell_angle_gamma   89.99938681
_symmetry_Int_Tables_number   1
_chemical_formula_structural   AgSbTe2
_chemical_formula_sum   'Ag54 Sb54 Te108'
_cell_volume   6151.97098686
_cell_formula_units_Z   54
loop_
 _symmetry_equiv_pos_site_id
 _symmetry_equiv_pos_as_xyz
  1  'x, y, z'
loop_
 _atom_site_type_symbol
 _atom_site_label
 _atom_site_symmetry_multiplicity
 _atom_site_fract_x
 _atom_site_fract_y
 _atom_site_fract_z
 _atom_site_occupancy
  Ag  Ag0  1  0.50557546  0.33616491  0.49770827  1
  Ag  Ag1  1  0.50026865  0.83333781  0.65861152  1
  Ag  Ag2  1  0.83063981  0.17009374  0.33952870  1
  Ag  Ag3  1  0.83720995  0.33564155  0.15827454  1
  Ag  Ag4  1  0.33277610  0.82020455  0.82594224  1
  Ag  Ag5  1  -0.00286927  0.83022509  0.16810479  1
  Ag  Ag6  1  0.83936141  0.34073087  0.83542480  1
  Ag  Ag7  1  0.33562413  0.50231158  0.50341041  1
  Ag  Ag8  1  0.16247527  0.33691850  0.50258932  1
  Ag  Ag9  1  0.33026865  0.50379207  0.15506554  1
  Ag  Ag10  1  -0.01117891  0.49659024  0.50202741  1
  Ag  Ag11  1  0.49656125  -0.01199110  0.17124554  1
  Ag  Ag12  1  0.83386524  0.33995049  0.50279937  1
  Ag  Ag13  1  0.00384622  0.00240445  0.33361169  1
  Ag  Ag14  1  0.66705705  0.67002871  0.33179200  1
  Ag  Ag15  1  0.83092440  0.49875051  -0.01097380  1
  Ag  Ag16  1  0.66726653  0.82962421  0.17329249  1
  Ag  Ag17  1  -0.00360637  0.33147130  0.33310886  1
  Ag  Ag18  1  0.83542143  0.65578254  0.83041857  1
  Ag  Ag19  1  0.17238791  0.65947591  0.83819380  1
  Ag  Ag20  1  0.32927865  0.34542792  -0.00442346  1
  Ag  Ag21  1  -0.00328786  0.33672825  -0.00414117  1
  Ag  Ag22  1  0.50511178  0.16064184  0.33453862  1
  Ag  Ag23  1  0.17301030  0.83472470  0.33137675  1
  Ag  Ag24  1  0.15734719  0.34010104  0.83238657  1
  Ag  Ag25  1  0.82829734  0.83101735  0.66898410  1
  Ag  Ag26  1  0.66791971  0.66400977  0.00139168  1
  Ag  Ag27  1  0.49750296  0.50217881  -0.00126817  1
  Ag  Ag28  1  -0.00772649  -0.00113748  0.66373026  1
  Ag  Ag29  1  0.33289186  -0.00345330  0.33466048  1
  Ag  Ag30  1  0.83118659  0.17015610  0.67039132  1
  Ag  Ag31  1  0.33769827  0.66240182  -0.00509581  1
  Ag  Ag32  1  -0.00092914  0.50011423  0.16252322  1
  Ag  Ag33  1  0.83205785  0.82315694  -0.00405294  1
  Ag  Ag34  1  0.66353938  0.82989761  0.49918103  1
  Ag  Ag35  1  0.33195514  0.50241889  0.83844522  1
  Ag  Ag36  1  0.67621193  0.17358078  0.82749208  1
  Ag  Ag37  1  0.67519025  0.50169341  0.50561388  1
  Ag  Ag38  1  0.67856540  0.49914759  0.83104260  1
  Ag  Ag39  1  0.34148316  0.82797824  0.50586346  1
  Ag  Ag40  1  0.66950788  0.16990355  0.50341075  1
  Ag  Ag41  1  0.49741736  0.83689315  0.33594687  1
  Ag  Ag42  1  0.82943721  0.65754485  0.50677116  1
  Ag  Ag43  1  0.16810851  -0.00995200  0.17156784  1
  Ag  Ag44  1  0.83247855  0.17981109  -0.01321187  1
  Ag  Ag45  1  0.33374179  0.67017107  0.67570184  1
  Ag  Ag46  1  -0.00966097  0.49567364  0.83515361  1
  Ag  Ag47  1  0.67139759  -0.00248521  0.66581857  1
  Ag  Ag48  1  0.33530061  -0.00855324  0.66427794  1
  Ag  Ag49  1  0.83205634  0.50014897  0.67515740  1
  Ag  Ag50  1  0.17153587  0.66892600  0.16313159  1
  Ag  Ag51  1  0.49759718  0.66881491  0.16523020  1
  Ag  Ag52  1  0.33329982  0.17132526  0.83250809  1
  Ag  Ag53  1  -0.00961205  0.17844685  0.83248966  1
  Sb  Sb54  1  0.16396810  0.16306133  0.33438442  1
  Sb  Sb55  1  0.66527930  -0.00320969  0.33728575  1
  Sb  Sb56  1  -0.00291381  0.83058448  0.49662289  1
  Sb  Sb57  1  0.32932523  0.33003784  0.33259854  1
  Sb  Sb58  1  0.16248054  0.16890550  -0.00232747  1
  Sb  Sb59  1  0.83158290  0.83631693  0.33513746  1
  Sb  Sb60  1  0.33401379  0.16920702  0.16349188  1
  Sb  Sb61  1  0.50492062  0.66578242  0.49634100  1
  Sb  Sb62  1  -0.00137186  0.66921109  0.66809274  1
  Sb  Sb63  1  0.16763104  0.50104976  -0.00259471  1
  Sb  Sb64  1  0.50297742  0.82643900  0.00225503  1
  Sb  Sb65  1  0.16757301  -0.00122296  0.83608114  1
  Sb  Sb66  1  0.83365511  0.49501105  0.33518461  1
  Sb  Sb67  1  -0.00456742  0.33273639  0.66906881  1
  Sb  Sb68  1  0.33402506  0.82859006  0.16721279  1
  Sb  Sb69  1  0.83226970  0.00174558  0.50180248  1
  Sb  Sb70  1  0.50492913  0.17249426  0.00204219  1
  Sb  Sb71  1  0.16617877  0.50387423  0.33343928  1
  Sb  Sb72  1  0.16915406  0.83259830  0.66312734  1
  Sb  Sb73  1  0.33900710  0.16738332  0.50363377  1
  Sb  Sb74  1  0.50173185  0.33550196  0.82992776  1
  Sb  Sb75  1  0.50293873  0.50516482  0.66880446  1
  Sb  Sb76  1  -0.00229429  0.00345803  0.00123746  1
  Sb  Sb77  1  0.49916166  0.66557822  0.83764946  1
  Sb  Sb78  1  0.83438660  0.00334872  0.82988741  1
  Sb  Sb79  1  0.50279415  0.33753864  0.16976917  1
  Sb  Sb80  1  0.16360438  0.82994402  0.00495471  1
  Sb  Sb81  1  0.67223214  0.34066950  -0.00136439  1
  Sb  Sb82  1  0.00067744  0.83057873  0.83662693  1
  Sb  Sb83  1  0.16145380  0.16611886  0.66838379  1
  Sb  Sb84  1  0.83279328  0.66346532  0.16441801  1
  Sb  Sb85  1  0.66977960  0.32959092  0.66493848  1
  Sb  Sb86  1  0.16264903  0.50036898  0.66859015  1
  Sb  Sb87  1  0.49898166  -0.00086534  0.83462209  1
  Sb  Sb88  1  -0.00291551  0.16915092  0.16423379  1
  Sb  Sb89  1  0.66676430  0.67026532  0.66736180  1
  Sb  Sb90  1  0.50034838  0.50197645  0.33185161  1
  Sb  Sb91  1  0.66615786  0.82959109  0.83075568  1
  Sb  Sb92  1  0.66949864  0.16143744  0.16781735  1
  Sb  Sb93  1  0.67247728  0.33555101  0.33666918  1
  Sb  Sb94  1  0.33323423  0.33625487  0.67132137  1
  Sb  Sb95  1  -0.00461887  0.66570313  0.33150713  1
  Sb  Sb96  1  -0.00264015  0.65888509  -0.00002701  1
  Sb  Sb97  1  0.50017539  -0.00116933  0.49607396  1
  Sb  Sb98  1  0.66796642  -0.00425269  -0.00333418  1
  Sb  Sb99  1  0.16792486  0.00218851  0.49672762  1
  Sb  Sb100  1  -0.00780181  0.17354869  0.50396662  1
  Sb  Sb101  1  0.83467132  0.00092230  0.16861336  1
  Sb  Sb102  1  0.16599030  0.66316546  0.49967315  1
  Sb  Sb103  1  0.33453577  -0.00316125  0.00050963  1
  Sb  Sb104  1  0.50549842  0.16031194  0.66324273  1
  Sb  Sb105  1  0.33747312  0.67126922  0.33206696  1
  Sb  Sb106  1  0.16100002  0.33747944  0.16467063  1
  Sb  Sb107  1  0.66922453  0.50637395  0.16515004  1
  Te  Te108  1  0.16623819  0.16212794  0.16634174  1
  Te  Te109  1  0.16686595  0.17603445  0.50085114  1
  Te  Te110  1  0.17061302  0.17080201  0.83356983  1
  Te  Te111  1  0.16566826  0.50458276  0.16722993  1
  Te  Te112  1  0.17022076  0.49614115  0.50056563  1
  Te  Te113  1  0.17175303  0.49959502  0.83188955  1
  Te  Te114  1  0.16602413  0.83062020  0.16978933  1
  Te  Te115  1  0.16782763  0.83253499  0.49241943  1
  Te  Te116  1  0.17009500  0.82930480  0.83355481  1
  Te  Te117  1  0.50160910  0.16748696  0.17280447  1
  Te  Te118  1  0.50629695  0.17048565  0.49611773  1
  Te  Te119  1  0.49936704  0.16753020  0.83393763  1
  Te  Te120  1  0.49824213  0.50392909  0.16312228  1
  Te  Te121  1  0.49878332  0.49736759  0.50039078  1
  Te  Te122  1  0.49417145  0.49929270  0.83680699  1
  Te  Te123  1  0.50181033  0.83023021  0.16742674  1
  Te  Te124  1  0.50051738  0.83200344  0.49844407  1
  Te  Te125  1  0.49470833  0.83365859  0.83098997  1
  Te  Te126  1  0.83275783  0.17174091  0.16802510  1
  Te  Te127  1  0.82830504  0.16918423  0.50284091  1
  Te  Te128  1  0.83318968  0.16653121  0.83119889  1
  Te  Te129  1  0.83728540  0.49626302  0.16629254  1
  Te  Te130  1  0.83239405  0.50004893  0.49797535  1
  Te  Te131  1  0.83467533  0.50012778  0.83190390  1
  Te  Te132  1  0.83292272  0.83255432  0.16532676  1
  Te  Te133  1  0.83059282  0.83000056  0.50376659  1
  Te  Te134  1  0.83386616  0.83088263  0.83264420  1
  Te  Te135  1  0.16635299  -0.00023727  0.01005330  1
  Te  Te136  1  0.16658781  -0.00275082  0.33089641  1
  Te  Te137  1  0.17053743  -0.00050431  0.66618292  1
  Te  Te138  1  0.16540689  0.33242626  -0.00394395  1
  Te  Te139  1  0.15986625  0.33174905  0.33491585  1
  Te  Te140  1  0.16556890  0.33304779  0.66846356  1
  Te  Te141  1  0.17146954  0.66757083  -0.00027510  1
  Te  Te142  1  0.16531225  0.67373134  0.33005055  1
  Te  Te143  1  0.17293050  0.66707981  0.67125903  1
  Te  Te144  1  0.50065957  0.00189542  0.01048637  1
  Te  Te145  1  0.49896806  -0.00127403  0.33047114  1
  Te  Te146  1  0.49580222  -0.00658160  0.66727796  1
  Te  Te147  1  0.49436502  0.34009952  0.00128546  1
  Te  Te148  1  0.49901184  0.32864827  0.33769840  1
  Te  Te149  1  0.49987181  0.33260628  0.65651203  1
  Te  Te150  1  0.50080198  0.66231745  0.00416057  1
  Te  Te151  1  0.50493762  0.67136456  0.32771864  1
  Te  Te152  1  0.49394005  0.67299309  0.66535327  1
  Te  Te153  1  0.83299592  -0.00274111  0.00057720  1
  Te  Te154  1  0.83833084  0.00763707  0.33385764  1
  Te  Te155  1  0.83295263  -0.00245862  0.66576188  1
  Te  Te156  1  0.83401385  0.33668315  -0.00305746  1
  Te  Te157  1  0.83720590  0.32903794  0.33797172  1
  Te  Te158  1  0.83277046  0.33379846  0.66673495  1
  Te  Te159  1  0.83168734  0.66435029  -0.00160778  1
  Te  Te160  1  0.82776076  0.66831766  0.33748910  1
  Te  Te161  1  0.83291452  0.66674496  0.66809074  1
  Te  Te162  1  -0.00652648  0.17119887  -0.00532475  1
  Te  Te163  1  -0.00348167  0.16664665  0.33404866  1
  Te  Te164  1  -0.00534088  0.15943145  0.67098743  1
  Te  Te165  1  -0.00484836  0.49673554  -0.00040635  1
  Te  Te166  1  0.00077456  0.49606567  0.33157145  1
  Te  Te167  1  -0.00657495  0.50163135  0.66711877  1
  Te  Te168  1  -0.00685407  0.83419699  0.00560287  1
  Te  Te169  1  -0.00024164  0.83685890  0.32896055  1
  Te  Te170  1  -0.00477752  0.83906197  0.66635333  1
  Te  Te171  1  0.33579922  0.16745181  -0.00528775  1
  Te  Te172  1  0.33675260  0.16047889  0.33353451  1
  Te  Te173  1  0.33475512  0.16349084  0.67086976  1
  Te  Te174  1  0.33184201  0.50191962  -0.00054216  1
  Te  Te175  1  0.33398997  0.49897931  0.34102245  1
  Te  Te176  1  0.33470119  0.50343003  0.66402949  1
  Te  Te177  1  0.33377745  0.82797437  -0.00627354  1
  Te  Te178  1  0.33602174  0.83683586  0.33346161  1
  Te  Te179  1  0.33167445  0.83225658  0.66508890  1
  Te  Te180  1  0.67210960  0.16609313  -0.00405931  1
  Te  Te181  1  0.66741804  0.16541888  0.33676091  1
  Te  Te182  1  0.66978531  0.16131889  0.66590272  1
  Te  Te183  1  0.66869983  0.50422707  -0.00154897  1
  Te  Te184  1  0.66527363  0.50703154  0.33823487  1
  Te  Te185  1  0.66981061  0.50225155  0.66686814  1
  Te  Te186  1  0.67104187  0.82809799  -0.00055307  1
  Te  Te187  1  0.66432055  0.83184996  0.33520978  1
  Te  Te188  1  0.66717414  0.83597541  0.66513446  1
  Te  Te189  1  0.00237497  -0.00246651  0.16968819  1
  Te  Te190  1  0.00138922  0.00030952  0.49890192  1
  Te  Te191  1  0.00375040  0.00210691  0.82983644  1
  Te  Te192  1  -0.00220932  0.33645063  0.16631618  1
  Te  Te193  1  -0.00165742  0.33752159  0.49972260  1
  Te  Te194  1  0.00017341  0.33497699  0.83324032  1
  Te  Te195  1  0.00412531  0.66625475  0.16655077  1
  Te  Te196  1  -0.00417994  0.65886788  0.49993210  1
  Te  Te197  1  0.00099504  0.66148532  0.83379167  1
  Te  Te198  1  0.33363005  0.00028259  0.16923781  1
  Te  Te199  1  0.33320029  -0.00292806  0.49980347  1
  Te  Te200  1  0.33205029  0.00431374  0.83091405  1
  Te  Te201  1  0.33215196  0.34018155  0.16196058  1
  Te  Te202  1  0.32975470  0.33590379  0.49979309  1
  Te  Te203  1  0.33518565  0.33574331  0.83598435  1
  Te  Te204  1  0.33304474  0.66291282  0.16706361  1
  Te  Te205  1  0.33296120  0.66758393  0.49961251  1
  Te  Te206  1  0.33505511  0.66421720  0.83497504  1
  Te  Te207  1  0.66250399  -0.00827857  0.16620736  1
  Te  Te208  1  0.66606797  -0.00333810  0.50537244  1
  Te  Te209  1  0.66512217  0.00442936  0.82740916  1
  Te  Te210  1  0.67384085  0.33338006  0.16839382  1
  Te  Te211  1  0.66947267  0.33565418  0.49947864  1
  Te  Te212  1  0.66996899  0.33525560  0.83232076  1
  Te  Te213  1  0.66605680  0.67037707  0.16563288  1
  Te  Te214  1  0.66900133  0.66777999  0.50100671  1
  Te  Te215  1  0.66951214  0.66199040  0.83653183  1
