# generated using pymatgen
data_AgSbTe2
_symmetry_space_group_name_H-M   'P 1'
_cell_length_a   18.32556408
_cell_length_b   18.32628065
_cell_length_c   18.32487661
_cell_angle_alpha   89.99994613
_cell_angle_beta   89.99889959
_cell_angle_gamma   90.00140076
_symmetry_Int_Tables_number   1
_chemical_formula_structural   AgSbTe2
_chemical_formula_sum   'Ag54 Sb54 Te108'
_cell_volume   6154.21612083
_cell_formula_units_Z   54
loop_
 _symmetry_equiv_pos_site_id
 _symmetry_equiv_pos_as_xyz
  1  'x, y, z'
loop_
 _atom_site_type_symbol
 _atom_site_label
 _atom_site_symmetry_multiplicity
 _atom_site_fract_x
 _atom_site_fract_y
 _atom_site_fract_z
 _atom_site_occupancy
  Ag  Ag0  1  0.00287565  0.33271272  0.00287153  1
  Ag  Ag1  1  0.49911568  0.66892165  0.50215747  1
  Ag  Ag2  1  0.83258116  0.66730714  0.50012950  1
  Ag  Ag3  1  0.67406479  0.16359416  0.83287998  1
  Ag  Ag4  1  0.66689303  0.33356108  0.66331511  1
  Ag  Ag5  1  0.16600400  -0.00575469  0.83825633  1
  Ag  Ag6  1  0.16132882  0.51231915  -0.00090987  1
  Ag  Ag7  1  0.49391156  0.83535505  0.66812167  1
  Ag  Ag8  1  0.49938668  -0.00766047  0.15245018  1
  Ag  Ag9  1  0.33207830  0.83361674  0.50088264  1
  Ag  Ag10  1  0.84181571  0.83483694  -0.00102660  1
  Ag  Ag11  1  0.33622975  -0.00587340  0.67356781  1
  Ag  Ag12  1  0.00813157  0.83321761  0.16071651  1
  Ag  Ag13  1  0.33877786  0.33008263  0.66991045  1
  Ag  Ag14  1  0.50239852  0.50059900  0.32889029  1
  Ag  Ag15  1  0.00834674  -0.00059938  -0.00192451  1
  Ag  Ag16  1  0.66192938  0.67092035  -0.00400556  1
  Ag  Ag17  1  0.66470842  -0.00458641  -0.00690976  1
  Ag  Ag18  1  0.16778448  0.67198005  0.15572428  1
  Ag  Ag19  1  0.67154350  0.49993344  0.83558257  1
  Ag  Ag20  1  0.83002149  0.00953990  0.50631633  1
  Ag  Ag21  1  0.83989615  0.33141130  0.16343950  1
  Ag  Ag22  1  0.82959378  0.00482845  0.83496626  1
  Ag  Ag23  1  0.17317034  0.83282221  0.67398593  1
  Ag  Ag24  1  0.00049732  0.49335200  0.15778133  1
  Ag  Ag25  1  0.15702812  0.16295976  0.32791288  1
  Ag  Ag26  1  0.49425926  0.67085301  0.15313869  1
  Ag  Ag27  1  -0.00792932  0.16709927  0.49122521  1
  Ag  Ag28  1  0.32866169  0.83194640  0.16197753  1
  Ag  Ag29  1  0.50250858  -0.00250620  0.50477508  1
  Ag  Ag30  1  0.16292729  0.82800585  0.00028039  1
  Ag  Ag31  1  0.83310001  0.32867618  0.83336989  1
  Ag  Ag32  1  -0.00041820  0.16995768  0.16053347  1
  Ag  Ag33  1  0.50130703  0.67091423  0.84002851  1
  Ag  Ag34  1  0.16670059  0.83533572  0.32216926  1
  Ag  Ag35  1  -0.00408219  0.16833292  0.84245396  1
  Ag  Ag36  1  0.16918881  0.67208408  0.49975789  1
  Ag  Ag37  1  0.16815931  0.67420994  0.84474381  1
  Ag  Ag38  1  0.67641054  0.33097704  0.34300284  1
  Ag  Ag39  1  0.83842524  0.17048632  0.33852118  1
  Ag  Ag40  1  0.32633262  0.67136357  0.00024443  1
  Ag  Ag41  1  0.32858678  -0.00760900  -0.00563659  1
  Ag  Ag42  1  0.82849823  0.32664407  0.49890555  1
  Ag  Ag43  1  0.16103104  0.16112499  0.00115744  1
  Ag  Ag44  1  0.50420367  -0.00659261  0.83665267  1
  Ag  Ag45  1  -0.00660163  0.32844284  0.32247709  1
  Ag  Ag46  1  0.01188374  0.66680758  0.00178363  1
  Ag  Ag47  1  0.66396490  0.83801122  0.83642265  1
  Ag  Ag48  1  0.83303953  0.49725268  0.66940792  1
  Ag  Ag49  1  0.50811567  0.33332990  0.50133602  1
  Ag  Ag50  1  0.67313925  0.17066389  0.50255194  1
  Ag  Ag51  1  0.49652099  0.50876228  0.00000311  1
  Ag  Ag52  1  0.32553984  0.33582745  -0.00275342  1
  Ag  Ag53  1  -0.00452461  0.49496399  0.84071430  1
  Sb  Sb54  1  0.83284470  0.66647636  0.83478266  1
  Sb  Sb55  1  -0.00358497  0.33247336  0.66946731  1
  Sb  Sb56  1  0.33224213  0.33232343  0.33112746  1
  Sb  Sb57  1  0.00433415  0.83645091  0.49403570  1
  Sb  Sb58  1  0.16326824  0.50470249  0.67424390  1
  Sb  Sb59  1  0.33520740  0.50558721  0.50106238  1
  Sb  Sb60  1  0.33414789  0.67059030  0.67176326  1
  Sb  Sb61  1  0.83247541  0.00365637  0.16022050  1
  Sb  Sb62  1  0.84011613  0.83787177  0.33011425  1
  Sb  Sb63  1  0.16065180  0.33535729  0.16236053  1
  Sb  Sb64  1  0.32591771  0.16105443  0.16297961  1
  Sb  Sb65  1  -0.00232340  0.49739086  0.49991205  1
  Sb  Sb66  1  0.49739936  0.16511256  -0.00050701  1
  Sb  Sb67  1  0.67251045  0.16699510  0.16420980  1
  Sb  Sb68  1  0.33305483  0.66838576  0.32796706  1
  Sb  Sb69  1  0.16637088  -0.00381739  0.50462643  1
  Sb  Sb70  1  0.83927004  0.50245293  -0.00454963  1
  Sb  Sb71  1  0.67083592  0.33326179  -0.00410956  1
  Sb  Sb72  1  0.16882584  -0.00724003  0.15719917  1
  Sb  Sb73  1  0.66975489  0.49965187  0.16026111  1
  Sb  Sb74  1  0.66212481  0.00382497  0.67320695  1
  Sb  Sb75  1  0.66395515  0.83343112  0.15666869  1
  Sb  Sb76  1  0.66440515  0.66154470  0.33088063  1
  Sb  Sb77  1  0.33276038  -0.00207218  0.33140171  1
  Sb  Sb78  1  0.16773565  0.50205413  0.32708229  1
  Sb  Sb79  1  0.83243322  0.17143959  0.66478635  1
  Sb  Sb80  1  0.83284799  0.83127045  0.67167488  1
  Sb  Sb81  1  0.16092819  0.33224955  0.83665164  1
  Sb  Sb82  1  0.49622474  0.82995029  0.33603342  1
  Sb  Sb83  1  0.50355174  0.50258000  0.67039222  1
  Sb  Sb84  1  0.66273068  0.83693725  0.50651446  1
  Sb  Sb85  1  0.33390980  0.49976940  0.83635391  1
  Sb  Sb86  1  0.16619525  0.16212414  0.67001585  1
  Sb  Sb87  1  0.84067964  0.16279422  -0.00148384  1
  Sb  Sb88  1  0.83577400  0.66400492  0.16591709  1
  Sb  Sb89  1  0.33172132  0.16387900  0.83501000  1
  Sb  Sb90  1  0.50100592  0.16208352  0.66676836  1
  Sb  Sb91  1  0.00074926  0.00850073  0.32634647  1
  Sb  Sb92  1  0.16567348  0.33514929  0.50073102  1
  Sb  Sb93  1  0.50273352  0.16928721  0.33458662  1
  Sb  Sb94  1  0.83043674  0.49206957  0.33639613  1
  Sb  Sb95  1  0.00241603  -0.00054437  0.67394528  1
  Sb  Sb96  1  0.66753147  0.00394982  0.33264475  1
  Sb  Sb97  1  -0.00024973  0.83503082  0.84188413  1
  Sb  Sb98  1  0.00094637  0.66796041  0.67321211  1
  Sb  Sb99  1  0.49546713  0.82932466  -0.00520957  1
  Sb  Sb100  1  0.66573211  0.66293505  0.67220935  1
  Sb  Sb101  1  0.00138712  0.66205750  0.32715502  1
  Sb  Sb102  1  0.50635227  0.33365202  0.83071014  1
  Sb  Sb103  1  0.33040681  0.50478481  0.16148817  1
  Sb  Sb104  1  0.66715537  0.49475189  0.50415453  1
  Sb  Sb105  1  0.33438171  0.83489879  0.83611092  1
  Sb  Sb106  1  0.50423771  0.33593422  0.16758201  1
  Sb  Sb107  1  0.33365288  0.16246083  0.50013140  1
  Te  Te108  1  0.15990135  0.16561736  0.16656096  1
  Te  Te109  1  0.16356633  0.16614011  0.49936138  1
  Te  Te110  1  0.16138331  0.16248161  0.83727414  1
  Te  Te111  1  0.16200380  0.50770118  0.16252130  1
  Te  Te112  1  0.16642567  0.50763996  0.50011115  1
  Te  Te113  1  0.16226644  0.50359413  0.83859250  1
  Te  Te114  1  0.16816756  0.83205940  0.16418784  1
  Te  Te115  1  0.16923173  0.83181014  0.50153650  1
  Te  Te116  1  0.16558209  0.83330059  0.83557629  1
  Te  Te117  1  0.49967525  0.16139281  0.16882909  1
  Te  Te118  1  0.50215645  0.16778041  0.49902153  1
  Te  Te119  1  0.50627964  0.16145693  0.83374675  1
  Te  Te120  1  0.50101352  0.50464387  0.16341807  1
  Te  Te121  1  0.50023141  0.50045174  0.50051501  1
  Te  Te122  1  0.50368723  0.50324761  0.83756716  1
  Te  Te123  1  0.49730725  0.83183806  0.16979433  1
  Te  Te124  1  0.49817406  0.83434855  0.50288808  1
  Te  Te125  1  0.50149006  0.83240616  0.83006290  1
  Te  Te126  1  0.83836503  0.17048457  0.17260651  1
  Te  Te127  1  0.83226429  0.16690798  0.50097736  1
  Te  Te128  1  0.83462748  0.16625852  0.83313194  1
  Te  Te129  1  0.83932376  0.49504187  0.16768970  1
  Te  Te130  1  0.83359771  0.50285169  0.50455729  1
  Te  Te131  1  0.83352634  0.49988732  0.83120686  1
  Te  Te132  1  0.83652167  0.83386002  0.16166817  1
  Te  Te133  1  0.83260113  0.83194712  0.50011958  1
  Te  Te134  1  0.82889331  0.83658195  0.83637737  1
  Te  Te135  1  0.16778440  0.00085350  -0.00223756  1
  Te  Te136  1  0.16624222  -0.00145810  0.33512629  1
  Te  Te137  1  0.17270277  -0.00504352  0.67337266  1
  Te  Te138  1  0.16539385  0.32979713  -0.00055328  1
  Te  Te139  1  0.16244363  0.33128046  0.33310647  1
  Te  Te140  1  0.17402021  0.33507329  0.66826748  1
  Te  Te141  1  0.16778737  0.66758909  0.00024370  1
  Te  Te142  1  0.16705287  0.67025932  0.33853729  1
  Te  Te143  1  0.16773703  0.67192249  0.66246179  1
  Te  Te144  1  0.49826191  -0.00016958  -0.00322279  1
  Te  Te145  1  0.50045349  -0.00006834  0.34216476  1
  Te  Te146  1  0.49642362  -0.00379631  0.66688255  1
  Te  Te147  1  0.49794701  0.33657595  0.00072068  1
  Te  Te148  1  0.50062168  0.33684672  0.33629335  1
  Te  Te149  1  0.50038285  0.33457303  0.66287927  1
  Te  Te150  1  0.50176071  0.66712645  -0.00251399  1
  Te  Te151  1  0.49987963  0.66206142  0.34031203  1
  Te  Te152  1  0.49911743  0.67060559  0.66379227  1
  Te  Te153  1  0.83068932  -0.00333620  -0.00286052  1
  Te  Te154  1  0.83331830  0.00558022  0.33962875  1
  Te  Te155  1  0.83336143  -0.00354370  0.66740391  1
  Te  Te156  1  0.83767357  0.33358107  -0.00123646  1
  Te  Te157  1  0.83450350  0.33142620  0.33830813  1
  Te  Te158  1  0.83085687  0.33679063  0.66853540  1
  Te  Te159  1  0.82510458  0.67252361  0.00149053  1
  Te  Te160  1  0.83257644  0.66781468  0.33888487  1
  Te  Te161  1  0.83345641  0.66301429  0.66089249  1
  Te  Te162  1  0.00046004  0.16753909  0.00035980  1
  Te  Te163  1  -0.00019686  0.16921842  0.33374905  1
  Te  Te164  1  0.00144940  0.16647035  0.66763169  1
  Te  Te165  1  -0.00018898  0.49919903  -0.00070743  1
  Te  Te166  1  0.00063448  0.49148873  0.32934057  1
  Te  Te167  1  -0.00505605  0.50027162  0.67211601  1
  Te  Te168  1  0.00178868  0.83350163  0.00114474  1
  Te  Te169  1  0.00624143  0.83314115  0.32504347  1
  Te  Te170  1  0.00696331  0.83316766  0.66434541  1
  Te  Te171  1  0.32649044  0.16873566  0.00007513  1
  Te  Te172  1  0.32235004  0.16639158  0.33152182  1
  Te  Te173  1  0.33288771  0.16936367  0.66689110  1
  Te  Te174  1  0.33280576  0.49936915  0.00025221  1
  Te  Te175  1  0.34103222  0.49866471  0.33231149  1
  Te  Te176  1  0.33237732  0.49179691  0.66789477  1
  Te  Te177  1  0.32963455  0.83327555  0.00192215  1
  Te  Te178  1  0.32701629  0.83321685  0.33544109  1
  Te  Te179  1  0.33328289  0.83477429  0.66382620  1
  Te  Te180  1  0.66605326  0.16300781  -0.00397312  1
  Te  Te181  1  0.67036586  0.17112559  0.33584819  1
  Te  Te182  1  0.66617768  0.17271736  0.66671797  1
  Te  Te183  1  0.66438422  0.50119762  -0.00529871  1
  Te  Te184  1  0.66155364  0.49382973  0.33153345  1
  Te  Te185  1  0.67042845  0.49493165  0.67340596  1
  Te  Te186  1  0.66746501  0.83489008  -0.00428287  1
  Te  Te187  1  0.66959900  0.83295033  0.33215491  1
  Te  Te188  1  0.66330002  0.83262762  0.67453335  1
  Te  Te189  1  -0.00136610  0.00024373  0.15911512  1
  Te  Te190  1  -0.00380672  0.00498593  0.50059760  1
  Te  Te191  1  -0.00174089  0.00208541  0.83814711  1
  Te  Te192  1  -0.00081919  0.33265181  0.16400762  1
  Te  Te193  1  -0.00292104  0.32936929  0.50194488  1
  Te  Te194  1  -0.00466840  0.33240834  0.83545275  1
  Te  Te195  1  0.00115972  0.66864513  0.16216240  1
  Te  Te196  1  -0.00084093  0.66686521  0.49911335  1
  Te  Te197  1  0.00180587  0.66373447  0.84014273  1
  Te  Te198  1  0.33983630  -0.00526577  0.16242815  1
  Te  Te199  1  0.33687973  -0.00377634  0.50343910  1
  Te  Te200  1  0.33480545  0.00079956  0.83375269  1
  Te  Te201  1  0.33404372  0.33232598  0.16004969  1
  Te  Te202  1  0.33575835  0.33293372  0.50094343  1
  Te  Te203  1  0.33549819  0.33162237  0.83597685  1
  Te  Te204  1  0.33425849  0.67059681  0.16233858  1
  Te  Te205  1  0.33487660  0.67168420  0.50123305  1
  Te  Te206  1  0.33418503  0.66569863  0.83891140  1
  Te  Te207  1  0.66022726  0.00077234  0.16162777  1
  Te  Te208  1  0.66687924  0.00455678  0.50112369  1
  Te  Te209  1  0.66676004  0.00147648  0.83388444  1
  Te  Te210  1  0.67408536  0.33250306  0.16963348  1
  Te  Te211  1  0.66703369  0.33273515  0.50153049  1
  Te  Te212  1  0.67134079  0.33208324  0.83099962  1
  Te  Te213  1  0.66128502  0.66600617  0.16150543  1
  Te  Te214  1  0.66477392  0.66726775  0.49984853  1
  Te  Te215  1  0.66517899  0.66494773  0.83626495  1
