# generated using pymatgen
data_AgSbTe2
_symmetry_space_group_name_H-M   'P 1'
_cell_length_a   18.31524421
_cell_length_b   18.31015138
_cell_length_c   18.30483296
_cell_angle_alpha   89.99923549
_cell_angle_beta   89.99948783
_cell_angle_gamma   90.00091594
_symmetry_Int_Tables_number   1
_chemical_formula_structural   AgSbTe2
_chemical_formula_sum   'Ag54 Sb54 Te108'
_cell_volume   6138.61531926
_cell_formula_units_Z   54
loop_
 _symmetry_equiv_pos_site_id
 _symmetry_equiv_pos_as_xyz
  1  'x, y, z'
loop_
 _atom_site_type_symbol
 _atom_site_label
 _atom_site_symmetry_multiplicity
 _atom_site_fract_x
 _atom_site_fract_y
 _atom_site_fract_z
 _atom_site_occupancy
  Ag  Ag0  1  0.66907973  0.82485331  0.16185361  1
  Ag  Ag1  1  0.32548284  0.49979567  0.50364578  1
  Ag  Ag2  1  0.82957834  -0.00404545  0.50004323  1
  Ag  Ag3  1  0.66718316  0.00245127  0.66096401  1
  Ag  Ag4  1  0.66514249  0.50295909  0.16781235  1
  Ag  Ag5  1  0.16865593  0.00044273  0.50449876  1
  Ag  Ag6  1  0.33333588  -0.00563676  0.33903415  1
  Ag  Ag7  1  0.50226438  0.33112369  0.83188553  1
  Ag  Ag8  1  0.50161573  0.16942052  -0.00141175  1
  Ag  Ag9  1  0.16312501  0.49892132  0.66448302  1
  Ag  Ag10  1  0.66906882  0.83378222  0.83719363  1
  Ag  Ag11  1  0.32520301  0.66385942  0.66217069  1
  Ag  Ag12  1  0.84218053  0.49877481  0.66374090  1
  Ag  Ag13  1  0.00216568  -0.00079788  -0.00456095  1
  Ag  Ag14  1  0.83508624  0.33300451  0.83702902  1
  Ag  Ag15  1  -0.00064796  0.33156119  -0.00546049  1
  Ag  Ag16  1  0.16812848  0.34211813  0.50262253  1
  Ag  Ag17  1  0.50741532  0.33861323  0.16329841  1
  Ag  Ag18  1  0.16528682  0.50155424  -0.00515584  1
  Ag  Ag19  1  0.00522700  0.65945473  0.66773044  1
  Ag  Ag20  1  0.67006387  0.33270648  0.66670648  1
  Ag  Ag21  1  0.83816730  0.16658237  -0.00039274  1
  Ag  Ag22  1  0.66630367  0.17178508  0.16301412  1
  Ag  Ag23  1  0.83016611  0.66533834  0.16533054  1
  Ag  Ag24  1  0.50068357  0.83303609  0.66803144  1
  Ag  Ag25  1  0.66863426  0.49901570  0.50087591  1
  Ag  Ag26  1  0.49482849  0.33236927  0.50378000  1
  Ag  Ag27  1  0.32429466  0.16727817  0.83002167  1
  Ag  Ag28  1  0.82890712  0.33891523  0.16124277  1
  Ag  Ag29  1  0.00768495  0.16622153  0.83648855  1
  Ag  Ag30  1  0.32785569  0.66969544  0.33710963  1
  Ag  Ag31  1  0.83959551  0.83166412  0.00139875  1
  Ag  Ag32  1  0.32998105  0.16924927  0.50548885  1
  Ag  Ag33  1  0.50446677  0.66057580  0.16520488  1
  Ag  Ag34  1  0.00326976  0.83663684  0.83803992  1
  Ag  Ag35  1  -0.00094575  0.34073724  0.66827576  1
  Ag  Ag36  1  0.00660335  0.49979579  0.50624413  1
  Ag  Ag37  1  0.49914679  0.00457874  0.50117875  1
  Ag  Ag38  1  0.33499107  0.50312996  0.16742344  1
  Ag  Ag39  1  0.15986048  0.16691673  -0.00716531  1
  Ag  Ag40  1  0.00015804  0.66845741  -0.00354640  1
  Ag  Ag41  1  0.16655386  0.66556700  0.16649456  1
  Ag  Ag42  1  0.15732801  0.83010285  -0.00138154  1
  Ag  Ag43  1  0.83942598  0.66529549  0.49848194  1
  Ag  Ag44  1  0.32833474  0.83355485  0.83304892  1
  Ag  Ag45  1  0.66573622  -0.00259194  0.33938008  1
  Ag  Ag46  1  0.16667664  0.16964181  0.67260435  1
  Ag  Ag47  1  0.16604253  0.00276000  0.83050285  1
  Ag  Ag48  1  0.67457216  0.66875311  0.00697866  1
  Ag  Ag49  1  0.83695912  0.83234718  0.32845852  1
  Ag  Ag50  1  -0.00063995  0.33424736  0.33881604  1
  Ag  Ag51  1  0.16562166  0.66082736  0.50187895  1
  Ag  Ag52  1  0.16369462  0.83141619  0.33074574  1
  Ag  Ag53  1  0.33052725  0.49869178  0.82931726  1
  Sb  Sb54  1  0.66546028  0.67120631  0.32754560  1
  Sb  Sb55  1  0.49954871  0.16650639  0.33133060  1
  Sb  Sb56  1  0.33140962  0.83201251  0.50283628  1
  Sb  Sb57  1  0.00336495  0.66495158  0.33534664  1
  Sb  Sb58  1  0.83893344  0.50097689  -0.00195126  1
  Sb  Sb59  1  0.16752551  0.16223676  0.33482110  1
  Sb  Sb60  1  0.66393601  0.50125941  0.83369515  1
  Sb  Sb61  1  0.49492446  0.16716123  0.66950896  1
  Sb  Sb62  1  0.33022344  0.33810662  0.66636143  1
  Sb  Sb63  1  -0.00418159  0.16998784  0.15694526  1
  Sb  Sb64  1  0.49558772  0.49638668  0.00209659  1
  Sb  Sb65  1  0.16370489  0.32874506  0.82809296  1
  Sb  Sb66  1  0.33547165  0.82642322  0.16349893  1
  Sb  Sb67  1  0.67058932  0.33572814  -0.00047868  1
  Sb  Sb68  1  0.66838039  0.83246272  0.49987471  1
  Sb  Sb69  1  0.16671505  0.50563328  0.33791494  1
  Sb  Sb70  1  0.00095927  0.82844300  0.50523073  1
  Sb  Sb71  1  0.16719114  -0.00535021  0.16497301  1
  Sb  Sb72  1  0.33466960  -0.00294270  0.66261662  1
  Sb  Sb73  1  0.32702173  0.00078608  0.00078818  1
  Sb  Sb74  1  0.00525827  0.49741837  0.82871645  1
  Sb  Sb75  1  0.00661769  0.17193902  0.50706686  1
  Sb  Sb76  1  0.16529115  0.33854462  0.16878054  1
  Sb  Sb77  1  0.83467413  0.50501561  0.33729325  1
  Sb  Sb78  1  0.67176662  -0.00308290  -0.00105042  1
  Sb  Sb79  1  -0.00409797  0.83003393  0.15915423  1
  Sb  Sb80  1  0.66684249  0.16445160  0.83647989  1
  Sb  Sb81  1  0.49567337  0.00295472  0.82914266  1
  Sb  Sb82  1  0.16634087  0.66997817  0.83260828  1
  Sb  Sb83  1  0.83502523  0.66354488  0.83443033  1
  Sb  Sb84  1  0.50167206  0.83536207  -0.00331658  1
  Sb  Sb85  1  0.49906944  0.50075628  0.33229108  1
  Sb  Sb86  1  0.83340231  0.16337365  0.32905230  1
  Sb  Sb87  1  0.32869275  0.33332637  -0.00245157  1
  Sb  Sb88  1  0.83714953  0.00200807  0.83120448  1
  Sb  Sb89  1  0.49762151  0.66448943  0.49747614  1
  Sb  Sb90  1  0.00034430  0.50088235  0.16780005  1
  Sb  Sb91  1  0.83066160  0.82898944  0.66947551  1
  Sb  Sb92  1  0.16925247  0.83081354  0.67001587  1
  Sb  Sb93  1  -0.00123561  0.00023947  0.67021187  1
  Sb  Sb94  1  0.67035304  0.33109092  0.33408015  1
  Sb  Sb95  1  0.00019322  0.00100016  0.33292338  1
  Sb  Sb96  1  0.66316966  0.16775699  0.49793281  1
  Sb  Sb97  1  0.32868770  0.66547313  0.00045789  1
  Sb  Sb98  1  0.66803835  0.66522672  0.66788724  1
  Sb  Sb99  1  0.83495002  0.33646693  0.50086824  1
  Sb  Sb100  1  0.49648459  0.50087592  0.66568848  1
  Sb  Sb101  1  0.83808053  0.17224719  0.67058375  1
  Sb  Sb102  1  0.83105066  -0.00314131  0.16790243  1
  Sb  Sb103  1  0.32946547  0.33560706  0.33657590  1
  Sb  Sb104  1  0.49794500  0.66489655  0.83671292  1
  Sb  Sb105  1  0.49958037  0.83371899  0.33624227  1
  Sb  Sb106  1  0.50239804  -0.00007626  0.16974831  1
  Sb  Sb107  1  0.33673807  0.17210142  0.16546562  1
  Te  Te108  1  0.16885331  0.16792951  0.15975495  1
  Te  Te109  1  0.17085148  0.16352323  0.50093454  1
  Te  Te110  1  0.16749746  0.16613993  0.83352989  1
  Te  Te111  1  0.16915892  0.50458158  0.16529722  1
  Te  Te112  1  0.16742287  0.50158405  0.50184201  1
  Te  Te113  1  0.17170338  0.49768270  0.83133836  1
  Te  Te114  1  0.16798302  0.82729832  0.16437919  1
  Te  Te115  1  0.16593298  0.83346576  0.49755196  1
  Te  Te116  1  0.16647597  0.83651387  0.83633576  1
  Te  Te117  1  0.50254146  0.17118519  0.16108070  1
  Te  Te118  1  0.49498359  0.16811878  0.50106995  1
  Te  Te119  1  0.49768944  0.17060925  0.83729401  1
  Te  Te120  1  0.50115302  0.49942904  0.16616764  1
  Te  Te121  1  0.50167731  0.49563509  0.49945209  1
  Te  Te122  1  0.49366194  0.49277862  0.83412135  1
  Te  Te123  1  0.50610630  0.82924427  0.16574311  1
  Te  Te124  1  0.50022752  0.83691939  0.50555208  1
  Te  Te125  1  0.49807171  0.83412233  0.82973287  1
  Te  Te126  1  0.82884921  0.16948417  0.16146650  1
  Te  Te127  1  0.83402143  0.16043624  0.49927348  1
  Te  Te128  1  0.83507499  0.17058488  0.83834669  1
  Te  Te129  1  0.83094702  0.50125526  0.16687787  1
  Te  Te130  1  0.83062814  0.50249373  0.50296320  1
  Te  Te131  1  0.83195241  0.49362999  0.82658821  1
  Te  Te132  1  0.83003324  0.83023155  0.16389471  1
  Te  Te133  1  0.83420339  0.83125569  0.49870071  1
  Te  Te134  1  0.83294753  0.83372882  0.83844496  1
  Te  Te135  1  0.16248430  -0.00134080  -0.00161686  1
  Te  Te136  1  0.16882348  -0.00591935  0.33546612  1
  Te  Te137  1  0.16620396  0.00199211  0.66605525  1
  Te  Te138  1  0.16110215  0.33415009  0.00121337  1
  Te  Te139  1  0.16110912  0.33154285  0.33885802  1
  Te  Te140  1  0.16440833  0.33443537  0.66225724  1
  Te  Te141  1  0.16365563  0.66732657  0.00045716  1
  Te  Te142  1  0.16793311  0.67138008  0.33443778  1
  Te  Te143  1  0.16601526  0.66495066  0.66424969  1
  Te  Te144  1  0.49985148  0.00765918  0.00038174  1
  Te  Te145  1  0.49953204  -0.00044337  0.34015158  1
  Te  Te146  1  0.50369552  -0.00172589  0.66171929  1
  Te  Te147  1  0.50098534  0.32936210  0.00075107  1
  Te  Te148  1  0.50072173  0.33216018  0.33566391  1
  Te  Te149  1  0.50436601  0.33353207  0.66530274  1
  Te  Te150  1  0.50276259  0.66734235  0.00611707  1
  Te  Te151  1  0.49189449  0.66883183  0.32647453  1
  Te  Te152  1  0.49840675  0.67160963  0.66686530  1
  Te  Te153  1  0.83931604  -0.00097624  -0.00052281  1
  Te  Te154  1  0.83195919  -0.00541346  0.33812264  1
  Te  Te155  1  0.82948693  0.00018490  0.66115163  1
  Te  Te156  1  0.83664194  0.33424811  0.00029721  1
  Te  Te157  1  0.83841350  0.33257031  0.32799072  1
  Te  Te158  1  0.83355052  0.33654612  0.66752082  1
  Te  Te159  1  0.83580600  0.66788053  0.00141577  1
  Te  Te160  1  0.83453551  0.67240323  0.33281317  1
  Te  Te161  1  0.83559010  0.66116483  0.66228231  1
  Te  Te162  1  -0.00066245  0.16949942  -0.00387912  1
  Te  Te163  1  0.00042114  0.17234500  0.33229958  1
  Te  Te164  1  0.00541919  0.16996772  0.67465175  1
  Te  Te165  1  0.00637614  0.50206641  -0.00139760  1
  Te  Te166  1  0.00015682  0.49384655  0.34188155  1
  Te  Te167  1  0.00204858  0.50101618  0.66676140  1
  Te  Te168  1  -0.00079587  0.83055239  -0.00213489  1
  Te  Te169  1  0.00025862  0.83435071  0.33327116  1
  Te  Te170  1  -0.00055953  0.82802655  0.67534050  1
  Te  Te171  1  0.33055731  0.16640912  -0.00363437  1
  Te  Te172  1  0.33288368  0.16233799  0.33843237  1
  Te  Te173  1  0.32778196  0.16604906  0.66648571  1
  Te  Te174  1  0.32621643  0.49996838  -0.00139043  1
  Te  Te175  1  0.33227575  0.50452021  0.33443428  1
  Te  Te176  1  0.33022440  0.50384777  0.66505857  1
  Te  Te177  1  0.33020526  0.83391106  -0.00611390  1
  Te  Te178  1  0.33004109  0.83198398  0.33188715  1
  Te  Te179  1  0.33666310  0.82847260  0.67254240  1
  Te  Te180  1  0.67020876  0.16576227  0.00373712  1
  Te  Te181  1  0.66687061  0.15957726  0.32691477  1
  Te  Te182  1  0.66744905  0.16825077  0.66714886  1
  Te  Te183  1  0.66707728  0.50665245  0.00339774  1
  Te  Te184  1  0.66754659  0.49967954  0.33302860  1
  Te  Te185  1  0.66683143  0.49624354  0.66564491  1
  Te  Te186  1  0.66777008  0.83132155  -0.00020930  1
  Te  Te187  1  0.66982915  0.83782037  0.33006181  1
  Te  Te188  1  0.66433760  0.83483729  0.67044612  1
  Te  Te189  1  -0.00034577  0.00145468  0.15932421  1
  Te  Te190  1  0.00382039  0.00100707  0.50082580  1
  Te  Te191  1  0.00381707  0.00022998  0.83553814  1
  Te  Te192  1  -0.00368853  0.33540743  0.16178663  1
  Te  Te193  1  0.00233830  0.33639833  0.50536211  1
  Te  Te194  1  -0.00204970  0.33207964  0.83247570  1
  Te  Te195  1  0.00025630  0.66530571  0.16397816  1
  Te  Te196  1  0.00028168  0.66314319  0.50241156  1
  Te  Te197  1  -0.00034503  0.66981760  0.83334109  1
  Te  Te198  1  0.33474757  0.00099573  0.17606659  1
  Te  Te199  1  0.33129276  -0.00090593  0.49859746  1
  Te  Te200  1  0.32788886  0.00127271  0.83239471  1
  Te  Te201  1  0.33859647  0.34141101  0.16841353  1
  Te  Te202  1  0.33267132  0.33473849  0.50004428  1
  Te  Te203  1  0.33787617  0.33235790  0.83247167  1
  Te  Te204  1  0.33015050  0.66241274  0.16777598  1
  Te  Te205  1  0.33250438  0.66412648  0.50022243  1
  Te  Te206  1  0.33397629  0.66501149  0.82886712  1
  Te  Te207  1  0.66611050  0.00026182  0.16962480  1
  Te  Te208  1  0.66604097  0.00021530  0.50075826  1
  Te  Te209  1  0.66579439  -0.00508252  0.82889887  1
  Te  Te210  1  0.66731916  0.33601575  0.16696083  1
  Te  Te211  1  0.66551364  0.33524959  0.50171982  1
  Te  Te212  1  0.66657395  0.33302559  0.82988469  1
  Te  Te213  1  0.66863490  0.66456835  0.16699769  1
  Te  Te214  1  0.66796277  0.66040712  0.49845095  1
  Te  Te215  1  0.66620888  0.67193086  0.83853682  1
