# generated using pymatgen
data_AgSbTe2
_symmetry_space_group_name_H-M   'P 1'
_cell_length_a   18.33359317
_cell_length_b   18.33238985
_cell_length_c   18.33546646
_cell_angle_alpha   89.99951632
_cell_angle_beta   89.99951968
_cell_angle_gamma   89.99454294
_symmetry_Int_Tables_number   1
_chemical_formula_structural   AgSbTe2
_chemical_formula_sum   'Ag54 Sb54 Te108'
_cell_volume   6162.52416605
_cell_formula_units_Z   54
loop_
 _symmetry_equiv_pos_site_id
 _symmetry_equiv_pos_as_xyz
  1  'x, y, z'
loop_
 _atom_site_type_symbol
 _atom_site_label
 _atom_site_symmetry_multiplicity
 _atom_site_fract_x
 _atom_site_fract_y
 _atom_site_fract_z
 _atom_site_occupancy
  Ag  Ag0  1  0.49285443  0.51289491  -0.00450083  1
  Ag  Ag1  1  0.16254946  -0.00162317  0.15747622  1
  Ag  Ag2  1  0.66329595  -0.00254124  0.66390900  1
  Ag  Ag3  1  0.00454585  0.66620922  0.32178873  1
  Ag  Ag4  1  0.33440936  0.34096046  -0.00066463  1
  Ag  Ag5  1  0.49493452  0.67042213  0.83783975  1
  Ag  Ag6  1  0.66646964  -0.00141664  0.33786786  1
  Ag  Ag7  1  -0.00260949  0.16358546  0.83787586  1
  Ag  Ag8  1  0.33180386  0.66790808  -0.00022844  1
  Ag  Ag9  1  0.33451689  0.82964400  0.83889677  1
  Ag  Ag10  1  0.83318727  0.82974220  0.32360849  1
  Ag  Ag11  1  0.83050838  0.67211071  0.16416270  1
  Ag  Ag12  1  -0.00072089  0.50520743  0.16369260  1
  Ag  Ag13  1  0.17200505  0.51206544  0.00093203  1
  Ag  Ag14  1  0.00132453  -0.00771847  -0.00106610  1
  Ag  Ag15  1  0.49018239  0.83035068  -0.00658032  1
  Ag  Ag16  1  0.83603603  0.15555569  -0.00153282  1
  Ag  Ag17  1  0.65800567  0.50179649  0.83303423  1
  Ag  Ag18  1  0.50475218  -0.00708279  0.50823132  1
  Ag  Ag19  1  0.17355743  0.66959795  0.50083435  1
  Ag  Ag20  1  0.83626124  0.50718142  0.00284810  1
  Ag  Ag21  1  0.16907201  0.50751481  0.32194062  1
  Ag  Ag22  1  0.50130331  0.15516759  0.67064011  1
  Ag  Ag23  1  0.49920113  0.83060900  0.67371303  1
  Ag  Ag24  1  0.83177171  0.00107749  0.84304919  1
  Ag  Ag25  1  0.49602018  0.67221907  0.50629924  1
  Ag  Ag26  1  0.34071143  0.51068253  0.83998833  1
  Ag  Ag27  1  0.66455956  0.33266519  0.67065072  1
  Ag  Ag28  1  0.49560305  0.16052533  -0.00007995  1
  Ag  Ag29  1  0.16962985  0.15173530  -0.00116679  1
  Ag  Ag30  1  0.33808589  0.16508660  0.49400757  1
  Ag  Ag31  1  0.49885732  0.16218175  0.33026478  1
  Ag  Ag32  1  0.33543565  0.83250772  0.15749796  1
  Ag  Ag33  1  0.83377355  0.50945994  0.32343993  1
  Ag  Ag34  1  0.50071387  -0.00662277  0.83170538  1
  Ag  Ag35  1  0.83486351  -0.00725789  0.15882247  1
  Ag  Ag36  1  0.66671355  0.83655400  0.50225238  1
  Ag  Ag37  1  0.17591638  0.67231645  0.84127484  1
  Ag  Ag38  1  0.65766636  0.16214225  0.16453352  1
  Ag  Ag39  1  0.49911814  0.66790872  0.15918021  1
  Ag  Ag40  1  0.17301212  0.83153387  -0.00297005  1
  Ag  Ag41  1  0.00681390  0.67114214  0.00299740  1
  Ag  Ag42  1  0.83353018  0.32849657  0.83574724  1
  Ag  Ag43  1  0.49965469  0.50959389  0.33045187  1
  Ag  Ag44  1  0.50306730  0.51260548  0.68003477  1
  Ag  Ag45  1  -0.00693248  0.83254633  0.49995175  1
  Ag  Ag46  1  0.33346636  0.66626637  0.32636476  1
  Ag  Ag47  1  0.34076768  0.15926459  0.16191955  1
  Ag  Ag48  1  -0.00378245  0.33352550  0.67008036  1
  Ag  Ag49  1  0.16986817  -0.00885201  0.84098403  1
  Ag  Ag50  1  0.82313192  -0.00348063  0.49881257  1
  Ag  Ag51  1  0.66051401  0.67131136  0.66723904  1
  Ag  Ag52  1  0.17408356  0.83115720  0.68034014  1
  Ag  Ag53  1  0.83579458  0.83699434  0.00319392  1
  Sb  Sb54  1  0.17170465  0.15899837  0.67388237  1
  Sb  Sb55  1  0.82719633  0.16455839  0.67260275  1
  Sb  Sb56  1  0.33175095  0.50558565  0.16018463  1
  Sb  Sb57  1  0.00165140  0.33440916  -0.00378071  1
  Sb  Sb58  1  0.83179813  0.67374945  0.49351895  1
  Sb  Sb59  1  0.66414865  0.33361975  -0.00494148  1
  Sb  Sb60  1  -0.00035689  0.50911652  0.49598498  1
  Sb  Sb61  1  0.82820931  0.16091814  0.32537884  1
  Sb  Sb62  1  0.16942953  -0.00777829  0.50234716  1
  Sb  Sb63  1  0.50209290  -0.00196106  0.16267656  1
  Sb  Sb64  1  -0.00451317  0.00009823  0.67435481  1
  Sb  Sb65  1  0.17154051  0.50754360  0.67281864  1
  Sb  Sb66  1  0.83347477  0.33394654  0.15877790  1
  Sb  Sb67  1  0.33392042  0.16361456  0.84026627  1
  Sb  Sb68  1  0.33659354  0.50117792  0.50155263  1
  Sb  Sb69  1  0.00518318  0.83685790  0.83477152  1
  Sb  Sb70  1  -0.00599739  -0.00726064  0.32730616  1
  Sb  Sb71  1  0.49946352  0.33500772  0.16293270  1
  Sb  Sb72  1  0.33697748  0.83265448  0.50103206  1
  Sb  Sb73  1  0.00390411  0.15810912  0.50532028  1
  Sb  Sb74  1  0.66601604  0.83624330  0.16847910  1
  Sb  Sb75  1  0.83141092  0.67029422  0.84158321  1
  Sb  Sb76  1  0.16732497  0.34009395  0.50158040  1
  Sb  Sb77  1  0.33553589  0.33865214  0.32673587  1
  Sb  Sb78  1  0.66191885  0.66679956  -0.00371364  1
  Sb  Sb79  1  -0.00151069  0.34174647  0.33743720  1
  Sb  Sb80  1  0.34201096  -0.00119841  0.66845597  1
  Sb  Sb81  1  0.00061506  0.82729955  0.16441408  1
  Sb  Sb82  1  0.66560859  0.33063781  0.33812793  1
  Sb  Sb83  1  0.66759781  0.16740068  0.83630068  1
  Sb  Sb84  1  0.66744844  0.49856180  0.16323911  1
  Sb  Sb85  1  0.66483053  0.67078924  0.33616443  1
  Sb  Sb86  1  0.82952747  0.83422967  0.67044273  1
  Sb  Sb87  1  0.32802778  -0.00617719  0.00072247  1
  Sb  Sb88  1  0.00050134  0.49890047  0.83969273  1
  Sb  Sb89  1  0.16808149  0.33202578  0.16169740  1
  Sb  Sb90  1  0.67014107  0.00026799  -0.00181540  1
  Sb  Sb91  1  0.50348039  0.33634522  0.83393850  1
  Sb  Sb92  1  0.34052541  0.66758617  0.67277277  1
  Sb  Sb93  1  0.49987680  0.33211098  0.50308234  1
  Sb  Sb94  1  0.50329367  0.83216312  0.33311796  1
  Sb  Sb95  1  0.00067060  0.16684498  0.15939795  1
  Sb  Sb96  1  0.65935119  0.83146368  0.82996930  1
  Sb  Sb97  1  0.16422948  0.33361635  0.83573734  1
  Sb  Sb98  1  0.33781703  -0.00578404  0.33113229  1
  Sb  Sb99  1  0.65981137  0.15774129  0.49939500  1
  Sb  Sb100  1  0.33633170  0.33281833  0.67343681  1
  Sb  Sb101  1  0.82703127  0.49942453  0.67138096  1
  Sb  Sb102  1  0.66424427  0.50668472  0.50403236  1
  Sb  Sb103  1  0.16344812  0.82774751  0.32901496  1
  Sb  Sb104  1  0.83265645  0.32885319  0.50499509  1
  Sb  Sb105  1  -0.00223942  0.66571873  0.67022859  1
  Sb  Sb106  1  0.17337638  0.16904935  0.32634613  1
  Sb  Sb107  1  0.16912472  0.67162374  0.16207531  1
  Te  Te108  1  0.16824237  0.16148335  0.16051029  1
  Te  Te109  1  0.17326490  0.16598311  0.50023910  1
  Te  Te110  1  0.16402947  0.16286567  0.83838908  1
  Te  Te111  1  0.16452693  0.49978760  0.16350418  1
  Te  Te112  1  0.16809047  0.50844583  0.50080074  1
  Te  Te113  1  0.16957942  0.50496213  0.83836023  1
  Te  Te114  1  0.16946096  0.83900674  0.16213065  1
  Te  Te115  1  0.16886077  0.82862986  0.49786326  1
  Te  Te116  1  0.16739010  0.83302141  0.83591586  1
  Te  Te117  1  0.49920501  0.16518367  0.16468477  1
  Te  Te118  1  0.49746884  0.16516224  0.49851865  1
  Te  Te119  1  0.50018407  0.16397503  0.83474760  1
  Te  Te120  1  0.49997220  0.50467838  0.16516376  1
  Te  Te121  1  0.49956869  0.50526359  0.49359974  1
  Te  Te122  1  0.49982559  0.49904960  0.83623428  1
  Te  Te123  1  0.49837836  0.83016838  0.16245311  1
  Te  Te124  1  0.50097998  0.83351507  0.49999461  1
  Te  Te125  1  0.49843558  0.83238404  0.83347649  1
  Te  Te126  1  0.83351217  0.16448614  0.16019421  1
  Te  Te127  1  0.83550001  0.15969942  0.49714947  1
  Te  Te128  1  0.83389861  0.16355747  0.83778988  1
  Te  Te129  1  0.83334815  0.50010107  0.16468854  1
  Te  Te130  1  0.83296489  0.49949587  0.49513650  1
  Te  Te131  1  0.83258399  0.50105523  0.83836156  1
  Te  Te132  1  0.83282933  0.83288703  0.16574871  1
  Te  Te133  1  0.83115961  0.83711120  0.50384232  1
  Te  Te134  1  0.83344647  0.83882017  0.83850736  1
  Te  Te135  1  0.16371572  -0.00431512  -0.00174652  1
  Te  Te136  1  0.16469026  0.00126392  0.32977765  1
  Te  Te137  1  0.16462910  -0.00804660  0.67176231  1
  Te  Te138  1  0.17189961  0.33713530  -0.00116255  1
  Te  Te139  1  0.16702178  0.34528044  0.33383223  1
  Te  Te140  1  0.16403324  0.33336777  0.66749196  1
  Te  Te141  1  0.16672549  0.67010217  0.00072262  1
  Te  Te142  1  0.16502934  0.66450698  0.33148388  1
  Te  Te143  1  0.16510100  0.67130789  0.66458940  1
  Te  Te144  1  0.50306177  -0.00141005  -0.00378789  1
  Te  Te145  1  0.50357826  0.00229843  0.33324879  1
  Te  Te146  1  0.50284178  -0.00337391  0.66802625  1
  Te  Te147  1  0.49615297  0.32784218  -0.00063992  1
  Te  Te148  1  0.50027359  0.33424640  0.33402562  1
  Te  Te149  1  0.50361809  0.33463187  0.66722295  1
  Te  Te150  1  0.49926056  0.66952967  -0.00127747  1
  Te  Te151  1  0.49868290  0.66764483  0.33185143  1
  Te  Te152  1  0.50046076  0.66948129  0.66643335  1
  Te  Te153  1  0.83375591  -0.00025380  0.00065999  1
  Te  Te154  1  0.82983022  -0.00358409  0.33396525  1
  Te  Te155  1  0.82771199  0.00073814  0.66239438  1
  Te  Te156  1  0.83315865  0.33588351  -0.00554015  1
  Te  Te157  1  0.83272912  0.33941675  0.33388425  1
  Te  Te158  1  0.83144606  0.33222190  0.67249901  1
  Te  Te159  1  0.83315129  0.66597770  0.00407651  1
  Te  Te160  1  0.83312136  0.66803678  0.32944684  1
  Te  Te161  1  0.82692934  0.66547971  0.66691575  1
  Te  Te162  1  0.00014058  0.16749009  -0.00264298  1
  Te  Te163  1  0.00203624  0.16999961  0.33412239  1
  Te  Te164  1  0.00173207  0.16928405  0.67277496  1
  Te  Te165  1  -0.00091393  0.50113822  0.00274077  1
  Te  Te166  1  -0.00150093  0.50648064  0.33050639  1
  Te  Te167  1  0.00022077  0.49587312  0.66610135  1
  Te  Te168  1  -0.00296312  0.83222509  -0.00006217  1
  Te  Te169  1  -0.00544154  0.82716179  0.33669596  1
  Te  Te170  1  0.00171965  0.83274468  0.66124073  1
  Te  Te171  1  0.33297149  0.16441420  0.00183866  1
  Te  Te172  1  0.33801244  0.16814574  0.32900173  1
  Te  Te173  1  0.34042783  0.16817053  0.66545843  1
  Te  Te174  1  0.33340750  0.50404843  -0.00035035  1
  Te  Te175  1  0.33496317  0.50463452  0.33262709  1
  Te  Te176  1  0.34085425  0.49765910  0.67261819  1
  Te  Te177  1  0.33338255  0.83012279  -0.00024942  1
  Te  Te178  1  0.33328784  0.82668355  0.32959959  1
  Te  Te179  1  0.33406940  0.83346665  0.66984234  1
  Te  Te180  1  0.66561349  0.16742883  0.00338851  1
  Te  Te181  1  0.66172495  0.16320427  0.32915206  1
  Te  Te182  1  0.66052166  0.16522467  0.66697149  1
  Te  Te183  1  0.66591602  0.49877796  -0.00380983  1
  Te  Te184  1  0.66414017  0.49874109  0.33277099  1
  Te  Te185  1  0.66212695  0.50067335  0.67004666  1
  Te  Te186  1  0.67250404  0.83352921  0.00036676  1
  Te  Te187  1  0.67235279  0.83794090  0.33769241  1
  Te  Te188  1  0.66241063  0.83436764  0.66418484  1
  Te  Te189  1  -0.00220243  0.00056173  0.16089933  1
  Te  Te190  1  -0.00004560  -0.00681918  0.49903587  1
  Te  Te191  1  -0.00330141  0.00267844  0.83827443  1
  Te  Te192  1  0.00022558  0.34213116  0.16857805  1
  Te  Te193  1  -0.00011813  0.33098018  0.50831932  1
  Te  Te194  1  -0.00410068  0.32927947  0.83011071  1
  Te  Te195  1  -0.00319369  0.66473029  0.16425890  1
  Te  Te196  1  0.00089850  0.67280643  0.50157456  1
  Te  Te197  1  0.00319755  0.66732515  0.83896950  1
  Te  Te198  1  0.33149192  -0.00260500  0.16813397  1
  Te  Te199  1  0.33846162  0.00383212  0.49845047  1
  Te  Te200  1  0.33473511  -0.00445849  0.83317391  1
  Te  Te201  1  0.33342769  0.32329990  0.16012735  1
  Te  Te202  1  0.33207479  0.32650607  0.49979122  1
  Te  Te203  1  0.33191907  0.33597408  0.84018247  1
  Te  Te204  1  0.33662975  0.66936416  0.16496614  1
  Te  Te205  1  0.33489121  0.66638357  0.49403846  1
  Te  Te206  1  0.33444765  0.66848023  0.83489682  1
  Te  Te207  1  0.67122073  0.00252990  0.17094285  1
  Te  Te208  1  0.66404209  -0.00221753  0.50006308  1
  Te  Te209  1  0.66584273  0.00021283  0.82830159  1
  Te  Te210  1  0.66717384  0.32355195  0.16911636  1
  Te  Te211  1  0.66817339  0.33295333  0.50950992  1
  Te  Te212  1  0.67208680  0.33739725  0.82884805  1
  Te  Te213  1  0.66707517  0.66619721  0.16762983  1
  Te  Te214  1  0.66241471  0.67330943  0.50454295  1
  Te  Te215  1  0.66333436  0.66282684  0.82830474  1
