# generated using pymatgen
data_AgSbTe2
_symmetry_space_group_name_H-M   'P 1'
_cell_length_a   18.33465655
_cell_length_b   18.33749231
_cell_length_c   18.33109224
_cell_angle_alpha   89.99864324
_cell_angle_beta   90.00161395
_cell_angle_gamma   90.00242407
_symmetry_Int_Tables_number   1
_chemical_formula_structural   AgSbTe2
_chemical_formula_sum   'Ag54 Sb54 Te108'
_cell_volume   6163.12627238
_cell_formula_units_Z   54
loop_
 _symmetry_equiv_pos_site_id
 _symmetry_equiv_pos_as_xyz
  1  'x, y, z'
loop_
 _atom_site_type_symbol
 _atom_site_label
 _atom_site_symmetry_multiplicity
 _atom_site_fract_x
 _atom_site_fract_y
 _atom_site_fract_z
 _atom_site_occupancy
  Ag  Ag0  1  0.33436440  -0.00953670  -0.00413931  1
  Ag  Ag1  1  0.83698777  0.16219118  0.67001986  1
  Ag  Ag2  1  0.33388782  0.16053906  0.83573504  1
  Ag  Ag3  1  0.16565918  0.17428444  0.67046921  1
  Ag  Ag4  1  0.00513295  0.50148953  0.50506258  1
  Ag  Ag5  1  0.32510364  0.50535294  0.83628699  1
  Ag  Ag6  1  0.83606004  0.82110858  0.00432801  1
  Ag  Ag7  1  0.17477071  -0.00063476  0.83462296  1
  Ag  Ag8  1  0.65813670  0.83456833  0.49525909  1
  Ag  Ag9  1  0.49804042  0.82977901  0.66257662  1
  Ag  Ag10  1  0.34010437  0.83247556  0.16022266  1
  Ag  Ag11  1  0.66242353  0.17047639  0.83932130  1
  Ag  Ag12  1  0.83120811  0.33388417  0.15638927  1
  Ag  Ag13  1  0.33290913  0.67203869  0.33055992  1
  Ag  Ag14  1  0.49743831  -0.00759659  0.49917518  1
  Ag  Ag15  1  0.17064707  0.49772282  0.67781269  1
  Ag  Ag16  1  -0.00122202  0.66212533  -0.00240446  1
  Ag  Ag17  1  0.33570246  -0.00723181  0.32812380  1
  Ag  Ag18  1  0.16618065  0.33792775  0.51017262  1
  Ag  Ag19  1  0.49932171  0.16756185  -0.00326944  1
  Ag  Ag20  1  -0.00011983  0.83214224  0.49996336  1
  Ag  Ag21  1  0.82745724  0.67778464  0.15664485  1
  Ag  Ag22  1  0.49398624  -0.00108285  0.84230856  1
  Ag  Ag23  1  0.66497102  0.49677741  0.83774016  1
  Ag  Ag24  1  0.49423004  0.67394010  0.50217781  1
  Ag  Ag25  1  0.82839284  0.83340747  0.66835220  1
  Ag  Ag26  1  0.01117943  0.50132623  0.83539509  1
  Ag  Ag27  1  0.33260277  0.34159499  -0.00151625  1
  Ag  Ag28  1  0.16908945  0.49961033  0.33614768  1
  Ag  Ag29  1  0.00215681  0.16604407  0.50194605  1
  Ag  Ag30  1  0.66344435  0.83746915  0.16803195  1
  Ag  Ag31  1  0.49183179  0.49921157  -0.00579664  1
  Ag  Ag32  1  0.48941145  0.50889808  0.67701513  1
  Ag  Ag33  1  0.82151102  -0.00645368  0.16694624  1
  Ag  Ag34  1  0.16717181  0.34352809  0.83419061  1
  Ag  Ag35  1  0.33186712  0.82986948  0.83957512  1
  Ag  Ag36  1  0.83704487  0.50443507  -0.00364716  1
  Ag  Ag37  1  0.67305274  0.33469743  -0.00207933  1
  Ag  Ag38  1  0.49832645  0.67418005  0.16536937  1
  Ag  Ag39  1  0.83710380  0.34347484  0.83939153  1
  Ag  Ag40  1  -0.00716758  0.34176873  -0.00316414  1
  Ag  Ag41  1  0.50247921  -0.00637592  0.16529005  1
  Ag  Ag42  1  0.83241140  0.83528200  0.32425532  1
  Ag  Ag43  1  0.16898913  0.50426866  -0.00963759  1
  Ag  Ag44  1  0.32901284  0.34049215  0.32604968  1
  Ag  Ag45  1  0.33008900  0.67033291  -0.00412163  1
  Ag  Ag46  1  0.66448579  -0.00448734  0.32723732  1
  Ag  Ag47  1  0.66708055  0.15615639  0.15789108  1
  Ag  Ag48  1  -0.00087907  -0.00273542  0.33432302  1
  Ag  Ag49  1  0.17134288  0.65767124  0.83698733  1
  Ag  Ag50  1  0.33389440  0.66763908  0.67750283  1
  Ag  Ag51  1  0.83841032  0.66092551  0.84086359  1
  Ag  Ag52  1  0.33956653  0.83087119  0.50003009  1
  Ag  Ag53  1  0.17359406  0.82349528  -0.00444587  1
  Sb  Sb54  1  -0.00638260  0.16612334  0.16843151  1
  Sb  Sb55  1  0.00408745  0.66621213  0.67203643  1
  Sb  Sb56  1  0.17370759  0.17042455  -0.00856212  1
  Sb  Sb57  1  0.33385760  0.50646137  0.15758154  1
  Sb  Sb58  1  0.00053827  -0.00051406  0.66350958  1
  Sb  Sb59  1  0.50213779  0.33262156  0.16096500  1
  Sb  Sb60  1  0.17031795  0.83078540  0.67176552  1
  Sb  Sb61  1  0.17175842  -0.00240536  0.16297521  1
  Sb  Sb62  1  0.33929842  0.16115388  0.15860111  1
  Sb  Sb63  1  0.66956323  0.16025429  0.50180795  1
  Sb  Sb64  1  0.82808759  0.17009030  -0.00387096  1
  Sb  Sb65  1  -0.00350164  0.83322143  0.16792678  1
  Sb  Sb66  1  0.49780055  0.16368971  0.67492281  1
  Sb  Sb67  1  0.16494660  0.33508446  0.15883473  1
  Sb  Sb68  1  0.00127922  0.17223232  0.83070066  1
  Sb  Sb69  1  0.66231195  0.67322847  0.33163397  1
  Sb  Sb70  1  0.66837768  0.50408545  0.50703006  1
  Sb  Sb71  1  0.49472747  0.66766928  0.83557908  1
  Sb  Sb72  1  0.66048889  0.00281692  0.00441964  1
  Sb  Sb73  1  0.00429774  -0.00216437  0.00360562  1
  Sb  Sb74  1  0.49201231  0.33468770  0.50035329  1
  Sb  Sb75  1  0.83166122  -0.00161517  0.83950391  1
  Sb  Sb76  1  0.33067735  0.33877555  0.67331139  1
  Sb  Sb77  1  0.00195549  0.33444804  0.67299430  1
  Sb  Sb78  1  0.49837304  0.16165746  0.32700350  1
  Sb  Sb79  1  0.66572075  0.66303780  -0.00048599  1
  Sb  Sb80  1  0.33076887  0.16206035  0.50571395  1
  Sb  Sb81  1  0.50072823  0.83513890  0.33658368  1
  Sb  Sb82  1  0.32948273  0.50500763  0.50396007  1
  Sb  Sb83  1  0.66316820  0.83333415  0.83647421  1
  Sb  Sb84  1  0.17012677  0.00088539  0.50369033  1
  Sb  Sb85  1  0.83918844  0.50616787  0.32579545  1
  Sb  Sb86  1  0.16992031  0.66733486  0.15776965  1
  Sb  Sb87  1  0.33470933  -0.00741541  0.67319230  1
  Sb  Sb88  1  0.84009654  0.33315373  0.50291781  1
  Sb  Sb89  1  0.83636568  0.50316972  0.67698599  1
  Sb  Sb90  1  0.66083981  0.66825195  0.66903495  1
  Sb  Sb91  1  0.00451892  0.66913157  0.32900788  1
  Sb  Sb92  1  0.17161370  0.66330864  0.50475278  1
  Sb  Sb93  1  0.49336931  0.50317058  0.33086520  1
  Sb  Sb94  1  0.83154676  -0.00492086  0.49542722  1
  Sb  Sb95  1  0.16850772  0.16923079  0.33963715  1
  Sb  Sb96  1  0.00342722  0.33241394  0.33028387  1
  Sb  Sb97  1  0.66689106  0.50252651  0.15987468  1
  Sb  Sb98  1  0.00329181  0.82871460  0.83197899  1
  Sb  Sb99  1  0.83156649  0.67051551  0.50112970  1
  Sb  Sb100  1  0.66548121  -0.00158358  0.66489189  1
  Sb  Sb101  1  0.66773335  0.33323651  0.67608707  1
  Sb  Sb102  1  0.83350067  0.16032108  0.33489089  1
  Sb  Sb103  1  0.49640808  0.33489329  0.83637009  1
  Sb  Sb104  1  0.00049637  0.50141434  0.15734421  1
  Sb  Sb105  1  0.66326984  0.32807393  0.32563931  1
  Sb  Sb106  1  0.16804044  0.83077690  0.33008278  1
  Sb  Sb107  1  0.49737366  0.83220267  -0.00003382  1
  Te  Te108  1  0.16479804  0.16645135  0.16717333  1
  Te  Te109  1  0.16304798  0.17089163  0.50690933  1
  Te  Te110  1  0.16820934  0.16389674  0.82886122  1
  Te  Te111  1  0.16720637  0.50044319  0.17476108  1
  Te  Te112  1  0.16449082  0.49752721  0.49975120  1
  Te  Te113  1  0.16720605  0.50070003  0.83491149  1
  Te  Te114  1  0.17432010  0.83317209  0.15873844  1
  Te  Te115  1  0.16410924  0.83222427  0.50107998  1
  Te  Te116  1  0.17007125  0.83555830  0.83618054  1
  Te  Te117  1  0.50643949  0.16300552  0.15991497  1
  Te  Te118  1  0.50092366  0.16318574  0.50282899  1
  Te  Te119  1  0.49895658  0.16374890  0.83587041  1
  Te  Te120  1  0.50122429  0.50491756  0.16039719  1
  Te  Te121  1  0.50151670  0.50392801  0.50368809  1
  Te  Te122  1  0.50337669  0.50143470  0.83490345  1
  Te  Te123  1  0.50049871  0.83364347  0.16530619  1
  Te  Te124  1  0.49952318  0.83309231  0.50041182  1
  Te  Te125  1  0.49752879  0.83660279  0.82920525  1
  Te  Te126  1  0.82747820  0.16642867  0.16743879  1
  Te  Te127  1  0.83848683  0.16597599  0.50634331  1
  Te  Te128  1  0.83190517  0.16578348  0.82925400  1
  Te  Te129  1  0.83324099  0.49740606  0.16031065  1
  Te  Te130  1  0.83861424  0.50083052  0.50117059  1
  Te  Te131  1  0.83082692  0.50036867  0.83527016  1
  Te  Te132  1  0.83424869  0.83416456  0.16536924  1
  Te  Te133  1  0.83545837  0.83283550  0.50514677  1
  Te  Te134  1  0.83271944  0.83181007  0.83340418  1
  Te  Te135  1  0.17213411  0.00017039  -0.00441923  1
  Te  Te136  1  0.16927798  -0.00013220  0.33394895  1
  Te  Te137  1  0.16724071  0.00319123  0.67238538  1
  Te  Te138  1  0.17080351  0.33709166  -0.00443759  1
  Te  Te139  1  0.17005929  0.33632632  0.32990486  1
  Te  Te140  1  0.16683225  0.33543656  0.66914352  1
  Te  Te141  1  0.16793082  0.66485699  -0.00243390  1
  Te  Te142  1  0.17179678  0.66267940  0.33255695  1
  Te  Te143  1  0.17137586  0.66300004  0.67338816  1
  Te  Te144  1  0.49555867  -0.00064689  0.00077816  1
  Te  Te145  1  0.49751854  0.00053821  0.33137532  1
  Te  Te146  1  0.49986124  -0.00384416  0.66186147  1
  Te  Te147  1  0.49519573  0.33572566  0.00002279  1
  Te  Te148  1  0.49160375  0.33344731  0.33223320  1
  Te  Te149  1  0.49968134  0.34047818  0.66504775  1
  Te  Te150  1  0.49634118  0.66325369  0.00250913  1
  Te  Te151  1  0.49391631  0.66585825  0.33021665  1
  Te  Te152  1  0.49560963  0.66800415  0.66699908  1
  Te  Te153  1  0.83629266  -0.00117562  0.00649750  1
  Te  Te154  1  0.83310101  -0.00404042  0.32911571  1
  Te  Te155  1  0.83322726  -0.00202280  0.66860116  1
  Te  Te156  1  0.83302440  0.33141827  -0.00277863  1
  Te  Te157  1  0.83309607  0.33454396  0.32923839  1
  Te  Te158  1  0.83393359  0.32987499  0.67204486  1
  Te  Te159  1  0.82989774  0.66478174  -0.00025167  1
  Te  Te160  1  0.83464305  0.67299289  0.32982845  1
  Te  Te161  1  0.83388334  0.67160872  0.66943202  1
  Te  Te162  1  0.00172021  0.16999325  0.00034750  1
  Te  Te163  1  0.00060927  0.16182458  0.34037410  1
  Te  Te164  1  0.00020698  0.16629032  0.66248510  1
  Te  Te165  1  0.00086055  0.50124426  -0.00363440  1
  Te  Te166  1  0.00478366  0.50060180  0.33887505  1
  Te  Te167  1  0.00426533  0.50080411  0.66747705  1
  Te  Te168  1  -0.00057552  0.82951030  -0.00000529  1
  Te  Te169  1  -0.00178125  0.83614694  0.33700749  1
  Te  Te170  1  -0.00341755  0.83287735  0.66119440  1
  Te  Te171  1  0.33876989  0.16620290  -0.00550051  1
  Te  Te172  1  0.33330160  0.16230975  0.33294781  1
  Te  Te173  1  0.32968220  0.16828251  0.67416548  1
  Te  Te174  1  0.33152751  0.50149156  -0.00230557  1
  Te  Te175  1  0.33031374  0.49975012  0.33385395  1
  Te  Te176  1  0.33200258  0.50382956  0.67004168  1
  Te  Te177  1  0.33504499  0.83127454  -0.00030401  1
  Te  Te178  1  0.33161378  0.83273267  0.33589845  1
  Te  Te179  1  0.33507858  0.82785645  0.66344016  1
  Te  Te180  1  0.66241006  0.16955132  -0.00172067  1
  Te  Te181  1  0.66628302  0.15979509  0.33070858  1
  Te  Te182  1  0.67012468  0.16647441  0.67115763  1
  Te  Te183  1  0.66884004  0.49522470  -0.00287323  1
  Te  Te184  1  0.66807962  0.49856701  0.33590350  1
  Te  Te185  1  0.66416045  0.50023864  0.67399870  1
  Te  Te186  1  0.67330672  0.83428525  0.00435526  1
  Te  Te187  1  0.67226860  0.83621992  0.33243007  1
  Te  Te188  1  0.66530757  0.83353826  0.66349067  1
  Te  Te189  1  -0.00038132  0.00112540  0.17300701  1
  Te  Te190  1  0.00134522  -0.00148005  0.49596965  1
  Te  Te191  1  0.00435659  0.00046527  0.83457555  1
  Te  Te192  1  -0.00673863  0.33279007  0.16045154  1
  Te  Te193  1  0.00535780  0.33437467  0.49801147  1
  Te  Te194  1  0.00095505  0.33784557  0.83828927  1
  Te  Te195  1  -0.00768219  0.66727200  0.16042847  1
  Te  Te196  1  0.00044307  0.66706379  0.49868359  1
  Te  Te197  1  -0.00012161  0.66327209  0.83766038  1
  Te  Te198  1  0.33755831  -0.00364351  0.16609905  1
  Te  Te199  1  0.33637242  -0.00415383  0.49764361  1
  Te  Te200  1  0.33496648  -0.00206402  0.83428800  1
  Te  Te201  1  0.33344344  0.33018101  0.16546593  1
  Te  Te202  1  0.32676630  0.33102644  0.49557347  1
  Te  Te203  1  0.32998801  0.33717497  0.83690266  1
  Te  Te204  1  0.33544289  0.67103690  0.16685716  1
  Te  Te205  1  0.33549857  0.67031476  0.49532923  1
  Te  Te206  1  0.33369858  0.66765813  0.83501768  1
  Te  Te207  1  0.66397111  -0.00197245  0.16705309  1
  Te  Te208  1  0.66214900  -0.00460569  0.49349171  1
  Te  Te209  1  0.66205263  0.00363555  0.83399095  1
  Te  Te210  1  0.66997094  0.33154495  0.16186709  1
  Te  Te211  1  0.66710914  0.33234586  0.49694565  1
  Te  Te212  1  0.66709431  0.33234153  0.83862333  1
  Te  Te213  1  0.66562493  0.67182278  0.16730481  1
  Te  Te214  1  0.65932583  0.67250606  0.49931755  1
  Te  Te215  1  0.67497321  0.66449743  0.83346926  1
