# generated using pymatgen
data_AgSbTe2
_symmetry_space_group_name_H-M   'P 1'
_cell_length_a   18.31473327
_cell_length_b   18.32514472
_cell_length_c   18.32153415
_cell_angle_alpha   90.00016895
_cell_angle_beta   89.99649727
_cell_angle_gamma   90.00063480
_symmetry_Int_Tables_number   1
_chemical_formula_structural   AgSbTe2
_chemical_formula_sum   'Ag54 Sb54 Te108'
_cell_volume   6149.07580200
_cell_formula_units_Z   54
loop_
 _symmetry_equiv_pos_site_id
 _symmetry_equiv_pos_as_xyz
  1  'x, y, z'
loop_
 _atom_site_type_symbol
 _atom_site_label
 _atom_site_symmetry_multiplicity
 _atom_site_fract_x
 _atom_site_fract_y
 _atom_site_fract_z
 _atom_site_occupancy
  Ag  Ag0  1  0.67070818  0.34094326  -0.00382528  1
  Ag  Ag1  1  0.50013310  0.49013723  0.33170772  1
  Ag  Ag2  1  0.66939948  0.49947002  0.83890430  1
  Ag  Ag3  1  0.00239269  0.65609680  0.66601596  1
  Ag  Ag4  1  0.00023304  0.83059337  0.16376838  1
  Ag  Ag5  1  -0.00154830  0.17211248  0.83486885  1
  Ag  Ag6  1  0.83764994  0.66291527  0.49948358  1
  Ag  Ag7  1  -0.00594540  0.34341806  0.66819422  1
  Ag  Ag8  1  0.66491760  0.83281231  0.16027959  1
  Ag  Ag9  1  0.00057609  0.33930551  0.33620315  1
  Ag  Ag10  1  0.33397869  0.83415348  0.50155158  1
  Ag  Ag11  1  0.34119797  0.16467643  0.16725584  1
  Ag  Ag12  1  0.83226772  0.33733060  0.50189019  1
  Ag  Ag13  1  0.33442603  -0.00496137  0.00413424  1
  Ag  Ag14  1  0.50441993  0.49466819  0.66879328  1
  Ag  Ag15  1  0.83970761  0.49731263  0.66955678  1
  Ag  Ag16  1  0.51092915  0.49975428  -0.00007678  1
  Ag  Ag17  1  -0.00966359  0.33373677  -0.00619218  1
  Ag  Ag18  1  0.82384961  0.49466845  -0.00771675  1
  Ag  Ag19  1  0.16919247  0.83224425  -0.00584880  1
  Ag  Ag20  1  0.16490741  0.16288950  -0.00572802  1
  Ag  Ag21  1  0.83071791  0.83181383  0.33477278  1
  Ag  Ag22  1  0.66312783  0.49656836  0.15280198  1
  Ag  Ag23  1  0.34385962  0.33257209  0.33322594  1
  Ag  Ag24  1  0.33781701  -0.00375205  0.32983799  1
  Ag  Ag25  1  0.00914388  0.82891909  0.83385154  1
  Ag  Ag26  1  0.49808918  0.17084076  0.32512531  1
  Ag  Ag27  1  0.50196900  -0.00234105  0.83378863  1
  Ag  Ag28  1  0.66324630  0.00601828  0.66941383  1
  Ag  Ag29  1  0.49825737  0.83544132  0.33408676  1
  Ag  Ag30  1  0.49772168  0.83628555  0.66905843  1
  Ag  Ag31  1  -0.00318914  0.49938452  0.51281838  1
  Ag  Ag32  1  0.16605050  -0.00188287  0.50276594  1
  Ag  Ag33  1  0.65852093  0.17095708  0.15743271  1
  Ag  Ag34  1  0.83622187  -0.00126606  0.50079852  1
  Ag  Ag35  1  0.16638649  0.16579058  0.67322362  1
  Ag  Ag36  1  0.66695017  0.17022872  0.83670417  1
  Ag  Ag37  1  0.83014755  0.17438852  -0.00188505  1
  Ag  Ag38  1  0.50376325  0.33455988  0.49515016  1
  Ag  Ag39  1  0.66358527  0.65327633  -0.00012222  1
  Ag  Ag40  1  0.66312604  0.83325676  0.83658111  1
  Ag  Ag41  1  0.33219193  0.67145711  0.00380255  1
  Ag  Ag42  1  0.66691182  0.33441371  0.67301203  1
  Ag  Ag43  1  0.16889661  0.83162468  0.67313236  1
  Ag  Ag44  1  -0.00500870  0.49995305  0.82611328  1
  Ag  Ag45  1  0.32975895  0.83318099  0.83257588  1
  Ag  Ag46  1  0.00305835  0.66374581  0.33809376  1
  Ag  Ag47  1  0.15287847  0.50322336  0.66838039  1
  Ag  Ag48  1  0.33241530  0.67229363  0.32855110  1
  Ag  Ag49  1  0.16708934  0.66935221  0.15954978  1
  Ag  Ag50  1  0.49920512  0.00559641  0.16515552  1
  Ag  Ag51  1  0.50270447  0.32689308  0.17272043  1
  Ag  Ag52  1  0.50260695  0.16677065  0.66638465  1
  Ag  Ag53  1  0.16449209  0.67195902  0.83537457  1
  Sb  Sb54  1  0.65986728  -0.00064375  0.33599228  1
  Sb  Sb55  1  0.83284596  0.33598641  0.83060734  1
  Sb  Sb56  1  0.34021656  0.49824929  0.16782644  1
  Sb  Sb57  1  0.16799659  0.50192856  0.33725658  1
  Sb  Sb58  1  0.66520007  0.16794919  0.50483912  1
  Sb  Sb59  1  0.33732333  -0.00260485  0.66643525  1
  Sb  Sb60  1  0.49694424  0.83109344  -0.00150937  1
  Sb  Sb61  1  0.49936776  0.00194689  0.50063051  1
  Sb  Sb62  1  -0.00030884  0.16483043  0.16101499  1
  Sb  Sb63  1  0.66114768  0.00250767  -0.00420924  1
  Sb  Sb64  1  0.00034422  0.66317753  -0.00280812  1
  Sb  Sb65  1  0.67019054  0.49780333  0.50552511  1
  Sb  Sb66  1  0.17115039  -0.00534496  0.83016937  1
  Sb  Sb67  1  -0.00483448  0.50266907  0.16356503  1
  Sb  Sb68  1  -0.00186610  0.00034580  0.66736939  1
  Sb  Sb69  1  0.33529222  0.15944247  0.83726557  1
  Sb  Sb70  1  0.33161009  0.50415235  0.49948975  1
  Sb  Sb71  1  0.83153454  0.17241174  0.67166165  1
  Sb  Sb72  1  0.32825631  0.66963951  0.66660373  1
  Sb  Sb73  1  0.50281290  0.66361095  0.49932976  1
  Sb  Sb74  1  0.82858229  0.16506822  0.33035180  1
  Sb  Sb75  1  0.83557068  0.66732402  0.16945523  1
  Sb  Sb76  1  0.17170768  0.16672526  0.33235199  1
  Sb  Sb77  1  0.49780207  0.66646928  0.16634676  1
  Sb  Sb78  1  0.33483123  0.16229639  0.49600466  1
  Sb  Sb79  1  0.82559694  -0.00112426  0.16937286  1
  Sb  Sb80  1  0.82771052  0.33395007  0.16773423  1
  Sb  Sb81  1  0.66446828  0.33376805  0.33134403  1
  Sb  Sb82  1  0.82757829  -0.00012711  0.82926161  1
  Sb  Sb83  1  0.50125044  0.16977998  0.00160175  1
  Sb  Sb84  1  0.16320805  0.67004217  0.50291486  1
  Sb  Sb85  1  0.33463882  0.50691163  0.83284421  1
  Sb  Sb86  1  0.00248844  0.82835968  0.50201833  1
  Sb  Sb87  1  0.49801134  0.67046103  0.83378966  1
  Sb  Sb88  1  0.33692266  0.33326080  0.00446183  1
  Sb  Sb89  1  0.83775543  0.66499545  0.83069623  1
  Sb  Sb90  1  0.66371618  0.83320441  0.50246647  1
  Sb  Sb91  1  0.66472964  0.66746202  0.32770000  1
  Sb  Sb92  1  0.33592703  0.83568700  0.16583499  1
  Sb  Sb93  1  0.00539531  0.00275029  -0.00152538  1
  Sb  Sb94  1  0.00326135  -0.00181781  0.33365539  1
  Sb  Sb95  1  0.83521533  0.83241643  0.00251752  1
  Sb  Sb96  1  0.16639690  0.33099526  0.50212867  1
  Sb  Sb97  1  0.17283769  -0.00346900  0.16749722  1
  Sb  Sb98  1  0.67088541  0.66260001  0.67310769  1
  Sb  Sb99  1  0.16480265  0.50241557  -0.00546738  1
  Sb  Sb100  1  0.16972635  0.83180009  0.33312488  1
  Sb  Sb101  1  -0.00021597  0.17357265  0.50687601  1
  Sb  Sb102  1  0.33694299  0.33250929  0.66112493  1
  Sb  Sb103  1  0.16275183  0.33566979  0.83261259  1
  Sb  Sb104  1  0.83316831  0.82956533  0.66338663  1
  Sb  Sb105  1  0.50361568  0.33104678  0.83207333  1
  Sb  Sb106  1  0.82989693  0.50247267  0.33517868  1
  Sb  Sb107  1  0.16994503  0.33592407  0.16546788  1
  Te  Te108  1  0.16887406  0.16600451  0.16165402  1
  Te  Te109  1  0.16682372  0.16077078  0.50555371  1
  Te  Te110  1  0.16666533  0.16412641  0.83337090  1
  Te  Te111  1  0.16646739  0.50712438  0.16555302  1
  Te  Te112  1  0.16131836  0.49993958  0.50763502  1
  Te  Te113  1  0.16443334  0.50538435  0.82710722  1
  Te  Te114  1  0.16410504  0.83086002  0.16313637  1
  Te  Te115  1  0.16999417  0.83686262  0.50444021  1
  Te  Te116  1  0.16724582  0.83345166  0.83316085  1
  Te  Te117  1  0.50138764  0.16667788  0.16526746  1
  Te  Te118  1  0.49994118  0.17185682  0.50481167  1
  Te  Te119  1  0.50271371  0.16199183  0.82961358  1
  Te  Te120  1  0.50437991  0.50002453  0.16803185  1
  Te  Te121  1  0.50047097  0.49645657  0.49896346  1
  Te  Te122  1  0.50269454  0.50034028  0.83253772  1
  Te  Te123  1  0.50331296  0.83578136  0.16801966  1
  Te  Te124  1  0.49652131  0.83276913  0.50076142  1
  Te  Te125  1  0.50233384  0.83548446  0.83169925  1
  Te  Te126  1  0.82853344  0.16555570  0.16052879  1
  Te  Te127  1  0.83305390  0.16690445  0.49905576  1
  Te  Te128  1  0.83272939  0.16594876  0.83869812  1
  Te  Te129  1  0.82533854  0.50024255  0.16292424  1
  Te  Te130  1  0.83575488  0.49848412  0.50070484  1
  Te  Te131  1  0.83318982  0.50108348  0.83211445  1
  Te  Te132  1  0.83177468  0.83438425  0.17171908  1
  Te  Te133  1  0.83328203  0.83399466  0.49592942  1
  Te  Te134  1  0.82858608  0.83296950  0.83316061  1
  Te  Te135  1  0.17295146  -0.00151763  0.00014279  1
  Te  Te136  1  0.17372910  0.00035298  0.33858944  1
  Te  Te137  1  0.16708670  -0.00030875  0.66374260  1
  Te  Te138  1  0.16529677  0.32907860  0.00026894  1
  Te  Te139  1  0.16219579  0.33377490  0.33359716  1
  Te  Te140  1  0.16549514  0.33197035  0.66653517  1
  Te  Te141  1  0.16781047  0.66892420  -0.00150531  1
  Te  Te142  1  0.16658954  0.66626745  0.33105958  1
  Te  Te143  1  0.16345910  0.66851800  0.66944378  1
  Te  Te144  1  0.49432993  0.00067277  0.00085087  1
  Te  Te145  1  0.49600922  -0.00164693  0.33340595  1
  Te  Te146  1  0.50302598  -0.00114774  0.66734253  1
  Te  Te147  1  0.50355421  0.33845780  0.00355038  1
  Te  Te148  1  0.50188644  0.33168837  0.33355412  1
  Te  Te149  1  0.50184381  0.33124733  0.66539492  1
  Te  Te150  1  0.49849169  0.66186397  0.00006796  1
  Te  Te151  1  0.49587748  0.67287348  0.33341956  1
  Te  Te152  1  0.50004655  0.66987231  0.66565629  1
  Te  Te153  1  0.83429288  0.00402928  0.00063374  1
  Te  Te154  1  0.83366585  -0.00393991  0.33850593  1
  Te  Te155  1  0.82629348  0.00074608  0.66130542  1
  Te  Te156  1  0.83166994  0.33399886  0.00243971  1
  Te  Te157  1  0.83785173  0.33321127  0.34020840  1
  Te  Te158  1  0.83323989  0.33593921  0.66280293  1
  Te  Te159  1  0.82870854  0.66353444  0.00087358  1
  Te  Te160  1  0.83699863  0.67001122  0.33701060  1
  Te  Te161  1  0.83859990  0.66166409  0.66173056  1
  Te  Te162  1  0.00221207  0.17045243  -0.00388473  1
  Te  Te163  1  -0.00067034  0.17133137  0.33158573  1
  Te  Te164  1  0.00242992  0.16835601  0.67389829  1
  Te  Te165  1  -0.00252859  0.49444695  -0.00413679  1
  Te  Te166  1  -0.00057267  0.50093834  0.33156226  1
  Te  Te167  1  -0.00326315  0.49971650  0.66855698  1
  Te  Te168  1  0.00286265  0.83217511  -0.00259662  1
  Te  Te169  1  -0.00083708  0.83043269  0.33236766  1
  Te  Te170  1  0.00162275  0.83275128  0.67095582  1
  Te  Te171  1  0.33004620  0.16547334  0.00444025  1
  Te  Te172  1  0.33678703  0.16764311  0.32958611  1
  Te  Te173  1  0.33305980  0.16556937  0.66770773  1
  Te  Te174  1  0.33429634  0.50480543  -0.00047180  1
  Te  Te175  1  0.33794124  0.49939613  0.33428576  1
  Te  Te176  1  0.34427156  0.50129246  0.66629462  1
  Te  Te177  1  0.33114845  0.83185749  -0.00055323  1
  Te  Te178  1  0.33538128  0.83247603  0.33234606  1
  Te  Te179  1  0.33487469  0.83360359  0.66845769  1
  Te  Te180  1  0.66793984  0.16710655  -0.00274601  1
  Te  Te181  1  0.65992279  0.16607176  0.32667880  1
  Te  Te182  1  0.66497282  0.17036529  0.67133108  1
  Te  Te183  1  0.66797316  0.49801967  -0.00276731  1
  Te  Te184  1  0.66059594  0.50178290  0.33018357  1
  Te  Te185  1  0.66355686  0.49703989  0.67142741  1
  Te  Te186  1  0.66711839  0.83547050  -0.00127075  1
  Te  Te187  1  0.66453603  0.83283277  0.33182805  1
  Te  Te188  1  0.66410421  0.83063038  0.67063413  1
  Te  Te189  1  -0.00036362  -0.00818322  0.16730671  1
  Te  Te190  1  -0.00101060  0.00103046  0.49925158  1
  Te  Te191  1  -0.00151781  -0.00131417  0.83317744  1
  Te  Te192  1  0.00045653  0.33307458  0.16853527  1
  Te  Te193  1  -0.00076767  0.33776004  0.50172909  1
  Te  Te194  1  -0.00079497  0.33284297  0.83296097  1
  Te  Te195  1  0.00327530  0.67039542  0.16903899  1
  Te  Te196  1  -0.00190248  0.66285036  0.49901228  1
  Te  Te197  1  0.00325729  0.66758224  0.83091174  1
  Te  Te198  1  0.33747880  0.00238171  0.16717595  1
  Te  Te199  1  0.33150196  -0.00507992  0.49644078  1
  Te  Te200  1  0.34015491  -0.00690576  0.83759630  1
  Te  Te201  1  0.33767832  0.32920044  0.17250409  1
  Te  Te202  1  0.33792829  0.33361956  0.49308781  1
  Te  Te203  1  0.33304849  0.33342152  0.83348852  1
  Te  Te204  1  0.32908030  0.66663905  0.16666509  1
  Te  Te205  1  0.33302042  0.67256929  0.49387748  1
  Te  Te206  1  0.32803291  0.67362483  0.83676819  1
  Te  Te207  1  0.65988560  -0.00247640  0.16712993  1
  Te  Te208  1  0.67176021  0.00054913  0.50737736  1
  Te  Te209  1  0.66200876  -0.00077040  0.82965821  1
  Te  Te210  1  0.66287426  0.33244183  0.16450348  1
  Te  Te211  1  0.66678569  0.33345641  0.50486498  1
  Te  Te212  1  0.66695119  0.33226031  0.83413891  1
  Te  Te213  1  0.66700149  0.67068798  0.16060252  1
  Te  Te214  1  0.67607604  0.66597130  0.49954584  1
  Te  Te215  1  0.66673601  0.66680508  0.83930741  1
