# generated using pymatgen
data_AgSbTe2
_symmetry_space_group_name_H-M   'P 1'
_cell_length_a   18.31527103
_cell_length_b   18.31413182
_cell_length_c   18.31316441
_cell_angle_alpha   89.99811590
_cell_angle_beta   90.00086905
_cell_angle_gamma   89.99765860
_symmetry_Int_Tables_number   1
_chemical_formula_structural   AgSbTe2
_chemical_formula_sum   'Ag54 Sb54 Te108'
_cell_volume   6142.75337684
_cell_formula_units_Z   54
loop_
 _symmetry_equiv_pos_site_id
 _symmetry_equiv_pos_as_xyz
  1  'x, y, z'
loop_
 _atom_site_type_symbol
 _atom_site_label
 _atom_site_symmetry_multiplicity
 _atom_site_fract_x
 _atom_site_fract_y
 _atom_site_fract_z
 _atom_site_occupancy
  Ag  Ag0  1  0.66269359  0.66914001  0.33859476  1
  Ag  Ag1  1  0.33688404  0.33010546  0.00071463  1
  Ag  Ag2  1  0.66458474  0.83230359  0.83386799  1
  Ag  Ag3  1  0.66856426  0.66868893  -0.00614515  1
  Ag  Ag4  1  0.67410331  0.33564199  0.66731383  1
  Ag  Ag5  1  0.84410961  0.16823547  -0.00025881  1
  Ag  Ag6  1  0.16080025  0.16420292  0.67668651  1
  Ag  Ag7  1  0.50318244  0.83090694  0.33036591  1
  Ag  Ag8  1  0.82990326  0.83295324  -0.00069852  1
  Ag  Ag9  1  0.66821990  0.16720393  0.15702450  1
  Ag  Ag10  1  0.15982124  0.49550084  0.00073432  1
  Ag  Ag11  1  0.00422626  0.16587738  0.83881982  1
  Ag  Ag12  1  0.50712512  0.33243697  0.83954631  1
  Ag  Ag13  1  0.16909510  0.67090105  0.83456282  1
  Ag  Ag14  1  0.67056293  0.82615519  0.50302278  1
  Ag  Ag15  1  0.83713291  0.49728326  -0.00227040  1
  Ag  Ag16  1  -0.00042000  0.01177186  -0.00173338  1
  Ag  Ag17  1  0.83765848  0.00366850  0.16226764  1
  Ag  Ag18  1  0.82999904  0.66686673  0.50174941  1
  Ag  Ag19  1  -0.00731626  0.32698926  0.67424662  1
  Ag  Ag20  1  0.33739645  0.50199235  0.49730759  1
  Ag  Ag21  1  0.66924575  0.50696345  0.50195272  1
  Ag  Ag22  1  0.50447296  0.83280187  0.67137149  1
  Ag  Ag23  1  0.16259025  0.00605668  0.15944156  1
  Ag  Ag24  1  0.66867465  0.16796655  0.84019612  1
  Ag  Ag25  1  0.66758773  0.66514471  0.66531450  1
  Ag  Ag26  1  -0.00150453  0.16439724  0.50864650  1
  Ag  Ag27  1  0.50089651  0.33086416  0.15578197  1
  Ag  Ag28  1  0.66794016  0.00105033  0.33293457  1
  Ag  Ag29  1  0.16188841  0.66566835  0.50340473  1
  Ag  Ag30  1  0.00356528  0.16751706  0.15489132  1
  Ag  Ag31  1  0.50101004  0.49152600  -0.00012040  1
  Ag  Ag32  1  0.82959797  0.33101238  0.83177729  1
  Ag  Ag33  1  0.83135293  0.49440301  0.66858022  1
  Ag  Ag34  1  0.33064269  0.49707492  0.16220495  1
  Ag  Ag35  1  0.83209192  0.33442386  0.50956498  1
  Ag  Ag36  1  -0.00051638  0.32659662  -0.00308684  1
  Ag  Ag37  1  0.15821970  0.16915406  -0.00118940  1
  Ag  Ag38  1  -0.01105121  0.83756356  0.50290742  1
  Ag  Ag39  1  0.49948023  0.17447290  -0.00065971  1
  Ag  Ag40  1  0.83571272  0.00008871  0.49911508  1
  Ag  Ag41  1  0.66690560  0.32980178  0.33660717  1
  Ag  Ag42  1  -0.00494434  0.66224737  -0.00163574  1
  Ag  Ag43  1  0.50595122  0.83097296  -0.00133161  1
  Ag  Ag44  1  0.33606653  0.83726741  0.16417168  1
  Ag  Ag45  1  0.00307643  0.49146165  0.15797826  1
  Ag  Ag46  1  0.32474524  0.16655043  0.84292060  1
  Ag  Ag47  1  0.32673760  0.16739265  0.15797048  1
  Ag  Ag48  1  0.32511675  0.00170415  0.66793909  1
  Ag  Ag49  1  0.16382671  0.00609507  0.83693519  1
  Ag  Ag50  1  0.50323140  0.66696155  0.83795988  1
  Ag  Ag51  1  0.16565900  0.16522312  0.31860670  1
  Ag  Ag52  1  0.00202541  0.01001953  0.67137671  1
  Ag  Ag53  1  0.33894078  0.66650127  0.33337468  1
  Sb  Sb54  1  0.16825885  0.66817766  0.16402127  1
  Sb  Sb55  1  0.16600264  0.83497639  -0.00049489  1
  Sb  Sb56  1  -0.00471499  0.49922312  0.49821499  1
  Sb  Sb57  1  0.16334393  0.32717386  0.83786229  1
  Sb  Sb58  1  0.49969681  0.16491567  0.32444154  1
  Sb  Sb59  1  0.32610830  0.17066784  0.49953999  1
  Sb  Sb60  1  0.83489266  0.16614158  0.32737158  1
  Sb  Sb61  1  0.83734700  0.00633120  0.83471110  1
  Sb  Sb62  1  0.16093276  0.33571370  0.50198547  1
  Sb  Sb63  1  0.33799094  0.66988430  0.66419995  1
  Sb  Sb64  1  0.49754997  0.16393170  0.67562775  1
  Sb  Sb65  1  0.49995940  0.66429501  0.16057539  1
  Sb  Sb66  1  0.49772460  0.00109201  0.83528484  1
  Sb  Sb67  1  0.66708503  0.49913809  0.83172544  1
  Sb  Sb68  1  0.33307271  0.49444639  0.83803316  1
  Sb  Sb69  1  -0.00013664  0.49233180  0.84187674  1
  Sb  Sb70  1  0.66608665  0.49495411  0.16575215  1
  Sb  Sb71  1  0.33961548  0.83759240  0.83858620  1
  Sb  Sb72  1  0.33666972  -0.00253669  0.33339280  1
  Sb  Sb73  1  0.82983959  0.32872762  0.16098373  1
  Sb  Sb74  1  0.32718190  0.00914783  -0.00198317  1
  Sb  Sb75  1  0.83996083  0.17298015  0.67356334  1
  Sb  Sb76  1  -0.00343212  0.00249651  0.33162563  1
  Sb  Sb77  1  0.50702097  0.33446715  0.50250770  1
  Sb  Sb78  1  0.16179184  0.49669202  0.67120076  1
  Sb  Sb79  1  0.83227668  0.66908382  0.16509585  1
  Sb  Sb80  1  0.33541892  0.66211774  0.00189859  1
  Sb  Sb81  1  -0.00147342  0.66673030  0.33204916  1
  Sb  Sb82  1  0.66283980  0.83816076  0.16570631  1
  Sb  Sb83  1  0.66702176  0.33309377  -0.00402415  1
  Sb  Sb84  1  0.82863660  0.83073121  0.66779490  1
  Sb  Sb85  1  0.16887313  0.83797836  0.66665616  1
  Sb  Sb86  1  0.50559130  0.50278138  0.67173888  1
  Sb  Sb87  1  0.67346431  -0.00033295  0.00286068  1
  Sb  Sb88  1  0.67112262  0.00038403  0.66444660  1
  Sb  Sb89  1  0.17027467  0.83600589  0.33381569  1
  Sb  Sb90  1  0.67540053  0.16775509  0.50134980  1
  Sb  Sb91  1  0.16857046  0.49671620  0.32862378  1
  Sb  Sb92  1  -0.00505815  0.83820468  0.83236000  1
  Sb  Sb93  1  -0.00421866  0.66558863  0.66973092  1
  Sb  Sb94  1  0.50611615  -0.00135599  0.50066045  1
  Sb  Sb95  1  0.33665211  0.82944282  0.49792471  1
  Sb  Sb96  1  0.16976173  0.32627271  0.16240012  1
  Sb  Sb97  1  0.83076488  0.66269173  0.83386790  1
  Sb  Sb98  1  0.33382482  0.32946638  0.67269372  1
  Sb  Sb99  1  0.50092554  0.50378785  0.32762072  1
  Sb  Sb100  1  0.15894680  -0.00096719  0.50159941  1
  Sb  Sb101  1  -0.00564046  0.32995887  0.33015978  1
  Sb  Sb102  1  0.82666508  0.83473457  0.33316136  1
  Sb  Sb103  1  0.83049249  0.49869853  0.33248186  1
  Sb  Sb104  1  0.50644678  0.66717418  0.50252466  1
  Sb  Sb105  1  0.33913313  0.33631187  0.32588390  1
  Sb  Sb106  1  0.49994096  0.00384281  0.16352198  1
  Sb  Sb107  1  0.00189510  0.83779186  0.16551966  1
  Te  Te108  1  0.16590865  0.16516972  0.16101789  1
  Te  Te109  1  0.16030203  0.16703174  0.50488982  1
  Te  Te110  1  0.16576986  0.16633888  0.83694714  1
  Te  Te111  1  0.16811216  0.50088129  0.16108291  1
  Te  Te112  1  0.16595773  0.50464103  0.50005693  1
  Te  Te113  1  0.16727025  0.50755861  0.83905501  1
  Te  Te114  1  0.17247269  0.84046359  0.16789823  1
  Te  Te115  1  0.16577887  0.82626508  0.49963692  1
  Te  Te116  1  0.16729235  0.83169244  0.83245549  1
  Te  Te117  1  0.50050004  0.17021111  0.16195569  1
  Te  Te118  1  0.49781950  0.16700634  0.49972962  1
  Te  Te119  1  0.50324416  0.16832008  0.83821726  1
  Te  Te120  1  0.49679052  0.49457163  0.16078970  1
  Te  Te121  1  0.50012746  0.49977181  0.50072240  1
  Te  Te122  1  0.49891146  0.50088724  0.83912155  1
  Te  Te123  1  0.49544495  0.83366774  0.16450188  1
  Te  Te124  1  0.50585433  0.83371623  0.49947656  1
  Te  Te125  1  0.50460335  0.83240526  0.83539021  1
  Te  Te126  1  0.83297374  0.16392578  0.16166418  1
  Te  Te127  1  0.83890276  0.16513376  0.49725849  1
  Te  Te128  1  0.83083508  0.17022727  0.83906162  1
  Te  Te129  1  0.83738940  0.49951992  0.15974590  1
  Te  Te130  1  0.83083971  0.50014634  0.50004525  1
  Te  Te131  1  0.83381127  0.49396480  0.83528984  1
  Te  Te132  1  0.83382719  0.84007542  0.16056243  1
  Te  Te133  1  0.83059773  0.83195134  0.50017230  1
  Te  Te134  1  0.82660626  0.83331848  0.83888368  1
  Te  Te135  1  0.16158513  0.00170984  -0.00132014  1
  Te  Te136  1  0.16813900  0.00528920  0.33070749  1
  Te  Te137  1  0.16319805  0.00337108  0.66834259  1
  Te  Te138  1  0.16434987  0.33497244  -0.00038886  1
  Te  Te139  1  0.16825074  0.32647390  0.33482538  1
  Te  Te140  1  0.16206545  0.32817713  0.66821889  1
  Te  Te141  1  0.16540708  0.66541338  -0.00287882  1
  Te  Te142  1  0.16902222  0.66591574  0.33765754  1
  Te  Te143  1  0.16681067  0.66563165  0.66733519  1
  Te  Te144  1  0.49919024  -0.00539802  0.00001671  1
  Te  Te145  1  0.50591908  -0.00593686  0.33293054  1
  Te  Te146  1  0.49745961  -0.00504647  0.66678085  1
  Te  Te147  1  0.50304765  0.33382778  -0.00201211  1
  Te  Te148  1  0.50782590  0.33334470  0.33209641  1
  Te  Te149  1  0.50394500  0.33348708  0.67328557  1
  Te  Te150  1  0.50240748  0.66938211  -0.00339483  1
  Te  Te151  1  0.50092035  0.67028009  0.33266897  1
  Te  Te152  1  0.50530464  0.67022871  0.67340546  1
  Te  Te153  1  0.83899307  0.00288787  0.00088751  1
  Te  Te154  1  0.82772675  0.00018640  0.33345748  1
  Te  Te155  1  0.83999612  -0.00092313  0.66164842  1
  Te  Te156  1  0.83411886  0.33348875  -0.00327228  1
  Te  Te157  1  0.82589659  0.33280274  0.33904728  1
  Te  Te158  1  0.83375616  0.33455829  0.66827331  1
  Te  Te159  1  0.83092207  0.66550816  0.00035910  1
  Te  Te160  1  0.82927825  0.66687139  0.33854255  1
  Te  Te161  1  0.82856249  0.66126382  0.66359556  1
  Te  Te162  1  0.00038780  0.16756913  -0.00095545  1
  Te  Te163  1  0.00562804  0.16766294  0.33249630  1
  Te  Te164  1  0.00027463  0.16775118  0.66743941  1
  Te  Te165  1  -0.00093727  0.50162985  0.00189592  1
  Te  Te166  1  0.00080071  0.49874958  0.32102192  1
  Te  Te167  1  -0.00610701  0.49526446  0.66686253  1
  Te  Te168  1  -0.00393759  0.82691699  0.00011476  1
  Te  Te169  1  0.00026208  0.83323765  0.34081122  1
  Te  Te170  1  -0.00031638  0.83433611  0.66214319  1
  Te  Te171  1  0.33674039  0.16858112  0.00060388  1
  Te  Te172  1  0.32873307  0.16699265  0.32908971  1
  Te  Te173  1  0.32865467  0.16278790  0.66807228  1
  Te  Te174  1  0.33496350  0.49522787  0.00278595  1
  Te  Te175  1  0.33367675  0.50421840  0.33190964  1
  Te  Te176  1  0.33175130  0.49947626  0.66133044  1
  Te  Te177  1  0.33648343  0.83292017  0.00530368  1
  Te  Te178  1  0.33877229  0.82944993  0.32949792  1
  Te  Te179  1  0.34072329  0.83864335  0.66719825  1
  Te  Te180  1  0.66146296  0.16621051  -0.00031591  1
  Te  Te181  1  0.66598642  0.16556316  0.33316520  1
  Te  Te182  1  0.66591795  0.16977139  0.67014499  1
  Te  Te183  1  0.66665797  0.50578421  0.00072572  1
  Te  Te184  1  0.66563021  0.50310902  0.33765890  1
  Te  Te185  1  0.66950865  0.50039745  0.66327900  1
  Te  Te186  1  0.66800880  0.83205957  -0.00043143  1
  Te  Te187  1  0.66279292  0.83147272  0.33335430  1
  Te  Te188  1  0.66401146  0.83341794  0.66665779  1
  Te  Te189  1  -0.00055123  0.00280133  0.16465521  1
  Te  Te190  1  -0.00420916  0.00014360  0.49941441  1
  Te  Te191  1  0.00342887  0.00325194  0.83335680  1
  Te  Te192  1  -0.00181050  0.33041807  0.16242376  1
  Te  Te193  1  -0.00659148  0.33054522  0.49995114  1
  Te  Te194  1  -0.00228954  0.32753997  0.83521418  1
  Te  Te195  1  0.00067018  0.66715982  0.16164949  1
  Te  Te196  1  -0.00306800  0.66855842  0.50060690  1
  Te  Te197  1  0.00209349  0.66951553  0.83757492  1
  Te  Te198  1  0.32926058  0.00278587  0.16795198  1
  Te  Te199  1  0.33249560  0.00005234  0.50557518  1
  Te  Te200  1  0.32770621  0.00460396  0.82936999  1
  Te  Te201  1  0.33787452  0.33294129  0.16285542  1
  Te  Te202  1  0.33356914  0.34084576  0.49985128  1
  Te  Te203  1  0.33864959  0.32706520  0.83776434  1
  Te  Te204  1  0.33319698  0.66368390  0.17182401  1
  Te  Te205  1  0.33234463  0.66289283  0.49708916  1
  Te  Te206  1  0.33434058  0.66733536  0.83237531  1
  Te  Te207  1  0.67015497  0.00610683  0.17030542  1
  Te  Te208  1  0.67337413  -0.00243817  0.49666863  1
  Te  Te209  1  0.66771339  0.00098647  0.83254324  1
  Te  Te210  1  0.66326312  0.32848777  0.17112434  1
  Te  Te211  1  0.67122167  0.33477982  0.50294594  1
  Te  Te212  1  0.66727703  0.33184330  0.83048258  1
  Te  Te213  1  0.66646466  0.66567955  0.16980621  1
  Te  Te214  1  0.66750132  0.66681429  0.50177742  1
  Te  Te215  1  0.66526895  0.66818495  0.83418749  1
