# generated using pymatgen
data_AgSbTe2
_symmetry_space_group_name_H-M   'P 1'
_cell_length_a   18.33807329
_cell_length_b   18.33429362
_cell_length_c   18.32871901
_cell_angle_alpha   89.99915514
_cell_angle_beta   90.00013300
_cell_angle_gamma   89.99859112
_symmetry_Int_Tables_number   1
_chemical_formula_structural   AgSbTe2
_chemical_formula_sum   'Ag54 Sb54 Te108'
_cell_volume   6162.40162727
_cell_formula_units_Z   54
loop_
 _symmetry_equiv_pos_site_id
 _symmetry_equiv_pos_as_xyz
  1  'x, y, z'
loop_
 _atom_site_type_symbol
 _atom_site_label
 _atom_site_symmetry_multiplicity
 _atom_site_fract_x
 _atom_site_fract_y
 _atom_site_fract_z
 _atom_site_occupancy
  Ag  Ag0  1  0.33517447  0.16706687  0.83598207  1
  Ag  Ag1  1  0.49934006  -0.00099320  0.83513927  1
  Ag  Ag2  1  0.17434433  0.83390216  0.33581568  1
  Ag  Ag3  1  -0.00049775  0.67269636  0.33456721  1
  Ag  Ag4  1  0.17014212  0.00029366  0.84078130  1
  Ag  Ag5  1  0.49900017  0.00168248  0.17527472  1
  Ag  Ag6  1  0.00741702  0.83537079  0.49240008  1
  Ag  Ag7  1  0.82394664  0.16691795  0.32852776  1
  Ag  Ag8  1  0.34361999  -0.00506861  0.33069734  1
  Ag  Ag9  1  0.33026923  0.00022976  -0.00030649  1
  Ag  Ag10  1  0.00813034  -0.00313486  -0.00053780  1
  Ag  Ag11  1  0.49801998  0.49602769  0.00406679  1
  Ag  Ag12  1  0.34159408  0.66208389  0.66218127  1
  Ag  Ag13  1  -0.00045123  -0.00583720  0.33414821  1
  Ag  Ag14  1  0.49217721  0.84230437  0.33469161  1
  Ag  Ag15  1  0.00124368  0.67778605  0.00132942  1
  Ag  Ag16  1  0.66655466  -0.00376402  0.66408950  1
  Ag  Ag17  1  0.00209681  0.33607767  0.66754004  1
  Ag  Ag18  1  0.49935690  0.66921139  0.82929415  1
  Ag  Ag19  1  0.50148978  0.16365595  0.00122374  1
  Ag  Ag20  1  0.66439324  0.33100981  0.00812064  1
  Ag  Ag21  1  0.32781253  0.83104806  0.49539598  1
  Ag  Ag22  1  0.17623805  0.15535026  -0.00327503  1
  Ag  Ag23  1  0.33225765  0.34124649  0.67258983  1
  Ag  Ag24  1  -0.00098776  0.83636362  0.84115169  1
  Ag  Ag25  1  0.66580730  0.17241967  0.16855358  1
  Ag  Ag26  1  0.33434940  0.83529488  0.17701171  1
  Ag  Ag27  1  0.82848543  0.16238967  0.00472388  1
  Ag  Ag28  1  0.65641288  0.00128415  0.33681221  1
  Ag  Ag29  1  0.50646137  0.15366402  0.32626186  1
  Ag  Ag30  1  0.66067063  0.67007275  0.66241092  1
  Ag  Ag31  1  0.16316024  0.83847930  0.00156130  1
  Ag  Ag32  1  0.17673179  0.51010112  0.33515387  1
  Ag  Ag33  1  0.66417284  0.66549283  0.33705644  1
  Ag  Ag34  1  0.33438235  0.50996675  0.49554321  1
  Ag  Ag35  1  0.33688993  0.49244736  0.83180214  1
  Ag  Ag36  1  0.83069027  -0.00235694  0.83663171  1
  Ag  Ag37  1  0.49828721  -0.00620545  0.48829063  1
  Ag  Ag38  1  0.83120297  0.49816698  0.65879121  1
  Ag  Ag39  1  0.66515514  0.83724841  0.83564874  1
  Ag  Ag40  1  0.82309540  0.49354064  0.33600299  1
  Ag  Ag41  1  0.66196648  0.49260321  0.17163725  1
  Ag  Ag42  1  0.16962109  -0.00606194  0.49427191  1
  Ag  Ag43  1  0.84332329  0.84502478  -0.00344522  1
  Ag  Ag44  1  0.34326433  0.50308203  0.17546309  1
  Ag  Ag45  1  0.83262344  0.33135976  0.49417720  1
  Ag  Ag46  1  0.66816767  0.33326699  0.32671424  1
  Ag  Ag47  1  0.82545599  0.33219866  0.17543354  1
  Ag  Ag48  1  0.83041182  0.00078467  0.49510896  1
  Ag  Ag49  1  0.49620681  0.33357523  0.83594513  1
  Ag  Ag50  1  0.17611987  0.67647434  0.49684401  1
  Ag  Ag51  1  0.17849793  0.32642890  0.83407963  1
  Ag  Ag52  1  0.49506262  0.67199065  0.49807029  1
  Ag  Ag53  1  0.50117066  0.50130942  0.32903280  1
  Sb  Sb54  1  0.83055839  0.32807357  0.83290841  1
  Sb  Sb55  1  0.49859371  0.66713290  0.17131761  1
  Sb  Sb56  1  0.66007632  0.50332125  0.83596176  1
  Sb  Sb57  1  0.16821109  0.16604348  0.67270590  1
  Sb  Sb58  1  0.82895783  0.67229007  0.83324760  1
  Sb  Sb59  1  0.83116685  0.66882396  0.49812734  1
  Sb  Sb60  1  0.66665740  0.16337378  0.49055505  1
  Sb  Sb61  1  0.83150666  0.83190839  0.66922580  1
  Sb  Sb62  1  0.50084857  0.83244910  0.66090829  1
  Sb  Sb63  1  0.33468452  0.16334290  0.50228752  1
  Sb  Sb64  1  0.00433278  0.83579444  0.16648415  1
  Sb  Sb65  1  0.17401357  -0.00160510  0.16503828  1
  Sb  Sb66  1  0.50282051  0.33295503  0.50083993  1
  Sb  Sb67  1  -0.00774939  0.33386997  0.33790000  1
  Sb  Sb68  1  0.33728294  0.67193922  0.34027947  1
  Sb  Sb69  1  0.66221006  0.50247115  0.49244902  1
  Sb  Sb70  1  0.50012744  0.16510704  0.66943922  1
  Sb  Sb71  1  0.49720727  0.83712343  0.00255144  1
  Sb  Sb72  1  0.33982460  0.33335072  0.33671244  1
  Sb  Sb73  1  0.00382971  0.15955165  0.83561785  1
  Sb  Sb74  1  -0.00332646  0.00083303  0.66763085  1
  Sb  Sb75  1  0.50476053  0.33139514  0.16276303  1
  Sb  Sb76  1  0.17465452  0.50278556  0.00335125  1
  Sb  Sb77  1  0.00233902  0.50556371  0.49787784  1
  Sb  Sb78  1  0.82712710  0.00423871  0.16758810  1
  Sb  Sb79  1  0.00462201  0.50434783  0.83374157  1
  Sb  Sb80  1  0.66452353  0.00325779  0.00133510  1
  Sb  Sb81  1  0.16687061  0.83414325  0.66260055  1
  Sb  Sb82  1  0.17139888  0.67071465  0.82952206  1
  Sb  Sb83  1  0.16391433  0.33176611  0.50324499  1
  Sb  Sb84  1  0.16916784  0.50028315  0.66198983  1
  Sb  Sb85  1  0.66659987  0.66393178  0.00107476  1
  Sb  Sb86  1  0.16903482  0.66787370  0.17481068  1
  Sb  Sb87  1  -0.00085518  0.66608594  0.66423109  1
  Sb  Sb88  1  -0.00108615  0.15937504  0.49881978  1
  Sb  Sb89  1  -0.00682743  0.16473994  0.16644357  1
  Sb  Sb90  1  0.66207399  0.83472945  0.16539050  1
  Sb  Sb91  1  0.83299626  0.83721367  0.33005724  1
  Sb  Sb92  1  0.82867280  0.49702055  0.00268912  1
  Sb  Sb93  1  0.50059369  0.50283622  0.66631611  1
  Sb  Sb94  1  0.83199383  0.66392379  0.16816118  1
  Sb  Sb95  1  0.83156178  0.16825213  0.66603127  1
  Sb  Sb96  1  -0.00156546  0.50076299  0.16939834  1
  Sb  Sb97  1  0.16533219  0.33339560  0.16193525  1
  Sb  Sb98  1  0.66565824  0.83539984  0.50009267  1
  Sb  Sb99  1  -0.00426624  0.32989918  -0.00459706  1
  Sb  Sb100  1  0.34059786  0.16546372  0.16261242  1
  Sb  Sb101  1  0.33422619  0.83650547  0.83212765  1
  Sb  Sb102  1  0.66498193  0.33476866  0.66728607  1
  Sb  Sb103  1  0.33996565  0.32824484  -0.00487201  1
  Sb  Sb104  1  0.16856854  0.16024919  0.32751149  1
  Sb  Sb105  1  0.33124310  0.67143176  -0.00463826  1
  Sb  Sb106  1  0.66091348  0.16067072  0.84004738  1
  Sb  Sb107  1  0.33744497  -0.00194857  0.66576344  1
  Te  Te108  1  0.16716790  0.16883301  0.15598979  1
  Te  Te109  1  0.16719650  0.15814673  0.49830095  1
  Te  Te110  1  0.16966962  0.16458550  0.83849660  1
  Te  Te111  1  0.17069716  0.49888392  0.17370032  1
  Te  Te112  1  0.17135645  0.49908705  0.49448267  1
  Te  Te113  1  0.17305529  0.49941693  0.83369191  1
  Te  Te114  1  0.17486994  0.83297567  0.16916823  1
  Te  Te115  1  0.16688606  0.83603283  0.49802055  1
  Te  Te116  1  0.16499734  0.83697895  0.83574494  1
  Te  Te117  1  0.50377633  0.16441409  0.16526553  1
  Te  Te118  1  0.49936907  0.16087812  0.49407774  1
  Te  Te119  1  0.49652504  0.16580033  0.83629338  1
  Te  Te120  1  0.50076760  0.50124967  0.16542314  1
  Te  Te121  1  0.49468525  0.50090424  0.49722102  1
  Te  Te122  1  0.49644394  0.50087747  0.83363620  1
  Te  Te123  1  0.49475630  0.83679078  0.17070379  1
  Te  Te124  1  0.49979623  0.83369361  0.49500876  1
  Te  Te125  1  0.50155590  0.83344196  0.83468076  1
  Te  Te126  1  0.82790119  0.16997899  0.16696258  1
  Te  Te127  1  0.83329312  0.16355467  0.49632615  1
  Te  Te128  1  0.83292048  0.15963602  0.83636271  1
  Te  Te129  1  0.82849349  0.49467390  0.17151424  1
  Te  Te130  1  0.83372571  0.50029634  0.49664272  1
  Te  Te131  1  0.83417779  0.49925099  0.83203737  1
  Te  Te132  1  0.83112158  0.83291409  0.15719366  1
  Te  Te133  1  0.83806356  0.83911088  0.49948164  1
  Te  Te134  1  0.83449331  0.83739497  0.83596474  1
  Te  Te135  1  0.16761364  -0.00103351  0.00105621  1
  Te  Te136  1  0.16123670  -0.00269093  0.33293519  1
  Te  Te137  1  0.16645898  0.00077218  0.66725035  1
  Te  Te138  1  0.16426131  0.33307282  -0.00639020  1
  Te  Te139  1  0.16458105  0.33069174  0.33300940  1
  Te  Te140  1  0.16829415  0.33352652  0.67178598  1
  Te  Te141  1  0.16212767  0.67148397  -0.00096326  1
  Te  Te142  1  0.16472395  0.66872430  0.33802959  1
  Te  Te143  1  0.16815202  0.66600940  0.65859826  1
  Te  Te144  1  0.49792582  0.00105421  -0.00591590  1
  Te  Te145  1  0.49956304  -0.00163828  0.33287530  1
  Te  Te146  1  0.50538521  -0.00033229  0.67545703  1
  Te  Te147  1  0.50310921  0.33260679  -0.00370034  1
  Te  Te148  1  0.50685978  0.34067060  0.33537767  1
  Te  Te149  1  0.49630488  0.33274429  0.67099200  1
  Te  Te150  1  0.49999070  0.66499227  -0.00528573  1
  Te  Te151  1  0.50308478  0.66073516  0.33606934  1
  Te  Te152  1  0.50145920  0.66709417  0.66558282  1
  Te  Te153  1  0.83077068  0.00182658  0.00094763  1
  Te  Te154  1  0.83822652  0.00173838  0.33421852  1
  Te  Te155  1  0.82896252  0.00038349  0.66586870  1
  Te  Te156  1  0.82864277  0.32844129  0.00097403  1
  Te  Te157  1  0.83103915  0.33163462  0.33496774  1
  Te  Te158  1  0.83291872  0.33576979  0.66419607  1
  Te  Te159  1  0.83862095  0.66656884  -0.00040760  1
  Te  Te160  1  0.83228417  0.66451352  0.33427899  1
  Te  Te161  1  0.82862500  0.66026105  0.66594705  1
  Te  Te162  1  -0.00619383  0.16096568  0.00011160  1
  Te  Te163  1  -0.00174254  0.16149192  0.33293310  1
  Te  Te164  1  -0.00003213  0.17527904  0.66690045  1
  Te  Te165  1  0.00140552  0.50391705  0.00088994  1
  Te  Te166  1  0.00123500  0.50357452  0.33278532  1
  Te  Te167  1  -0.00527404  0.49756617  0.66625497  1
  Te  Te168  1  0.00190506  0.83583211  0.00200483  1
  Te  Te169  1  -0.00113930  0.83291181  0.33279792  1
  Te  Te170  1  -0.00075246  0.83211219  0.66904673  1
  Te  Te171  1  0.33671389  0.16224316  -0.00278955  1
  Te  Te172  1  0.33792664  0.16279812  0.33202688  1
  Te  Te173  1  0.33361377  0.17177306  0.67367130  1
  Te  Te174  1  0.33819620  0.50157371  -0.00356618  1
  Te  Te175  1  0.33420923  0.49762515  0.33498578  1
  Te  Te176  1  0.33393120  0.50129728  0.66747183  1
  Te  Te177  1  0.32877534  0.83909430  0.00018433  1
  Te  Te178  1  0.33289833  0.83500743  0.33471358  1
  Te  Te179  1  0.33366190  0.82748968  0.65898128  1
  Te  Te180  1  0.66465043  0.16944832  0.00483208  1
  Te  Te181  1  0.66606845  0.16468564  0.32998842  1
  Te  Te182  1  0.66657014  0.16067298  0.66760414  1
  Te  Te183  1  0.66143609  0.49577425  0.00508616  1
  Te  Te184  1  0.66612859  0.50039548  0.33218936  1
  Te  Te185  1  0.67104473  0.50335651  0.66749708  1
  Te  Te186  1  0.66886312  0.83183001  -0.00307912  1
  Te  Te187  1  0.66469765  0.83234586  0.33220803  1
  Te  Te188  1  0.66721917  0.83265027  0.67321117  1
  Te  Te189  1  -0.00127919  0.00015956  0.16513609  1
  Te  Te190  1  0.00040285  -0.00475955  0.50055976  1
  Te  Te191  1  -0.00008435  -0.00439139  0.83494285  1
  Te  Te192  1  -0.00862503  0.33328110  0.16595755  1
  Te  Te193  1  -0.00474174  0.33379857  0.50516421  1
  Te  Te194  1  0.00073259  0.33535248  0.82899455  1
  Te  Te195  1  0.00022465  0.66729119  0.16825872  1
  Te  Te196  1  0.00155478  0.67301113  0.49626737  1
  Te  Te197  1  0.00111570  0.67267464  0.83523565  1
  Te  Te198  1  0.33915061  -0.00035316  0.16696065  1
  Te  Te199  1  0.33523535  -0.00183298  0.49968127  1
  Te  Te200  1  0.33186904  0.00133242  0.83212519  1
  Te  Te201  1  0.33226437  0.34148470  0.16684480  1
  Te  Te202  1  0.33284232  0.33462178  0.50632028  1
  Te  Te203  1  0.33507691  0.33280723  0.83352256  1
  Te  Te204  1  0.33367777  0.66358517  0.16313910  1
  Te  Te205  1  0.33475465  0.66807375  0.50129273  1
  Te  Te206  1  0.33771627  0.66665884  0.82709110  1
  Te  Te207  1  0.66008341  0.00133443  0.17315645  1
  Te  Te208  1  0.66567780  -0.00193678  0.49882599  1
  Te  Te209  1  0.66829824  -0.00249216  0.83467050  1
  Te  Te210  1  0.66718369  0.33315081  0.16867926  1
  Te  Te211  1  0.67231404  0.33428971  0.49856456  1
  Te  Te212  1  0.66090574  0.33338630  0.83490735  1
  Te  Te213  1  0.66605183  0.66297047  0.17288411  1
  Te  Te214  1  0.66170249  0.66878631  0.50009709  1
  Te  Te215  1  0.66129353  0.67153941  0.83225872  1
