# generated using pymatgen
data_AgSbTe2
_symmetry_space_group_name_H-M   'P 1'
_cell_length_a   18.36839574
_cell_length_b   18.35372718
_cell_length_c   18.36829806
_cell_angle_alpha   89.99973557
_cell_angle_beta   89.99968395
_cell_angle_gamma   90.00086787
_symmetry_Int_Tables_number   1
_chemical_formula_structural   AgSbTe2
_chemical_formula_sum   'Ag54 Sb54 Te108'
_cell_volume   6192.47721320
_cell_formula_units_Z   54
loop_
 _symmetry_equiv_pos_site_id
 _symmetry_equiv_pos_as_xyz
  1  'x, y, z'
loop_
 _atom_site_type_symbol
 _atom_site_label
 _atom_site_symmetry_multiplicity
 _atom_site_fract_x
 _atom_site_fract_y
 _atom_site_fract_z
 _atom_site_occupancy
  Ag  Ag0  1  0.16934751  0.66698692  0.48652311  1
  Ag  Ag1  1  -0.01308184  0.50821820  0.16876870  1
  Ag  Ag2  1  0.50893469  0.50587950  0.32684687  1
  Ag  Ag3  1  0.66626446  0.66936025  0.32649507  1
  Ag  Ag4  1  0.66889638  0.82788300  0.16610313  1
  Ag  Ag5  1  0.50588936  0.67957757  0.84709726  1
  Ag  Ag6  1  0.82697936  0.50852815  0.32220971  1
  Ag  Ag7  1  0.16235291  0.16772175  0.66287048  1
  Ag  Ag8  1  0.32821251  0.15931441  0.84334830  1
  Ag  Ag9  1  0.66813144  0.34192706  0.00245536  1
  Ag  Ag10  1  0.66069722  0.83227434  0.49111101  1
  Ag  Ag11  1  0.83113844  0.31913066  0.84033503  1
  Ag  Ag12  1  0.33774465  0.66800633  0.00380422  1
  Ag  Ag13  1  0.65700842  0.83104098  0.84622528  1
  Ag  Ag14  1  0.32397011  0.16494387  0.16296080  1
  Ag  Ag15  1  0.32896142  0.16303520  0.49399608  1
  Ag  Ag16  1  0.16117218  0.16440408  0.00135283  1
  Ag  Ag17  1  0.82656614  0.82690183  0.31991341  1
  Ag  Ag18  1  0.16917903  0.66821024  0.84341399  1
  Ag  Ag19  1  0.16668872  0.66623393  0.16796516  1
  Ag  Ag20  1  0.66627017  0.34353912  0.32586165  1
  Ag  Ag21  1  -0.00193359  0.66360506  0.32852871  1
  Ag  Ag22  1  0.82844532  0.66789356  0.16409969  1
  Ag  Ag23  1  0.67075275  0.50708585  0.16541673  1
  Ag  Ag24  1  0.00235396  0.16702930  0.16139853  1
  Ag  Ag25  1  0.33852785  0.33214408  0.00054993  1
  Ag  Ag26  1  0.16644590  0.50867609  0.33105487  1
  Ag  Ag27  1  0.50764551  0.51098472  0.00551246  1
  Ag  Ag28  1  0.00791546  0.16724863  0.49334544  1
  Ag  Ag29  1  0.17069176  0.16938649  0.33293996  1
  Ag  Ag30  1  0.67112133  -0.01077922  0.00287758  1
  Ag  Ag31  1  0.34335446  0.83240441  0.84180670  1
  Ag  Ag32  1  0.66719733  -0.01269473  0.32348065  1
  Ag  Ag33  1  0.82225069  0.67106611  0.84810162  1
  Ag  Ag34  1  0.50756692  0.66531255  0.16407173  1
  Ag  Ag35  1  0.50364485  0.83242895  0.68115327  1
  Ag  Ag36  1  0.50598982  0.82801003  -0.00523751  1
  Ag  Ag37  1  0.83776043  0.15364315  -0.00006557  1
  Ag  Ag38  1  0.33428400  0.66697662  0.32245261  1
  Ag  Ag39  1  0.16983154  0.82923964  -0.00096305  1
  Ag  Ag40  1  0.82306034  0.83838393  0.00154412  1
  Ag  Ag41  1  0.66711267  0.67127796  0.68283663  1
  Ag  Ag42  1  0.82551585  0.50765650  0.00398182  1
  Ag  Ag43  1  0.50564483  -0.00776519  0.83568659  1
  Ag  Ag44  1  0.83139897  -0.01065090  0.15885286  1
  Ag  Ag45  1  0.16828521  0.32061961  0.49507691  1
  Ag  Ag46  1  0.49799071  0.16653118  0.33095822  1
  Ag  Ag47  1  -0.00149977  0.16427696  0.84077655  1
  Ag  Ag48  1  0.82681443  -0.00035767  0.84520176  1
  Ag  Ag49  1  0.66826085  0.51219559  0.84734118  1
  Ag  Ag50  1  0.50239654  -0.00519806  0.49874225  1
  Ag  Ag51  1  -0.01510502  0.00205293  0.00092091  1
  Ag  Ag52  1  0.83999597  0.16590518  0.68372183  1
  Ag  Ag53  1  0.34113814  0.83401767  0.49975456  1
  Sb  Sb54  1  0.50459697  0.51008177  0.66983457  1
  Sb  Sb55  1  0.33216942  0.32774180  0.67113696  1
  Sb  Sb56  1  0.83537645  0.33093454  0.50109525  1
  Sb  Sb57  1  0.82863841  -0.00029692  0.49956287  1
  Sb  Sb58  1  -0.00021263  0.33005630  0.66610560  1
  Sb  Sb59  1  0.50359311  0.33287922  0.83655804  1
  Sb  Sb60  1  0.16486703  0.83044921  0.32930894  1
  Sb  Sb61  1  0.16745993  0.33324335  0.16929019  1
  Sb  Sb62  1  0.16726284  0.49911230  0.66185849  1
  Sb  Sb63  1  0.83228265  0.16705843  0.32664549  1
  Sb  Sb64  1  0.66662554  0.50687747  0.49062829  1
  Sb  Sb65  1  -0.00222972  0.33656113  0.33139199  1
  Sb  Sb66  1  0.50667644  0.83056296  0.32753971  1
  Sb  Sb67  1  0.83187686  0.33694881  0.16056036  1
  Sb  Sb68  1  0.49537123  0.32741343  0.49560940  1
  Sb  Sb69  1  0.49828235  0.67172826  0.49583446  1
  Sb  Sb70  1  -0.00280128  0.83606321  0.83789925  1
  Sb  Sb71  1  0.33820995  0.50489242  0.83757056  1
  Sb  Sb72  1  0.66084315  0.66708762  0.00316471  1
  Sb  Sb73  1  0.33677398  0.83257848  0.16434467  1
  Sb  Sb74  1  0.33305192  0.50152602  0.49529402  1
  Sb  Sb75  1  0.33507894  0.33371323  0.32890738  1
  Sb  Sb76  1  0.33779606  -0.00288952  -0.00027210  1
  Sb  Sb77  1  0.83079624  0.49919735  0.67412930  1
  Sb  Sb78  1  0.00058620  0.83571383  0.49610781  1
  Sb  Sb79  1  0.66889095  0.33697633  0.67104898  1
  Sb  Sb80  1  -0.00428164  0.66786702  0.66356570  1
  Sb  Sb81  1  -0.00595665  -0.00052192  0.32860908  1
  Sb  Sb82  1  0.50697668  -0.00360691  0.16443427  1
  Sb  Sb83  1  0.50018192  0.33748952  0.16581486  1
  Sb  Sb84  1  0.66894452  0.16648668  0.16561021  1
  Sb  Sb85  1  0.17139646  0.00135549  0.49873607  1
  Sb  Sb86  1  0.33495110  -0.00081298  0.66739446  1
  Sb  Sb87  1  0.82491460  0.83586548  0.67490361  1
  Sb  Sb88  1  0.00071569  0.67082502  0.00603154  1
  Sb  Sb89  1  -0.00713599  0.83073938  0.16433686  1
  Sb  Sb90  1  0.50103976  0.16382318  0.00315545  1
  Sb  Sb91  1  0.66539005  0.16143126  0.49638523  1
  Sb  Sb92  1  0.16625433  0.00023892  0.83620099  1
  Sb  Sb93  1  0.17316547  0.83534139  0.67014985  1
  Sb  Sb94  1  0.16381025  0.33161007  0.83335950  1
  Sb  Sb95  1  -0.00668034  0.49848224  0.84338549  1
  Sb  Sb96  1  0.00178258  0.49854882  0.49103442  1
  Sb  Sb97  1  0.16668583  0.50063906  0.00443133  1
  Sb  Sb98  1  0.33955866  -0.00115306  0.33357496  1
  Sb  Sb99  1  -0.00280893  0.00388771  0.67268614  1
  Sb  Sb100  1  0.66867766  0.16229126  0.83634456  1
  Sb  Sb101  1  0.83373521  0.66763021  0.49126047  1
  Sb  Sb102  1  0.33552544  0.50150095  0.16662698  1
  Sb  Sb103  1  0.66550822  -0.00576983  0.67032110  1
  Sb  Sb104  1  0.16099914  -0.00138533  0.16364005  1
  Sb  Sb105  1  -0.00606029  0.32593518  0.00091490  1
  Sb  Sb106  1  0.33704873  0.66938347  0.67002560  1
  Sb  Sb107  1  0.49927718  0.16069035  0.66573715  1
  Te  Te108  1  0.16486080  0.16512533  0.16506350  1
  Te  Te109  1  0.16858198  0.16340734  0.49782487  1
  Te  Te110  1  0.16779413  0.16787414  0.83865792  1
  Te  Te111  1  0.16897009  0.50199281  0.17137062  1
  Te  Te112  1  0.16613617  0.50566987  0.49482331  1
  Te  Te113  1  0.16479164  0.50349842  0.83085502  1
  Te  Te114  1  0.16834047  0.83055091  0.16134522  1
  Te  Te115  1  0.16936249  0.82954114  0.50143563  1
  Te  Te116  1  0.16726459  0.83141511  0.83447989  1
  Te  Te117  1  0.49938513  0.16496346  0.17133244  1
  Te  Te118  1  0.49634484  0.16010125  0.49742836  1
  Te  Te119  1  0.49180026  0.16430287  0.83112901  1
  Te  Te120  1  0.50025075  0.50323607  0.16698752  1
  Te  Te121  1  0.49963793  0.49823880  0.49458821  1
  Te  Te122  1  0.50637671  0.50175308  0.83736261  1
  Te  Te123  1  0.50336971  0.82942374  0.15936828  1
  Te  Te124  1  0.50019633  0.83508422  0.49239160  1
  Te  Te125  1  0.49868672  0.83337088  0.83647179  1
  Te  Te126  1  0.83713762  0.16904352  0.16109795  1
  Te  Te127  1  0.83634694  0.16717019  0.49811633  1
  Te  Te128  1  0.83146983  0.16265504  0.83984041  1
  Te  Te129  1  0.83133413  0.50031104  0.16627988  1
  Te  Te130  1  0.83513795  0.49825513  0.49893300  1
  Te  Te131  1  0.82937538  0.51097084  0.83786622  1
  Te  Te132  1  0.83192296  0.83040772  0.16296243  1
  Te  Te133  1  0.83154699  0.83418939  0.50421826  1
  Te  Te134  1  0.83195507  0.83163881  0.83869178  1
  Te  Te135  1  0.16948306  0.00450931  -0.00060144  1
  Te  Te136  1  0.16497806  0.00534720  0.33234379  1
  Te  Te137  1  0.16529886  0.00849810  0.66640790  1
  Te  Te138  1  0.17318388  0.32994092  -0.00067554  1
  Te  Te139  1  0.16688809  0.32987572  0.33662636  1
  Te  Te140  1  0.16684425  0.32834555  0.66071897  1
  Te  Te141  1  0.16766375  0.66511998  0.00264000  1
  Te  Te142  1  0.17008884  0.66975713  0.32985927  1
  Te  Te143  1  0.16489940  0.66700394  0.66681270  1
  Te  Te144  1  0.50611954  -0.00389708  -0.00342449  1
  Te  Te145  1  0.50531635  0.00300677  0.33317593  1
  Te  Te146  1  0.50032603  -0.00601481  0.66806206  1
  Te  Te147  1  0.50116546  0.33374960  -0.00017764  1
  Te  Te148  1  0.50373964  0.33222801  0.33335049  1
  Te  Te149  1  0.50106880  0.33520576  0.66470304  1
  Te  Te150  1  0.49648725  0.66709394  0.00245329  1
  Te  Te151  1  0.49732251  0.66517429  0.33047387  1
  Te  Te152  1  0.50423298  0.67293987  0.66644232  1
  Te  Te153  1  0.82982075  -0.00295308  -0.00004840  1
  Te  Te154  1  0.82679412  -0.00294368  0.33107014  1
  Te  Te155  1  0.83251982  0.00660242  0.66917365  1
  Te  Te156  1  0.83001729  0.34154260  -0.00337145  1
  Te  Te157  1  0.82716454  0.33716636  0.33581727  1
  Te  Te158  1  0.83291752  0.32778614  0.67297047  1
  Te  Te159  1  0.84270790  0.66639321  0.00375635  1
  Te  Te160  1  0.83284352  0.66690215  0.33046262  1
  Te  Te161  1  0.82886955  0.66692539  0.66654004  1
  Te  Te162  1  -0.00109388  0.16535392  -0.00028067  1
  Te  Te163  1  0.00215329  0.16703092  0.33274466  1
  Te  Te164  1  0.00092611  0.16604042  0.66969504  1
  Te  Te165  1  -0.00107575  0.49736857  0.00847258  1
  Te  Te166  1  0.00349443  0.50261982  0.32792372  1
  Te  Te167  1  0.00009502  0.49957448  0.66637877  1
  Te  Te168  1  0.01183962  0.84134098  0.00002884  1
  Te  Te169  1  -0.00730937  0.82859857  0.33276645  1
  Te  Te170  1  0.00126724  0.83536619  0.66483560  1
  Te  Te171  1  0.33627837  0.16528644  0.00182788  1
  Te  Te172  1  0.33341455  0.16743989  0.33274561  1
  Te  Te173  1  0.32903830  0.16615095  0.66481304  1
  Te  Te174  1  0.33442101  0.50007509  -0.00043764  1
  Te  Te175  1  0.32813754  0.50270554  0.33307247  1
  Te  Te176  1  0.33496345  0.49727184  0.66702229  1
  Te  Te177  1  0.32848580  0.83037109  -0.00082447  1
  Te  Te178  1  0.33219400  0.82905295  0.33573848  1
  Te  Te179  1  0.33957326  0.83312605  0.66232365  1
  Te  Te180  1  0.67076611  0.17212176  0.00020606  1
  Te  Te181  1  0.66247688  0.17056070  0.33335000  1
  Te  Te182  1  0.67023260  0.16779821  0.66443177  1
  Te  Te183  1  0.66541493  0.50074811  0.00329175  1
  Te  Te184  1  0.66660846  0.50249511  0.32925717  1
  Te  Te185  1  0.66705407  0.50708067  0.66495019  1
  Te  Te186  1  0.66697658  0.83129347  0.00319196  1
  Te  Te187  1  0.66790357  0.83112016  0.33023572  1
  Te  Te188  1  0.66330088  0.82980955  0.66173027  1
  Te  Te189  1  -0.00679873  0.00375530  0.16296466  1
  Te  Te190  1  -0.00121566  0.00605740  0.49931262  1
  Te  Te191  1  -0.00276220  0.00489677  0.83909923  1
  Te  Te192  1  0.00170123  0.32790711  0.16678284  1
  Te  Te193  1  0.00599798  0.32727441  0.49903983  1
  Te  Te194  1  -0.00640707  0.32959815  0.83309063  1
  Te  Te195  1  0.00372884  0.66531107  0.17013239  1
  Te  Te196  1  0.00585750  0.66662865  0.49427417  1
  Te  Te197  1  0.00850962  0.66479124  0.83061493  1
  Te  Te198  1  0.33372815  0.00567283  0.16776620  1
  Te  Te199  1  0.33910084  -0.00102253  0.49981205  1
  Te  Te200  1  0.33562636  -0.00278177  0.83357726  1
  Te  Te201  1  0.33379164  0.32512751  0.16089711  1
  Te  Te202  1  0.32837924  0.32936147  0.49965914  1
  Te  Te203  1  0.33273638  0.33096097  0.83935057  1
  Te  Te204  1  0.32898905  0.66763537  0.16475228  1
  Te  Te205  1  0.33076858  0.66884333  0.50184306  1
  Te  Te206  1  0.32998091  0.66954068  0.83565018  1
  Te  Te207  1  0.67140336  0.00037618  0.16477194  1
  Te  Te208  1  0.66216190  -0.00578639  0.49996831  1
  Te  Te209  1  0.66679509  -0.00371285  0.83567034  1
  Te  Te210  1  0.66544835  0.33622625  0.16642390  1
  Te  Te211  1  0.66590640  0.33566176  0.49888400  1
  Te  Te212  1  0.67089884  0.33387081  0.83603156  1
  Te  Te213  1  0.66730008  0.66674397  0.16740193  1
  Te  Te214  1  0.66645852  0.67341627  0.49299458  1
  Te  Te215  1  0.66558053  0.66959972  0.83785545  1
