# generated using pymatgen
data_AgSbTe2
_symmetry_space_group_name_H-M   'P 1'
_cell_length_a   18.31192793
_cell_length_b   18.31602149
_cell_length_c   18.31126287
_cell_angle_alpha   89.99748776
_cell_angle_beta   90.00101262
_cell_angle_gamma   90.00026991
_symmetry_Int_Tables_number   1
_chemical_formula_structural   AgSbTe2
_chemical_formula_sum   'Ag54 Sb54 Te108'
_cell_volume   6141.62805441
_cell_formula_units_Z   54
loop_
 _symmetry_equiv_pos_site_id
 _symmetry_equiv_pos_as_xyz
  1  'x, y, z'
loop_
 _atom_site_type_symbol
 _atom_site_label
 _atom_site_symmetry_multiplicity
 _atom_site_fract_x
 _atom_site_fract_y
 _atom_site_fract_z
 _atom_site_occupancy
  Ag  Ag0  1  0.00579635  0.83459551  0.49770099  1
  Ag  Ag1  1  0.33662958  0.00139046  0.33592866  1
  Ag  Ag2  1  0.33689014  0.66069156  -0.00072451  1
  Ag  Ag3  1  0.33069222  0.16409582  0.16859277  1
  Ag  Ag4  1  0.00782258  0.16630935  0.50204209  1
  Ag  Ag5  1  0.50142799  0.32841622  0.16995953  1
  Ag  Ag6  1  0.33812435  0.00298440  -0.00088225  1
  Ag  Ag7  1  0.16768909  0.50277636  0.65869262  1
  Ag  Ag8  1  0.16627064  0.50217511  0.34340084  1
  Ag  Ag9  1  0.50225950  -0.00366826  0.83207893  1
  Ag  Ag10  1  0.34139606  0.00208121  0.66550157  1
  Ag  Ag11  1  0.66268657  0.50317954  0.16921523  1
  Ag  Ag12  1  0.82853811  0.83600308  0.33523058  1
  Ag  Ag13  1  0.17002607  0.66361812  0.49948397  1
  Ag  Ag14  1  0.66460571  0.67490650  0.33786714  1
  Ag  Ag15  1  0.50102523  0.83997352  0.00058426  1
  Ag  Ag16  1  0.66601151  0.83843074  0.83308281  1
  Ag  Ag17  1  0.49936852  0.33329686  0.50062213  1
  Ag  Ag18  1  0.83055320  0.17086231  0.66796112  1
  Ag  Ag19  1  0.16227316  0.83784623  0.33898710  1
  Ag  Ag20  1  0.00274001  0.67776197  0.33878550  1
  Ag  Ag21  1  0.50148371  0.49728086  0.66483291  1
  Ag  Ag22  1  -0.00685270  0.33083538  0.66819289  1
  Ag  Ag23  1  0.33175956  0.16555181  0.49636690  1
  Ag  Ag24  1  0.00756595  0.32967273  -0.00651752  1
  Ag  Ag25  1  0.16823264  0.16939960  0.00391290  1
  Ag  Ag26  1  0.50011191  0.00218490  0.16762688  1
  Ag  Ag27  1  0.00608569  -0.00432797  0.33719455  1
  Ag  Ag28  1  0.65966421  -0.00006545  0.67030947  1
  Ag  Ag29  1  0.50508130  0.83820894  0.33185030  1
  Ag  Ag30  1  0.16319084  0.83222159  0.66036168  1
  Ag  Ag31  1  0.17587293  0.49268836  -0.00102016  1
  Ag  Ag32  1  0.16617097  0.16125577  0.33284363  1
  Ag  Ag33  1  0.16611695  -0.00120488  0.83135267  1
  Ag  Ag34  1  0.83284666  0.00260516  0.83053525  1
  Ag  Ag35  1  0.66089362  0.66717084  0.66199994  1
  Ag  Ag36  1  0.66271258  0.83441404  0.17307085  1
  Ag  Ag37  1  0.50298708  0.16000945  0.66424770  1
  Ag  Ag38  1  0.00790674  0.16626956  0.16826102  1
  Ag  Ag39  1  0.66277699  0.33328622  0.33762267  1
  Ag  Ag40  1  0.00935940  0.50003391  0.50213050  1
  Ag  Ag41  1  0.33073028  0.49733427  0.50099336  1
  Ag  Ag42  1  0.82797138  0.49085257  0.66573755  1
  Ag  Ag43  1  0.50157838  0.67359713  0.82804702  1
  Ag  Ag44  1  0.49412868  0.50313863  -0.00292600  1
  Ag  Ag45  1  -0.00253818  0.84139497  0.82805265  1
  Ag  Ag46  1  -0.00034404  0.16198812  0.82898045  1
  Ag  Ag47  1  0.65566728  -0.00250173  -0.00808021  1
  Ag  Ag48  1  0.66832771  0.33373286  0.66540093  1
  Ag  Ag49  1  0.83495796  0.32491482  0.82727649  1
  Ag  Ag50  1  0.49775288  -0.00087868  0.50179446  1
  Ag  Ag51  1  0.65728740  -0.00683560  0.33386117  1
  Ag  Ag52  1  0.33177293  0.33100012  0.00148447  1
  Ag  Ag53  1  0.49631112  0.66661099  0.50390113  1
  Sb  Sb54  1  0.16708946  0.16573403  0.66485209  1
  Sb  Sb55  1  0.82870966  0.67063104  0.82939577  1
  Sb  Sb56  1  0.67056288  0.15825382  0.83016047  1
  Sb  Sb57  1  0.33994264  0.84072204  0.16745886  1
  Sb  Sb58  1  0.16180902  0.32861584  0.83430471  1
  Sb  Sb59  1  0.83473666  0.50309727  0.34006781  1
  Sb  Sb60  1  0.84016981  0.16541079  -0.00641806  1
  Sb  Sb61  1  0.17055606  0.33723336  0.50051876  1
  Sb  Sb62  1  0.17232900  0.83574687  -0.00102228  1
  Sb  Sb63  1  0.16764309  0.66582027  0.17433757  1
  Sb  Sb64  1  0.83859639  0.16126480  0.33985699  1
  Sb  Sb65  1  -0.00235814  0.32996358  0.33782400  1
  Sb  Sb66  1  0.66413370  0.50388884  0.83139721  1
  Sb  Sb67  1  0.00108794  0.49826405  0.82659146  1
  Sb  Sb68  1  0.49885697  0.83690820  0.66654590  1
  Sb  Sb69  1  0.33808495  0.66990043  0.66672268  1
  Sb  Sb70  1  -0.00212074  0.66357572  0.66068479  1
  Sb  Sb71  1  0.17116863  -0.00286850  0.50110524  1
  Sb  Sb72  1  0.33806670  0.49438585  0.16784898  1
  Sb  Sb73  1  0.50082940  0.66928765  0.16745911  1
  Sb  Sb74  1  0.65822664  0.67184154  -0.00044487  1
  Sb  Sb75  1  0.66070321  0.16351997  0.16896989  1
  Sb  Sb76  1  0.82693002  0.83618494  0.00089051  1
  Sb  Sb77  1  0.83121310  0.66699680  0.16881670  1
  Sb  Sb78  1  0.49761675  0.50206901  0.33632492  1
  Sb  Sb79  1  0.33761041  0.83702872  0.83335337  1
  Sb  Sb80  1  0.49498705  0.15929684  0.33866327  1
  Sb  Sb81  1  0.66324182  0.32964724  -0.00245895  1
  Sb  Sb82  1  0.66235202  0.50026160  0.50026546  1
  Sb  Sb83  1  0.33586031  0.33007683  0.66803050  1
  Sb  Sb84  1  0.17150734  0.33058175  0.16524873  1
  Sb  Sb85  1  0.66164544  0.16662334  0.50261563  1
  Sb  Sb86  1  0.33411281  0.49974287  0.83092879  1
  Sb  Sb87  1  0.17046153  0.67190055  0.82757723  1
  Sb  Sb88  1  -0.00353297  0.84044615  0.17205452  1
  Sb  Sb89  1  0.33758133  0.32767271  0.33241701  1
  Sb  Sb90  1  0.32848522  0.16227552  0.83356525  1
  Sb  Sb91  1  -0.00128763  0.49386683  0.17137924  1
  Sb  Sb92  1  0.33436453  0.67122254  0.33348475  1
  Sb  Sb93  1  0.00383828  0.00442250  -0.00033749  1
  Sb  Sb94  1  0.00909958  0.66289956  0.00296593  1
  Sb  Sb95  1  0.33087826  0.83645314  0.49975649  1
  Sb  Sb96  1  0.82978903  0.33268789  0.50612430  1
  Sb  Sb97  1  -0.00018606  0.00356976  0.66502554  1
  Sb  Sb98  1  0.17332235  0.00226047  0.16795840  1
  Sb  Sb99  1  0.83543512  0.83603610  0.66340833  1
  Sb  Sb100  1  0.82821366  0.33071305  0.16372165  1
  Sb  Sb101  1  0.50405512  0.32994222  0.83021566  1
  Sb  Sb102  1  0.82941088  0.00039997  0.50349185  1
  Sb  Sb103  1  0.49417722  0.16222764  -0.00370352  1
  Sb  Sb104  1  0.82608485  0.00133698  0.16500927  1
  Sb  Sb105  1  0.83157950  0.49721407  -0.00551936  1
  Sb  Sb106  1  0.66589051  0.83337790  0.49822476  1
  Sb  Sb107  1  0.83383054  0.66732799  0.50022626  1
  Te  Te108  1  0.16829251  0.16623619  0.16736267  1
  Te  Te109  1  0.16846013  0.16752811  0.49620808  1
  Te  Te110  1  0.16074046  0.16146765  0.83505322  1
  Te  Te111  1  0.16649692  0.49886186  0.16172562  1
  Te  Te112  1  0.16932663  0.50063192  0.50026091  1
  Te  Te113  1  0.16666553  0.50219480  0.83714968  1
  Te  Te114  1  0.16550922  0.83398063  0.17315879  1
  Te  Te115  1  0.16518082  0.83090423  0.49937431  1
  Te  Te116  1  0.16166702  0.83792871  0.83183971  1
  Te  Te117  1  0.49482713  0.16576608  0.16658230  1
  Te  Te118  1  0.49624974  0.16520733  0.50403240  1
  Te  Te119  1  0.49943250  0.16092125  0.82555918  1
  Te  Te120  1  0.50335346  0.49792000  0.16590312  1
  Te  Te121  1  0.49665290  0.50147574  0.50227583  1
  Te  Te122  1  0.50012489  0.50253202  0.83207327  1
  Te  Te123  1  0.50429136  0.83675219  0.16704533  1
  Te  Te124  1  0.49840913  0.83315181  0.49665014  1
  Te  Te125  1  0.50336572  0.83440933  0.83380107  1
  Te  Te126  1  0.84134952  0.16691385  0.16680704  1
  Te  Te127  1  0.84348155  0.16626001  0.50786648  1
  Te  Te128  1  0.83840109  0.16428440  0.82819353  1
  Te  Te129  1  0.82486616  0.49835351  0.16691947  1
  Te  Te130  1  0.84224448  0.49976131  0.50720175  1
  Te  Te131  1  0.83279641  0.49927070  0.82569638  1
  Te  Te132  1  0.82534887  0.83412911  0.17267181  1
  Te  Te133  1  0.84449392  0.83404919  0.49466863  1
  Te  Te134  1  0.83327184  0.83840495  0.83236772  1
  Te  Te135  1  0.17197308  0.00251823  -0.00267954  1
  Te  Te136  1  0.16655987  0.00064751  0.33341724  1
  Te  Te137  1  0.16808830  -0.00217433  0.67002159  1
  Te  Te138  1  0.16733875  0.33236314  -0.00031873  1
  Te  Te139  1  0.16646530  0.33427437  0.33236162  1
  Te  Te140  1  0.16476881  0.34040437  0.66811630  1
  Te  Te141  1  0.17458340  0.66533430  -0.00052110  1
  Te  Te142  1  0.16646801  0.66597773  0.33901187  1
  Te  Te143  1  0.16809727  0.66577668  0.66135469  1
  Te  Te144  1  0.49924007  0.00074299  -0.00139778  1
  Te  Te145  1  0.49837690  -0.00041719  0.33473799  1
  Te  Te146  1  0.49980136  -0.00164525  0.66518669  1
  Te  Te147  1  0.49778663  0.33463754  -0.00094221  1
  Te  Te148  1  0.50390709  0.33313415  0.33423157  1
  Te  Te149  1  0.50143852  0.33647546  0.66517153  1
  Te  Te150  1  0.49614835  0.66453523  -0.00061395  1
  Te  Te151  1  0.50226952  0.67158870  0.33738708  1
  Te  Te152  1  0.50190483  0.66767748  0.66577743  1
  Te  Te153  1  0.82808979  0.00030094  -0.00683918  1
  Te  Te154  1  0.83241481  -0.00381089  0.33326865  1
  Te  Te155  1  0.82790010  0.00341640  0.67079833  1
  Te  Te156  1  0.83641496  0.33311618  -0.00775300  1
  Te  Te157  1  0.82321703  0.33323132  0.33313010  1
  Te  Te158  1  0.83159800  0.33228187  0.66761413  1
  Te  Te159  1  0.83612439  0.66609513  -0.00102185  1
  Te  Te160  1  0.83014248  0.67159563  0.33442767  1
  Te  Te161  1  0.82420985  0.66168681  0.66623640  1
  Te  Te162  1  0.00626803  0.16931479  -0.00233465  1
  Te  Te163  1  0.00384034  0.16448665  0.33670378  1
  Te  Te164  1  0.00139042  0.17014512  0.66612729  1
  Te  Te165  1  0.00277622  0.49509882  0.00091901  1
  Te  Te166  1  0.00382794  0.50002222  0.33682806  1
  Te  Te167  1  0.00465323  0.49786391  0.66299900  1
  Te  Te168  1  -0.00013702  0.83199876  -0.00030752  1
  Te  Te169  1  0.00287488  0.83511470  0.33257597  1
  Te  Te170  1  0.00233096  0.83273415  0.66582242  1
  Te  Te171  1  0.32886790  0.16485070  0.00039702  1
  Te  Te172  1  0.32854497  0.16303378  0.33469057  1
  Te  Te173  1  0.33590650  0.16286323  0.66225782  1
  Te  Te174  1  0.33507315  0.49708161  0.00098476  1
  Te  Te175  1  0.32746885  0.49989276  0.33654745  1
  Te  Te176  1  0.33432271  0.49944564  0.66285028  1
  Te  Te177  1  0.34000967  0.83949934  0.00058549  1
  Te  Te178  1  0.33273558  0.83956469  0.33279298  1
  Te  Te179  1  0.32380869  0.83988609  0.66682115  1
  Te  Te180  1  0.66783690  0.15930173  0.00171861  1
  Te  Te181  1  0.66971049  0.16694549  0.33445818  1
  Te  Te182  1  0.66489692  0.16712938  0.66562699  1
  Te  Te183  1  0.66222522  0.50004012  0.00421833  1
  Te  Te184  1  0.66698847  0.50000782  0.33150283  1
  Te  Te185  1  0.66260469  0.49881355  0.66598584  1
  Te  Te186  1  0.66184536  0.83733821  -0.00111610  1
  Te  Te187  1  0.66530103  0.83380670  0.33605484  1
  Te  Te188  1  0.66845245  0.83384083  0.66741379  1
  Te  Te189  1  -0.00184347  0.00680844  0.16975173  1
  Te  Te190  1  0.00005298  0.00022030  0.49745130  1
  Te  Te191  1  -0.00031547  -0.00020660  0.83310949  1
  Te  Te192  1  -0.00253020  0.32691909  0.16401908  1
  Te  Te193  1  0.00030566  0.33255868  0.50394387  1
  Te  Te194  1  -0.00379715  0.33175270  0.83121357  1
  Te  Te195  1  -0.00098377  0.66562952  0.17467828  1
  Te  Te196  1  0.00215537  0.66730692  0.49675677  1
  Te  Te197  1  -0.00004710  0.67432875  0.83428999  1
  Te  Te198  1  0.33928964  0.00519175  0.16721979  1
  Te  Te199  1  0.33688202  0.00259799  0.49898720  1
  Te  Te200  1  0.33590088  0.00021242  0.83241616  1
  Te  Te201  1  0.34067864  0.32680017  0.16310425  1
  Te  Te202  1  0.34021087  0.33148074  0.50039910  1
  Te  Te203  1  0.33370887  0.33137580  0.84144749  1
  Te  Te204  1  0.33342920  0.66695451  0.15936394  1
  Te  Te205  1  0.33467356  0.66246368  0.49951879  1
  Te  Te206  1  0.34011941  0.66769170  0.83821108  1
  Te  Te207  1  0.66089688  -0.00277476  0.17240371  1
  Te  Te208  1  0.66089669  0.00031026  0.49956610  1
  Te  Te209  1  0.66384793  -0.00183667  0.83084574  1
  Te  Te210  1  0.66078940  0.33326506  0.16632886  1
  Te  Te211  1  0.66014108  0.33350521  0.50183421  1
  Te  Te212  1  0.67306327  0.33263870  0.82802960  1
  Te  Te213  1  0.66607885  0.66836629  0.17142251  1
  Te  Te214  1  0.66227904  0.66633725  0.49967183  1
  Te  Te215  1  0.66127567  0.67339308  0.83052778  1
