# generated using pymatgen
data_AgSbTe2
_symmetry_space_group_name_H-M   'P 1'
_cell_length_a   18.33857758
_cell_length_b   18.34857065
_cell_length_c   18.34998039
_cell_angle_alpha   90.00080328
_cell_angle_beta   90.00010167
_cell_angle_gamma   89.99871187
_symmetry_Int_Tables_number   1
_chemical_formula_structural   AgSbTe2
_chemical_formula_sum   'Ag54 Sb54 Te108'
_cell_volume   6174.52409466
_cell_formula_units_Z   54
loop_
 _symmetry_equiv_pos_site_id
 _symmetry_equiv_pos_as_xyz
  1  'x, y, z'
loop_
 _atom_site_type_symbol
 _atom_site_label
 _atom_site_symmetry_multiplicity
 _atom_site_fract_x
 _atom_site_fract_y
 _atom_site_fract_z
 _atom_site_occupancy
  Ag  Ag0  1  0.83505632  0.32343886  0.82727860  1
  Ag  Ag1  1  0.66361396  0.67109927  -0.00127516  1
  Ag  Ag2  1  0.66874592  0.50254423  0.82665940  1
  Ag  Ag3  1  0.16764736  0.66825141  0.82387614  1
  Ag  Ag4  1  0.49165101  0.82835047  0.33735977  1
  Ag  Ag5  1  0.32489116  0.66837493  0.00036685  1
  Ag  Ag6  1  0.32426066  0.16524739  0.81988286  1
  Ag  Ag7  1  0.84684934  0.83750635  0.66842106  1
  Ag  Ag8  1  0.67419971  0.83050601  0.82761178  1
  Ag  Ag9  1  0.32174121  0.66589514  0.65627015  1
  Ag  Ag10  1  0.00213026  0.32803060  0.34100088  1
  Ag  Ag11  1  0.16599833  -0.00707762  0.50485394  1
  Ag  Ag12  1  0.33622997  0.49712542  0.49818571  1
  Ag  Ag13  1  0.67476994  0.16801025  0.17891325  1
  Ag  Ag14  1  0.84211605  0.16469442  0.66395517  1
  Ag  Ag15  1  0.16923746  0.51467270  -0.00237266  1
  Ag  Ag16  1  0.33017523  0.17313201  0.50280556  1
  Ag  Ag17  1  0.65671987  0.48774289  0.50318370  1
  Ag  Ag18  1  0.49465623  0.49603774  0.33943856  1
  Ag  Ag19  1  0.66831164  0.83368402  0.50388779  1
  Ag  Ag20  1  0.33461437  0.33882375  0.34151721  1
  Ag  Ag21  1  0.48903789  0.65911373  0.49797286  1
  Ag  Ag22  1  0.65901175  0.32816657  0.34282406  1
  Ag  Ag23  1  0.15776718  0.82203136  0.66208070  1
  Ag  Ag24  1  0.49813621  0.33650339  0.49749669  1
  Ag  Ag25  1  0.00281184  0.15965764  0.82361841  1
  Ag  Ag26  1  0.00461584  -0.00064592  -0.00994811  1
  Ag  Ag27  1  0.83907916  0.00261864  0.83096185  1
  Ag  Ag28  1  0.66439690  0.17151908  0.49680841  1
  Ag  Ag29  1  0.33170692  0.65973412  0.34187850  1
  Ag  Ag30  1  0.00227988  0.32601069  0.66322286  1
  Ag  Ag31  1  0.00404681  0.83610573  0.16666836  1
  Ag  Ag32  1  0.16447556  0.83191504  -0.00258779  1
  Ag  Ag33  1  0.16734822  0.82850561  0.34575668  1
  Ag  Ag34  1  0.01158492  0.68412390  0.66562498  1
  Ag  Ag35  1  0.32146709  -0.00104301  -0.00543358  1
  Ag  Ag36  1  -0.00058231  0.84087279  0.82173254  1
  Ag  Ag37  1  0.67082280  -0.00318890  -0.00374244  1
  Ag  Ag38  1  0.16454231  0.15668865  -0.00028538  1
  Ag  Ag39  1  0.50277078  0.17540154  0.33845338  1
  Ag  Ag40  1  0.32984046  0.50216986  0.17975469  1
  Ag  Ag41  1  0.16704062  0.66630440  0.16463149  1
  Ag  Ag42  1  0.16612083  0.33766897  0.16832353  1
  Ag  Ag43  1  0.00435198  -0.00296189  0.66986145  1
  Ag  Ag44  1  0.84462532  0.66828640  0.16632106  1
  Ag  Ag45  1  0.32577842  0.33109484  0.65995855  1
  Ag  Ag46  1  0.83174252  0.16954194  0.34318735  1
  Ag  Ag47  1  0.32429755  0.00243194  0.66755563  1
  Ag  Ag48  1  0.66912907  0.33234291  0.65901818  1
  Ag  Ag49  1  0.16754424  0.50990285  0.66739640  1
  Ag  Ag50  1  0.00790558  0.83943357  0.50983588  1
  Ag  Ag51  1  -0.00096799  0.16393610  0.16945663  1
  Ag  Ag52  1  0.00194502  0.16432568  0.50685702  1
  Ag  Ag53  1  0.17240617  0.67060628  0.51206591  1
  Sb  Sb54  1  0.83906857  0.16415187  -0.00362700  1
  Sb  Sb55  1  0.32427185  0.82789391  0.16678771  1
  Sb  Sb56  1  0.33034933  0.00054604  0.33538233  1
  Sb  Sb57  1  0.49384195  0.66651841  0.17339016  1
  Sb  Sb58  1  0.16557863  0.16650621  0.33292676  1
  Sb  Sb59  1  0.83803838  0.83729623  0.33821938  1
  Sb  Sb60  1  0.49732154  0.83236933  0.66107642  1
  Sb  Sb61  1  0.83641921  -0.00110626  0.16149002  1
  Sb  Sb62  1  0.50283970  0.33321734  0.82419316  1
  Sb  Sb63  1  0.33444738  0.49811931  0.82854193  1
  Sb  Sb64  1  0.83583452  0.66925649  0.49812140  1
  Sb  Sb65  1  0.83684665  0.66985107  0.83486450  1
  Sb  Sb66  1  0.00678056  0.67416531  -0.00405065  1
  Sb  Sb67  1  0.83892141  0.00231229  0.50627604  1
  Sb  Sb68  1  0.67010516  0.00210726  0.66799026  1
  Sb  Sb69  1  0.66674604  0.00638783  0.33316809  1
  Sb  Sb70  1  0.49543313  0.66716252  0.82770826  1
  Sb  Sb71  1  0.67123987  0.16620905  0.82948973  1
  Sb  Sb72  1  0.83621043  0.49861426  0.66615648  1
  Sb  Sb73  1  0.00182994  0.00409703  0.33777094  1
  Sb  Sb74  1  0.00834004  0.66495820  0.33583713  1
  Sb  Sb75  1  0.17122770  0.33359996  0.49830865  1
  Sb  Sb76  1  0.49467504  0.50293219  0.00421149  1
  Sb  Sb77  1  0.16243774  0.16529043  0.66895298  1
  Sb  Sb78  1  0.83820136  0.50367339  -0.00051650  1
  Sb  Sb79  1  0.66170551  0.66345780  0.33323554  1
  Sb  Sb80  1  0.66795127  0.33182030  -0.00159620  1
  Sb  Sb81  1  0.67192879  0.83567396  0.16779374  1
  Sb  Sb82  1  0.49534550  0.16571898  0.00598739  1
  Sb  Sb83  1  0.49473642  0.00073403  0.49920588  1
  Sb  Sb84  1  0.00442594  0.49853477  0.50194379  1
  Sb  Sb85  1  0.32850965  0.17064677  0.17091632  1
  Sb  Sb86  1  0.16379134  0.33486358  0.83314835  1
  Sb  Sb87  1  0.32884689  0.33378602  -0.00079928  1
  Sb  Sb88  1  0.49449377  0.33213935  0.17740004  1
  Sb  Sb89  1  0.00330816  0.32579858  -0.00280998  1
  Sb  Sb90  1  -0.00048434  0.50015160  0.83115728  1
  Sb  Sb91  1  0.32919831  0.83124903  0.50058278  1
  Sb  Sb92  1  0.83831414  0.33421014  0.16485126  1
  Sb  Sb93  1  0.66159861  0.49643981  0.16910269  1
  Sb  Sb94  1  0.16459249  -0.00215555  0.16592609  1
  Sb  Sb95  1  0.83925178  0.83386084  -0.00576835  1
  Sb  Sb96  1  0.49462540  0.49936289  0.65880924  1
  Sb  Sb97  1  0.66746079  0.66442887  0.66706034  1
  Sb  Sb98  1  0.16037081  -0.00531946  0.82943806  1
  Sb  Sb99  1  0.50139789  -0.00011883  0.83238906  1
  Sb  Sb100  1  0.17337881  0.50358975  0.33626630  1
  Sb  Sb101  1  0.82776336  0.49393704  0.33488663  1
  Sb  Sb102  1  0.50026891  0.00076047  0.16775353  1
  Sb  Sb103  1  0.32850053  0.83697289  0.83230099  1
  Sb  Sb104  1  0.49785922  0.83214860  0.00344570  1
  Sb  Sb105  1  0.00854591  0.49960652  0.16764724  1
  Sb  Sb106  1  0.82931050  0.32997780  0.50459079  1
  Sb  Sb107  1  0.49945647  0.16780682  0.66018896  1
  Te  Te108  1  0.16208663  0.16803820  0.16411367  1
  Te  Te109  1  0.16477483  0.16453553  0.49825323  1
  Te  Te110  1  0.16507826  0.16890025  0.83881547  1
  Te  Te111  1  0.17077106  0.49976193  0.16687301  1
  Te  Te112  1  0.17054426  0.50610582  0.50387167  1
  Te  Te113  1  0.16705757  0.50423980  0.83332696  1
  Te  Te114  1  0.16261198  0.83212628  0.15995233  1
  Te  Te115  1  0.16632271  0.83111573  0.50268942  1
  Te  Te116  1  0.16385601  0.82920169  0.83498078  1
  Te  Te117  1  0.50546687  0.16737898  0.17480842  1
  Te  Te118  1  0.50061203  0.16729275  0.49621848  1
  Te  Te119  1  0.49356104  0.16765257  0.83580656  1
  Te  Te120  1  0.49212683  0.49906641  0.17353679  1
  Te  Te121  1  0.49810688  0.49959786  0.49796443  1
  Te  Te122  1  0.50910296  0.49973775  0.83511703  1
  Te  Te123  1  0.50202761  0.83336825  0.17589011  1
  Te  Te124  1  0.50402658  0.83342411  0.49625932  1
  Te  Te125  1  0.51074479  0.83233444  0.83440169  1
  Te  Te126  1  0.83549187  0.16708418  0.16570208  1
  Te  Te127  1  0.83744481  0.16634166  0.50268787  1
  Te  Te128  1  0.83700484  0.16408956  0.82943274  1
  Te  Te129  1  0.83233151  0.50639389  0.16665517  1
  Te  Te130  1  0.82262723  0.50160584  0.49982883  1
  Te  Te131  1  0.82787610  0.50012728  0.83384326  1
  Te  Te132  1  0.83964972  0.82954436  0.16881815  1
  Te  Te133  1  0.83333556  0.83530741  0.50530129  1
  Te  Te134  1  0.83591287  0.83463892  0.82893689  1
  Te  Te135  1  0.16416210  -0.00220642  0.00082329  1
  Te  Te136  1  0.16735833  -0.00999329  0.33832618  1
  Te  Te137  1  0.16609397  -0.00022950  0.66472919  1
  Te  Te138  1  0.16687232  0.33358167  0.00499531  1
  Te  Te139  1  0.16779431  0.33422771  0.33083119  1
  Te  Te140  1  0.16692637  0.33508720  0.66606239  1
  Te  Te141  1  0.16701075  0.67070696  0.00549024  1
  Te  Te142  1  0.17151646  0.66941531  0.32480787  1
  Te  Te143  1  0.16671364  0.66635742  0.66792184  1
  Te  Te144  1  0.50275329  -0.00079127  0.00007106  1
  Te  Te145  1  0.49878315  -0.00626729  0.33298215  1
  Te  Te146  1  0.48669424  -0.00013494  0.66729023  1
  Te  Te147  1  0.49972158  0.33415512  -0.00001724  1
  Te  Te148  1  0.49855350  0.33386463  0.33793789  1
  Te  Te149  1  0.50375471  0.33343291  0.65860152  1
  Te  Te150  1  0.50077379  0.66715847  -0.00073706  1
  Te  Te151  1  0.49512661  0.66728475  0.33851282  1
  Te  Te152  1  0.49348759  0.66666865  0.65927904  1
  Te  Te153  1  0.83189088  -0.00108642  -0.00680315  1
  Te  Te154  1  0.83370477  0.00932864  0.33222642  1
  Te  Te155  1  0.83480909  0.00087032  0.67116339  1
  Te  Te156  1  0.83454135  0.33547143  -0.00873981  1
  Te  Te157  1  0.83622083  0.32850746  0.33070635  1
  Te  Te158  1  0.83401001  0.33158757  0.66903810  1
  Te  Te159  1  0.82742142  0.66706579  0.00437663  1
  Te  Te160  1  0.83490063  0.66647035  0.32773468  1
  Te  Te161  1  0.83749497  0.67089905  0.66630534  1
  Te  Te162  1  0.00367356  0.16101262  0.00239029  1
  Te  Te163  1  -0.00059717  0.16869648  0.33209344  1
  Te  Te164  1  -0.00000053  0.16763335  0.66661202  1
  Te  Te165  1  0.00840391  0.50067683  -0.00047882  1
  Te  Te166  1  -0.00246227  0.49054929  0.33481092  1
  Te  Te167  1  0.00414179  0.48905573  0.66625954  1
  Te  Te168  1  0.00299454  0.83787893  0.00417834  1
  Te  Te169  1  0.00432487  0.83334459  0.33150998  1
  Te  Te170  1  0.00256138  0.83948504  0.66591473  1
  Te  Te171  1  0.32840556  0.16323630  0.00269795  1
  Te  Te172  1  0.33610366  0.16884181  0.33731221  1
  Te  Te173  1  0.33363020  0.16791126  0.66329557  1
  Te  Te174  1  0.32871573  0.50299481  -0.00393118  1
  Te  Te175  1  0.33459479  0.50006884  0.33762591  1
  Te  Te176  1  0.32946769  0.50050891  0.66421306  1
  Te  Te177  1  0.33052162  0.83450725  -0.00042400  1
  Te  Te178  1  0.33099488  0.83244286  0.33239496  1
  Te  Te179  1  0.32923485  0.83285851  0.66841609  1
  Te  Te180  1  0.66531082  0.16244203  -0.00101924  1
  Te  Te181  1  0.66681300  0.16830220  0.33673302  1
  Te  Te182  1  0.66935705  0.16999379  0.66256991  1
  Te  Te183  1  0.66603399  0.50351660  0.00018272  1
  Te  Te184  1  0.66000136  0.49434652  0.33769604  1
  Te  Te185  1  0.66770936  0.49710117  0.66441013  1
  Te  Te186  1  0.66612206  0.83350904  0.00019887  1
  Te  Te187  1  0.66915323  0.83414882  0.33705549  1
  Te  Te188  1  0.66474035  0.83361093  0.66676382  1
  Te  Te189  1  -0.00060506  0.00120653  0.16411949  1
  Te  Te190  1  0.00425800  -0.00004688  0.50385769  1
  Te  Te191  1  -0.00078732  -0.00011939  0.83200470  1
  Te  Te192  1  0.00376943  0.33023501  0.16690477  1
  Te  Te193  1  0.00103683  0.33171329  0.50009140  1
  Te  Te194  1  -0.00310850  0.33108540  0.82909211  1
  Te  Te195  1  0.00337500  0.66706407  0.16694453  1
  Te  Te196  1  0.00380952  0.66774328  0.50391374  1
  Te  Te197  1  0.00407479  0.66826314  0.82836590  1
  Te  Te198  1  0.33323512  0.00131122  0.15815406  1
  Te  Te199  1  0.32758873  0.00563608  0.50247778  1
  Te  Te200  1  0.33424191  0.00400794  0.83426214  1
  Te  Te201  1  0.32775885  0.33793586  0.16867684  1
  Te  Te202  1  0.33320915  0.33360916  0.50056185  1
  Te  Te203  1  0.33477729  0.32793833  0.82695124  1
  Te  Te204  1  0.32973311  0.66290948  0.16126209  1
  Te  Te205  1  0.33165182  0.66869609  0.49907050  1
  Te  Te206  1  0.33037598  0.66682343  0.83822417  1
  Te  Te207  1  0.66836473  0.00537274  0.16027462  1
  Te  Te208  1  0.66658245  -0.00081130  0.50122470  1
  Te  Te209  1  0.67032071  -0.00339178  0.83495360  1
  Te  Te210  1  0.66815020  0.32868367  0.16757328  1
  Te  Te211  1  0.66610249  0.33044866  0.49969612  1
  Te  Te212  1  0.67052624  0.33518450  0.82982059  1
  Te  Te213  1  0.66425727  0.66633367  0.16261421  1
  Te  Te214  1  0.66757053  0.67359229  0.49978936  1
  Te  Te215  1  0.66598186  0.66797952  0.83476406  1
