# generated using pymatgen
data_AgSbTe2
_symmetry_space_group_name_H-M   'P 1'
_cell_length_a   18.31378871
_cell_length_b   18.31071968
_cell_length_c   18.31374448
_cell_angle_alpha   90.00012475
_cell_angle_beta   90.00065240
_cell_angle_gamma   89.99385388
_symmetry_Int_Tables_number   1
_chemical_formula_structural   AgSbTe2
_chemical_formula_sum   'Ag54 Sb54 Te108'
_cell_volume   6141.30633790
_cell_formula_units_Z   54
loop_
 _symmetry_equiv_pos_site_id
 _symmetry_equiv_pos_as_xyz
  1  'x, y, z'
loop_
 _atom_site_type_symbol
 _atom_site_label
 _atom_site_symmetry_multiplicity
 _atom_site_fract_x
 _atom_site_fract_y
 _atom_site_fract_z
 _atom_site_occupancy
  Ag  Ag0  1  0.83304992  -0.00010068  0.83131528  1
  Ag  Ag1  1  0.49760454  0.16934871  0.66911986  1
  Ag  Ag2  1  0.16849152  0.66564080  0.49300619  1
  Ag  Ag3  1  0.65919613  0.16834920  0.83463645  1
  Ag  Ag4  1  0.83794506  0.00419832  0.50195144  1
  Ag  Ag5  1  0.50338908  0.17690597  0.33752693  1
  Ag  Ag6  1  0.50178955  0.00445833  0.49995576  1
  Ag  Ag7  1  0.66990231  -0.00265526  -0.00428534  1
  Ag  Ag8  1  0.49525351  0.66049125  0.83930833  1
  Ag  Ag9  1  0.16992839  0.33812578  0.82920292  1
  Ag  Ag10  1  0.50204703  0.50492145  -0.00435521  1
  Ag  Ag11  1  0.33501298  0.33709723  -0.00223308  1
  Ag  Ag12  1  0.17343182  0.83000616  -0.00021786  1
  Ag  Ag13  1  0.15893778  -0.00220658  0.16998554  1
  Ag  Ag14  1  0.83010345  0.16881903  0.33379331  1
  Ag  Ag15  1  0.00536659  0.83486688  0.83263335  1
  Ag  Ag16  1  0.16808278  0.33389519  0.50174711  1
  Ag  Ag17  1  0.49428989  0.82406394  -0.00237256  1
  Ag  Ag18  1  0.67345400  0.00196900  0.67174589  1
  Ag  Ag19  1  0.49830735  0.33432847  0.49541034  1
  Ag  Ag20  1  0.34005976  0.33983583  0.33157032  1
  Ag  Ag21  1  0.50120407  0.66394452  0.16587577  1
  Ag  Ag22  1  0.83671714  0.84058480  0.66816221  1
  Ag  Ag23  1  0.17130773  0.50758579  0.33103908  1
  Ag  Ag24  1  0.33716312  0.50132609  0.84006641  1
  Ag  Ag25  1  0.81975564  0.50034075  0.00260149  1
  Ag  Ag26  1  0.49608114  0.66016969  0.49489688  1
  Ag  Ag27  1  -0.00483306  -0.00059787  0.66569542  1
  Ag  Ag28  1  0.50116367  0.49841301  0.67031683  1
  Ag  Ag29  1  0.66433625  0.50240870  0.16475071  1
  Ag  Ag30  1  0.82096791  0.49651476  0.33060761  1
  Ag  Ag31  1  0.33365008  0.65989136  0.33460541  1
  Ag  Ag32  1  0.00397958  0.32765686  0.66553944  1
  Ag  Ag33  1  -0.00411344  -0.00080767  0.00459232  1
  Ag  Ag34  1  0.83173677  0.32872966  0.49727034  1
  Ag  Ag35  1  0.65682214  0.49837822  0.84078899  1
  Ag  Ag36  1  0.65690959  0.65797544  0.32807034  1
  Ag  Ag37  1  0.16656960  0.82657344  0.33004810  1
  Ag  Ag38  1  0.50021915  0.16781345  -0.00573712  1
  Ag  Ag39  1  0.84054473  0.00129786  0.16584870  1
  Ag  Ag40  1  0.16052691  -0.00109428  0.49746731  1
  Ag  Ag41  1  0.17289381  0.66440642  0.83303515  1
  Ag  Ag42  1  0.00243704  0.66884339  0.66514573  1
  Ag  Ag43  1  0.65831909  0.33973773  0.33520709  1
  Ag  Ag44  1  0.33856469  0.17037935  0.83495990  1
  Ag  Ag45  1  0.17242406  0.50545410  -0.00118951  1
  Ag  Ag46  1  0.00022267  0.15946743  0.16759920  1
  Ag  Ag47  1  0.33148006  0.83204071  0.15984083  1
  Ag  Ag48  1  0.16804440  0.16801348  0.66798747  1
  Ag  Ag49  1  0.00094975  -0.00186547  0.33132728  1
  Ag  Ag50  1  0.66015867  0.66203298  0.00135765  1
  Ag  Ag51  1  0.01082684  0.66890969  0.33596469  1
  Ag  Ag52  1  0.32932324  0.82668252  0.83961353  1
  Ag  Ag53  1  0.50228825  0.50032878  0.33384290  1
  Sb  Sb54  1  0.83478210  0.66697827  0.49731646  1
  Sb  Sb55  1  0.83694004  0.33027490  0.82885700  1
  Sb  Sb56  1  0.83354261  0.83480509  -0.00273581  1
  Sb  Sb57  1  0.66333849  0.49931278  0.49596108  1
  Sb  Sb58  1  0.66624641  0.32990943  0.66353345  1
  Sb  Sb59  1  0.83250807  0.33095990  0.17232766  1
  Sb  Sb60  1  0.33126824  0.00101997  0.66782965  1
  Sb  Sb61  1  0.16188971  0.83486144  0.66890566  1
  Sb  Sb62  1  0.33511391  0.16859933  0.50305152  1
  Sb  Sb63  1  0.82881236  0.66912780  0.16861356  1
  Sb  Sb64  1  0.66730928  0.16878175  0.16432273  1
  Sb  Sb65  1  0.82908113  0.16708202  0.00310102  1
  Sb  Sb66  1  0.65979776  0.33713002  0.00184100  1
  Sb  Sb67  1  0.33843013  0.50576703  0.16486257  1
  Sb  Sb68  1  0.00171146  0.49962482  0.49924773  1
  Sb  Sb69  1  0.50073526  -0.00372328  0.16812452  1
  Sb  Sb70  1  0.66412238  0.16621598  0.50307747  1
  Sb  Sb71  1  0.17241318  0.67119856  0.16846068  1
  Sb  Sb72  1  0.49408816  0.82737217  0.33013430  1
  Sb  Sb73  1  0.32989138  -0.00084094  0.33360391  1
  Sb  Sb74  1  0.00115479  0.16012463  0.83393239  1
  Sb  Sb75  1  0.00334541  0.50517187  0.83340773  1
  Sb  Sb76  1  0.66107539  0.82918743  0.16490027  1
  Sb  Sb77  1  0.00166922  0.83512727  0.50518505  1
  Sb  Sb78  1  0.17112432  0.16484309  -0.00449045  1
  Sb  Sb79  1  0.33513897  0.49922986  0.49858890  1
  Sb  Sb80  1  -0.00284431  0.49799705  0.16882438  1
  Sb  Sb81  1  0.00047876  0.16440121  0.49782951  1
  Sb  Sb82  1  0.00041279  0.33314262  0.33880593  1
  Sb  Sb83  1  0.82882081  0.50147341  0.66548308  1
  Sb  Sb84  1  0.33093494  0.33383576  0.66796757  1
  Sb  Sb85  1  0.83225584  0.66970582  0.83338146  1
  Sb  Sb86  1  0.16749909  0.33159251  0.16895824  1
  Sb  Sb87  1  -0.00039839  0.67062549  0.00081800  1
  Sb  Sb88  1  0.49435073  0.33726517  0.82991503  1
  Sb  Sb89  1  0.33066962  0.66482988  0.66640143  1
  Sb  Sb90  1  0.33949475  0.66382618  0.00023632  1
  Sb  Sb91  1  0.66527555  0.83408711  0.49947281  1
  Sb  Sb92  1  0.49952485  0.33912658  0.17181412  1
  Sb  Sb93  1  0.17099359  0.49782621  0.66717153  1
  Sb  Sb94  1  0.16204505  -0.00259840  0.83267294  1
  Sb  Sb95  1  0.83279232  0.16066549  0.66233102  1
  Sb  Sb96  1  0.66512055  0.83391402  0.83494589  1
  Sb  Sb97  1  0.16745175  0.16669508  0.33802404  1
  Sb  Sb98  1  0.67145309  0.00163391  0.33306229  1
  Sb  Sb99  1  0.84022906  0.83530757  0.33624642  1
  Sb  Sb100  1  0.66670347  0.66828825  0.66776701  1
  Sb  Sb101  1  0.33146986  0.83201999  0.50008402  1
  Sb  Sb102  1  0.33173749  0.16264931  0.16323652  1
  Sb  Sb103  1  0.33468491  -0.00142391  -0.00158261  1
  Sb  Sb104  1  0.00498916  0.33001072  -0.00527805  1
  Sb  Sb105  1  0.50472723  0.00155963  0.83116948  1
  Sb  Sb106  1  0.00599232  0.83912534  0.16279151  1
  Sb  Sb107  1  0.50251785  0.83408603  0.67088130  1
  Te  Te108  1  0.16383808  0.15997906  0.16553565  1
  Te  Te109  1  0.16828291  0.16711546  0.50601276  1
  Te  Te110  1  0.16944587  0.16911145  0.82891603  1
  Te  Te111  1  0.16606075  0.49980242  0.16585274  1
  Te  Te112  1  0.16865182  0.50159386  0.49758774  1
  Te  Te113  1  0.16882730  0.50199509  0.83460215  1
  Te  Te114  1  0.17042215  0.83700219  0.16430946  1
  Te  Te115  1  0.16785251  0.83221864  0.49649466  1
  Te  Te116  1  0.16804245  0.83038717  0.83525783  1
  Te  Te117  1  0.49943292  0.16514974  0.16688450  1
  Te  Te118  1  0.49899282  0.16668657  0.49903085  1
  Te  Te119  1  0.49949408  0.16887434  0.83187219  1
  Te  Te120  1  0.50304913  0.50481875  0.16923759  1
  Te  Te121  1  0.49912970  0.50000437  0.49752952  1
  Te  Te122  1  0.49887180  0.49921150  0.83497872  1
  Te  Te123  1  0.49382727  0.82887885  0.16052670  1
  Te  Te124  1  0.49773532  0.83543753  0.50165364  1
  Te  Te125  1  0.49625755  0.83000593  0.83766838  1
  Te  Te126  1  0.83506912  0.16216733  0.17124849  1
  Te  Te127  1  0.83226812  0.16661157  0.49399975  1
  Te  Te128  1  0.82856843  0.16223720  0.83389879  1
  Te  Te129  1  0.82929456  0.50008947  0.16833119  1
  Te  Te130  1  0.83273343  0.49495717  0.49545400  1
  Te  Te131  1  0.83092813  0.49969061  0.83615124  1
  Te  Te132  1  0.83330848  0.84186172  0.16654067  1
  Te  Te133  1  0.83273136  0.83925050  0.50533476  1
  Te  Te134  1  0.83599380  0.83753471  0.83057572  1
  Te  Te135  1  0.16381897  -0.00351149  0.00166011  1
  Te  Te136  1  0.16360162  0.00129101  0.33669780  1
  Te  Te137  1  0.16323676  0.00290852  0.66228523  1
  Te  Te138  1  0.17095532  0.33585686  -0.00310628  1
  Te  Te139  1  0.16899966  0.33587800  0.33733935  1
  Te  Te140  1  0.16529664  0.33261851  0.66423664  1
  Te  Te141  1  0.16555231  0.66712964  -0.00138086  1
  Te  Te142  1  0.16835563  0.66627702  0.33194004  1
  Te  Te143  1  0.16236914  0.66608745  0.66523782  1
  Te  Te144  1  0.50440774  0.00292099  0.00101650  1
  Te  Te145  1  0.50137464  -0.00119178  0.33775848  1
  Te  Te146  1  0.50260407  0.00227598  0.66245189  1
  Te  Te147  1  0.49545938  0.33330612  0.00103688  1
  Te  Te148  1  0.49930323  0.33501821  0.33501491  1
  Te  Te149  1  0.49998488  0.33196458  0.65867442  1
  Te  Te150  1  0.50071778  0.66496567  -0.00126030  1
  Te  Te151  1  0.49885970  0.66660895  0.33513090  1
  Te  Te152  1  0.50102209  0.66432031  0.66230660  1
  Te  Te153  1  0.83216967  0.00058655  -0.00077918  1
  Te  Te154  1  0.83660596  0.00143020  0.33723890  1
  Te  Te155  1  0.83367683  0.00085423  0.66430901  1
  Te  Te156  1  0.83512732  0.34058096  -0.00103708  1
  Te  Te157  1  0.83491970  0.33431429  0.33811227  1
  Te  Te158  1  0.83883248  0.33322973  0.65936495  1
  Te  Te159  1  0.82867061  0.66108259  0.00079109  1
  Te  Te160  1  0.83270328  0.66253993  0.33501901  1
  Te  Te161  1  0.83916398  0.67056197  0.66493439  1
  Te  Te162  1  -0.00069484  0.16072294  0.00392802  1
  Te  Te163  1  -0.00185971  0.16321758  0.32963277  1
  Te  Te164  1  0.00315533  0.16436467  0.66766220  1
  Te  Te165  1  0.00530017  0.50009852  0.00109621  1
  Te  Te166  1  0.00543040  0.50269415  0.33239668  1
  Te  Te167  1  -0.00171962  0.50514258  0.66729564  1
  Te  Te168  1  0.00194168  0.83834796  -0.00511489  1
  Te  Te169  1  0.00556971  0.83421754  0.33200565  1
  Te  Te170  1  -0.00246654  0.83506734  0.67151002  1
  Te  Te171  1  0.33891098  0.17066823  -0.00390263  1
  Te  Te172  1  0.33974144  0.17087403  0.33131226  1
  Te  Te173  1  0.33554075  0.16778811  0.67352908  1
  Te  Te174  1  0.33252059  0.49787564  -0.00039387  1
  Te  Te175  1  0.33406040  0.49989494  0.33080594  1
  Te  Te176  1  0.34197346  0.49935302  0.67755396  1
  Te  Te177  1  0.33341711  0.83281263  -0.00146221  1
  Te  Te178  1  0.32636605  0.83153541  0.33229789  1
  Te  Te179  1  0.33357790  0.83299925  0.67719385  1
  Te  Te180  1  0.66158548  0.16629832  -0.00323790  1
  Te  Te181  1  0.66447198  0.16973617  0.33195268  1
  Te  Te182  1  0.66236226  0.16282665  0.67285791  1
  Te  Te183  1  0.66341136  0.49947290  0.00040928  1
  Te  Te184  1  0.66450382  0.50031643  0.33295873  1
  Te  Te185  1  0.66099655  0.49957522  0.67522895  1
  Te  Te186  1  0.66304259  0.83329916  0.00003611  1
  Te  Te187  1  0.66735623  0.82611288  0.33182662  1
  Te  Te188  1  0.67274299  0.83982338  0.66748212  1
  Te  Te189  1  0.00020874  0.00006855  0.16820142  1
  Te  Te190  1  0.00093106  -0.00027045  0.50022692  1
  Te  Te191  1  -0.00416820  -0.00341946  0.83013645  1
  Te  Te192  1  0.00028300  0.32448858  0.16512254  1
  Te  Te193  1  0.00527729  0.33270751  0.50641979  1
  Te  Te194  1  0.00627267  0.33230601  0.82662480  1
  Te  Te195  1  -0.00161114  0.66724960  0.17355344  1
  Te  Te196  1  0.00375201  0.66702795  0.49810411  1
  Te  Te197  1  0.00281217  0.67258652  0.83214828  1
  Te  Te198  1  0.32886413  -0.00688979  0.16630408  1
  Te  Te199  1  0.33278134  -0.00011010  0.50035457  1
  Te  Te200  1  0.33343088  0.00260694  0.83373596  1
  Te  Te201  1  0.33206627  0.33169614  0.16710027  1
  Te  Te202  1  0.33227804  0.33347920  0.49442942  1
  Te  Te203  1  0.32954438  0.33354329  0.83468339  1
  Te  Te204  1  0.33911028  0.67153530  0.17412015  1
  Te  Te205  1  0.33188232  0.66613254  0.49584032  1
  Te  Te206  1  0.33298231  0.66520997  0.83268835  1
  Te  Te207  1  0.67022433  0.00004455  0.16234152  1
  Te  Te208  1  0.66602769  0.00008400  0.50207949  1
  Te  Te209  1  0.67005309  0.00092768  0.83472874  1
  Te  Te210  1  0.66724052  0.33986045  0.17394646  1
  Te  Te211  1  0.66587048  0.33257348  0.49568411  1
  Te  Te212  1  0.66888560  0.33213795  0.83279822  1
  Te  Te213  1  0.66239621  0.66313687  0.16571140  1
  Te  Te214  1  0.66212760  0.66691972  0.49772379  1
  Te  Te215  1  0.66314156  0.66294923  0.83581736  1
