# generated using pymatgen
data_AgSbTe2
_symmetry_space_group_name_H-M   'P 1'
_cell_length_a   18.35062618
_cell_length_b   18.34712492
_cell_length_c   18.34109546
_cell_angle_alpha   89.99192827
_cell_angle_beta   89.99789212
_cell_angle_gamma   90.00001602
_symmetry_Int_Tables_number   1
_chemical_formula_structural   AgSbTe2
_chemical_formula_sum   'Ag54 Sb54 Te108'
_cell_volume   6175.10252868
_cell_formula_units_Z   54
loop_
 _symmetry_equiv_pos_site_id
 _symmetry_equiv_pos_as_xyz
  1  'x, y, z'
loop_
 _atom_site_type_symbol
 _atom_site_label
 _atom_site_symmetry_multiplicity
 _atom_site_fract_x
 _atom_site_fract_y
 _atom_site_fract_z
 _atom_site_occupancy
  Ag  Ag0  1  0.83099443  0.67940169  0.50634890  1
  Ag  Ag1  1  0.16957371  0.50842653  0.68299194  1
  Ag  Ag2  1  0.32952384  0.49283599  0.16398679  1
  Ag  Ag3  1  0.16069358  0.49668605  -0.00295990  1
  Ag  Ag4  1  0.67191776  0.17042865  0.16933082  1
  Ag  Ag5  1  0.50766194  0.83042585  0.65980546  1
  Ag  Ag6  1  0.67700844  -0.00872932  0.65114290  1
  Ag  Ag7  1  0.32183901  0.49670569  0.83813643  1
  Ag  Ag8  1  0.67682668  0.65976702  -0.00312868  1
  Ag  Ag9  1  0.00756810  0.50053018  0.83888232  1
  Ag  Ag10  1  -0.00235456  0.83897160  0.16636632  1
  Ag  Ag11  1  0.16357548  0.83203681  0.66762445  1
  Ag  Ag12  1  0.67145185  0.15507339  0.48710605  1
  Ag  Ag13  1  0.67699718  0.49142873  0.16248326  1
  Ag  Ag14  1  0.66931341  0.00394907  0.33994092  1
  Ag  Ag15  1  0.33201943  0.32401996  0.32991796  1
  Ag  Ag16  1  0.82985947  0.32572149  0.48918924  1
  Ag  Ag17  1  0.00384354  0.15754876  0.83497392  1
  Ag  Ag18  1  0.16559904  0.16908425  -0.00386553  1
  Ag  Ag19  1  0.82764692  0.16163762  0.33541625  1
  Ag  Ag20  1  0.00001137  -0.00102467  -0.00488503  1
  Ag  Ag21  1  0.15834477  0.00345643  0.83540400  1
  Ag  Ag22  1  0.33204842  0.17189562  0.17274676  1
  Ag  Ag23  1  0.83609706  0.50179329  0.00469355  1
  Ag  Ag24  1  0.66599929  0.84339164  0.50171203  1
  Ag  Ag25  1  0.83523121  0.49737944  0.32429655  1
  Ag  Ag26  1  0.17135008  0.16623068  0.32581071  1
  Ag  Ag27  1  0.34069760  0.00616549  0.33310413  1
  Ag  Ag28  1  0.50951215  0.33367976  0.16826818  1
  Ag  Ag29  1  0.82848474  0.33276199  0.16991054  1
  Ag  Ag30  1  0.83121095  0.15522956  0.65792353  1
  Ag  Ag31  1  0.51348228  -0.00423894  0.49610563  1
  Ag  Ag32  1  0.66793512  0.34105945  0.00662460  1
  Ag  Ag33  1  0.83083335  0.84098272  0.66083524  1
  Ag  Ag34  1  0.83760756  0.00565516  0.17095982  1
  Ag  Ag35  1  0.16501908  0.49571041  0.32657835  1
  Ag  Ag36  1  -0.00371099  0.65794626  -0.00227065  1
  Ag  Ag37  1  0.15988792  0.65281904  0.83109265  1
  Ag  Ag38  1  0.66898631  0.67177140  0.66814088  1
  Ag  Ag39  1  0.32205433  0.16912363  0.83748163  1
  Ag  Ag40  1  0.84012907  -0.00150469  0.81970296  1
  Ag  Ag41  1  0.82850897  0.84528834  0.34016486  1
  Ag  Ag42  1  0.50711061  0.49859298  0.00101823  1
  Ag  Ag43  1  -0.00301415  0.50203618  0.15823921  1
  Ag  Ag44  1  -0.01149048  -0.00053412  0.67563184  1
  Ag  Ag45  1  0.50727062  0.84399408  0.34054519  1
  Ag  Ag46  1  0.82577786  0.00025074  0.50493902  1
  Ag  Ag47  1  0.49624401  0.50651571  0.67114873  1
  Ag  Ag48  1  0.15880712  0.00498354  0.16429073  1
  Ag  Ag49  1  0.33795093  0.66640652  0.66720546  1
  Ag  Ag50  1  0.16709393  0.34102473  0.83442078  1
  Ag  Ag51  1  0.34530174  0.83549980  0.50206626  1
  Ag  Ag52  1  0.50538935  0.16199619  0.33067279  1
  Ag  Ag53  1  0.83777393  0.66790291  0.83144610  1
  Sb  Sb54  1  0.33334417  -0.00400481  0.66264882  1
  Sb  Sb55  1  0.50508326  0.16458151  0.66180215  1
  Sb  Sb56  1  0.83426027  0.50304085  0.66878117  1
  Sb  Sb57  1  0.67448430  -0.00031469  0.00312802  1
  Sb  Sb58  1  0.16491906  0.33197226  0.16309063  1
  Sb  Sb59  1  0.49433100  0.33578177  0.83914847  1
  Sb  Sb60  1  -0.00039520  0.83488384  0.83531937  1
  Sb  Sb61  1  0.83823086  0.33309241  0.83671164  1
  Sb  Sb62  1  0.16244306  0.16472188  0.67155473  1
  Sb  Sb63  1  -0.00287902  0.67132032  0.67430941  1
  Sb  Sb64  1  0.83569376  0.82974553  -0.00009434  1
  Sb  Sb65  1  0.50705093  0.67353407  0.50262911  1
  Sb  Sb66  1  0.16352418  0.33262177  0.50075399  1
  Sb  Sb67  1  0.66909426  0.49953758  0.49570867  1
  Sb  Sb68  1  0.16548639  0.66481490  0.16023711  1
  Sb  Sb69  1  0.50058072  0.66458456  0.83012678  1
  Sb  Sb70  1  0.67260316  0.83586797  0.17331002  1
  Sb  Sb71  1  -0.00046750  0.33273194  0.33069935  1
  Sb  Sb72  1  0.66766693  0.33494226  0.67026222  1
  Sb  Sb73  1  0.50208105  0.00590978  0.17412191  1
  Sb  Sb74  1  0.16342467  0.00086612  0.50022159  1
  Sb  Sb75  1  0.50362837  0.82754071  0.00240370  1
  Sb  Sb76  1  0.32628696  0.00292698  0.00390626  1
  Sb  Sb77  1  0.50509346  0.32882336  0.49371978  1
  Sb  Sb78  1  0.32994727  0.83701530  0.17433023  1
  Sb  Sb79  1  0.50139703  0.65877987  0.16608510  1
  Sb  Sb80  1  -0.00588523  0.00088327  0.33183580  1
  Sb  Sb81  1  0.66804582  0.32558191  0.32706437  1
  Sb  Sb82  1  0.16461265  0.83607243  0.33736822  1
  Sb  Sb83  1  0.50029809  0.00105309  0.82688536  1
  Sb  Sb84  1  0.67030062  0.16546793  0.83628995  1
  Sb  Sb85  1  0.50136687  0.49677370  0.32961637  1
  Sb  Sb86  1  0.00042465  0.16690980  0.16313079  1
  Sb  Sb87  1  0.32923586  0.83093514  0.82551859  1
  Sb  Sb88  1  -0.00064368  0.32998129  0.67014287  1
  Sb  Sb89  1  0.16215836  0.66698787  0.50715257  1
  Sb  Sb90  1  0.33863953  0.16132850  0.49517108  1
  Sb  Sb91  1  0.49587319  0.17102810  0.00713598  1
  Sb  Sb92  1  0.83350699  0.66419613  0.16442446  1
  Sb  Sb93  1  -0.00269393  0.50073580  0.50206073  1
  Sb  Sb94  1  -0.00180109  0.33631931  0.00089554  1
  Sb  Sb95  1  0.33385861  0.50436162  0.50019209  1
  Sb  Sb96  1  -0.00802457  0.16371711  0.50238082  1
  Sb  Sb97  1  0.33037858  0.66073618  -0.00683941  1
  Sb  Sb98  1  0.67039751  0.67043278  0.33425815  1
  Sb  Sb99  1  -0.00262902  0.66544173  0.32771010  1
  Sb  Sb100  1  0.33312752  0.66760186  0.33786868  1
  Sb  Sb101  1  -0.00733197  0.83516211  0.49878784  1
  Sb  Sb102  1  0.83815686  0.16935564  0.00234746  1
  Sb  Sb103  1  0.33329001  0.33803545  0.66524074  1
  Sb  Sb104  1  0.33390368  0.33561957  0.00606431  1
  Sb  Sb105  1  0.16434055  0.83297190  -0.00473026  1
  Sb  Sb106  1  0.66912342  0.50095279  0.84031835  1
  Sb  Sb107  1  0.66960941  0.83247893  0.82385175  1
  Te  Te108  1  0.16694337  0.16613420  0.16512570  1
  Te  Te109  1  0.16671813  0.16826353  0.49553891  1
  Te  Te110  1  0.16460504  0.16160617  0.83239698  1
  Te  Te111  1  0.16701988  0.49952119  0.16600038  1
  Te  Te112  1  0.16547173  0.49922853  0.48828031  1
  Te  Te113  1  0.16639728  0.49786681  0.83812617  1
  Te  Te114  1  0.16244884  0.83736742  0.16737129  1
  Te  Te115  1  0.16612882  0.83264982  0.50655190  1
  Te  Te116  1  0.16664319  0.84273829  0.82748951  1
  Te  Te117  1  0.49553854  0.17132878  0.17077535  1
  Te  Te118  1  0.50660976  0.16142514  0.49526148  1
  Te  Te119  1  0.49417366  0.16797337  0.83360738  1
  Te  Te120  1  0.49450951  0.49439607  0.16491421  1
  Te  Te121  1  0.50075867  0.49962214  0.50426360  1
  Te  Te122  1  0.49574914  0.49914535  0.83376860  1
  Te  Te123  1  0.49977702  0.83250520  0.17132450  1
  Te  Te124  1  0.50398531  0.83507669  0.50069600  1
  Te  Te125  1  0.49763763  0.83341592  0.82772275  1
  Te  Te126  1  0.83391949  0.16841584  0.16815614  1
  Te  Te127  1  0.83095442  0.16432286  0.49771665  1
  Te  Te128  1  0.83787402  0.16437664  0.83394353  1
  Te  Te129  1  0.83431457  0.50247516  0.16475060  1
  Te  Te130  1  0.83304599  0.49369053  0.49711115  1
  Te  Te131  1  0.83707671  0.50190130  0.83751829  1
  Te  Te132  1  0.83657155  0.83523437  0.17026826  1
  Te  Te133  1  0.83109909  0.83665863  0.49982277  1
  Te  Te134  1  0.83382976  0.83399630  0.82933288  1
  Te  Te135  1  0.16294585  0.00017089  0.00170262  1
  Te  Te136  1  0.16504609  0.00147848  0.33123891  1
  Te  Te137  1  0.16649998  -0.00225142  0.66867684  1
  Te  Te138  1  0.16693242  0.33219862  -0.00395706  1
  Te  Te139  1  0.16921929  0.33240966  0.33355707  1
  Te  Te140  1  0.16709309  0.33859572  0.66918237  1
  Te  Te141  1  0.16314144  0.66386675  -0.00741784  1
  Te  Te142  1  0.16575134  0.66248474  0.33440792  1
  Te  Te143  1  0.16370398  0.66755594  0.67084333  1
  Te  Te144  1  0.50260571  -0.00235218  -0.00116465  1
  Te  Te145  1  0.50064093  0.00156222  0.33462585  1
  Te  Te146  1  0.50249946  -0.00380504  0.66025577  1
  Te  Te147  1  0.50415869  0.33831462  0.00631943  1
  Te  Te148  1  0.49399306  0.33005296  0.32868963  1
  Te  Te149  1  0.50035120  0.33931802  0.66563866  1
  Te  Te150  1  0.50223326  0.65936033  -0.00173866  1
  Te  Te151  1  0.50085514  0.67260898  0.33423565  1
  Te  Te152  1  0.50180047  0.66794149  0.66632396  1
  Te  Te153  1  0.83847478  -0.00052024  0.00818278  1
  Te  Te154  1  0.83363559  0.00253059  0.33115639  1
  Te  Te155  1  0.83147206  -0.00034433  0.66544896  1
  Te  Te156  1  0.82889272  0.33744551  0.00373580  1
  Te  Te157  1  0.83346188  0.33408579  0.33043158  1
  Te  Te158  1  0.83236161  0.33175900  0.66708385  1
  Te  Te159  1  0.83587894  0.66408502  -0.00340137  1
  Te  Te160  1  0.83327029  0.66194861  0.33807568  1
  Te  Te161  1  0.83115635  0.66674904  0.66902856  1
  Te  Te162  1  0.00524498  0.16316761  -0.00387189  1
  Te  Te163  1  0.00460891  0.16735106  0.33295708  1
  Te  Te164  1  -0.00497911  0.16214417  0.67229266  1
  Te  Te165  1  0.00006688  0.49865475  -0.00114996  1
  Te  Te166  1  -0.00148741  0.49965717  0.33072190  1
  Te  Te167  1  0.00627689  0.50088831  0.67057753  1
  Te  Te168  1  0.00060174  0.83734917  0.00804690  1
  Te  Te169  1  -0.00508695  0.83272408  0.32685250  1
  Te  Te170  1  -0.00271493  0.83796981  0.66582641  1
  Te  Te171  1  0.32789176  0.16788010  0.00026078  1
  Te  Te172  1  0.33100089  0.16411998  0.33349073  1
  Te  Te173  1  0.33443529  0.16776246  0.66864051  1
  Te  Te174  1  0.32978085  0.50014737  -0.00008558  1
  Te  Te175  1  0.33303974  0.50115177  0.33068766  1
  Te  Te176  1  0.33093828  0.50383530  0.66659687  1
  Te  Te177  1  0.33583980  0.83099837  0.00172799  1
  Te  Te178  1  0.33378315  0.83603036  0.33934491  1
  Te  Te179  1  0.33328073  0.82987682  0.66265580  1
  Te  Te180  1  0.66491863  0.16825060  0.00601439  1
  Te  Te181  1  0.66804735  0.16492834  0.32951652  1
  Te  Te182  1  0.67076781  0.16612183  0.66877133  1
  Te  Te183  1  0.66645739  0.50099559  0.00252276  1
  Te  Te184  1  0.67001182  0.50133837  0.32679954  1
  Te  Te185  1  0.66406851  0.50355252  0.66799588  1
  Te  Te186  1  0.66635811  0.82460980  0.00080908  1
  Te  Te187  1  0.66849767  0.83705913  0.33743524  1
  Te  Te188  1  0.66835518  0.83252940  0.66307424  1
  Te  Te189  1  -0.00042410  0.00158416  0.16616456  1
  Te  Te190  1  -0.00440710  -0.00061243  0.50898219  1
  Te  Te191  1  -0.00191176  -0.00175836  0.83535068  1
  Te  Te192  1  -0.00832516  0.34107021  0.16629009  1
  Te  Te193  1  -0.00926252  0.33223132  0.50188929  1
  Te  Te194  1  0.00527225  0.33648831  0.83445698  1
  Te  Te195  1  0.00046582  0.66270819  0.15908668  1
  Te  Te196  1  -0.00988912  0.66737910  0.50046046  1
  Te  Te197  1  -0.00033110  0.66640991  0.83780083  1
  Te  Te198  1  0.33117546  0.00430024  0.17182260  1
  Te  Te199  1  0.33073713  -0.00494474  0.49456916  1
  Te  Te200  1  0.33185952  0.00435271  0.83482134  1
  Te  Te201  1  0.33009220  0.33269496  0.17075362  1
  Te  Te202  1  0.33461881  0.33326146  0.49244630  1
  Te  Te203  1  0.32844112  0.33290635  0.83272889  1
  Te  Te204  1  0.33281497  0.66281807  0.16695773  1
  Te  Te205  1  0.33149518  0.67265326  0.50637995  1
  Te  Te206  1  0.32831159  0.66257312  0.82676437  1
  Te  Te207  1  0.67149386  0.00404106  0.16992907  1
  Te  Te208  1  0.66846011  -0.00010844  0.49663410  1
  Te  Te209  1  0.67213438  0.00031874  0.83342169  1
  Te  Te210  1  0.66831171  0.33257790  0.16619117  1
  Te  Te211  1  0.67122099  0.33028027  0.50176752  1
  Te  Te212  1  0.66565956  0.33250252  0.84187963  1
  Te  Te213  1  0.66601019  0.66415328  0.16161046  1
  Te  Te214  1  0.67291680  0.66739829  0.50401502  1
  Te  Te215  1  0.67113054  0.66640903  0.83254226  1
