# generated using pymatgen
data_AgSbTe2
_symmetry_space_group_name_H-M   'P 1'
_cell_length_a   18.33809976
_cell_length_b   18.33198732
_cell_length_c   18.34038958
_cell_angle_alpha   89.99646940
_cell_angle_beta   89.99788026
_cell_angle_gamma   89.99956491
_symmetry_Int_Tables_number   1
_chemical_formula_structural   AgSbTe2
_chemical_formula_sum   'Ag54 Sb54 Te108'
_cell_volume   6165.55866488
_cell_formula_units_Z   54
loop_
 _symmetry_equiv_pos_site_id
 _symmetry_equiv_pos_as_xyz
  1  'x, y, z'
loop_
 _atom_site_type_symbol
 _atom_site_label
 _atom_site_symmetry_multiplicity
 _atom_site_fract_x
 _atom_site_fract_y
 _atom_site_fract_z
 _atom_site_occupancy
  Ag  Ag0  1  0.32756586  0.49853226  0.84154916  1
  Ag  Ag1  1  0.32629916  -0.00589837  0.00188178  1
  Ag  Ag2  1  0.83909310  0.83304775  0.67341249  1
  Ag  Ag3  1  0.00469980  0.16066416  0.82694274  1
  Ag  Ag4  1  0.67076671  0.33485490  0.66929851  1
  Ag  Ag5  1  0.48559000  -0.00417506  0.15716858  1
  Ag  Ag6  1  0.67547139  0.17236873  0.50063894  1
  Ag  Ag7  1  -0.00187216  0.84288306  0.83376610  1
  Ag  Ag8  1  -0.00152075  0.49709197  0.50562245  1
  Ag  Ag9  1  0.83378749  0.49979217  0.66619036  1
  Ag  Ag10  1  0.32284037  0.15793462  0.83491589  1
  Ag  Ag11  1  0.32977202  0.00107406  0.31590261  1
  Ag  Ag12  1  0.67160550  0.33683020  -0.00551740  1
  Ag  Ag13  1  0.32648346  0.00204513  0.67820413  1
  Ag  Ag14  1  0.01277332  0.00201558  -0.00764752  1
  Ag  Ag15  1  0.16149450  0.16460213  0.66935187  1
  Ag  Ag16  1  0.33425645  0.67175417  0.00490453  1
  Ag  Ag17  1  -0.00048936  0.83632766  0.50747779  1
  Ag  Ag18  1  0.33298023  0.66841774  0.66990755  1
  Ag  Ag19  1  0.16498976  0.49827567  0.32771753  1
  Ag  Ag20  1  0.16909966  0.84536283  0.00119511  1
  Ag  Ag21  1  0.00363168  0.33384830  0.33757771  1
  Ag  Ag22  1  0.66378207  0.16643840  0.16645545  1
  Ag  Ag23  1  0.67596216  0.83473652  0.83811524  1
  Ag  Ag24  1  0.00550199  0.00497102  0.67309916  1
  Ag  Ag25  1  0.49772731  0.50147157  0.67298303  1
  Ag  Ag26  1  0.32417119  0.66810422  0.31774517  1
  Ag  Ag27  1  0.83464582  0.66741142  0.16635132  1
  Ag  Ag28  1  0.48772935  0.50647828  -0.00350677  1
  Ag  Ag29  1  0.33010455  0.51901845  0.15435241  1
  Ag  Ag30  1  0.33127554  0.83384390  0.16058880  1
  Ag  Ag31  1  0.67607788  0.49487619  0.50463267  1
  Ag  Ag32  1  0.00269724  0.16874672  0.50756993  1
  Ag  Ag33  1  0.17108329  0.50017411  0.00240155  1
  Ag  Ag34  1  0.17496482  0.66800162  0.16412021  1
  Ag  Ag35  1  0.17278898  0.00096878  0.15589952  1
  Ag  Ag36  1  0.16725924  0.15765290  -0.00239434  1
  Ag  Ag37  1  0.16823072  0.00467271  0.84221031  1
  Ag  Ag38  1  0.16250816  0.32867157  0.49836720  1
  Ag  Ag39  1  0.84296012  0.16665603  0.66390926  1
  Ag  Ag40  1  0.31924774  0.16419985  0.50137364  1
  Ag  Ag41  1  0.83643329  0.33327706  0.83138831  1
  Ag  Ag42  1  0.65647579  0.66528489  0.00153171  1
  Ag  Ag43  1  0.00512371  0.66142014  0.33500271  1
  Ag  Ag44  1  0.84580400  0.16784973  0.34238786  1
  Ag  Ag45  1  0.32975753  0.14937942  0.16422893  1
  Ag  Ag46  1  0.48939552  0.82983862  0.00001515  1
  Ag  Ag47  1  0.48681448  0.67049228  0.16163645  1
  Ag  Ag48  1  0.00383566  0.49748645  0.83186106  1
  Ag  Ag49  1  0.16463581  0.16896597  0.33676989  1
  Ag  Ag50  1  0.48574703  -0.00023316  0.83986272  1
  Ag  Ag51  1  0.83705065  0.83142169  -0.00610719  1
  Ag  Ag52  1  0.83769516  0.66336601  0.49927765  1
  Ag  Ag53  1  0.00040393  0.32996852  -0.00365567  1
  Sb  Sb54  1  0.50123500  0.83024812  0.67677617  1
  Sb  Sb55  1  -0.00403131  0.32804318  0.66942093  1
  Sb  Sb56  1  0.16638724  0.83352048  0.32732938  1
  Sb  Sb57  1  0.84027943  0.00130326  0.83290044  1
  Sb  Sb58  1  0.16046056  0.32686486  0.83274898  1
  Sb  Sb59  1  0.66281062  0.83526814  0.15838418  1
  Sb  Sb60  1  0.83659494  -0.00178980  0.16405836  1
  Sb  Sb61  1  0.33512738  0.33041792  0.66869536  1
  Sb  Sb62  1  0.32962365  0.83687900  0.84032702  1
  Sb  Sb63  1  0.49164431  0.16602667  0.33140221  1
  Sb  Sb64  1  0.16639767  0.00630318  0.50132895  1
  Sb  Sb65  1  0.83618600  0.00177654  0.50095979  1
  Sb  Sb66  1  0.00261781  0.66921572  0.66328683  1
  Sb  Sb67  1  0.83430952  0.33616796  0.16200587  1
  Sb  Sb68  1  0.50264826  0.66473498  0.49676787  1
  Sb  Sb69  1  0.32602458  0.83761832  0.49807708  1
  Sb  Sb70  1  0.49593425  0.00158500  0.50159357  1
  Sb  Sb71  1  0.49853127  0.33333498  0.50149980  1
  Sb  Sb72  1  0.67462874  0.83185040  0.50876727  1
  Sb  Sb73  1  0.66523199  0.66155846  0.67155842  1
  Sb  Sb74  1  0.00502563  0.66781916  0.00275566  1
  Sb  Sb75  1  0.00699563  0.50227507  0.16586311  1
  Sb  Sb76  1  0.49101494  0.50200440  0.33038315  1
  Sb  Sb77  1  0.66084711  0.49806179  0.16682451  1
  Sb  Sb78  1  0.50292654  0.33170686  0.83544159  1
  Sb  Sb79  1  0.16497051  0.49571815  0.66829113  1
  Sb  Sb80  1  0.00568242  0.16616051  0.16576192  1
  Sb  Sb81  1  0.83647654  0.50426522  -0.00445939  1
  Sb  Sb82  1  0.32828829  0.33365372  -0.00014159  1
  Sb  Sb83  1  0.16842163  0.66946422  0.84001417  1
  Sb  Sb84  1  0.49767566  0.16848567  0.66816956  1
  Sb  Sb85  1  0.66813746  0.00472249  0.66902891  1
  Sb  Sb86  1  0.83746797  0.83482010  0.33337789  1
  Sb  Sb87  1  0.83993332  0.33460696  0.50658152  1
  Sb  Sb88  1  0.16306876  0.83987718  0.67341732  1
  Sb  Sb89  1  0.00504761  0.83219157  0.16110015  1
  Sb  Sb90  1  0.84233010  0.49695817  0.33826573  1
  Sb  Sb91  1  0.66951086  0.16478543  0.83342792  1
  Sb  Sb92  1  0.66683845  0.50156571  0.83176469  1
  Sb  Sb93  1  0.49849783  0.33307119  0.16234979  1
  Sb  Sb94  1  0.16243478  0.66197685  0.49379057  1
  Sb  Sb95  1  0.83498299  0.66671009  0.83338893  1
  Sb  Sb96  1  0.66151213  0.00410664  0.33124366  1
  Sb  Sb97  1  0.16705228  0.33185909  0.16751734  1
  Sb  Sb98  1  0.32467690  0.33135964  0.33290711  1
  Sb  Sb99  1  0.83966046  0.16432354  -0.00185759  1
  Sb  Sb100  1  0.49721497  0.83328485  0.32520610  1
  Sb  Sb101  1  0.67670042  0.33130544  0.33625281  1
  Sb  Sb102  1  0.66872072  0.66395944  0.32800033  1
  Sb  Sb103  1  0.66302788  -0.00079353  -0.00129163  1
  Sb  Sb104  1  0.32896847  0.49761393  0.50137125  1
  Sb  Sb105  1  0.49321672  0.16528166  0.00059855  1
  Sb  Sb106  1  0.49754620  0.66902883  0.84190808  1
  Sb  Sb107  1  0.00718436  0.00185789  0.33317298  1
  Te  Te108  1  0.17005353  0.16554760  0.16335323  1
  Te  Te109  1  0.16303843  0.16713680  0.49880816  1
  Te  Te110  1  0.16559699  0.16652716  0.83390494  1
  Te  Te111  1  0.17111430  0.50084744  0.16797880  1
  Te  Te112  1  0.16159548  0.49440150  0.49815522  1
  Te  Te113  1  0.16653849  0.49899430  0.83444888  1
  Te  Te114  1  0.16894668  0.83202060  0.16155608  1
  Te  Te115  1  0.15886009  0.83208063  0.50114503  1
  Te  Te116  1  0.15994251  0.83778402  0.83959851  1
  Te  Te117  1  0.49655263  0.16145057  0.16626434  1
  Te  Te118  1  0.50537274  0.16729693  0.49949337  1
  Te  Te119  1  0.49682433  0.16128375  0.83335471  1
  Te  Te120  1  0.49357516  0.50449477  0.16217808  1
  Te  Te121  1  0.50124200  0.50026666  0.50382526  1
  Te  Te122  1  0.49798971  0.49986188  0.83403758  1
  Te  Te123  1  0.49792222  0.83390614  0.15997632  1
  Te  Te124  1  0.50307340  0.83293814  0.50203082  1
  Te  Te125  1  0.50141406  0.83824437  0.83970563  1
  Te  Te126  1  0.82924164  0.16656987  0.16714768  1
  Te  Te127  1  0.83588691  0.16720022  0.50228386  1
  Te  Te128  1  0.83719112  0.17003329  0.82920131  1
  Te  Te129  1  0.83084285  0.50609255  0.16842759  1
  Te  Te130  1  0.83641212  0.50108350  0.50299408  1
  Te  Te131  1  0.83580956  0.49782331  0.82811445  1
  Te  Te132  1  0.83197540  0.82979324  0.16467714  1
  Te  Te133  1  0.83834340  0.82886216  0.50378189  1
  Te  Te134  1  0.83738852  0.83345802  0.83277446  1
  Te  Te135  1  0.16728185  0.00143465  -0.00030342  1
  Te  Te136  1  0.17148430  0.00279041  0.32968211  1
  Te  Te137  1  0.16638134  0.00426474  0.66858526  1
  Te  Te138  1  0.16142061  0.34057644  -0.00040732  1
  Te  Te139  1  0.16141978  0.33177121  0.33495939  1
  Te  Te140  1  0.16744489  0.32698703  0.66052235  1
  Te  Te141  1  0.17117737  0.65909415  0.00415459  1
  Te  Te142  1  0.16554296  0.66683326  0.32833447  1
  Te  Te143  1  0.17341678  0.66643886  0.66638136  1
  Te  Te144  1  0.49797094  -0.00131196  -0.00026171  1
  Te  Te145  1  0.49042425  -0.00095212  0.32820174  1
  Te  Te146  1  0.49567208  -0.00101211  0.67138214  1
  Te  Te147  1  0.50927013  0.33954427  -0.00053251  1
  Te  Te148  1  0.50271009  0.33504990  0.33227613  1
  Te  Te149  1  0.50747678  0.34066644  0.66771006  1
  Te  Te150  1  0.49727525  0.66725679  0.00242737  1
  Te  Te151  1  0.49567907  0.66643669  0.32538767  1
  Te  Te152  1  0.49626315  0.66226551  0.66551038  1
  Te  Te153  1  0.83502378  -0.00698142  0.00042118  1
  Te  Te154  1  0.83351747  0.00842753  0.33222723  1
  Te  Te155  1  0.83673775  0.00037135  0.66631442  1
  Te  Te156  1  0.83466200  0.33341793  -0.00484678  1
  Te  Te157  1  0.84287322  0.32712681  0.33092270  1
  Te  Te158  1  0.83045863  0.33341269  0.67074136  1
  Te  Te159  1  0.83579349  0.67081472  0.00172415  1
  Te  Te160  1  0.83654643  0.66613115  0.33499240  1
  Te  Te161  1  0.83293591  0.66646747  0.66288173  1
  Te  Te162  1  0.00369585  0.16658641  -0.00138041  1
  Te  Te163  1  0.00361123  0.16657504  0.33272455  1
  Te  Te164  1  0.00022805  0.16544473  0.66735451  1
  Te  Te165  1  0.00236348  0.49795350  -0.00284083  1
  Te  Te166  1  0.00525164  0.49912582  0.33393692  1
  Te  Te167  1  -0.00250962  0.50076465  0.66658711  1
  Te  Te168  1  0.00190747  0.83430563  -0.00361600  1
  Te  Te169  1  -0.00051440  0.83106798  0.34154848  1
  Te  Te170  1  -0.00162308  0.83598053  0.66897048  1
  Te  Te171  1  0.32912941  0.16774393  -0.00139702  1
  Te  Te172  1  0.32698309  0.16438369  0.33322521  1
  Te  Te173  1  0.33266086  0.16381187  0.66877652  1
  Te  Te174  1  0.33286730  0.49583067  -0.00084027  1
  Te  Te175  1  0.32620331  0.50351079  0.33338185  1
  Te  Te176  1  0.33472354  0.50129339  0.66796733  1
  Te  Te177  1  0.33067000  0.83199076  -0.00053455  1
  Te  Te178  1  0.33292279  0.83210125  0.33113927  1
  Te  Te179  1  0.33329084  0.83421116  0.66611157  1
  Te  Te180  1  0.66749611  0.17091065  0.00195557  1
  Te  Te181  1  0.66722018  0.16764594  0.33493758  1
  Te  Te182  1  0.66827982  0.17126195  0.66492742  1
  Te  Te183  1  0.66827039  0.50059415  0.00001797  1
  Te  Te184  1  0.66575003  0.49852120  0.34073566  1
  Te  Te185  1  0.67018227  0.49816819  0.66518673  1
  Te  Te186  1  0.67155517  0.83151765  -0.00307689  1
  Te  Te187  1  0.66686690  0.83452714  0.33712854  1
  Te  Te188  1  0.67287529  0.83284939  0.67373941  1
  Te  Te189  1  0.00540965  -0.00184407  0.16178243  1
  Te  Te190  1  0.00029879  0.00176750  0.50305529  1
  Te  Te191  1  0.00150845  0.00141608  0.83307829  1
  Te  Te192  1  -0.00079036  0.33438477  0.16260074  1
  Te  Te193  1  0.00226990  0.33174508  0.49896642  1
  Te  Te194  1  -0.00240830  0.33660863  0.83511785  1
  Te  Te195  1  -0.00409717  0.66753666  0.17266968  1
  Te  Te196  1  -0.00191788  0.66078198  0.49719748  1
  Te  Te197  1  0.00104550  0.65929682  0.83262013  1
  Te  Te198  1  0.33035866  -0.00585528  0.16067259  1
  Te  Te199  1  0.33352383  0.00493806  0.50627108  1
  Te  Te200  1  0.32913845  -0.00114501  0.83675484  1
  Te  Te201  1  0.33468814  0.32963134  0.16793267  1
  Te  Te202  1  0.32910977  0.32524789  0.50024421  1
  Te  Te203  1  0.33392799  0.33654633  0.83324706  1
  Te  Te204  1  0.33111500  0.67359066  0.16281100  1
  Te  Te205  1  0.33383990  0.66794139  0.50203907  1
  Te  Te206  1  0.33345752  0.66204080  0.83082129  1
  Te  Te207  1  0.66545968  0.00651650  0.16663849  1
  Te  Te208  1  0.66502694  0.00690351  0.50006789  1
  Te  Te209  1  0.66256975  -0.00436284  0.83267684  1
  Te  Te210  1  0.66647783  0.32794725  0.16337422  1
  Te  Te211  1  0.66646997  0.33360885  0.50274803  1
  Te  Te212  1  0.67168001  0.33277576  0.83339412  1
  Te  Te213  1  0.67138525  0.66653141  0.16122255  1
  Te  Te214  1  0.67197249  0.66312663  0.49878933  1
  Te  Te215  1  0.66661033  0.67204661  0.84068486  1
