# generated using pymatgen
data_AgSbTe2
_symmetry_space_group_name_H-M   'P 1'
_cell_length_a   18.33227290
_cell_length_b   18.32360648
_cell_length_c   18.33920762
_cell_angle_alpha   90.00226279
_cell_angle_beta   90.00096447
_cell_angle_gamma   90.00720214
_symmetry_Int_Tables_number   1
_chemical_formula_structural   AgSbTe2
_chemical_formula_sum   'Ag54 Sb54 Te108'
_cell_volume   6160.38469649
_cell_formula_units_Z   54
loop_
 _symmetry_equiv_pos_site_id
 _symmetry_equiv_pos_as_xyz
  1  'x, y, z'
loop_
 _atom_site_type_symbol
 _atom_site_label
 _atom_site_symmetry_multiplicity
 _atom_site_fract_x
 _atom_site_fract_y
 _atom_site_fract_z
 _atom_site_occupancy
  Ag  Ag0  1  0.32657987  0.00454247  0.66910208  1
  Ag  Ag1  1  0.16537952  0.16947345  0.33667795  1
  Ag  Ag2  1  0.66239443  0.50257532  0.16012907  1
  Ag  Ag3  1  0.50458209  -0.00064655  0.16610042  1
  Ag  Ag4  1  0.49899321  0.49442210  0.67145286  1
  Ag  Ag5  1  0.16321765  0.00163403  0.82889614  1
  Ag  Ag6  1  0.66634717  0.00340258  0.34447905  1
  Ag  Ag7  1  0.16689832  0.16888379  0.66430109  1
  Ag  Ag8  1  0.33353295  -0.00119035  -0.00478005  1
  Ag  Ag9  1  0.00216035  0.50310445  0.50213863  1
  Ag  Ag10  1  0.17171421  0.00760938  0.15917920  1
  Ag  Ag11  1  0.16847428  0.32858528  0.16749461  1
  Ag  Ag12  1  0.65771851  0.33600887  0.66370958  1
  Ag  Ag13  1  0.67358256  0.84395720  0.50282621  1
  Ag  Ag14  1  0.15557615  0.84158752  0.66866570  1
  Ag  Ag15  1  0.66948084  -0.00001561  0.65789321  1
  Ag  Ag16  1  0.82294199  -0.00958764  0.51180849  1
  Ag  Ag17  1  0.66586580  -0.00240946  0.00012179  1
  Ag  Ag18  1  -0.00691610  0.83189269  0.50721551  1
  Ag  Ag19  1  0.17518916  0.33453206  0.50872398  1
  Ag  Ag20  1  0.82519754  0.49835235  -0.00371648  1
  Ag  Ag21  1  -0.00029245  0.16681787  0.16559264  1
  Ag  Ag22  1  0.82980021  0.66320049  0.83047120  1
  Ag  Ag23  1  -0.00085147  0.33330928  -0.00195400  1
  Ag  Ag24  1  0.17412388  0.49042811  0.66626366  1
  Ag  Ag25  1  0.16704277  0.33182718  0.82589701  1
  Ag  Ag26  1  0.33446234  0.33786792  0.34460222  1
  Ag  Ag27  1  0.51066306  0.00429187  0.50226795  1
  Ag  Ag28  1  0.83406979  -0.00169760  0.82911891  1
  Ag  Ag29  1  0.34005456  0.49881018  0.16731160  1
  Ag  Ag30  1  0.66813682  0.15716108  0.49688991  1
  Ag  Ag31  1  0.66465070  0.49814906  0.83681075  1
  Ag  Ag32  1  0.66918339  0.66332186  0.66345274  1
  Ag  Ag33  1  0.33210643  0.49549805  0.50531286  1
  Ag  Ag34  1  -0.00972724  0.66658447  0.33676099  1
  Ag  Ag35  1  -0.00141891  0.83653554  0.82518605  1
  Ag  Ag36  1  0.83556615  0.83760268  0.66541461  1
  Ag  Ag37  1  0.82402302  0.66400370  0.16742484  1
  Ag  Ag38  1  0.83185126  0.33777685  0.83512832  1
  Ag  Ag39  1  0.82935079  0.67103645  0.50264871  1
  Ag  Ag40  1  0.66890235  0.66429663  0.33102731  1
  Ag  Ag41  1  0.49733214  0.33390131  0.50499209  1
  Ag  Ag42  1  0.50419756  0.34033426  0.82420338  1
  Ag  Ag43  1  0.33468011  0.33718893  0.66363597  1
  Ag  Ag44  1  0.16528969  0.83848830  -0.00894419  1
  Ag  Ag45  1  0.33499678  0.65667304  0.33324309  1
  Ag  Ag46  1  0.34269189  0.49636546  0.82533540  1
  Ag  Ag47  1  0.66931186  0.65992399  0.00581478  1
  Ag  Ag48  1  0.00052140  -0.00503583  0.66734217  1
  Ag  Ag49  1  0.67011977  0.16830981  0.17072940  1
  Ag  Ag50  1  0.50819689  0.65923898  0.16740199  1
  Ag  Ag51  1  0.66178490  0.33230096  0.33906220  1
  Ag  Ag52  1  0.83187703  0.17052348  -0.00012960  1
  Ag  Ag53  1  0.50705504  0.49886364  -0.00485903  1
  Sb  Sb54  1  0.83168460  0.83126077  0.34231389  1
  Sb  Sb55  1  0.16765446  0.66466155  0.16757203  1
  Sb  Sb56  1  -0.00257004  0.16650050  0.49814633  1
  Sb  Sb57  1  0.00238719  0.33096113  0.66963712  1
  Sb  Sb58  1  -0.00035833  0.49691332  0.16971570  1
  Sb  Sb59  1  0.83046749  0.50331091  0.67003071  1
  Sb  Sb60  1  0.33268433  0.82972084  0.50265527  1
  Sb  Sb61  1  0.33652051  0.00374415  0.33508484  1
  Sb  Sb62  1  0.17011601  0.49418619  0.33785146  1
  Sb  Sb63  1  0.83573759  0.83218334  -0.00732508  1
  Sb  Sb64  1  -0.00385931  -0.00273875  0.33814609  1
  Sb  Sb65  1  0.49972377  0.49973621  0.33375466  1
  Sb  Sb66  1  0.16557921  0.83725889  0.33718829  1
  Sb  Sb67  1  0.16053622  0.66674001  0.83050412  1
  Sb  Sb68  1  0.49882651  0.17165538  0.66506908  1
  Sb  Sb69  1  -0.00676052  0.66340878  0.00340250  1
  Sb  Sb70  1  0.33370487  0.16975949  0.16669437  1
  Sb  Sb71  1  0.50583544  0.66404442  0.49664699  1
  Sb  Sb72  1  0.50306666  0.83211996  0.66532410  1
  Sb  Sb73  1  0.82968055  -0.00252860  0.16431098  1
  Sb  Sb74  1  0.33844479  0.66686463  0.00277281  1
  Sb  Sb75  1  0.83335916  0.33651302  0.16164835  1
  Sb  Sb76  1  0.50142929  0.83341595  0.33408509  1
  Sb  Sb77  1  0.00085210  0.33607098  0.33177877  1
  Sb  Sb78  1  0.49946834  0.33598989  0.16828824  1
  Sb  Sb79  1  -0.00040296  0.16410831  0.83543376  1
  Sb  Sb80  1  0.66908246  0.17031713  0.83210894  1
  Sb  Sb81  1  0.50640811  0.17055866  0.00227973  1
  Sb  Sb82  1  0.66525853  0.49973662  0.50228625  1
  Sb  Sb83  1  -0.00233167  0.50153439  0.82878339  1
  Sb  Sb84  1  0.67264465  0.83040724  0.82721512  1
  Sb  Sb85  1  0.82973265  0.33475494  0.50630630  1
  Sb  Sb86  1  0.33228802  0.83127190  0.16654817  1
  Sb  Sb87  1  0.33099970  0.17173441  0.83170099  1
  Sb  Sb88  1  0.49999871  0.83107752  -0.00014591  1
  Sb  Sb89  1  0.50147546  0.00579731  0.83113003  1
  Sb  Sb90  1  0.16759710  0.50070609  -0.00408723  1
  Sb  Sb91  1  0.32589545  0.83058221  0.83144425  1
  Sb  Sb92  1  0.83010734  0.50182095  0.33112608  1
  Sb  Sb93  1  0.50028679  0.16775779  0.33388631  1
  Sb  Sb94  1  0.50811250  0.65869151  0.83606630  1
  Sb  Sb95  1  0.33828460  0.66073284  0.66392406  1
  Sb  Sb96  1  0.83517496  0.16140842  0.67026232  1
  Sb  Sb97  1  0.16182877  0.66149888  0.50113817  1
  Sb  Sb98  1  0.33647209  0.17257999  0.50083790  1
  Sb  Sb99  1  -0.00108662  0.00308369  -0.00474683  1
  Sb  Sb100  1  0.66987900  0.33657412  -0.00193096  1
  Sb  Sb101  1  -0.00683728  0.67149175  0.66240161  1
  Sb  Sb102  1  0.83251221  0.16680679  0.32942111  1
  Sb  Sb103  1  0.16702379  0.00528964  0.50641830  1
  Sb  Sb104  1  0.32984794  0.33196360  -0.00298281  1
  Sb  Sb105  1  0.66806039  0.83135636  0.17060418  1
  Sb  Sb106  1  0.16274498  0.16453343  -0.00088175  1
  Sb  Sb107  1  0.00019226  0.83680440  0.16640063  1
  Te  Te108  1  0.16738426  0.16721256  0.16448970  1
  Te  Te109  1  0.16518766  0.17260749  0.49983569  1
  Te  Te110  1  0.16576757  0.16593902  0.82966007  1
  Te  Te111  1  0.16868110  0.49535694  0.16528519  1
  Te  Te112  1  0.16905610  0.49555354  0.50373416  1
  Te  Te113  1  0.16602547  0.49830130  0.82849287  1
  Te  Te114  1  0.16578234  0.84013523  0.16617667  1
  Te  Te115  1  0.16401997  0.83383785  0.50572771  1
  Te  Te116  1  0.16153340  0.83520202  0.83011391  1
  Te  Te117  1  0.50698356  0.16091728  0.16694819  1
  Te  Te118  1  0.50707085  0.16720656  0.49958035  1
  Te  Te119  1  0.49980279  0.17922182  0.83453158  1
  Te  Te120  1  0.50107475  0.49985884  0.16484179  1
  Te  Te121  1  0.49650895  0.49672442  0.50534028  1
  Te  Te122  1  0.50193932  0.49735283  0.83384376  1
  Te  Te123  1  0.49992079  0.83922948  0.16589264  1
  Te  Te124  1  0.50312313  0.83897679  0.50081784  1
  Te  Te125  1  0.49786664  0.83232045  0.83331418  1
  Te  Te126  1  0.83126424  0.16601261  0.16231049  1
  Te  Te127  1  0.82943232  0.16542788  0.49863804  1
  Te  Te128  1  0.83387498  0.16478106  0.83926455  1
  Te  Te129  1  0.83150068  0.50407083  0.16121095  1
  Te  Te130  1  0.83833111  0.50356362  0.50128845  1
  Te  Te131  1  0.83161770  0.50044828  0.83588430  1
  Te  Te132  1  0.83585326  0.82452457  0.16445770  1
  Te  Te133  1  0.83326812  0.83202147  0.50421027  1
  Te  Te134  1  0.83745906  0.83771677  0.82762310  1
  Te  Te135  1  0.16626725  -0.00031482  -0.00185292  1
  Te  Te136  1  0.16661947  0.00550859  0.33068098  1
  Te  Te137  1  0.16764702  0.00084799  0.66775791  1
  Te  Te138  1  0.16275545  0.33306367  -0.00030763  1
  Te  Te139  1  0.16637601  0.33000214  0.32970238  1
  Te  Te140  1  0.16511213  0.33193321  0.66701050  1
  Te  Te141  1  0.16577209  0.67385060  0.00006297  1
  Te  Te142  1  0.17153597  0.66790544  0.33303899  1
  Te  Te143  1  0.16941780  0.66795534  0.66644119  1
  Te  Te144  1  0.49991225  0.00031714  0.00001366  1
  Te  Te145  1  0.50393601  0.00048935  0.33264792  1
  Te  Te146  1  0.50443834  0.00052096  0.66465364  1
  Te  Te147  1  0.49842167  0.33836241  -0.00196995  1
  Te  Te148  1  0.49980464  0.33324220  0.33773157  1
  Te  Te149  1  0.49829232  0.33440354  0.66556357  1
  Te  Te150  1  0.50593152  0.66345097  0.00625758  1
  Te  Te151  1  0.50252995  0.66708383  0.32838907  1
  Te  Te152  1  0.50735884  0.66128766  0.66598936  1
  Te  Te153  1  0.83065682  0.00030986  -0.00362366  1
  Te  Te154  1  0.82706543  -0.00054151  0.33454158  1
  Te  Te155  1  0.83093066  0.00055497  0.66846389  1
  Te  Te156  1  0.83586641  0.33473088  -0.00359309  1
  Te  Te157  1  0.82649347  0.33422035  0.33485260  1
  Te  Te158  1  0.83218559  0.33176140  0.67451167  1
  Te  Te159  1  0.82953849  0.66516566  -0.00221123  1
  Te  Te160  1  0.83025076  0.66610403  0.33472424  1
  Te  Te161  1  0.82821015  0.66978361  0.66710021  1
  Te  Te162  1  -0.00507526  0.17030836  0.00465779  1
  Te  Te163  1  0.00367903  0.16671633  0.32827141  1
  Te  Te164  1  0.00555215  0.15909119  0.66520784  1
  Te  Te165  1  -0.00213628  0.49531851  0.00040779  1
  Te  Te166  1  0.00053535  0.50533638  0.33848927  1
  Te  Te167  1  0.00462412  0.50110399  0.66219619  1
  Te  Te168  1  0.00471513  0.83228858  -0.00174778  1
  Te  Te169  1  0.00122870  0.82783227  0.33858427  1
  Te  Te170  1  -0.00168749  0.83408039  0.66490791  1
  Te  Te171  1  0.33505288  0.15828581  -0.00013627  1
  Te  Te172  1  0.32639721  0.17363116  0.33351075  1
  Te  Te173  1  0.32804353  0.16592149  0.66576216  1
  Te  Te174  1  0.33530924  0.50059430  0.00357176  1
  Te  Te175  1  0.33372701  0.49667931  0.33115243  1
  Te  Te176  1  0.33442975  0.49828006  0.66629812  1
  Te  Te177  1  0.32821522  0.83870575  -0.00079580  1
  Te  Te178  1  0.33231691  0.82559618  0.33467808  1
  Te  Te179  1  0.33174666  0.83574802  0.66661767  1
  Te  Te180  1  0.67084723  0.16465635  0.00337104  1
  Te  Te181  1  0.66660450  0.16736584  0.33175652  1
  Te  Te182  1  0.66745000  0.16772711  0.66359612  1
  Te  Te183  1  0.66704076  0.49940823  -0.00038352  1
  Te  Te184  1  0.66657044  0.49976894  0.32743972  1
  Te  Te185  1  0.66544876  0.49733728  0.66928864  1
  Te  Te186  1  0.66723056  0.83504542  -0.00168931  1
  Te  Te187  1  0.66624515  0.83225642  0.34044865  1
  Te  Te188  1  0.66894525  0.83417475  0.66316649  1
  Te  Te189  1  0.00174721  0.00452545  0.16836598  1
  Te  Te190  1  -0.00255929  -0.00222152  0.50420098  1
  Te  Te191  1  0.00144657  -0.00185686  0.82976737  1
  Te  Te192  1  0.00272974  0.32920655  0.16445435  1
  Te  Te193  1  0.00027335  0.33607312  0.49976392  1
  Te  Te194  1  0.00036429  0.33344764  0.83666722  1
  Te  Te195  1  -0.00130453  0.66648264  0.17306564  1
  Te  Te196  1  -0.00385730  0.66713703  0.49736877  1
  Te  Te197  1  -0.00797158  0.67166824  0.83453725  1
  Te  Te198  1  0.33321210  0.00054033  0.16803798  1
  Te  Te199  1  0.33728504  -0.00056883  0.50372096  1
  Te  Te200  1  0.33226152  -0.00056890  0.83099050  1
  Te  Te201  1  0.33108230  0.33675883  0.16532042  1
  Te  Te202  1  0.33429167  0.33495293  0.50198258  1
  Te  Te203  1  0.32724726  0.33743752  0.83064393  1
  Te  Te204  1  0.33545571  0.66169889  0.17036067  1
  Te  Te205  1  0.33582734  0.66077892  0.49499081  1
  Te  Te206  1  0.33388491  0.65806099  0.83374609  1
  Te  Te207  1  0.66626625  -0.00212654  0.16077502  1
  Te  Te208  1  0.66746600  0.00044926  0.50043018  1
  Te  Te209  1  0.66753658  0.00081311  0.83730475  1
  Te  Te210  1  0.66628421  0.33382529  0.16958164  1
  Te  Te211  1  0.66480481  0.33480011  0.50117842  1
  Te  Te212  1  0.66855858  0.33585436  0.83138220  1
  Te  Te213  1  0.66614321  0.66767205  0.16713027  1
  Te  Te214  1  0.66939569  0.66429743  0.49875753  1
  Te  Te215  1  0.67129133  0.66373679  0.83263511  1
