# generated using pymatgen
data_AgSbTe2
_symmetry_space_group_name_H-M   'P 1'
_cell_length_a   18.30008225
_cell_length_b   18.29871525
_cell_length_c   18.30306912
_cell_angle_alpha   89.99944848
_cell_angle_beta   89.99943217
_cell_angle_gamma   89.99829184
_symmetry_Int_Tables_number   1
_chemical_formula_structural   AgSbTe2
_chemical_formula_sum   'Ag54 Sb54 Te108'
_cell_volume   6129.11203941
_cell_formula_units_Z   54
loop_
 _symmetry_equiv_pos_site_id
 _symmetry_equiv_pos_as_xyz
  1  'x, y, z'
loop_
 _atom_site_type_symbol
 _atom_site_label
 _atom_site_symmetry_multiplicity
 _atom_site_fract_x
 _atom_site_fract_y
 _atom_site_fract_z
 _atom_site_occupancy
  Ag  Ag0  1  0.49389290  0.00277567  0.83088939  1
  Ag  Ag1  1  -0.00661601  0.49598031  0.49986468  1
  Ag  Ag2  1  0.15985793  0.34041346  0.50184764  1
  Ag  Ag3  1  0.00167740  0.16449280  0.83818469  1
  Ag  Ag4  1  0.49855696  0.00286296  0.50346556  1
  Ag  Ag5  1  0.83446784  0.82448549  0.67304635  1
  Ag  Ag6  1  0.16272923  0.83253211  -0.00106978  1
  Ag  Ag7  1  0.50069596  0.33165571  0.17177527  1
  Ag  Ag8  1  0.16938757  0.33724774  0.83025809  1
  Ag  Ag9  1  0.50042288  0.33630154  0.49535287  1
  Ag  Ag10  1  0.33886114  0.83539158  0.16560231  1
  Ag  Ag11  1  0.00155541  0.33443962  0.33722992  1
  Ag  Ag12  1  0.33268565  0.00337178  0.33319339  1
  Ag  Ag13  1  0.00032483  0.82658970  0.50692476  1
  Ag  Ag14  1  0.33659818  0.33714011  0.00216764  1
  Ag  Ag15  1  0.83753309  0.34018387  0.49671785  1
  Ag  Ag16  1  0.16543254  0.83335429  0.33042433  1
  Ag  Ag17  1  0.83129884  0.33725433  0.17056212  1
  Ag  Ag18  1  0.50025489  0.16940774  0.00612844  1
  Ag  Ag19  1  0.16794202  -0.00612880  0.83359330  1
  Ag  Ag20  1  0.66211833  0.83170561  0.16301627  1
  Ag  Ag21  1  0.00100131  0.83305489  0.83120277  1
  Ag  Ag22  1  0.33818012  -0.00657676  0.66731934  1
  Ag  Ag23  1  0.83239473  0.50405662  -0.00204512  1
  Ag  Ag24  1  0.34190654  0.16794077  0.16716632  1
  Ag  Ag25  1  0.83100825  0.49799606  0.33754715  1
  Ag  Ag26  1  -0.00643640  0.49351685  0.17274412  1
  Ag  Ag27  1  0.83739774  0.66484556  0.83284911  1
  Ag  Ag28  1  0.66721934  0.34021093  0.66507025  1
  Ag  Ag29  1  -0.00250300  -0.00188879  -0.00060955  1
  Ag  Ag30  1  0.33083243  0.66793817  0.67390060  1
  Ag  Ag31  1  0.50144811  0.82755621  0.66754012  1
  Ag  Ag32  1  0.83517129  0.82741455  -0.00349364  1
  Ag  Ag33  1  0.66790669  -0.00599139  0.00008366  1
  Ag  Ag34  1  0.50651536  0.49907230  0.66578012  1
  Ag  Ag35  1  0.16377958  0.66346834  0.50666950  1
  Ag  Ag36  1  0.66383108  0.49994079  0.82747436  1
  Ag  Ag37  1  0.33806348  0.49999745  0.83281935  1
  Ag  Ag38  1  0.00520845  0.00361261  0.32994088  1
  Ag  Ag39  1  0.00094597  0.66333261  0.66732622  1
  Ag  Ag40  1  0.65658859  0.16883069  0.16500155  1
  Ag  Ag41  1  0.67180570  0.49899348  0.50476055  1
  Ag  Ag42  1  -0.00050949  0.17212970  0.16523795  1
  Ag  Ag43  1  0.66465146  0.66917839  0.00319786  1
  Ag  Ag44  1  0.50241323  0.66287014  0.16524479  1
  Ag  Ag45  1  0.33728735  0.66389471  -0.00474567  1
  Ag  Ag46  1  -0.00414270  0.34197512  0.66030692  1
  Ag  Ag47  1  0.16429692  0.66749414  0.82928584  1
  Ag  Ag48  1  0.49824346  0.17572051  0.32513005  1
  Ag  Ag49  1  0.33974308  0.33130271  0.32904858  1
  Ag  Ag50  1  0.50382076  0.49331282  0.33687103  1
  Ag  Ag51  1  0.82952710  0.50138235  0.66432550  1
  Ag  Ag52  1  0.66520718  0.66299794  0.32723174  1
  Ag  Ag53  1  0.49493445  0.33545242  0.83308269  1
  Sb  Sb54  1  -0.00126265  0.67033197  -0.00618103  1
  Sb  Sb55  1  0.16965043  -0.00172553  0.50260821  1
  Sb  Sb56  1  0.49956743  0.17107931  0.66853597  1
  Sb  Sb57  1  0.83358849  0.00343666  0.16628840  1
  Sb  Sb58  1  0.83104100  0.17624860  0.33071034  1
  Sb  Sb59  1  0.33604784  0.16773418  0.49451429  1
  Sb  Sb60  1  0.49744570  0.66236085  0.49936815  1
  Sb  Sb61  1  0.83488609  0.17280645  0.66803294  1
  Sb  Sb62  1  0.16550215  0.82982851  0.66958258  1
  Sb  Sb63  1  0.33364427  -0.00130920  0.00063604  1
  Sb  Sb64  1  0.33571195  0.66515206  0.33190918  1
  Sb  Sb65  1  0.32940509  0.82960782  0.83661007  1
  Sb  Sb66  1  0.67003088  0.82606466  0.49786174  1
  Sb  Sb67  1  0.66731927  0.17097637  0.83838860  1
  Sb  Sb68  1  0.33172225  0.17066004  0.83856766  1
  Sb  Sb69  1  0.83562859  -0.00671656  0.83485534  1
  Sb  Sb70  1  -0.00209491  0.66257705  0.33900165  1
  Sb  Sb71  1  0.33391654  0.33682279  0.66743024  1
  Sb  Sb72  1  0.66432924  -0.00296974  0.32984830  1
  Sb  Sb73  1  0.66268507  0.17477317  0.49365219  1
  Sb  Sb74  1  0.66790311  0.65987641  0.66889056  1
  Sb  Sb75  1  0.83796736  0.82630799  0.33165871  1
  Sb  Sb76  1  0.16676229  -0.00198542  0.16283973  1
  Sb  Sb77  1  0.67010147  0.82767295  0.83741949  1
  Sb  Sb78  1  0.83082659  0.16885074  0.00174454  1
  Sb  Sb79  1  0.66351415  0.34082926  0.33566384  1
  Sb  Sb80  1  0.16667686  0.16815729  0.66884325  1
  Sb  Sb81  1  0.66100355  0.00098334  0.67198385  1
  Sb  Sb82  1  0.66918749  0.49932991  0.16750670  1
  Sb  Sb83  1  -0.00035901  0.17250624  0.49742410  1
  Sb  Sb84  1  0.83426683  0.34154762  0.83351830  1
  Sb  Sb85  1  0.32922101  0.83259177  0.49899803  1
  Sb  Sb86  1  0.49940169  0.00412860  0.16565312  1
  Sb  Sb87  1  0.00295592  -0.00301036  0.66917302  1
  Sb  Sb88  1  0.33407854  0.49868966  0.16337974  1
  Sb  Sb89  1  0.00351030  0.33119560  0.00040578  1
  Sb  Sb90  1  0.83850151  0.65834611  0.50667537  1
  Sb  Sb91  1  0.50390060  0.49672466  -0.00110246  1
  Sb  Sb92  1  0.16848035  0.33313463  0.16720704  1
  Sb  Sb93  1  0.16338718  0.50354416  -0.00284302  1
  Sb  Sb94  1  0.16393429  0.50129706  0.66692578  1
  Sb  Sb95  1  0.17034761  0.66868822  0.16366922  1
  Sb  Sb96  1  0.82859114  0.66064142  0.16067712  1
  Sb  Sb97  1  0.16951974  0.16379735  -0.00111658  1
  Sb  Sb98  1  0.17034953  0.16499335  0.33210242  1
  Sb  Sb99  1  0.49843897  0.66358688  0.83548430  1
  Sb  Sb100  1  -0.00123268  0.83322256  0.16380161  1
  Sb  Sb101  1  0.50126487  0.83537907  -0.00223432  1
  Sb  Sb102  1  0.33482876  0.49830338  0.50470443  1
  Sb  Sb103  1  0.49633561  0.83291181  0.33430617  1
  Sb  Sb104  1  0.16598267  0.50105486  0.33506704  1
  Sb  Sb105  1  0.83103546  0.00139662  0.49986082  1
  Sb  Sb106  1  -0.00155695  0.50170207  0.82968104  1
  Sb  Sb107  1  0.66220665  0.33652946  -0.00092812  1
  Te  Te108  1  0.16139125  0.16563926  0.16594394  1
  Te  Te109  1  0.16767987  0.17608772  0.50036723  1
  Te  Te110  1  0.16106766  0.16844800  0.83465066  1
  Te  Te111  1  0.15652493  0.50147799  0.16648765  1
  Te  Te112  1  0.16140280  0.49948072  0.50038939  1
  Te  Te113  1  0.17135151  0.50105928  0.83306692  1
  Te  Te114  1  0.17067141  0.83287009  0.16549344  1
  Te  Te115  1  0.16078289  0.83099942  0.49745662  1
  Te  Te116  1  0.16312205  0.83118748  0.83575406  1
  Te  Te117  1  0.49914001  0.16805684  0.16606386  1
  Te  Te118  1  0.50064423  0.16948550  0.49526339  1
  Te  Te119  1  0.50018188  0.16920014  0.83719933  1
  Te  Te120  1  0.50047080  0.49707683  0.16897381  1
  Te  Te121  1  0.50172042  0.49769623  0.50007133  1
  Te  Te122  1  0.50031694  0.49712617  0.83255857  1
  Te  Te123  1  0.50014636  0.83211369  0.16705047  1
  Te  Te124  1  0.50161833  0.83518133  0.50507116  1
  Te  Te125  1  0.50033738  0.83715446  0.82780182  1
  Te  Te126  1  0.83794640  0.17396197  0.16620648  1
  Te  Te127  1  0.83064550  0.17689704  0.49953774  1
  Te  Te128  1  0.84097242  0.16639179  0.83457680  1
  Te  Te129  1  0.83507546  0.49575802  0.16813438  1
  Te  Te130  1  0.83343867  0.49744796  0.50187446  1
  Te  Te131  1  0.83124743  0.50458388  0.83181886  1
  Te  Te132  1  0.82840345  0.83243342  0.16259544  1
  Te  Te133  1  0.83933834  0.83266957  0.50193083  1
  Te  Te134  1  0.83691269  0.82768648  0.83443011  1
  Te  Te135  1  0.16332498  -0.00518951  -0.00645352  1
  Te  Te136  1  0.16708375  -0.00349754  0.33572500  1
  Te  Te137  1  0.17355303  -0.00074850  0.67251097  1
  Te  Te138  1  0.17351176  0.33389876  -0.00652921  1
  Te  Te139  1  0.16574299  0.33309752  0.33584938  1
  Te  Te140  1  0.16463467  0.33444659  0.66843901  1
  Te  Te141  1  0.17006220  0.67114423  -0.00420222  1
  Te  Te142  1  0.16688799  0.67187084  0.33644301  1
  Te  Te143  1  0.16774504  0.66688413  0.66828218  1
  Te  Te144  1  0.50221889  0.00381901  -0.00454028  1
  Te  Te145  1  0.49657305  0.00117810  0.33718056  1
  Te  Te146  1  0.49774460  0.00165117  0.66770952  1
  Te  Te147  1  0.49669786  0.33128140  -0.00098054  1
  Te  Te148  1  0.49992331  0.33496718  0.33274653  1
  Te  Te149  1  0.49983302  0.33711734  0.66800854  1
  Te  Te150  1  0.49927078  0.66659154  0.00403591  1
  Te  Te151  1  0.50255457  0.66380739  0.33024106  1
  Te  Te152  1  0.49745720  0.66534655  0.66674041  1
  Te  Te153  1  0.83367138  -0.00437130  0.00021134  1
  Te  Te154  1  0.83924201  -0.00041067  0.33467740  1
  Te  Te155  1  0.83068561  -0.00601376  0.66605278  1
  Te  Te156  1  0.83365654  0.33906319  0.00345310  1
  Te  Te157  1  0.83536173  0.33910251  0.33233497  1
  Te  Te158  1  0.83477103  0.33792175  0.66607296  1
  Te  Te159  1  0.83229184  0.66662869  -0.00458812  1
  Te  Te160  1  0.82885930  0.65888065  0.33264601  1
  Te  Te161  1  0.83456676  0.66537016  0.67132621  1
  Te  Te162  1  -0.00077009  0.16171343  0.00089723  1
  Te  Te163  1  -0.00077448  0.16749414  0.32971197  1
  Te  Te164  1  -0.00049831  0.16944043  0.67062055  1
  Te  Te165  1  -0.00643266  0.50028474  0.00255028  1
  Te  Te166  1  -0.00089457  0.49574856  0.33603035  1
  Te  Te167  1  -0.00381809  0.50124873  0.66388714  1
  Te  Te168  1  -0.00085174  0.83676145  -0.00178364  1
  Te  Te169  1  0.00320165  0.83515430  0.33294502  1
  Te  Te170  1  -0.00208209  0.83134341  0.66796180  1
  Te  Te171  1  0.33706307  0.16987156  0.00616622  1
  Te  Te172  1  0.33658443  0.16764705  0.32830536  1
  Te  Te173  1  0.33399142  0.15822068  0.66733909  1
  Te  Te174  1  0.33263034  0.50131923  -0.00414419  1
  Te  Te175  1  0.33785306  0.49519290  0.33252129  1
  Te  Te176  1  0.33989878  0.50401488  0.67136712  1
  Te  Te177  1  0.33115908  0.82998019  0.00465999  1
  Te  Te178  1  0.32904385  0.83366158  0.32879187  1
  Te  Te179  1  0.33759720  0.83155218  0.66684093  1
  Te  Te180  1  0.66339546  0.16387690  0.00471408  1
  Te  Te181  1  0.66108382  0.16345800  0.32502857  1
  Te  Te182  1  0.66779750  0.17456410  0.66740875  1
  Te  Te183  1  0.67175037  0.50440014  -0.00347849  1
  Te  Te184  1  0.66597491  0.50358943  0.33489274  1
  Te  Te185  1  0.66659232  0.49868138  0.66641701  1
  Te  Te186  1  0.66864764  0.83147449  0.00231600  1
  Te  Te187  1  0.66797637  0.82714928  0.32816402  1
  Te  Te188  1  0.66697125  0.83255125  0.66618288  1
  Te  Te189  1  -0.00008630  0.00227762  0.16723091  1
  Te  Te190  1  0.00007620  0.00010698  0.49780209  1
  Te  Te191  1  0.00232256  -0.00292204  0.83441782  1
  Te  Te192  1  0.00141268  0.33337929  0.16755652  1
  Te  Te193  1  0.00034554  0.33397984  0.49970611  1
  Te  Te194  1  0.00343109  0.33261751  0.83157339  1
  Te  Te195  1  0.00053009  0.66205129  0.16739396  1
  Te  Te196  1  0.00368582  0.66704667  0.50459308  1
  Te  Te197  1  0.00288725  0.66924730  0.82865408  1
  Te  Te198  1  0.33295184  0.00012015  0.17079553  1
  Te  Te199  1  0.33765097  -0.00029942  0.49791665  1
  Te  Te200  1  0.33331203  0.00051686  0.83195829  1
  Te  Te201  1  0.33555283  0.33171429  0.16689103  1
  Te  Te202  1  0.33643148  0.33363570  0.49644940  1
  Te  Te203  1  0.33386952  0.33580848  0.83481358  1
  Te  Te204  1  0.33835554  0.66734229  0.16286209  1
  Te  Te205  1  0.32561488  0.66602104  0.50460898  1
  Te  Te206  1  0.33172480  0.66379404  0.83418028  1
  Te  Te207  1  0.66676935  -0.00170303  0.16154824  1
  Te  Te208  1  0.66077118  -0.00025892  0.50089682  1
  Te  Te209  1  0.66350122  0.00147306  0.83962013  1
  Te  Te210  1  0.66448257  0.33020112  0.16679957  1
  Te  Te211  1  0.66276438  0.33823572  0.50253867  1
  Te  Te212  1  0.66293187  0.33779791  0.83018175  1
  Te  Te213  1  0.66318409  0.66690230  0.16361394  1
  Te  Te214  1  0.66634016  0.66022131  0.49478586  1
  Te  Te215  1  0.66810502  0.66113423  0.83843406  1
