# generated using pymatgen
data_La6Ce7Pr13Nd19Sm19(BiS2)64
_symmetry_space_group_name_H-M   'P 1'
_cell_length_a   16.10821590
_cell_length_b   16.11131630
_cell_length_c   27.32978481
_cell_angle_alpha   90.15895799
_cell_angle_beta   90.13798774
_cell_angle_gamma   89.98125561
_symmetry_Int_Tables_number   1
_chemical_formula_structural   La6Ce7Pr13Nd19Sm19(BiS2)64
_chemical_formula_sum   'La6 Ce7 Pr13 Nd19 Sm19 Bi64 S128'
_cell_volume   7092.70218499
_cell_formula_units_Z   1
loop_
 _symmetry_equiv_pos_site_id
 _symmetry_equiv_pos_as_xyz
  1  'x, y, z'
loop_
 _atom_type_symbol
 _atom_type_oxidation_number
  La3+  3.0
  Ce3+  3.0
  Pr3+  3.0
  Nd3+  3.0
  Sm3+  3.0
  Bi2+  2.0
  S2-  -2.0
loop_
 _atom_site_type_symbol
 _atom_site_label
 _atom_site_symmetry_multiplicity
 _atom_site_fract_x
 _atom_site_fract_y
 _atom_site_fract_z
 _atom_site_occupancy
  La3+  La0  1  0.10790036  0.51281372  0.92293251  1
  La3+  La1  1  0.73527834  0.64451253  0.08537248  1
  La3+  La2  1  0.23488992  0.89283623  0.09098810  1
  La3+  La3  1  0.37412336  -0.01275027  0.38959979  1
  La3+  La4  1  0.36273863  0.26884091  0.93110313  1
  La3+  La5  1  0.61212197  0.01157818  0.88584101  1
  Ce3+  Ce6  1  -0.00835507  0.39184753  0.06490171  1
  Ce3+  Ce7  1  -0.00480438  0.12502091  0.55670930  1
  Ce3+  Ce8  1  -0.00968790  0.63816066  0.05591491  1
  Ce3+  Ce9  1  0.36744463  0.51078891  0.94274163  1
  Ce3+  Ce10  1  0.25243897  0.12402547  0.56182113  1
  Ce3+  Ce11  1  0.74383812  0.62498631  0.56321396  1
  Ce3+  Ce12  1  0.49371441  0.12488374  0.56202140  1
  Pr3+  Pr13  1  0.75168202  0.13971538  0.60722779  1
  Pr3+  Pr14  1  0.25419893  0.37966245  0.57568899  1
  Pr3+  Pr15  1  0.11989128  0.50032414  0.43971911  1
  Pr3+  Pr16  1  0.61480136  0.25707719  0.93631926  1
  Pr3+  Pr17  1  0.86060444  0.76506562  0.94127127  1
  Pr3+  Pr18  1  0.36493686  0.76787447  0.94726504  1
  Pr3+  Pr19  1  0.74569795  0.87988157  0.55378546  1
  Pr3+  Pr20  1  0.61976098  0.49972612  0.43598852  1
  Pr3+  Pr21  1  0.49787893  0.62717707  0.55813741  1
  Pr3+  Pr22  1  -0.00289508  0.37451664  0.56284684  1
  Pr3+  Pr23  1  0.85730862  0.51613215  0.93892186  1
  Pr3+  Pr24  1  0.86458014  0.26047229  0.94159706  1
  Pr3+  Pr25  1  0.23696420  0.39002487  0.07290075  1
  Nd3+  Nd26  1  0.61245917  0.76626457  0.93862558  1
  Nd3+  Nd27  1  0.36734274  0.49972642  0.43819126  1
  Nd3+  Nd28  1  0.24583128  0.62522605  0.56560611  1
  Nd3+  Nd29  1  0.24616625  0.87742477  0.55698747  1
  Nd3+  Nd30  1  0.62079446  0.00342841  0.43671162  1
  Nd3+  Nd31  1  0.73991499  0.38874879  0.05742367  1
  Nd3+  Nd32  1  0.49485476  0.87724361  0.55558626  1
  Nd3+  Nd33  1  0.24419247  0.14314542  0.06739673  1
  Nd3+  Nd34  1  -0.01104953  0.13539543  0.05481061  1
  Nd3+  Nd35  1  0.36008548  0.01281944  0.93505447  1
  Nd3+  Nd36  1  0.11757942  0.76607020  0.94493560  1
  Nd3+  Nd37  1  0.48875705  0.63978792  0.06366135  1
  Nd3+  Nd38  1  0.62036777  0.75094369  0.43513957  1
  Nd3+  Nd39  1  0.11949575  0.01312516  0.93834583  1
  Nd3+  Nd40  1  0.86500616  0.00561448  0.92744295  1
  Nd3+  Nd41  1  -0.00576272  0.87871215  0.56267621  1
  Nd3+  Nd42  1  0.61944545  0.24602524  0.43829244  1
  Nd3+  Nd43  1  0.11872052  0.00078410  0.43386984  1
  Nd3+  Nd44  1  0.36618811  0.24568435  0.43654026  1
  Sm3+  Sm45  1  0.74428218  0.37393220  0.55925863  1
  Sm3+  Sm46  1  0.49291014  0.38611906  0.05998570  1
  Sm3+  Sm47  1  0.49764930  0.37235835  0.55187593  1
  Sm3+  Sm48  1  0.49073616  0.13649940  0.05334331  1
  Sm3+  Sm49  1  -0.00799551  0.89044209  0.06281547  1
  Sm3+  Sm50  1  0.87017657  0.74959222  0.44733042  1
  Sm3+  Sm51  1  0.61794422  0.51703807  0.94112794  1
  Sm3+  Sm52  1  0.36804855  0.75198213  0.43721712  1
  Sm3+  Sm53  1  0.73836705  0.88884332  0.05817264  1
  Sm3+  Sm54  1  -0.00330887  0.62397593  0.55943351  1
  Sm3+  Sm55  1  0.86899666  0.25148037  0.44329799  1
  Sm3+  Sm56  1  0.48958419  0.89277275  0.05964758  1
  Sm3+  Sm57  1  0.24088841  0.63703204  0.05183874  1
  Sm3+  Sm58  1  0.87247813  0.00188258  0.43425420  1
  Sm3+  Sm59  1  0.12107810  0.75109720  0.44613559  1
  Sm3+  Sm60  1  0.74006019  0.13506222  0.05512627  1
  Sm3+  Sm61  1  0.86947013  0.50126454  0.44907646  1
  Sm3+  Sm62  1  0.11397799  0.26531398  0.94728026  1
  Sm3+  Sm63  1  0.12187080  0.25174579  0.44943575  1
  Bi2+  Bi64  1  -0.05355839  0.10009724  0.28230030  1
  Bi2+  Bi65  1  0.00500869  0.04436588  0.80196676  1
  Bi2+  Bi66  1  0.02223222  0.35226846  0.29909080  1
  Bi2+  Bi67  1  0.01314000  0.38307388  0.80657111  1
  Bi2+  Bi68  1  -0.04802643  0.61681869  0.29440227  1
  Bi2+  Bi69  1  -0.00602460  0.64390317  0.74856675  1
  Bi2+  Bi70  1  -0.02063661  0.88674821  0.27987493  1
  Bi2+  Bi71  1  0.04255592  0.85157580  0.79918296  1
  Bi2+  Bi72  1  0.23630823  0.14178034  0.29575767  1
  Bi2+  Bi73  1  0.24689665  0.09262086  0.78218400  1
  Bi2+  Bi74  1  0.27378010  0.38719410  0.29924260  1
  Bi2+  Bi75  1  0.25515235  0.34425129  0.80200389  1
  Bi2+  Bi76  1  0.22308218  0.63538407  0.29129920  1
  Bi2+  Bi77  1  0.27034226  0.64958882  0.76145967  1
  Bi2+  Bi78  1  0.24360911  0.85362460  0.28835471  1
  Bi2+  Bi79  1  0.24082499  0.83028624  0.80980070  1
  Bi2+  Bi80  1  0.58598985  0.14607793  0.30181368  1
  Bi2+  Bi81  1  0.48300809  0.12797225  0.77863591  1
  Bi2+  Bi82  1  0.52345475  0.35833236  0.25605475  1
  Bi2+  Bi83  1  0.52187150  0.38246299  0.79426920  1
  Bi2+  Bi84  1  0.49452918  0.60386139  0.29260022  1
  Bi2+  Bi85  1  0.53012239  0.57356731  0.82323594  1
  Bi2+  Bi86  1  0.54419498  0.89436018  0.26424327  1
  Bi2+  Bi87  1  0.48346927  0.86917238  0.78719113  1
  Bi2+  Bi88  1  0.76159733  0.05508702  0.31890008  1
  Bi2+  Bi89  1  0.76127597  0.17980229  0.79399110  1
  Bi2+  Bi90  1  0.77790313  0.32486515  0.27971702  1
  Bi2+  Bi91  1  0.71885915  0.40395544  0.78524910  1
  Bi2+  Bi92  1  0.73882944  0.62899495  0.31301389  1
  Bi2+  Bi93  1  0.81006713  0.66071961  0.81608533  1
  Bi2+  Bi94  1  0.76942791  0.86603324  0.28633095  1
  Bi2+  Bi95  1  0.77335909  0.85995914  0.79293697  1
  Bi2+  Bi96  1  0.10978038  0.00595454  0.21005169  1
  Bi2+  Bi97  1  0.12980898  0.02042416  0.69831972  1
  Bi2+  Bi98  1  0.10460150  0.23114422  0.22364688  1
  Bi2+  Bi99  1  0.08134330  0.19791481  0.74582280  1
  Bi2+  Bi100  1  0.08852010  0.50931429  0.21868436  1
  Bi2+  Bi101  1  0.13351022  0.46104566  0.69471198  1
  Bi2+  Bi102  1  0.07101398  0.73874244  0.22559748  1
  Bi2+  Bi103  1  0.13740946  0.76219065  0.70642042  1
  Bi2+  Bi104  1  0.38693183  -0.01146674  0.19628870  1
  Bi2+  Bi105  1  0.32267052  -0.01972890  0.70020495  1
  Bi2+  Bi106  1  0.39675049  0.25096623  0.20159223  1
  Bi2+  Bi107  1  0.35916984  0.25423274  0.70545003  1
  Bi2+  Bi108  1  0.29072640  0.48711763  0.20420165  1
  Bi2+  Bi109  1  0.41026121  0.51732927  0.73895315  1
  Bi2+  Bi110  1  0.37128804  0.66605899  0.21663449  1
  Bi2+  Bi111  1  0.40850720  0.73873715  0.70138617  1
  Bi2+  Bi112  1  0.66426020  0.02479396  0.21298567  1
  Bi2+  Bi113  1  0.63309686  -0.02529138  0.68085820  1
  Bi2+  Bi114  1  0.65592905  0.22926221  0.20489714  1
  Bi2+  Bi115  1  0.60317968  0.31229482  0.69836887  1
  Bi2+  Bi116  1  0.63873756  0.49416175  0.20618442  1
  Bi2+  Bi117  1  0.67555328  0.51094492  0.68786838  1
  Bi2+  Bi118  1  0.62457529  0.75697307  0.20872133  1
  Bi2+  Bi119  1  0.64167456  0.67490263  0.75363490  1
  Bi2+  Bi120  1  0.85876407  -0.02352388  0.20436222  1
  Bi2+  Bi121  1  0.90101298  -0.00714460  0.70834573  1
  Bi2+  Bi122  1  0.91092150  0.25000325  0.20277722  1
  Bi2+  Bi123  1  0.90111165  0.26263971  0.71265939  1
  Bi2+  Bi124  1  0.89736759  0.44587678  0.22007647  1
  Bi2+  Bi125  1  0.85599851  0.50914130  0.72880414  1
  Bi2+  Bi126  1  0.87031584  0.71721500  0.20681494  1
  Bi2+  Bi127  1  0.83833658  0.74248539  0.70961547  1
  S2-  S128  1  0.02388860  0.12931899  0.15197800  1
  S2-  S129  1  -0.07857404  0.12577440  0.64417742  1
  S2-  S130  1  0.09942913  0.40739274  0.14004420  1
  S2-  S131  1  -0.01207301  0.37224949  0.66347897  1
  S2-  S132  1  0.00164909  0.63921433  0.15285264  1
  S2-  S133  1  0.04522507  0.59546356  0.65140058  1
  S2-  S134  1  0.07960769  0.88288621  0.14804019  1
  S2-  S135  1  0.02668394  0.88390794  0.66008594  1
  S2-  S136  1  0.24308743  0.04180555  0.14968698  1
  S2-  S137  1  0.36375806  0.12001439  0.63933485  1
  S2-  S138  1  0.26776960  0.26257680  0.14254262  1
  S2-  S139  1  0.21868026  0.30961064  0.66817319  1
  S2-  S140  1  0.24337944  0.62699246  0.14911061  1
  S2-  S141  1  0.25474926  0.51813450  0.64323394  1
  S2-  S142  1  0.29803954  0.85229638  0.18685116  1
  S2-  S143  1  0.27253098  0.83102899  0.65223255  1
  S2-  S144  1  0.47191096  0.13042844  0.15203179  1
  S2-  S145  1  0.58705048  0.12645044  0.64543915  1
  S2-  S146  1  0.47426272  0.40040298  0.15799269  1
  S2-  S147  1  0.45360231  0.36002635  0.64590725  1
  S2-  S148  1  0.58416441  0.62980793  0.14610450  1
  S2-  S149  1  0.47203994  0.60507074  0.65660442  1
  S2-  S150  1  0.51293122  0.87603582  0.15759563  1
  S2-  S151  1  0.51551729  0.85017488  0.65342796  1
  S2-  S152  1  0.77247572  0.12414891  0.15142122  1
  S2-  S153  1  0.75778771  0.09032500  0.70967628  1
  S2-  S154  1  0.70247720  0.37495914  0.15354021  1
  S2-  S155  1  0.75493681  0.30125664  0.64857489  1
  S2-  S156  1  0.78461892  0.57016108  0.17626335  1
  S2-  S157  1  0.70104327  0.67920306  0.65177898  1
  S2-  S158  1  0.74498010  0.79756244  0.14324186  1
  S2-  S159  1  0.78565381  0.90125218  0.65020701  1
  S2-  S160  1  0.20942902  -0.00519564  0.34817235  1
  S2-  S161  1  0.23111150  -0.01306006  0.86324536  1
  S2-  S162  1  0.12248958  0.24538481  0.35182930  1
  S2-  S163  1  0.12227058  0.25842768  0.84907344  1
  S2-  S164  1  0.15880462  0.50030762  0.34311300  1
  S2-  S165  1  0.16059708  0.47226826  0.82625349  1
  S2-  S166  1  0.13556402  0.75649083  0.34909011  1
  S2-  S167  1  0.11009569  0.71931769  0.84967574  1
  S2-  S168  1  0.37070437  0.05405023  0.28826574  1
  S2-  S169  1  0.44725475  0.00032307  0.84690992  1
  S2-  S170  1  0.35264177  0.25753518  0.33684150  1
  S2-  S171  1  0.35607882  0.19959961  0.83780696  1
  S2-  S172  1  0.39620822  0.49472223  0.34071402  1
  S2-  S173  1  0.35959154  0.41216439  0.86338641  1
  S2-  S174  1  0.36823606  0.82443884  0.34698449  1
  S2-  S175  1  0.39078038  0.76649625  0.84735501  1
  S2-  S176  1  0.54112721  -0.01276193  0.34891227  1
  S2-  S177  1  0.58987484  0.00410085  0.77132967  1
  S2-  S178  1  0.61618432  0.29922739  0.34360686  1
  S2-  S179  1  0.60697912  0.18063881  0.84516424  1
  S2-  S180  1  0.63008542  0.51660813  0.33588838  1
  S2-  S181  1  0.72890328  0.52188387  0.86486317  1
  S2-  S182  1  0.59653789  0.72801739  0.33780875  1
  S2-  S183  1  0.62083617  0.84169411  0.84878188  1
  S2-  S184  1  0.98952381  -0.00533556  0.36148414  1
  S2-  S185  1  0.77233849  0.03348109  0.84369075  1
  S2-  S186  1  0.88712927  0.26490640  0.34610349  1
  S2-  S187  1  0.87656738  0.28053234  0.84223798  1
  S2-  S188  1  0.85463473  0.51378317  0.35211886  1
  S2-  S189  1  0.96388124  0.50738073  0.85793134  1
  S2-  S190  1  0.85904274  0.74856662  0.34999342  1
  S2-  S191  1  0.89284346  0.86439588  0.85994577  1
  S2-  S192  1  -0.00532791  0.13164077  0.45303542  1
  S2-  S193  1  -0.00896022  0.13500815  0.94869288  1
  S2-  S194  1  -0.00635874  0.37572438  0.45571380  1
  S2-  S195  1  -0.01239462  0.38603503  0.95932378  1
  S2-  S196  1  -0.00550273  0.62674640  0.45426341  1
  S2-  S197  1  -0.01254348  0.64394166  0.95223409  1
  S2-  S198  1  -0.00520483  0.87002474  0.45668870  1
  S2-  S199  1  -0.00483234  0.89022867  0.96007381  1
  S2-  S200  1  0.24239896  0.12543631  0.45435785  1
  S2-  S201  1  0.23757602  0.14249098  0.95806319  1
  S2-  S202  1  0.24522938  0.37556153  0.45752398  1
  S2-  S203  1  0.23334540  0.39000955  0.96158142  1
  S2-  S204  1  0.24557885  0.62758199  0.45630221  1
  S2-  S205  1  0.24231659  0.63652508  0.94712950  1
  S2-  S206  1  0.24485944  0.87372217  0.45260500  1
  S2-  S207  1  0.23980154  0.88640849  0.96751119  1
  S2-  S208  1  0.49150444  0.12401821  0.44945988  1
  S2-  S209  1  0.48924752  0.13458509  0.95051092  1
  S2-  S210  1  0.49363791  0.37415459  0.44745295  1
  S2-  S211  1  0.49893635  0.38995082  0.95534314  1
  S2-  S212  1  0.49311620  0.62707361  0.45005074  1
  S2-  S213  1  0.49103520  0.63853328  0.95816936  1
  S2-  S214  1  0.49377841  0.87276713  0.44971089  1
  S2-  S215  1  0.49118866  0.89205691  0.95583657  1
  S2-  S216  1  0.74875198  0.12606836  0.44445754  1
  S2-  S217  1  0.74090131  0.13334406  0.95263584  1
  S2-  S218  1  0.74605805  0.37600513  0.45353426  1
  S2-  S219  1  0.73749011  0.38382938  0.95332988  1
  S2-  S220  1  0.74559996  0.62575051  0.45643007  1
  S2-  S221  1  0.73514360  0.64479416  0.96620804  1
  S2-  S222  1  0.74741346  0.87678500  0.44646232  1
  S2-  S223  1  0.73556067  0.89168024  0.95569122  1
  S2-  S224  1  0.11455073  0.01470822  0.04404275  1
  S2-  S225  1  0.12092659  0.00057003  0.54454197  1
  S2-  S226  1  0.11112349  0.26077955  0.04918762  1
  S2-  S227  1  0.12366556  0.25013593  0.55384688  1
  S2-  S228  1  0.11568141  0.51888675  0.03743582  1
  S2-  S229  1  0.12116507  0.50009772  0.54475563  1
  S2-  S230  1  0.11785662  0.76101885  0.05026876  1
  S2-  S231  1  0.11919236  0.74911943  0.55076918  1
  S2-  S232  1  0.36672452  0.01381546  0.04544935  1
  S2-  S233  1  0.37041459  -0.00393373  0.54322795  1
  S2-  S234  1  0.37295721  0.26572986  0.03981265  1
  S2-  S235  1  0.37023755  0.25403849  0.54142514  1
  S2-  S236  1  0.36740733  0.51147853  0.04946747  1
  S2-  S237  1  0.37598753  0.50050749  0.54266034  1
  S2-  S238  1  0.36479036  0.76484445  0.05497223  1
  S2-  S239  1  0.36982020  0.74885593  0.54237928  1
  S2-  S240  1  0.61644239  0.01314547  0.05635985  1
  S2-  S241  1  0.62017412  0.00134282  0.54194806  1
  S2-  S242  1  0.61595679  0.26008271  0.04516736  1
  S2-  S243  1  0.62357316  0.25062668  0.54358635  1
  S2-  S244  1  0.61469683  0.51144388  0.04542047  1
  S2-  S245  1  0.62032172  0.49720237  0.54417713  1
  S2-  S246  1  0.61013882  0.76863586  0.04483809  1
  S2-  S247  1  0.62153980  0.75240546  0.54089424  1
  S2-  S248  1  0.86474237  0.00944275  0.04354159  1
  S2-  S249  1  0.87180478  0.00218152  0.53885683  1
  S2-  S250  1  0.86430240  0.26210969  0.04936502  1
  S2-  S251  1  0.86817454  0.25099257  0.54617617  1
  S2-  S252  1  0.86221956  0.51477127  0.04932332  1
  S2-  S253  1  0.86999779  0.49982934  0.55450712  1
  S2-  S254  1  0.86874042  0.76812148  0.04741544  1
  S2-  S255  1  0.87326659  0.74889040  0.55213755  1
