# generated using pymatgen
data_La6Ce7Pr13Nd19Sm19(BiS2)64
_symmetry_space_group_name_H-M   'P 1'
_cell_length_a   16.09244786
_cell_length_b   16.08660782
_cell_length_c   27.31445739
_cell_angle_alpha   90.00963740
_cell_angle_beta   90.05253417
_cell_angle_gamma   89.93838449
_symmetry_Int_Tables_number   1
_chemical_formula_structural   La6Ce7Pr13Nd19Sm19(BiS2)64
_chemical_formula_sum   'La6 Ce7 Pr13 Nd19 Sm19 Bi64 S128'
_cell_volume   7070.96557091
_cell_formula_units_Z   1
loop_
 _symmetry_equiv_pos_site_id
 _symmetry_equiv_pos_as_xyz
  1  'x, y, z'
loop_
 _atom_type_symbol
 _atom_type_oxidation_number
  La3+  3.0
  Ce3+  3.0
  Pr3+  3.0
  Nd3+  3.0
  Sm3+  3.0
  Bi2+  2.0
  S2-  -2.0
loop_
 _atom_site_type_symbol
 _atom_site_label
 _atom_site_symmetry_multiplicity
 _atom_site_fract_x
 _atom_site_fract_y
 _atom_site_fract_z
 _atom_site_occupancy
  La3+  La0  1  0.24144497  0.88491704  0.08476486  1
  La3+  La1  1  0.62221756  0.75595808  0.39785352  1
  La3+  La2  1  0.23532710  0.39041778  0.58328072  1
  La3+  La3  1  0.37292449  0.25031943  0.88524463  1
  La3+  La4  1  0.10961622  0.48902602  0.41215482  1
  La3+  La5  1  -0.01406009  0.86686722  0.58490559  1
  Ce3+  Ce6  1  0.11856951  0.75593784  0.44452473  1
  Ce3+  Ce7  1  0.49032513  0.37800893  0.55322281  1
  Ce3+  Ce8  1  0.11764938  0.25188235  0.93274434  1
  Ce3+  Ce9  1  -0.00427400  0.87490743  0.05866858  1
  Ce3+  Ce10  1  0.85729141  0.50308052  0.43370192  1
  Ce3+  Ce11  1  0.35779880  0.25644730  0.44684530  1
  Ce3+  Ce12  1  0.36813567  0.50103000  0.93726980  1
  Pr3+  Pr13  1  0.23194140  0.61201261  0.09633064  1
  Pr3+  Pr14  1  0.74376837  0.37578383  0.06549449  1
  Pr3+  Pr15  1  0.35632505  0.74284479  0.41594824  1
  Pr3+  Pr16  1  0.35159577  0.00828329  0.42098809  1
  Pr3+  Pr17  1  0.25476310  0.87396953  0.57078983  1
  Pr3+  Pr18  1  0.48553473  0.12577419  0.55935203  1
  Pr3+  Pr19  1  0.86877815  0.76324206  0.43185342  1
  Pr3+  Pr20  1  -0.01362255  0.38070210  0.56712605  1
  Pr3+  Pr21  1  0.61452891  0.75410631  0.93847156  1
  Pr3+  Pr22  1  0.61605307  0.50090824  0.42814819  1
  Pr3+  Pr23  1  0.11441017  -0.00166413  0.44923690  1
  Pr3+  Pr24  1  0.61056516  0.00474112  0.43052998  1
  Pr3+  Pr25  1  0.86802272  0.00385064  0.93284342  1
  Nd3+  Nd26  1  0.11931652  0.75403459  0.94016258  1
  Nd3+  Nd27  1  0.73659139  0.87769327  0.56434670  1
  Nd3+  Nd28  1  0.48827479  0.62249679  0.07217457  1
  Nd3+  Nd29  1  0.11512029  -0.00086240  0.93123708  1
  Nd3+  Nd30  1  0.86231566  0.74975502  0.93174760  1
  Nd3+  Nd31  1  -0.00376558  0.38002320  0.06080962  1
  Nd3+  Nd32  1  0.50042304  0.88777322  0.07649628  1
  Nd3+  Nd33  1  0.11778547  0.50362579  0.93211065  1
  Nd3+  Nd34  1  -0.00945274  0.12604900  0.56469616  1
  Nd3+  Nd35  1  0.24292519  0.12521592  0.04999019  1
  Nd3+  Nd36  1  0.23693023  0.12541804  0.56773848  1
  Nd3+  Nd37  1  0.61529860  0.00737002  0.93746439  1
  Nd3+  Nd38  1  0.36687718  -0.01158226  0.92754207  1
  Nd3+  Nd39  1  0.73556507  0.63034411  0.55321934  1
  Nd3+  Nd40  1  0.48934870  0.12932968  0.05273272  1
  Nd3+  Nd41  1  0.49038734  0.37829590  0.06315745  1
  Nd3+  Nd42  1  0.61176397  0.24835648  0.43165179  1
  Nd3+  Nd43  1  0.73726749  0.37780616  0.55777248  1
  Nd3+  Nd44  1  -0.00988258  0.62710403  0.54947066  1
  Sm3+  Sm45  1  0.24199293  0.37758285  0.05121514  1
  Sm3+  Sm46  1  0.61590536  0.25775999  0.93687774  1
  Sm3+  Sm47  1  -0.00556925  0.62994360  0.05755590  1
  Sm3+  Sm48  1  -0.00654229  0.12693025  0.05734193  1
  Sm3+  Sm49  1  0.11261144  0.25516914  0.45188767  1
  Sm3+  Sm50  1  0.86353456  0.00032516  0.44928002  1
  Sm3+  Sm51  1  0.49084729  0.62928611  0.54537627  1
  Sm3+  Sm52  1  0.61495378  0.50229621  0.94860081  1
  Sm3+  Sm53  1  0.86531664  0.50327659  0.94853883  1
  Sm3+  Sm54  1  0.36326840  0.50152882  0.43726139  1
  Sm3+  Sm55  1  0.86546514  0.25072469  0.44936668  1
  Sm3+  Sm56  1  0.73637426  0.12511340  0.55854987  1
  Sm3+  Sm57  1  0.24062422  0.62555943  0.55206352  1
  Sm3+  Sm58  1  0.74419327  0.87818763  0.05585751  1
  Sm3+  Sm59  1  0.36431699  0.75469366  0.96005089  1
  Sm3+  Sm60  1  0.48688811  0.87618212  0.53705178  1
  Sm3+  Sm61  1  0.87227159  0.25631165  0.93832764  1
  Sm3+  Sm62  1  0.74452676  0.12978343  0.04944677  1
  Sm3+  Sm63  1  0.74078101  0.63175672  0.06494692  1
  Bi2+  Bi64  1  -0.01952485  0.12847807  0.28660066  1
  Bi2+  Bi65  1  -0.05661303  0.12788912  0.79014721  1
  Bi2+  Bi66  1  -0.01196195  0.34902177  0.29782149  1
  Bi2+  Bi67  1  -0.01284860  0.40491286  0.80601419  1
  Bi2+  Bi68  1  -0.03091283  0.66588497  0.28305573  1
  Bi2+  Bi69  1  -0.06701966  0.62138508  0.77478353  1
  Bi2+  Bi70  1  0.01972853  0.85537344  0.30231454  1
  Bi2+  Bi71  1  0.01938256  0.86751724  0.79282474  1
  Bi2+  Bi72  1  0.26172224  0.15684425  0.26865625  1
  Bi2+  Bi73  1  0.24806164  0.12121437  0.78335222  1
  Bi2+  Bi74  1  0.27775029  0.34506642  0.30435145  1
  Bi2+  Bi75  1  0.24602259  0.37898616  0.78072120  1
  Bi2+  Bi76  1  0.25407581  0.64647782  0.28681794  1
  Bi2+  Bi77  1  0.27962508  0.63829454  0.77219381  1
  Bi2+  Bi78  1  0.26897435  0.89707172  0.29894566  1
  Bi2+  Bi79  1  0.26990056  0.86030441  0.79498302  1
  Bi2+  Bi80  1  0.54886707  0.17126169  0.25704722  1
  Bi2+  Bi81  1  0.53047132  0.08291993  0.79335103  1
  Bi2+  Bi82  1  0.52043651  0.34994669  0.31048303  1
  Bi2+  Bi83  1  0.51105762  0.46251496  0.78235240  1
  Bi2+  Bi84  1  0.52308666  0.54156229  0.30234470  1
  Bi2+  Bi85  1  0.46999834  0.67016798  0.80530593  1
  Bi2+  Bi86  1  0.52507666  0.90737838  0.28196427  1
  Bi2+  Bi87  1  0.53151326  0.85365503  0.76617373  1
  Bi2+  Bi88  1  0.74298922  0.11484652  0.29417580  1
  Bi2+  Bi89  1  0.73701931  0.08295758  0.81282804  1
  Bi2+  Bi90  1  0.71422861  0.31945500  0.29138060  1
  Bi2+  Bi91  1  0.78995842  0.28472322  0.81632036  1
  Bi2+  Bi92  1  0.78704923  0.58686106  0.28305870  1
  Bi2+  Bi93  1  0.66211009  0.61764516  0.80813005  1
  Bi2+  Bi94  1  0.79140726  0.86938850  0.28782302  1
  Bi2+  Bi95  1  0.75780344  0.88687744  0.79564669  1
  Bi2+  Bi96  1  0.11465511  0.02133068  0.20597853  1
  Bi2+  Bi97  1  0.13141672  0.01124399  0.71219138  1
  Bi2+  Bi98  1  0.10674855  0.24401839  0.22342259  1
  Bi2+  Bi99  1  0.03825913  0.26397429  0.72532925  1
  Bi2+  Bi100  1  0.12304194  0.48850176  0.21076804  1
  Bi2+  Bi101  1  0.10925104  0.54032073  0.70431801  1
  Bi2+  Bi102  1  0.09797535  0.75455886  0.21361720  1
  Bi2+  Bi103  1  0.10788633  0.72580422  0.71390969  1
  Bi2+  Bi104  1  0.37963776  -0.00517142  0.19785053  1
  Bi2+  Bi105  1  0.38779027  -0.00620415  0.69210209  1
  Bi2+  Bi106  1  0.39221239  0.26300312  0.20873695  1
  Bi2+  Bi107  1  0.39201979  0.24952569  0.68278792  1
  Bi2+  Bi108  1  0.37099442  0.45237038  0.22020184  1
  Bi2+  Bi109  1  0.38632772  0.51709736  0.70090703  1
  Bi2+  Bi110  1  0.42077577  0.73606342  0.21838783  1
  Bi2+  Bi111  1  0.37668586  0.74505446  0.69874814  1
  Bi2+  Bi112  1  0.65525594  0.02578901  0.20238808  1
  Bi2+  Bi113  1  0.65851431  -0.03190576  0.70466086  1
  Bi2+  Bi114  1  0.65403952  0.28156060  0.17686428  1
  Bi2+  Bi115  1  0.62860425  0.24181220  0.76121148  1
  Bi2+  Bi116  1  0.61707425  0.46188484  0.21196393  1
  Bi2+  Bi117  1  0.65943612  0.50142546  0.70765558  1
  Bi2+  Bi118  1  0.66919324  0.74326506  0.21032405  1
  Bi2+  Bi119  1  0.61217743  0.70696846  0.70407921  1
  Bi2+  Bi120  1  0.92007023  -0.02705795  0.22127063  1
  Bi2+  Bi121  1  0.84962681  0.01139738  0.71317499  1
  Bi2+  Bi122  1  0.84037504  0.22622295  0.21931923  1
  Bi2+  Bi123  1  0.84546865  0.26874317  0.70446386  1
  Bi2+  Bi124  1  0.90802128  0.48433264  0.22121401  1
  Bi2+  Bi125  1  0.84770290  0.46049359  0.72797863  1
  Bi2+  Bi126  1  0.90004597  0.78140842  0.19293029  1
  Bi2+  Bi127  1  0.81595761  0.74901402  0.72133378  1
  S2-  S128  1  0.02927458  0.14061875  0.15279036  1
  S2-  S129  1  0.03889569  0.13199475  0.65909294  1
  S2-  S130  1  0.00910750  0.38827989  0.15987834  1
  S2-  S131  1  0.05225835  0.40584729  0.65884067  1
  S2-  S132  1  0.07462665  0.61747020  0.14544098  1
  S2-  S133  1  0.00002108  0.65822483  0.64811785  1
  S2-  S134  1  0.08951136  0.88199236  0.14105905  1
  S2-  S135  1  0.03837856  0.88495200  0.68373699  1
  S2-  S136  1  0.24944622  0.04666387  0.13953490  1
  S2-  S137  1  0.27257828  0.11778629  0.66516796  1
  S2-  S138  1  0.22856885  0.44378948  0.14195246  1
  S2-  S139  1  0.25205481  0.33160902  0.67946826  1
  S2-  S140  1  0.31509471  0.62023904  0.18635926  1
  S2-  S141  1  0.24297841  0.54393097  0.63909419  1
  S2-  S142  1  0.29378819  0.84818203  0.18735350  1
  S2-  S143  1  0.23821998  0.90488838  0.67193524  1
  S2-  S144  1  0.50862981  0.05234094  0.14037920  1
  S2-  S145  1  0.49942364  0.10721393  0.65907545  1
  S2-  S146  1  0.48067566  0.47903663  0.14374044  1
  S2-  S147  1  0.47563245  0.38549825  0.65031351  1
  S2-  S148  1  0.55305477  0.67295929  0.16007421  1
  S2-  S149  1  0.47631379  0.63381292  0.64415616  1
  S2-  S150  1  0.49361501  0.86705126  0.17752631  1
  S2-  S151  1  0.42500306  0.87391490  0.62857580  1
  S2-  S152  1  0.76048817  0.13218583  0.14640537  1
  S2-  S153  1  0.74048488  0.10424647  0.65564768  1
  S2-  S154  1  0.76940585  0.42463779  0.16077915  1
  S2-  S155  1  0.71800584  0.35817547  0.65516492  1
  S2-  S156  1  0.78901321  0.65969354  0.15814221  1
  S2-  S157  1  0.75019829  0.63052462  0.65267600  1
  S2-  S158  1  0.69978747  0.88675692  0.15080869  1
  S2-  S159  1  0.83908738  0.86190669  0.64525898  1
  S2-  S160  1  0.20105403  0.00033528  0.36105780  1
  S2-  S161  1  0.19834681  -0.00775534  0.84110289  1
  S2-  S162  1  0.12692734  0.32182008  0.36182935  1
  S2-  S163  1  0.20330080  0.25242285  0.84596453  1
  S2-  S164  1  0.15960804  0.52786406  0.31307986  1
  S2-  S165  1  0.12963567  0.48583074  0.83280296  1
  S2-  S166  1  0.20202249  0.76356499  0.35814771  1
  S2-  S167  1  0.14455585  0.78118755  0.84160038  1
  S2-  S168  1  0.40768096  -0.00121066  0.32230791  1
  S2-  S169  1  0.37941483  0.08620907  0.84300488  1
  S2-  S170  1  0.34720823  0.20815345  0.35432918  1
  S2-  S171  1  0.36259043  0.25621746  0.77641506  1
  S2-  S172  1  0.36477048  0.58554345  0.35141546  1
  S2-  S173  1  0.37413853  0.42500997  0.84858140  1
  S2-  S174  1  0.40615773  0.79350612  0.32106909  1
  S2-  S175  1  0.36173081  0.83598226  0.87281783  1
  S2-  S176  1  0.64710966  -0.09069034  0.34770876  1
  S2-  S177  1  0.54450896  -0.05187274  0.85463313  1
  S2-  S178  1  0.60812929  0.13174982  0.35710816  1
  S2-  S179  1  0.54369646  0.24502550  0.84840134  1
  S2-  S180  1  0.74044017  0.48956687  0.35549928  1
  S2-  S181  1  0.63451768  0.46300678  0.85395912  1
  S2-  S182  1  0.58822513  0.69412809  0.30148172  1
  S2-  S183  1  0.72884677  0.75093549  0.86138615  1
  S2-  S184  1  0.89817462  -0.08668289  0.36784707  1
  S2-  S185  1  0.98363698  -0.00328504  0.85672392  1
  S2-  S186  1  0.89376510  0.23042225  0.35420802  1
  S2-  S187  1  0.98609154  0.25148838  0.86301893  1
  S2-  S188  1  0.95961943  0.47991855  0.35649224  1
  S2-  S189  1  0.87517433  0.51917162  0.85163930  1
  S2-  S190  1  0.77871643  0.73056272  0.34662384  1
  S2-  S191  1  0.94810300  0.75526435  0.84469963  1
  S2-  S192  1  -0.01017832  0.12553900  0.45838764  1
  S2-  S193  1  -0.00884205  0.12726481  0.95615549  1
  S2-  S194  1  -0.01525838  0.37380742  0.46198791  1
  S2-  S195  1  -0.00815476  0.38347213  0.95643296  1
  S2-  S196  1  -0.00905606  0.63105582  0.44477352  1
  S2-  S197  1  -0.00856491  0.62656482  0.95312839  1
  S2-  S198  1  -0.00731040  0.87699533  0.47226518  1
  S2-  S199  1  -0.01055235  0.87324040  0.95560229  1
  S2-  S200  1  0.23277138  0.13192594  0.46106367  1
  S2-  S201  1  0.24353114  0.12363136  0.94758535  1
  S2-  S202  1  0.23874623  0.38199369  0.46177897  1
  S2-  S203  1  0.24156880  0.37853295  0.94953618  1
  S2-  S204  1  0.23246620  0.61759693  0.45010832  1
  S2-  S205  1  0.24565809  0.62970938  0.94000840  1
  S2-  S206  1  0.24344382  0.87651838  0.46223743  1
  S2-  S207  1  0.23766157  0.87655105  0.96755961  1
  S2-  S208  1  0.48125493  0.12799983  0.45325173  1
  S2-  S209  1  0.49061046  0.13134132  0.94971015  1
  S2-  S210  1  0.48914903  0.37780606  0.44715937  1
  S2-  S211  1  0.49240676  0.37683976  0.95785571  1
  S2-  S212  1  0.49721894  0.63163472  0.44219619  1
  S2-  S213  1  0.49176676  0.62844879  0.95978272  1
  S2-  S214  1  0.48505635  0.87476687  0.43648118  1
  S2-  S215  1  0.49509515  0.87517759  0.96872885  1
  S2-  S216  1  0.74293292  0.12577902  0.45473154  1
  S2-  S217  1  0.74351283  0.13352642  0.94640128  1
  S2-  S218  1  0.73740652  0.36801482  0.45273339  1
  S2-  S219  1  0.74322980  0.37778953  0.95799249  1
  S2-  S220  1  0.73530132  0.63384141  0.45006251  1
  S2-  S221  1  0.73995824  0.62361684  0.96016417  1
  S2-  S222  1  0.73630801  0.87940244  0.45888242  1
  S2-  S223  1  0.74215191  0.88250259  0.95284951  1
  S2-  S224  1  0.11293564  0.00548599  0.03918460  1
  S2-  S225  1  0.11527938  -0.00330946  0.55692441  1
  S2-  S226  1  0.11801356  0.25282417  0.04419731  1
  S2-  S227  1  0.11515563  0.25507641  0.55585063  1
  S2-  S228  1  0.11753578  0.50484062  0.03910487  1
  S2-  S229  1  0.11178440  0.50421087  0.54088003  1
  S2-  S230  1  0.12455421  0.74474334  0.04673432  1
  S2-  S231  1  0.12142608  0.75204253  0.55184432  1
  S2-  S232  1  0.37060726  0.00058159  0.04040998  1
  S2-  S233  1  0.36182202  0.00500969  0.53586565  1
  S2-  S234  1  0.36434788  0.25449286  0.05718694  1
  S2-  S235  1  0.35885079  0.25554578  0.55287924  1
  S2-  S236  1  0.35916597  0.50681704  0.04344003  1
  S2-  S237  1  0.36839022  0.50463914  0.54012528  1
  S2-  S238  1  0.36676368  0.75152306  0.06380069  1
  S2-  S239  1  0.36526136  0.74573047  0.53161093  1
  S2-  S240  1  0.62463235  0.00598526  0.04170799  1
  S2-  S241  1  0.61186038  0.00106685  0.54305047  1
  S2-  S242  1  0.61665735  0.25242935  0.04267544  1
  S2-  S243  1  0.61457521  0.24909294  0.54180336  1
  S2-  S244  1  0.62099622  0.50378979  0.05208956  1
  S2-  S245  1  0.61402145  0.50275537  0.53950497  1
  S2-  S246  1  0.61973812  0.75447862  0.04676635  1
  S2-  S247  1  0.61003182  0.75658041  0.55034346  1
  S2-  S248  1  0.86817897  0.00345876  0.04499045  1
  S2-  S249  1  0.86402786  0.00411462  0.55180982  1
  S2-  S250  1  0.87153611  0.25318907  0.04548555  1
  S2-  S251  1  0.86238454  0.24882735  0.55410671  1
  S2-  S252  1  0.86971368  0.50728977  0.05306398  1
  S2-  S253  1  0.86127194  0.50434315  0.54767940  1
  S2-  S254  1  0.86669941  0.75155015  0.04225939  1
  S2-  S255  1  0.86181192  0.75034969  0.54105367  1
