# generated using pymatgen
data_La6Ce7Pr13Nd19Sm19(BiS2)64
_symmetry_space_group_name_H-M   'P 1'
_cell_length_a   15.97850430
_cell_length_b   16.05030375
_cell_length_c   27.39178755
_cell_angle_alpha   89.97307956
_cell_angle_beta   89.76713566
_cell_angle_gamma   89.81344291
_symmetry_Int_Tables_number   1
_chemical_formula_structural   La6Ce7Pr13Nd19Sm19(BiS2)64
_chemical_formula_sum   'La6 Ce7 Pr13 Nd19 Sm19 Bi64 S128'
_cell_volume   7024.79766725
_cell_formula_units_Z   1
loop_
 _symmetry_equiv_pos_site_id
 _symmetry_equiv_pos_as_xyz
  1  'x, y, z'
loop_
 _atom_type_symbol
 _atom_type_oxidation_number
  La3+  3.0
  Ce3+  3.0
  Pr3+  3.0
  Nd3+  3.0
  Sm3+  3.0
  Bi2+  2.0
  S2-  -2.0
loop_
 _atom_site_type_symbol
 _atom_site_label
 _atom_site_symmetry_multiplicity
 _atom_site_fract_x
 _atom_site_fract_y
 _atom_site_fract_z
 _atom_site_occupancy
  La3+  La0  1  0.73654544  0.35734606  0.08115786  1
  La3+  La1  1  0.00018244  0.62054311  0.09071131  1
  La3+  La2  1  0.13379868  0.23643235  0.42027726  1
  La3+  La3  1  0.38878144  0.50297561  0.88172194  1
  La3+  La4  1  0.12365797  -0.02159894  0.40938346  1
  La3+  La5  1  0.37571345  0.49136742  0.43623754  1
  Ce3+  Ce6  1  0.00279598  0.36340783  0.55076017  1
  Ce3+  Ce7  1  0.49865994  0.61458858  0.56357812  1
  Ce3+  Ce8  1  0.36474033  0.24376038  0.92009680  1
  Ce3+  Ce9  1  0.74726810  0.36583889  0.55657215  1
  Ce3+  Ce10  1  0.00347534  0.86277931  0.07367943  1
  Ce3+  Ce11  1  0.74513707  0.10484643  0.06825354  1
  Ce3+  Ce12  1  0.87525999  0.48823458  0.42499004  1
  Pr3+  Pr13  1  -0.00875140  0.36558358  0.07811515  1
  Pr3+  Pr14  1  0.75216210  0.11337608  0.56482465  1
  Pr3+  Pr15  1  0.25426847  0.61015789  0.06838089  1
  Pr3+  Pr16  1  0.87552574  0.73657719  0.94183488  1
  Pr3+  Pr17  1  0.37347966  -0.01113227  0.43541244  1
  Pr3+  Pr18  1  0.62490792  0.23954548  0.93587494  1
  Pr3+  Pr19  1  0.00997058  0.10995122  0.07736497  1
  Pr3+  Pr20  1  0.25082476  0.86697124  0.06564209  1
  Pr3+  Pr21  1  0.87727287  0.74127943  0.42661845  1
  Pr3+  Pr22  1  0.49702303  0.60895738  0.06401465  1
  Pr3+  Pr23  1  0.12291615  -0.01432540  0.93204682  1
  Pr3+  Pr24  1  0.24042467  0.11305477  0.57066182  1
  Pr3+  Pr25  1  0.87629775  -0.01729270  0.94458234  1
  Nd3+  Nd26  1  0.23792628  0.61169368  0.57958793  1
  Nd3+  Nd27  1  0.12290740  0.48874141  0.93973661  1
  Nd3+  Nd28  1  0.10972502  0.23912514  0.93260775  1
  Nd3+  Nd29  1  0.23944379  0.86712119  0.57225454  1
  Nd3+  Nd30  1  0.62682732  -0.01024204  0.43463429  1
  Nd3+  Nd31  1  0.62883635  0.48146436  0.92918325  1
  Nd3+  Nd32  1  0.62852973  -0.00684374  0.92843753  1
  Nd3+  Nd33  1  0.37322467  -0.00937742  0.92364827  1
  Nd3+  Nd34  1  0.87427685  0.23623255  0.95466914  1
  Nd3+  Nd35  1  0.62311533  0.23946716  0.43782411  1
  Nd3+  Nd36  1  0.87316978  -0.00597770  0.42790342  1
  Nd3+  Nd37  1  0.12624821  0.73414501  0.94775808  1
  Nd3+  Nd38  1  0.25186528  0.36052244  0.57071632  1
  Nd3+  Nd39  1  0.74478320  0.61282203  0.05760149  1
  Nd3+  Nd40  1  0.12371720  0.49122732  0.43436018  1
  Nd3+  Nd41  1  0.49457725  0.36009198  0.05118492  1
  Nd3+  Nd42  1  0.37523845  0.73640782  0.94056978  1
  Nd3+  Nd43  1  -0.00710505  0.61345093  0.56145310  1
  Nd3+  Nd44  1  0.24341970  0.36179415  0.05573631  1
  Sm3+  Sm45  1  0.87973442  0.48732407  0.94953252  1
  Sm3+  Sm46  1  -0.00179907  0.11316342  0.55738428  1
  Sm3+  Sm47  1  0.75238328  0.61353530  0.55598440  1
  Sm3+  Sm48  1  0.62158390  0.73728534  0.94595777  1
  Sm3+  Sm49  1  0.50755960  0.36303657  0.56938470  1
  Sm3+  Sm50  1  0.49554642  0.11178237  0.04990248  1
  Sm3+  Sm51  1  0.62983887  0.49022598  0.43160706  1
  Sm3+  Sm52  1  -0.00873701  0.86709729  0.56026249  1
  Sm3+  Sm53  1  0.24816203  0.11419310  0.04666954  1
  Sm3+  Sm54  1  0.49420794  0.86737311  0.06143710  1
  Sm3+  Sm55  1  0.37297209  0.74103023  0.45156251  1
  Sm3+  Sm56  1  0.62505466  0.73971156  0.44467919  1
  Sm3+  Sm57  1  0.12751157  0.73998555  0.44279705  1
  Sm3+  Sm58  1  0.74720321  0.86569725  0.06333144  1
  Sm3+  Sm59  1  0.50134289  0.86624919  0.56088609  1
  Sm3+  Sm60  1  0.37442742  0.24014594  0.44468055  1
  Sm3+  Sm61  1  0.87673072  0.23840764  0.43991909  1
  Sm3+  Sm62  1  0.49879281  0.11232609  0.55899141  1
  Sm3+  Sm63  1  0.75109087  0.86573113  0.55538090  1
  Bi2+  Bi64  1  -0.00402448  0.13310746  0.29317849  1
  Bi2+  Bi65  1  -0.01969677  0.13297262  0.78126593  1
  Bi2+  Bi66  1  -0.07962903  0.37911772  0.30059055  1
  Bi2+  Bi67  1  0.02366058  0.36615589  0.80415585  1
  Bi2+  Bi68  1  0.02289018  0.62715269  0.28178037  1
  Bi2+  Bi69  1  -0.01041229  0.66574334  0.81146793  1
  Bi2+  Bi70  1  0.00398821  0.84369777  0.28763744  1
  Bi2+  Bi71  1  0.00887284  0.85814558  0.74049149  1
  Bi2+  Bi72  1  0.31259210  0.13037715  0.29708054  1
  Bi2+  Bi73  1  0.22862834  0.12078327  0.79573224  1
  Bi2+  Bi74  1  0.20321821  0.38313984  0.29236417  1
  Bi2+  Bi75  1  0.27022992  0.37509873  0.78163564  1
  Bi2+  Bi76  1  0.23067574  0.62790182  0.29178129  1
  Bi2+  Bi77  1  0.23640664  0.62735932  0.78952904  1
  Bi2+  Bi78  1  0.33964803  0.86694618  0.28181248  1
  Bi2+  Bi79  1  0.26203789  0.92886372  0.81100410  1
  Bi2+  Bi80  1  0.50421069  0.13554313  0.32691569  1
  Bi2+  Bi81  1  0.50956168  0.10574054  0.77864509  1
  Bi2+  Bi82  1  0.46653803  0.36122625  0.31769287  1
  Bi2+  Bi83  1  0.59671019  0.39237400  0.78008182  1
  Bi2+  Bi84  1  0.48518494  0.65979359  0.30399586  1
  Bi2+  Bi85  1  0.61726637  0.65735018  0.76514487  1
  Bi2+  Bi86  1  0.51180749  0.93672542  0.32601853  1
  Bi2+  Bi87  1  0.54386370  0.91791076  0.81405997  1
  Bi2+  Bi88  1  0.73666440  0.11484303  0.28425591  1
  Bi2+  Bi89  1  0.75642292  0.14755883  0.79203849  1
  Bi2+  Bi90  1  0.66849832  0.40309875  0.27784569  1
  Bi2+  Bi91  1  0.77665438  0.47525533  0.80954881  1
  Bi2+  Bi92  1  0.65731379  0.66704116  0.24218762  1
  Bi2+  Bi93  1  0.78982973  0.67923121  0.81949905  1
  Bi2+  Bi94  1  0.69618039  0.86547672  0.29115219  1
  Bi2+  Bi95  1  0.74157093  0.92125399  0.78424664  1
  Bi2+  Bi96  1  0.12926851  0.00454687  0.21121136  1
  Bi2+  Bi97  1  0.14886977  -0.01253647  0.70844305  1
  Bi2+  Bi98  1  0.19209470  0.24477981  0.20729688  1
  Bi2+  Bi99  1  0.11711295  0.23533822  0.70442606  1
  Bi2+  Bi100  1  0.10381489  0.47733956  0.20910467  1
  Bi2+  Bi101  1  0.09560046  0.48628400  0.70678259  1
  Bi2+  Bi102  1  0.15755085  0.74888729  0.21960767  1
  Bi2+  Bi103  1  0.16295282  0.74020396  0.70997977  1
  Bi2+  Bi104  1  0.36520540  0.01565484  0.20693358  1
  Bi2+  Bi105  1  0.39211547  -0.02529974  0.72152332  1
  Bi2+  Bi106  1  0.39637708  0.28955374  0.22052996  1
  Bi2+  Bi107  1  0.39920973  0.23967093  0.71142254  1
  Bi2+  Bi108  1  0.36889467  0.49541777  0.24760722  1
  Bi2+  Bi109  1  0.39004342  0.54020084  0.68071467  1
  Bi2+  Bi110  1  0.42376426  0.74699854  0.20275383  1
  Bi2+  Bi111  1  0.39934529  0.80323796  0.77686863  1
  Bi2+  Bi112  1  0.56154012  0.02801865  0.22524146  1
  Bi2+  Bi113  1  0.63099843  0.01006855  0.69880937  1
  Bi2+  Bi114  1  0.58493553  0.24026427  0.20005405  1
  Bi2+  Bi115  1  0.72214992  0.20591180  0.68549047  1
  Bi2+  Bi116  1  0.55095799  0.51347728  0.20142799  1
  Bi2+  Bi117  1  0.67863894  0.50391595  0.70099834  1
  Bi2+  Bi118  1  0.59850189  0.83456908  0.18283390  1
  Bi2+  Bi119  1  0.69674797  0.81829821  0.68991404  1
  Bi2+  Bi120  1  0.84042014  -0.01142440  0.21979600  1
  Bi2+  Bi121  1  0.88700868  0.00328131  0.70931193  1
  Bi2+  Bi122  1  0.82416202  0.26379171  0.22714883  1
  Bi2+  Bi123  1  0.86458881  0.29948378  0.74193707  1
  Bi2+  Bi124  1  0.81493585  0.49741608  0.22513762  1
  Bi2+  Bi125  1  0.89303909  0.49511700  0.71487686  1
  Bi2+  Bi126  1  0.80606087  0.80218345  0.19407139  1
  Bi2+  Bi127  1  0.88024076  0.71064334  0.71642903  1
  S2-  S128  1  -0.01998370  0.07365658  0.17688440  1
  S2-  S129  1  0.09422578  0.10622872  0.64120807  1
  S2-  S130  1  0.06484576  0.31844927  0.16619862  1
  S2-  S131  1  0.03318923  0.35150418  0.64708170  1
  S2-  S132  1  -0.04573018  0.55881800  0.18585545  1
  S2-  S133  1  0.09139207  0.62027156  0.64655345  1
  S2-  S134  1  -0.04453538  0.76712749  0.15096477  1
  S2-  S135  1  0.09698887  0.86159250  0.64036918  1
  S2-  S136  1  0.18871827  0.10603119  0.13996752  1
  S2-  S137  1  0.25877336  0.23884687  0.64752908  1
  S2-  S138  1  0.28947476  0.35936367  0.15286422  1
  S2-  S139  1  0.23967266  0.47496283  0.64764307  1
  S2-  S140  1  0.15277567  0.61324606  0.15328628  1
  S2-  S141  1  0.30292591  0.69848391  0.66259223  1
  S2-  S142  1  0.13758669  0.88146443  0.14744977  1
  S2-  S143  1  0.28197631  0.98848193  0.64434523  1
  S2-  S144  1  0.47161302  0.12394816  0.14767623  1
  S2-  S145  1  0.49817700  0.15191710  0.65417840  1
  S2-  S146  1  0.58230327  0.37855026  0.13912457  1
  S2-  S147  1  0.43722327  0.37505747  0.65978894  1
  S2-  S148  1  0.38572058  0.61781643  0.14353967  1
  S2-  S149  1  0.55080607  0.61120247  0.65756607  1
  S2-  S150  1  0.37902894  0.88475617  0.13652828  1
  S2-  S151  1  0.53442720  0.87909715  0.65710970  1
  S2-  S152  1  0.72298770  0.20644115  0.14823707  1
  S2-  S153  1  0.87580345  0.11902559  0.63742164  1
  S2-  S154  1  0.85700820  0.37744282  0.15361184  1
  S2-  S155  1  0.65596396  0.35675274  0.64007579  1
  S2-  S156  1  0.70453046  0.58110741  0.15255745  1
  S2-  S157  1  0.86059877  0.61029089  0.63278101  1
  S2-  S158  1  0.73707139  0.97988086  0.13897771  1
  S2-  S159  1  0.85107540  0.87611909  0.63460160  1
  S2-  S160  1  0.13078628  0.11267034  0.34194469  1
  S2-  S161  1  0.07583785  0.03736296  0.83882976  1
  S2-  S162  1  0.05586839  0.29193043  0.32600105  1
  S2-  S163  1  0.19260692  0.25975172  0.84438590  1
  S2-  S164  1  0.00282945  0.50332366  0.35457909  1
  S2-  S165  1  0.21449658  0.49533301  0.85055167  1
  S2-  S166  1  0.11959870  0.81795517  0.35371551  1
  S2-  S167  1  0.13183214  0.73430714  0.84708338  1
  S2-  S168  1  0.27934809  -0.02402122  0.35086341  1
  S2-  S169  1  0.37573246  0.11382186  0.85074589  1
  S2-  S170  1  0.28825071  0.26595494  0.35899161  1
  S2-  S171  1  0.39860331  0.33785478  0.83807966  1
  S2-  S172  1  0.24738640  0.50041591  0.36302722  1
  S2-  S173  1  0.37230047  0.51334795  0.77200970  1
  S2-  S174  1  0.34897635  0.72225519  0.35446500  1
  S2-  S175  1  0.37205512  0.67631586  0.84788049  1
  S2-  S176  1  0.74056667  -0.00552554  0.35732176  1
  S2-  S177  1  0.62372521  0.12360527  0.85751182  1
  S2-  S178  1  0.63081576  0.26241183  0.33932150  1
  S2-  S179  1  0.67763359  0.34827604  0.86084149  1
  S2-  S180  1  0.50612606  0.50486324  0.36163596  1
  S2-  S181  1  0.55343024  0.52508488  0.84080514  1
  S2-  S182  1  0.63982135  0.72275350  0.34747019  1
  S2-  S183  1  0.61826816  0.75600222  0.84804738  1
  S2-  S184  1  0.97011403  -0.01579853  0.34335238  1
  S2-  S185  1  0.81768762  0.02208629  0.85276326  1
  S2-  S186  1  0.85759133  0.20408666  0.34434274  1
  S2-  S187  1  0.96277763  0.24670728  0.86673472  1
  S2-  S188  1  0.74980089  0.48651359  0.35487502  1
  S2-  S189  1  0.98845020  0.48900248  0.86844324  1
  S2-  S190  1  0.89696007  0.71986615  0.32637015  1
  S2-  S191  1  0.90326937  0.80733860  0.85164341  1
  S2-  S192  1  -0.00063468  0.11520604  0.45087343  1
  S2-  S193  1  -0.00222364  0.10790772  0.96386995  1
  S2-  S194  1  0.00116435  0.35937625  0.44732988  1
  S2-  S195  1  -0.00358293  0.36407647  0.97080770  1
  S2-  S196  1  -0.00039937  0.61937939  0.45410357  1
  S2-  S197  1  -0.00095817  0.61568956  0.96714549  1
  S2-  S198  1  -0.00236458  0.86305350  0.45442176  1
  S2-  S199  1  0.00325325  0.86088302  0.96164697  1
  S2-  S200  1  0.25471252  0.11498911  0.45784316  1
  S2-  S201  1  0.24225220  0.11398777  0.94604773  1
  S2-  S202  1  0.25096375  0.36588728  0.46379336  1
  S2-  S203  1  0.23936101  0.35865054  0.95284522  1
  S2-  S204  1  0.24981036  0.61961450  0.46550275  1
  S2-  S205  1  0.25196791  0.61190609  0.95867127  1
  S2-  S206  1  0.24973977  0.86197264  0.46174806  1
  S2-  S207  1  0.25119638  0.86360803  0.95224407  1
  S2-  S208  1  0.49989632  0.11405385  0.45457258  1
  S2-  S209  1  0.49515666  0.11296861  0.94962287  1
  S2-  S210  1  0.50242497  0.36329687  0.46021246  1
  S2-  S211  1  0.49621750  0.36542051  0.94733197  1
  S2-  S212  1  0.50183701  0.62013524  0.45960435  1
  S2-  S213  1  0.50074542  0.61270267  0.95491914  1
  S2-  S214  1  0.50191096  0.86307369  0.45601638  1
  S2-  S215  1  0.49887199  0.86560065  0.95339208  1
  S2-  S216  1  0.74828330  0.11796009  0.45706282  1
  S2-  S217  1  0.75058168  0.11088971  0.96190894  1
  S2-  S218  1  0.74954112  0.36078967  0.45174981  1
  S2-  S219  1  0.75735606  0.36453243  0.96914508  1
  S2-  S220  1  0.75034430  0.61792420  0.45286381  1
  S2-  S221  1  0.74849394  0.61092881  0.95164521  1
  S2-  S222  1  0.74933281  0.86211663  0.45179048  1
  S2-  S223  1  0.74385188  0.86228760  0.95693321  1
  S2-  S224  1  0.12565387  -0.01186836  0.03875732  1
  S2-  S225  1  0.11810411  -0.01384196  0.53855525  1
  S2-  S226  1  0.12104412  0.23637110  0.04336144  1
  S2-  S227  1  0.12317763  0.23819880  0.53791383  1
  S2-  S228  1  0.12033785  0.48782289  0.05176316  1
  S2-  S229  1  0.12043315  0.49013699  0.54023577  1
  S2-  S230  1  0.12785069  0.73838839  0.05126257  1
  S2-  S231  1  0.11940851  0.73982449  0.54409473  1
  S2-  S232  1  0.37197271  -0.00809859  0.03192900  1
  S2-  S233  1  0.38094643  -0.01249211  0.54265000  1
  S2-  S234  1  0.37080916  0.23566964  0.03861612  1
  S2-  S235  1  0.38305993  0.24039112  0.54701787  1
  S2-  S236  1  0.37358955  0.48227964  0.04825325  1
  S2-  S237  1  0.37993978  0.48765613  0.54739609  1
  S2-  S238  1  0.37658436  0.74112967  0.04311535  1
  S2-  S239  1  0.37631951  0.74581400  0.55402166  1
  S2-  S240  1  0.61632222  -0.01452163  0.03796745  1
  S2-  S241  1  0.62624715  -0.01029554  0.54413321  1
  S2-  S242  1  0.61929155  0.23162669  0.04088180  1
  S2-  S243  1  0.62398306  0.23451946  0.54284991  1
  S2-  S244  1  0.62195885  0.48864180  0.03730639  1
  S2-  S245  1  0.62669706  0.49333569  0.53986155  1
  S2-  S246  1  0.61972822  0.74209595  0.05037138  1
  S2-  S247  1  0.62844206  0.74051194  0.54918791  1
  S2-  S248  1  0.87963704  -0.01562860  0.05063238  1
  S2-  S249  1  0.87327970  -0.00928164  0.53396359  1
  S2-  S250  1  0.87710165  0.22826875  0.05815586  1
  S2-  S251  1  0.87369752  0.24315641  0.54281194  1
  S2-  S252  1  0.87354513  0.49692279  0.05267192  1
  S2-  S253  1  0.87261086  0.48537731  0.53478840  1
  S2-  S254  1  0.86654509  0.74007308  0.04749600  1
  S2-  S255  1  0.87121196  0.74148503  0.53457618  1
