# generated using pymatgen
data_La6Ce7Pr13Nd19Sm19(BiS2)64
_symmetry_space_group_name_H-M   'P 1'
_cell_length_a   16.10637076
_cell_length_b   16.04395134
_cell_length_c   27.48872111
_cell_angle_alpha   90.14026418
_cell_angle_beta   90.13023755
_cell_angle_gamma   89.90622825
_symmetry_Int_Tables_number   1
_chemical_formula_structural   La6Ce7Pr13Nd19Sm19(BiS2)64
_chemical_formula_sum   'La6 Ce7 Pr13 Nd19 Sm19 Bi64 S128'
_cell_volume   7103.30662870
_cell_formula_units_Z   1
loop_
 _symmetry_equiv_pos_site_id
 _symmetry_equiv_pos_as_xyz
  1  'x, y, z'
loop_
 _atom_type_symbol
 _atom_type_oxidation_number
  La3+  3.0
  Ce3+  3.0
  Pr3+  3.0
  Nd3+  3.0
  Sm3+  3.0
  Bi2+  2.0
  S2-  -2.0
loop_
 _atom_site_type_symbol
 _atom_site_label
 _atom_site_symmetry_multiplicity
 _atom_site_fract_x
 _atom_site_fract_y
 _atom_site_fract_z
 _atom_site_occupancy
  La3+  La0  1  0.86810134  0.24709286  0.38889820  1
  La3+  La1  1  0.24448768  0.36955212  0.60350082  1
  La3+  La2  1  0.51223637  0.86907416  0.56733967  1
  La3+  La3  1  0.01894811  0.86961713  0.57968900  1
  La3+  La4  1  0.39259032  0.49926215  0.91550774  1
  La3+  La5  1  0.01955507  0.63267731  0.06456555  1
  Ce3+  Ce6  1  0.88008795  0.49871197  0.44008069  1
  Ce3+  Ce7  1  0.01202604  0.61298535  0.55852923  1
  Ce3+  Ce8  1  0.76120028  0.13413319  0.06365449  1
  Ce3+  Ce9  1  0.26659700  0.62838988  0.04083901  1
  Ce3+  Ce10  1  0.51710258  0.13378612  0.06360680  1
  Ce3+  Ce11  1  0.12789954  -0.00691324  0.43954713  1
  Ce3+  Ce12  1  0.39215309  0.00770639  0.94007130  1
  Pr3+  Pr13  1  0.89157189  0.25566482  0.95390297  1
  Pr3+  Pr14  1  0.76386648  0.39475320  0.07049687  1
  Pr3+  Pr15  1  0.38486378  0.74225507  0.44348607  1
  Pr3+  Pr16  1  0.63527442  0.74409492  0.43943774  1
  Pr3+  Pr17  1  0.37890980  0.24061611  0.42768737  1
  Pr3+  Pr18  1  0.51325402  0.61657100  0.57167592  1
  Pr3+  Pr19  1  0.13064869  0.49691094  0.91941079  1
  Pr3+  Pr20  1  0.02316661  0.38837954  0.07882555  1
  Pr3+  Pr21  1  0.02291549  0.13543415  0.08584753  1
  Pr3+  Pr22  1  0.38336404  0.48906870  0.44333248  1
  Pr3+  Pr23  1  0.63640014  -0.00432666  0.44486509  1
  Pr3+  Pr24  1  0.39159771  0.25405438  0.93516403  1
  Pr3+  Pr25  1  0.13261733  0.48811516  0.43512296  1
  Nd3+  Nd26  1  0.01781217  0.88322298  0.06366831  1
  Nd3+  Nd27  1  0.38240919  -0.00784189  0.44272800  1
  Nd3+  Nd28  1  0.13849429  0.25646916  0.94647820  1
  Nd3+  Nd29  1  0.50670101  0.36474879  0.56525605  1
  Nd3+  Nd30  1  0.27213624  0.13435712  0.06807692  1
  Nd3+  Nd31  1  0.89137529  0.75959663  0.94087062  1
  Nd3+  Nd32  1  0.76298656  0.88174500  0.06131486  1
  Nd3+  Nd33  1  0.76050689  0.61960282  0.56697750  1
  Nd3+  Nd34  1  0.26949230  0.87940716  0.05471763  1
  Nd3+  Nd35  1  0.89028603  0.50295200  0.94015162  1
  Nd3+  Nd36  1  0.75670097  0.36706053  0.57108570  1
  Nd3+  Nd37  1  0.26756849  0.39241412  0.06452870  1
  Nd3+  Nd38  1  0.13143571  0.24286635  0.42676843  1
  Nd3+  Nd39  1  0.13567333  0.75485415  0.93276287  1
  Nd3+  Nd40  1  0.64281220  0.50494392  0.92294960  1
  Nd3+  Nd41  1  0.14040089  0.00697862  0.94590013  1
  Nd3+  Nd42  1  0.64215571  0.00573393  0.93125505  1
  Nd3+  Nd43  1  0.51096192  0.39090949  0.06481714  1
  Nd3+  Nd44  1  0.63482224  0.48833702  0.44156056  1
  Sm3+  Sm45  1  0.38972995  0.75542121  0.93153752  1
  Sm3+  Sm46  1  0.51599545  0.87973453  0.05285173  1
  Sm3+  Sm47  1  0.64190454  0.25976560  0.94594522  1
  Sm3+  Sm48  1  0.88608765  -0.00339895  0.44300657  1
  Sm3+  Sm49  1  0.01037403  0.12323455  0.55354679  1
  Sm3+  Sm50  1  0.13010903  0.74416404  0.44316360  1
  Sm3+  Sm51  1  0.63660680  0.24370540  0.44648006  1
  Sm3+  Sm52  1  0.76307341  0.11876112  0.56063604  1
  Sm3+  Sm53  1  0.25853201  0.12507117  0.55515947  1
  Sm3+  Sm54  1  0.63979076  0.76047999  0.93155221  1
  Sm3+  Sm55  1  0.89196150  0.00810768  0.95424804  1
  Sm3+  Sm56  1  0.00704762  0.36579459  0.55102150  1
  Sm3+  Sm57  1  0.76251310  0.86986729  0.55729644  1
  Sm3+  Sm58  1  0.88573486  0.74240653  0.44415684  1
  Sm3+  Sm59  1  0.25923504  0.61447428  0.55426499  1
  Sm3+  Sm60  1  0.76359826  0.63300818  0.04907058  1
  Sm3+  Sm61  1  0.25734926  0.86889286  0.55794384  1
  Sm3+  Sm62  1  0.51533729  0.62887791  0.04988260  1
  Sm3+  Sm63  1  0.50572154  0.11990653  0.55597042  1
  Bi2+  Bi64  1  0.00214077  0.09790775  0.28640761  1
  Bi2+  Bi65  1  -0.00109064  0.12852859  0.79782939  1
  Bi2+  Bi66  1  -0.00801365  0.38181261  0.28961171  1
  Bi2+  Bi67  1  0.00617869  0.37502338  0.79707875  1
  Bi2+  Bi68  1  -0.00740724  0.65418723  0.29332494  1
  Bi2+  Bi69  1  -0.05713168  0.64492642  0.76895212  1
  Bi2+  Bi70  1  -0.05672067  0.83915445  0.32889655  1
  Bi2+  Bi71  1  0.02218946  0.89116850  0.81692920  1
  Bi2+  Bi72  1  0.21815486  0.08660545  0.24975473  1
  Bi2+  Bi73  1  0.22437009  0.14268398  0.73633473  1
  Bi2+  Bi74  1  0.24955610  0.37933525  0.29519730  1
  Bi2+  Bi75  1  0.25497273  0.42489890  0.80348241  1
  Bi2+  Bi76  1  0.28589442  0.64759307  0.26885343  1
  Bi2+  Bi77  1  0.24162705  0.68210689  0.77768535  1
  Bi2+  Bi78  1  0.30421405  0.91904924  0.30017951  1
  Bi2+  Bi79  1  0.25421595  0.96725905  0.78682035  1
  Bi2+  Bi80  1  0.47170370  0.18884399  0.30799248  1
  Bi2+  Bi81  1  0.47953284  0.17439426  0.80797284  1
  Bi2+  Bi82  1  0.47736888  0.38733737  0.29976761  1
  Bi2+  Bi83  1  0.53873277  0.37491778  0.78822776  1
  Bi2+  Bi84  1  0.48020615  0.66331099  0.23790151  1
  Bi2+  Bi85  1  0.50932660  0.65396469  0.79443601  1
  Bi2+  Bi86  1  0.48820595  0.83553120  0.30018730  1
  Bi2+  Bi87  1  0.53383173  0.98322403  0.80701385  1
  Bi2+  Bi88  1  0.73424077  0.06499847  0.28975750  1
  Bi2+  Bi89  1  0.67202700  0.12590292  0.81700387  1
  Bi2+  Bi90  1  0.71959272  0.37695193  0.29682872  1
  Bi2+  Bi91  1  0.80299079  0.36798075  0.80397260  1
  Bi2+  Bi92  1  0.74779666  0.63201910  0.23402100  1
  Bi2+  Bi93  1  0.76540979  0.57124585  0.79457808  1
  Bi2+  Bi94  1  0.75307572  0.77815821  0.31372505  1
  Bi2+  Bi95  1  0.78335555  0.88753972  0.78807039  1
  Bi2+  Bi96  1  0.13654291  -0.09019498  0.23310157  1
  Bi2+  Bi97  1  0.08917400  -0.01630880  0.70369031  1
  Bi2+  Bi98  1  0.10576813  0.24775479  0.20984545  1
  Bi2+  Bi99  1  0.02587780  0.24938882  0.70929583  1
  Bi2+  Bi100  1  0.14841054  0.51371026  0.20212023  1
  Bi2+  Bi101  1  0.11335543  0.52145579  0.69953572  1
  Bi2+  Bi102  1  0.13812566  0.71771847  0.20582287  1
  Bi2+  Bi103  1  0.06893483  0.77367593  0.71188188  1
  Bi2+  Bi104  1  0.38858625  -0.00586525  0.20123530  1
  Bi2+  Bi105  1  0.37441141  0.01369959  0.69986223  1
  Bi2+  Bi106  1  0.36790645  0.25222116  0.22032022  1
  Bi2+  Bi107  1  0.39700336  0.22761147  0.70610873  1
  Bi2+  Bi108  1  0.39127502  0.49915982  0.19485114  1
  Bi2+  Bi109  1  0.37761542  0.51922230  0.70154198  1
  Bi2+  Bi110  1  0.33799523  0.76245710  0.18009460  1
  Bi2+  Bi111  1  0.35942390  0.82303502  0.73795323  1
  Bi2+  Bi112  1  0.56387966  0.01789562  0.24918437  1
  Bi2+  Bi113  1  0.65599275  -0.00653624  0.71856315  1
  Bi2+  Bi114  1  0.57113281  0.20921020  0.20688497  1
  Bi2+  Bi115  1  0.63758576  0.25133488  0.72134881  1
  Bi2+  Bi116  1  0.58820018  0.40730954  0.20401705  1
  Bi2+  Bi117  1  0.64456702  0.48671859  0.71395837  1
  Bi2+  Bi118  1  0.62406168  0.78093862  0.20043300  1
  Bi2+  Bi119  1  0.59486287  0.74880925  0.70020426  1
  Bi2+  Bi120  1  0.83934210  -0.07975510  0.24468293  1
  Bi2+  Bi121  1  0.83832428  0.06418924  0.74503465  1
  Bi2+  Bi122  1  0.83666364  0.20539071  0.19286630  1
  Bi2+  Bi123  1  0.82839979  0.27824903  0.69891001  1
  Bi2+  Bi124  1  0.86269753  0.47835121  0.19928942  1
  Bi2+  Bi125  1  0.84402565  0.47373150  0.70062996  1
  Bi2+  Bi126  1  0.90477913  0.74007482  0.20491379  1
  Bi2+  Bi127  1  0.79198149  0.73652682  0.71747596  1
  S2-  S128  1  -0.03973254  0.09712419  0.18061186  1
  S2-  S129  1  0.01440490  0.10201927  0.65089305  1
  S2-  S130  1  -0.03592935  0.32038448  0.16866060  1
  S2-  S131  1  0.07272266  0.38149658  0.64086713  1
  S2-  S132  1  0.00808839  0.53270048  0.14635409  1
  S2-  S133  1  0.00648317  0.63742161  0.65421731  1
  S2-  S134  1  0.02123701  0.84713649  0.15947358  1
  S2-  S135  1  -0.04532018  0.88151952  0.67256132  1
  S2-  S136  1  0.16636182  0.13208162  0.15032001  1
  S2-  S137  1  0.24813098  0.20389975  0.64187915  1
  S2-  S138  1  0.16317100  0.37447334  0.14781651  1
  S2-  S139  1  0.23526075  0.40621677  0.70925097  1
  S2-  S140  1  0.26720126  0.55569399  0.12814920  1
  S2-  S141  1  0.24179087  0.59352246  0.65148697  1
  S2-  S142  1  0.25367225  0.90764609  0.15168115  1
  S2-  S143  1  0.17490247  0.85977455  0.64269763  1
  S2-  S144  1  0.40347039  0.12836116  0.13845257  1
  S2-  S145  1  0.49355681  0.12028335  0.65329876  1
  S2-  S146  1  0.38711816  0.36172353  0.13918760  1
  S2-  S147  1  0.40770346  0.37555663  0.64714650  1
  S2-  S148  1  0.52768446  0.52994034  0.13059017  1
  S2-  S149  1  0.45261609  0.64570854  0.66702735  1
  S2-  S150  1  0.49147463  0.86520880  0.14873500  1
  S2-  S151  1  0.47153378  0.87111384  0.66360273  1
  S2-  S152  1  0.68822577  0.12136327  0.15080161  1
  S2-  S153  1  0.75602224  0.09305409  0.65703365  1
  S2-  S154  1  0.74513517  0.35467279  0.16837191  1
  S2-  S155  1  0.62900509  0.36158255  0.64172179  1
  S2-  S156  1  0.76454528  0.55548799  0.13569257  1
  S2-  S157  1  0.64946013  0.61517101  0.64248438  1
  S2-  S158  1  0.75203617  0.87042243  0.15857999  1
  S2-  S159  1  0.71031771  0.85215218  0.64920234  1
  S2-  S160  1  0.11259190  0.03116215  0.34466082  1
  S2-  S161  1  0.11357320  0.04871102  0.85119914  1
  S2-  S162  1  0.03178793  0.24322517  0.34308584  1
  S2-  S163  1  0.14048979  0.33502126  0.85749730  1
  S2-  S164  1  0.11082042  0.47367952  0.33488359  1
  S2-  S165  1  0.15524188  0.57010253  0.82307760  1
  S2-  S166  1  0.09762059  0.76007133  0.34798258  1
  S2-  S167  1  0.16444769  0.80402041  0.83951491  1
  S2-  S168  1  0.38505326  0.04668851  0.34990075  1
  S2-  S169  1  0.35928368  0.06222232  0.85043866  1
  S2-  S170  1  0.25614502  0.25185874  0.35264258  1
  S2-  S171  1  0.38400479  0.34703877  0.85040076  1
  S2-  S172  1  0.35828865  0.48715720  0.34377709  1
  S2-  S173  1  0.35615288  0.57098859  0.81571304  1
  S2-  S174  1  0.34973333  0.75575766  0.34633539  1
  S2-  S175  1  0.41877833  0.78455459  0.83702979  1
  S2-  S176  1  0.63046727  -0.02434818  0.34635456  1
  S2-  S177  1  0.65329949  -0.11619828  0.85819464  1
  S2-  S178  1  0.69420391  0.24359307  0.35547187  1
  S2-  S179  1  0.66039506  0.35318858  0.86280056  1
  S2-  S180  1  0.61788715  0.47984867  0.34301821  1
  S2-  S181  1  0.52868078  0.50991586  0.84860894  1
  S2-  S182  1  0.59204616  0.72362657  0.34426857  1
  S2-  S183  1  0.64725807  0.66948885  0.84791940  1
  S2-  S184  1  0.87312285  0.07430897  0.35471382  1
  S2-  S185  1  0.88732228  -0.02360041  0.85875512  1
  S2-  S186  1  0.86170789  0.26258949  0.28025131  1
  S2-  S187  1  0.90887318  0.24975005  0.85453001  1
  S2-  S188  1  0.86357279  0.41967466  0.35417294  1
  S2-  S189  1  0.97851006  0.50014092  0.85676581  1
  S2-  S190  1  0.86715587  0.64172375  0.36441371  1
  S2-  S191  1  0.95728547  0.74949053  0.84946284  1
  S2-  S192  1  0.00605011  0.12025911  0.45267641  1
  S2-  S193  1  0.01602888  0.12915334  0.96845909  1
  S2-  S194  1  0.00283502  0.36699971  0.44972607  1
  S2-  S195  1  0.01377623  0.37918556  0.96499206  1
  S2-  S196  1  0.01101515  0.61908589  0.45468711  1
  S2-  S197  1  0.01443797  0.63315833  0.95610391  1
  S2-  S198  1  0.00712567  0.86829850  0.46373175  1
  S2-  S199  1  0.01557937  0.88312602  0.95906737  1
  S2-  S200  1  0.25561280  0.11529292  0.45262929  1
  S2-  S201  1  0.26415093  0.13199802  0.95936234  1
  S2-  S202  1  0.25819655  0.36809495  0.45114598  1
  S2-  S203  1  0.26395195  0.38114371  0.95589919  1
  S2-  S204  1  0.25548396  0.61952466  0.44957284  1
  S2-  S205  1  0.26370334  0.63268419  0.93705909  1
  S2-  S206  1  0.25552729  0.86803792  0.45406488  1
  S2-  S207  1  0.26609862  0.88028257  0.94862751  1
  S2-  S208  1  0.50968384  0.11943039  0.45231429  1
  S2-  S209  1  0.52069568  0.13167250  0.95401314  1
  S2-  S210  1  0.50916851  0.36311275  0.45451686  1
  S2-  S211  1  0.51745437  0.37870742  0.95701869  1
  S2-  S212  1  0.50980981  0.61664480  0.45786156  1
  S2-  S213  1  0.51522309  0.63767095  0.94800870  1
  S2-  S214  1  0.50859784  0.86964279  0.45775134  1
  S2-  S215  1  0.51261367  0.88004692  0.95026461  1
  S2-  S216  1  0.76201409  0.12007374  0.45813937  1
  S2-  S217  1  0.76414373  0.12977700  0.95711024  1
  S2-  S218  1  0.75792104  0.36574028  0.46374696  1
  S2-  S219  1  0.76834939  0.38163352  0.96297138  1
  S2-  S220  1  0.75409559  0.61840064  0.46280246  1
  S2-  S221  1  0.76862425  0.63355584  0.94713343  1
  S2-  S222  1  0.76358324  0.86984627  0.45321702  1
  S2-  S223  1  0.76822032  0.88295112  0.95781479  1
  S2-  S224  1  0.14230824  0.00521668  0.05073065  1
  S2-  S225  1  0.13680460  -0.00124305  0.54567364  1
  S2-  S226  1  0.14324241  0.25721164  0.04929433  1
  S2-  S227  1  0.13212584  0.24520752  0.53829729  1
  S2-  S228  1  0.13841866  0.50870595  0.03280061  1
  S2-  S229  1  0.13742677  0.48989157  0.54193078  1
  S2-  S230  1  0.14239660  0.75823477  0.04295696  1
  S2-  S231  1  0.13649794  0.73942129  0.54613286  1
  S2-  S232  1  0.39354438  0.00307725  0.04295835  1
  S2-  S233  1  0.38025895  -0.00530288  0.54904059  1
  S2-  S234  1  0.39322434  0.25678376  0.03930083  1
  S2-  S235  1  0.38511287  0.24085786  0.53841211  1
  S2-  S236  1  0.39355234  0.50982406  0.02746339  1
  S2-  S237  1  0.38375738  0.49570635  0.54818798  1
  S2-  S238  1  0.39329060  0.75457610  0.03772559  1
  S2-  S239  1  0.38025746  0.74390462  0.55044974  1
  S2-  S240  1  0.63756484  0.00356210  0.04195373  1
  S2-  S241  1  0.63588729  -0.00354948  0.55067959  1
  S2-  S242  1  0.63882181  0.26384796  0.05000525  1
  S2-  S243  1  0.63452356  0.23581418  0.54887549  1
  S2-  S244  1  0.64185859  0.51131141  0.03018016  1
  S2-  S245  1  0.63353475  0.49081352  0.54521344  1
  S2-  S246  1  0.63942886  0.75509697  0.04145089  1
  S2-  S247  1  0.63648552  0.74607720  0.54488262  1
  S2-  S248  1  0.89018516  0.00718932  0.05870747  1
  S2-  S249  1  0.88635482  -0.00623877  0.54887004  1
  S2-  S250  1  0.88942697  0.25725522  0.05860423  1
  S2-  S251  1  0.88431015  0.24365568  0.55891593  1
  S2-  S252  1  0.89182348  0.51050101  0.04264817  1
  S2-  S253  1  0.88166592  0.49128930  0.55006435  1
  S2-  S254  1  0.88920463  0.75722471  0.04816293  1
  S2-  S255  1  0.88445972  0.74443599  0.55110846  1
