# generated using pymatgen
data_La6Ce7Pr13Nd19Sm19(BiS2)64
_symmetry_space_group_name_H-M   'P 1'
_cell_length_a   16.12359210
_cell_length_b   16.09744347
_cell_length_c   27.35010170
_cell_angle_alpha   89.80618567
_cell_angle_beta   89.89994151
_cell_angle_gamma   90.08886264
_symmetry_Int_Tables_number   1
_chemical_formula_structural   La6Ce7Pr13Nd19Sm19(BiS2)64
_chemical_formula_sum   'La6 Ce7 Pr13 Nd19 Sm19 Bi64 S128'
_cell_volume   7098.62090209
_cell_formula_units_Z   1
loop_
 _symmetry_equiv_pos_site_id
 _symmetry_equiv_pos_as_xyz
  1  'x, y, z'
loop_
 _atom_type_symbol
 _atom_type_oxidation_number
  La3+  3.0
  Ce3+  3.0
  Pr3+  3.0
  Nd3+  3.0
  Sm3+  3.0
  Bi2+  2.0
  S2-  -2.0
loop_
 _atom_site_type_symbol
 _atom_site_label
 _atom_site_symmetry_multiplicity
 _atom_site_fract_x
 _atom_site_fract_y
 _atom_site_fract_z
 _atom_site_occupancy
  La3+  La0  1  0.74406499  0.63397045  0.07042147  1
  La3+  La1  1  0.13140758  0.01597151  0.92406723  1
  La3+  La2  1  0.01330305  0.63923349  0.59476235  1
  La3+  La3  1  0.63722208  0.75941832  0.40162988  1
  La3+  La4  1  0.61809399  0.49985415  0.90043519  1
  La3+  La5  1  0.24228323  0.88532570  0.08899390  1
  Ce3+  Ce6  1  0.63817640  0.50443905  0.44304935  1
  Ce3+  Ce7  1  0.88128445  0.74943637  0.43761597  1
  Ce3+  Ce8  1  -0.00078055  0.63353898  0.05768717  1
  Ce3+  Ce9  1  0.38459087  0.50310474  0.43784563  1
  Ce3+  Ce10  1  0.01320809  0.38301320  0.55376072  1
  Ce3+  Ce11  1  0.76102004  0.37431223  0.57168020  1
  Ce3+  Ce12  1  0.00261336  0.88417125  0.05339057  1
  Pr3+  Pr13  1  0.37480774  0.00945077  0.94157871  1
  Pr3+  Pr14  1  0.25176030  0.13062661  0.06813941  1
  Pr3+  Pr15  1  0.38082384  0.26519297  0.94083177  1
  Pr3+  Pr16  1  0.50895936  0.37835193  0.56054242  1
  Pr3+  Pr17  1  0.50393023  0.88757799  0.09692165  1
  Pr3+  Pr18  1  0.13422448  0.25086217  0.43886737  1
  Pr3+  Pr19  1  0.12344232  0.52149115  0.92295344  1
  Pr3+  Pr20  1  0.62648299  0.25831458  0.94793784  1
  Pr3+  Pr21  1  0.25119461  0.38284366  0.05040637  1
  Pr3+  Pr22  1  0.62531073  0.75683242  0.93927808  1
  Pr3+  Pr23  1  0.50366534  0.38192535  0.07290507  1
  Pr3+  Pr24  1  -0.00015662  0.12990014  0.06526447  1
  Pr3+  Pr25  1  0.87137881  0.75649142  0.93614862  1
  Nd3+  Nd26  1  0.38678957  0.00010348  0.43910270  1
  Nd3+  Nd27  1  0.87500353  0.50773858  0.93482883  1
  Nd3+  Nd28  1  0.88447840  0.25502199  0.44684331  1
  Nd3+  Nd29  1  0.01150187  0.38762689  0.06409482  1
  Nd3+  Nd30  1  0.13389170  0.75046753  0.43679588  1
  Nd3+  Nd31  1  0.75724371  0.12539583  0.57072411  1
  Nd3+  Nd32  1  0.13003958  0.76335705  0.94167161  1
  Nd3+  Nd33  1  0.51099575  0.63087510  0.55268178  1
  Nd3+  Nd34  1  0.37771511  0.76230518  0.95843603  1
  Nd3+  Nd35  1  0.38640682  0.25075410  0.44134159  1
  Nd3+  Nd36  1  0.87529098  0.26252603  0.94837444  1
  Nd3+  Nd37  1  0.13451524  -0.00048632  0.43716950  1
  Nd3+  Nd38  1  0.14138314  0.50071459  0.42527853  1
  Nd3+  Nd39  1  0.01167957  0.12541754  0.55459338  1
  Nd3+  Nd40  1  0.75046590  0.39114012  0.07106939  1
  Nd3+  Nd41  1  0.74976965  0.88091476  0.06938112  1
  Nd3+  Nd42  1  0.64878895  0.01362541  0.41434081  1
  Nd3+  Nd43  1  0.24812771  0.63067861  0.06804612  1
  Nd3+  Nd44  1  0.75116536  0.13349948  0.06094485  1
  Sm3+  Sm45  1  0.62534707  0.00791540  0.94355305  1
  Sm3+  Sm46  1  0.26019225  0.12642545  0.55536342  1
  Sm3+  Sm47  1  0.00807530  0.87869426  0.55455855  1
  Sm3+  Sm48  1  0.25875225  0.87712353  0.55583491  1
  Sm3+  Sm49  1  0.38497791  0.75403397  0.43926807  1
  Sm3+  Sm50  1  0.37996135  0.51117399  0.94975193  1
  Sm3+  Sm51  1  0.49876200  0.12933267  0.06360517  1
  Sm3+  Sm52  1  0.25758845  0.38067404  0.55966561  1
  Sm3+  Sm53  1  0.87630842  0.00947879  0.93841751  1
  Sm3+  Sm54  1  0.12674499  0.26041842  0.94159529  1
  Sm3+  Sm55  1  0.88071908  0.00130226  0.44535855  1
  Sm3+  Sm56  1  0.63993421  0.25633141  0.44164025  1
  Sm3+  Sm57  1  0.88572005  0.50793505  0.45015947  1
  Sm3+  Sm58  1  0.51276086  0.87793981  0.55195808  1
  Sm3+  Sm59  1  0.51051848  0.12530460  0.55209921  1
  Sm3+  Sm60  1  0.75733107  0.87299739  0.55437202  1
  Sm3+  Sm61  1  0.25785569  0.62908279  0.55762669  1
  Sm3+  Sm62  1  0.50348484  0.63374995  0.06331003  1
  Sm3+  Sm63  1  0.75958782  0.62430761  0.56399973  1
  Bi2+  Bi64  1  -0.03172478  0.12096708  0.25417981  1
  Bi2+  Bi65  1  -0.02063509  0.08081020  0.81034085  1
  Bi2+  Bi66  1  0.01390776  0.30529748  0.27704518  1
  Bi2+  Bi67  1  -0.00095415  0.34564799  0.80076337  1
  Bi2+  Bi68  1  -0.04168730  0.59774716  0.28504455  1
  Bi2+  Bi69  1  -0.00205603  0.62668333  0.78970210  1
  Bi2+  Bi70  1  -0.00497114  0.85475937  0.28386717  1
  Bi2+  Bi71  1  0.00779233  0.89184283  0.74704453  1
  Bi2+  Bi72  1  0.20372315  0.15637960  0.29782070  1
  Bi2+  Bi73  1  0.22745145  0.11159123  0.78908536  1
  Bi2+  Bi74  1  0.30092578  0.36305076  0.28060070  1
  Bi2+  Bi75  1  0.22396031  0.34376654  0.76859265  1
  Bi2+  Bi76  1  0.22771249  0.63068203  0.30626907  1
  Bi2+  Bi77  1  0.21450231  0.55765244  0.80233660  1
  Bi2+  Bi78  1  0.26389920  0.87892483  0.30281954  1
  Bi2+  Bi79  1  0.27322987  0.84524382  0.79796114  1
  Bi2+  Bi80  1  0.49472094  0.16839843  0.29188500  1
  Bi2+  Bi81  1  0.45966773  0.10175139  0.78341668  1
  Bi2+  Bi82  1  0.50840827  0.37071166  0.29338263  1
  Bi2+  Bi83  1  0.48638006  0.34501864  0.80145264  1
  Bi2+  Bi84  1  0.47691272  0.56164627  0.27192319  1
  Bi2+  Bi85  1  0.48101915  0.70157986  0.79152915  1
  Bi2+  Bi86  1  0.50610606  0.94053001  0.26799855  1
  Bi2+  Bi87  1  0.54305954  0.89461443  0.82332730  1
  Bi2+  Bi88  1  0.76718145  0.14023845  0.28987957  1
  Bi2+  Bi89  1  0.74046507  0.10991603  0.77064530  1
  Bi2+  Bi90  1  0.74395232  0.33143856  0.30446536  1
  Bi2+  Bi91  1  0.74563362  0.37031317  0.79480870  1
  Bi2+  Bi92  1  0.72882805  0.59948014  0.30338624  1
  Bi2+  Bi93  1  0.74776163  0.64764426  0.79078648  1
  Bi2+  Bi94  1  0.78951335  0.88904159  0.28851885  1
  Bi2+  Bi95  1  0.70671536  0.84041088  0.77140281  1
  Bi2+  Bi96  1  0.11262726  0.01103780  0.20953684  1
  Bi2+  Bi97  1  0.15613211  0.00988192  0.70391442  1
  Bi2+  Bi98  1  0.19382346  0.26137127  0.20209064  1
  Bi2+  Bi99  1  0.07530921  0.22119236  0.72557585  1
  Bi2+  Bi100  1  0.09943009  0.50416942  0.19860740  1
  Bi2+  Bi101  1  0.14803240  0.48516257  0.70173339  1
  Bi2+  Bi102  1  0.12456084  0.75029788  0.20227612  1
  Bi2+  Bi103  1  0.15635399  0.77246629  0.71315340  1
  Bi2+  Bi104  1  0.36787044  0.06849806  0.22544616  1
  Bi2+  Bi105  1  0.41119256  -0.07052569  0.73778084  1
  Bi2+  Bi106  1  0.38149941  0.24035480  0.16538431  1
  Bi2+  Bi107  1  0.34732479  0.21973691  0.71651073  1
  Bi2+  Bi108  1  0.41551698  0.42949482  0.19308127  1
  Bi2+  Bi109  1  0.37848609  0.49075397  0.75933133  1
  Bi2+  Bi110  1  0.36079232  0.69329154  0.22472993  1
  Bi2+  Bi111  1  0.32551702  0.67217089  0.72454385  1
  Bi2+  Bi112  1  0.63412645  0.04720585  0.20739639  1
  Bi2+  Bi113  1  0.60987314  0.01557232  0.70752647  1
  Bi2+  Bi114  1  0.61645875  0.24462339  0.21145758  1
  Bi2+  Bi115  1  0.61710543  0.23508935  0.70553940  1
  Bi2+  Bi116  1  0.66090836  0.51123539  0.20729868  1
  Bi2+  Bi117  1  0.60855252  0.50842422  0.69060156  1
  Bi2+  Bi118  1  0.63621042  0.75888945  0.20851539  1
  Bi2+  Bi119  1  0.58050746  0.75484839  0.69719632  1
  Bi2+  Bi120  1  0.89553484  -0.04459371  0.20088414  1
  Bi2+  Bi121  1  0.87517746  0.02841344  0.70221819  1
  Bi2+  Bi122  1  0.82212006  0.23871699  0.19280766  1
  Bi2+  Bi123  1  0.87934826  0.23110843  0.71838101  1
  Bi2+  Bi124  1  0.85517032  0.42850545  0.22823629  1
  Bi2+  Bi125  1  0.89936602  0.44630734  0.71406380  1
  Bi2+  Bi126  1  0.87592044  0.73696741  0.22412121  1
  Bi2+  Bi127  1  0.84972749  0.77203243  0.69483757  1
  S2-  S128  1  0.06441482  0.15312326  0.15758187  1
  S2-  S129  1  0.01628797  0.06638688  0.64710742  1
  S2-  S130  1  -0.02035592  0.39841984  0.16165087  1
  S2-  S131  1  0.02719961  0.39695825  0.64935667  1
  S2-  S132  1  0.00792417  0.63421036  0.15570882  1
  S2-  S133  1  -0.05526158  0.60427163  0.68910359  1
  S2-  S134  1  0.07913521  0.88101947  0.14148732  1
  S2-  S135  1  0.00337012  0.80236329  0.64158468  1
  S2-  S136  1  0.25071404  0.02812127  0.15049383  1
  S2-  S137  1  0.26517471  0.12234521  0.65254039  1
  S2-  S138  1  0.17320533  0.40456547  0.13822036  1
  S2-  S139  1  0.27369108  0.40024160  0.65592043  1
  S2-  S140  1  0.22971919  0.61418027  0.16757947  1
  S2-  S141  1  0.16934772  0.63050405  0.64151094  1
  S2-  S142  1  0.26701056  0.82634190  0.19049466  1
  S2-  S143  1  0.24169141  0.88237156  0.65275050  1
  S2-  S144  1  0.48928171  0.04111824  0.14847285  1
  S2-  S145  1  0.52706430  0.12800288  0.64956508  1
  S2-  S146  1  0.62774437  0.37619965  0.14641372  1
  S2-  S147  1  0.52906417  0.36961217  0.66026121  1
  S2-  S148  1  0.59905209  0.63817642  0.14563018  1
  S2-  S149  1  0.48965846  0.62268277  0.65079291  1
  S2-  S150  1  0.47541803  0.80419577  0.18830805  1
  S2-  S151  1  0.50522637  0.88617654  0.64987669  1
  S2-  S152  1  0.79697477  0.07952633  0.15114742  1
  S2-  S153  1  0.75155044  0.24474010  0.64355322  1
  S2-  S154  1  0.78922262  0.51498136  0.14309098  1
  S2-  S155  1  0.75647412  0.47196549  0.65220594  1
  S2-  S156  1  0.77723586  0.75576419  0.14449781  1
  S2-  S157  1  0.73049155  0.68475806  0.65427081  1
  S2-  S158  1  0.65135813  0.90159344  0.15323718  1
  S2-  S159  1  0.77543169  0.90931118  0.64956621  1
  S2-  S160  1  0.16226448  0.00724434  0.33974016  1
  S2-  S161  1  0.05937204  -0.05929366  0.83694053  1
  S2-  S162  1  0.13158279  0.30785072  0.34405891  1
  S2-  S163  1  0.11747012  0.16682208  0.86055237  1
  S2-  S164  1  0.09022058  0.53858283  0.33013707  1
  S2-  S165  1  -0.00894426  0.50148514  0.85376619  1
  S2-  S166  1  0.13497321  0.77476662  0.33767009  1
  S2-  S167  1  0.11513383  0.67413295  0.85751127  1
  S2-  S168  1  0.38309383  -0.03297806  0.34151890  1
  S2-  S169  1  0.27551742  -0.00643130  0.85856348  1
  S2-  S170  1  0.35103358  0.22670581  0.34528742  1
  S2-  S171  1  0.38017140  0.22243489  0.84522189  1
  S2-  S172  1  0.28639416  0.49494077  0.35750300  1
  S2-  S173  1  0.44573529  0.48519022  0.86137893  1
  S2-  S174  1  0.35569050  0.74443389  0.34218832  1
  S2-  S175  1  0.36075530  0.74018256  0.85932312  1
  S2-  S176  1  0.61234346  -0.09493283  0.33984981  1
  S2-  S177  1  0.58423519  0.05562678  0.85242931  1
  S2-  S178  1  0.63349783  0.16346932  0.35869909  1
  S2-  S179  1  0.62055835  0.29313880  0.85021779  1
  S2-  S180  1  0.64549445  0.45948815  0.34981096  1
  S2-  S181  1  0.61060262  0.46902622  0.78489160  1
  S2-  S182  1  0.58719451  0.68754665  0.31121036  1
  S2-  S183  1  0.62227775  0.66007290  0.85484651  1
  S2-  S184  1  0.80275681  0.01268052  0.35937973  1
  S2-  S185  1  0.83413667  0.01349260  0.84355976  1
  S2-  S186  1  0.88664279  0.26875522  0.34888545  1
  S2-  S187  1  0.86691490  0.27395811  0.84962531  1
  S2-  S188  1  0.86595492  0.51465092  0.35279184  1
  S2-  S189  1  0.77444977  0.50201158  0.85169468  1
  S2-  S190  1  0.79429717  0.74524534  0.35269577  1
  S2-  S191  1  0.87939110  0.72417062  0.83634587  1
  S2-  S192  1  0.00684355  0.12365969  0.44716098  1
  S2-  S193  1  -0.00370315  0.13495850  0.95811339  1
  S2-  S194  1  0.00969555  0.38210219  0.44869752  1
  S2-  S195  1  0.00546889  0.38126851  0.95618531  1
  S2-  S196  1  0.01043698  0.62794229  0.44568667  1
  S2-  S197  1  -0.00163339  0.63832055  0.95480185  1
  S2-  S198  1  0.00585052  0.87814342  0.44845872  1
  S2-  S199  1  -0.00137934  0.88316182  0.94899474  1
  S2-  S200  1  0.25995155  0.12466684  0.45132966  1
  S2-  S201  1  0.25496155  0.14160390  0.96009051  1
  S2-  S202  1  0.26097888  0.37284628  0.45546809  1
  S2-  S203  1  0.24988641  0.38867899  0.94311778  1
  S2-  S204  1  0.26091901  0.63100314  0.45427041  1
  S2-  S205  1  0.25583715  0.63362514  0.96022911  1
  S2-  S206  1  0.26021826  0.87617485  0.45127295  1
  S2-  S207  1  0.25083307  0.88228018  0.96332683  1
  S2-  S208  1  0.51047714  0.12529205  0.45044414  1
  S2-  S209  1  0.49980416  0.13330026  0.95971161  1
  S2-  S210  1  0.51083958  0.37529785  0.45229079  1
  S2-  S211  1  0.50506399  0.38693920  0.96367003  1
  S2-  S212  1  0.51070591  0.63164811  0.44500844  1
  S2-  S213  1  0.49965363  0.63336518  0.96019197  1
  S2-  S214  1  0.51003332  0.87495526  0.44839068  1
  S2-  S215  1  0.50136711  0.88596440  0.95092123  1
  S2-  S216  1  0.76200992  0.13134559  0.46412249  1
  S2-  S217  1  0.75168482  0.13170797  0.95410072  1
  S2-  S218  1  0.76281642  0.37943835  0.46221661  1
  S2-  S219  1  0.74850058  0.38446381  0.96075476  1
  S2-  S220  1  0.75695731  0.62917031  0.45767503  1
  S2-  S221  1  0.74939370  0.63166877  0.95821320  1
  S2-  S222  1  0.75488812  0.87791824  0.45215966  1
  S2-  S223  1  0.74970263  0.88673016  0.95291464  1
  S2-  S224  1  0.12496981  0.01084011  0.03976492  1
  S2-  S225  1  0.13655111  -0.00009724  0.54296427  1
  S2-  S226  1  0.12692706  0.25477483  0.04441193  1
  S2-  S227  1  0.13739990  0.25125288  0.54713843  1
  S2-  S228  1  0.12696162  0.51350751  0.03433725  1
  S2-  S229  1  0.13882000  0.50511415  0.53855491  1
  S2-  S230  1  0.12874635  0.75570250  0.04656440  1
  S2-  S231  1  0.13435378  0.75594481  0.54166434  1
  S2-  S232  1  0.37797208  0.00137584  0.04827414  1
  S2-  S233  1  0.38443148  0.00149404  0.54608910  1
  S2-  S234  1  0.37731044  0.25758043  0.04678329  1
  S2-  S235  1  0.38370039  0.25067534  0.54812732  1
  S2-  S236  1  0.37719507  0.50929070  0.05478439  1
  S2-  S237  1  0.38201466  0.50481276  0.54496531  1
  S2-  S238  1  0.37584196  0.75776926  0.06411624  1
  S2-  S239  1  0.38317876  0.75503978  0.54595710  1
  S2-  S240  1  0.62595655  0.00990480  0.04663080  1
  S2-  S241  1  0.63490939  0.00267126  0.54543329  1
  S2-  S242  1  0.62459043  0.25115486  0.05245642  1
  S2-  S243  1  0.63106318  0.25014250  0.54387940  1
  S2-  S244  1  0.62041342  0.50836883  0.04748849  1
  S2-  S245  1  0.63410233  0.50412707  0.54800140  1
  S2-  S246  1  0.61594666  0.76831505  0.04542164  1
  S2-  S247  1  0.63363065  0.75406156  0.54509961  1
  S2-  S248  1  0.87466426  0.00513152  0.04340334  1
  S2-  S249  1  0.88266875  0.00165441  0.54710994  1
  S2-  S250  1  0.87759712  0.26195349  0.05441692  1
  S2-  S251  1  0.89090737  0.25044100  0.55172785  1
  S2-  S252  1  0.88329396  0.50539244  0.04059824  1
  S2-  S253  1  0.89283837  0.51251894  0.55411882  1
  S2-  S254  1  0.87830283  0.76133707  0.04214245  1
  S2-  S255  1  0.88378254  0.75137667  0.54327485  1
