# generated using pymatgen
data_La6Ce7Pr13Nd19Sm19(BiS2)64
_symmetry_space_group_name_H-M   'P 1'
_cell_length_a   16.04319630
_cell_length_b   16.05624166
_cell_length_c   27.36816018
_cell_angle_alpha   89.99273521
_cell_angle_beta   90.18834920
_cell_angle_gamma   90.05432661
_symmetry_Int_Tables_number   1
_chemical_formula_structural   La6Ce7Pr13Nd19Sm19(BiS2)64
_chemical_formula_sum   'La6 Ce7 Pr13 Nd19 Sm19 Bi64 S128'
_cell_volume   7049.81712573
_cell_formula_units_Z   1
loop_
 _symmetry_equiv_pos_site_id
 _symmetry_equiv_pos_as_xyz
  1  'x, y, z'
loop_
 _atom_type_symbol
 _atom_type_oxidation_number
  La3+  3.0
  Ce3+  3.0
  Pr3+  3.0
  Nd3+  3.0
  Sm3+  3.0
  Bi2+  2.0
  S2-  -2.0
loop_
 _atom_site_type_symbol
 _atom_site_label
 _atom_site_symmetry_multiplicity
 _atom_site_fract_x
 _atom_site_fract_y
 _atom_site_fract_z
 _atom_site_occupancy
  La3+  La0  1  0.50846858  0.37874863  0.57280862  1
  La3+  La1  1  0.63402753  0.00276287  0.88725041  1
  La3+  La2  1  0.50744241  0.62909938  0.57506886  1
  La3+  La3  1  0.50385660  0.63567032  0.10808867  1
  La3+  La4  1  0.25954988  0.38272887  0.61925526  1
  La3+  La5  1  0.50647678  0.12644806  0.57554561  1
  Ce3+  Ce6  1  0.38068873  0.25276623  0.45070357  1
  Ce3+  Ce7  1  0.50676153  0.87715330  0.56543860  1
  Ce3+  Ce8  1  0.12204118  0.76176411  0.43294635  1
  Ce3+  Ce9  1  0.00278343  0.62801297  0.55618755  1
  Ce3+  Ce10  1  0.50922789  0.12864031  0.05848607  1
  Ce3+  Ce11  1  0.88297916  0.00935579  0.93078051  1
  Ce3+  Ce12  1  0.25188187  0.88124384  0.55290366  1
  Pr3+  Pr13  1  0.63484287  0.75594355  0.93399113  1
  Pr3+  Pr14  1  0.24711022  0.63007975  0.56914065  1
  Pr3+  Pr15  1  0.75582924  0.12876432  0.55627861  1
  Pr3+  Pr16  1  0.39246751  0.76018110  0.93350067  1
  Pr3+  Pr17  1  0.75650667  0.88295584  0.05588101  1
  Pr3+  Pr18  1  0.26010837  0.88123436  0.06204351  1
  Pr3+  Pr19  1  0.38447132  0.25776062  0.94038747  1
  Pr3+  Pr20  1  0.00914750  0.88366200  0.05578518  1
  Pr3+  Pr21  1  0.38096113  0.00795062  0.93027078  1
  Pr3+  Pr22  1  0.00311971  0.37712344  0.56570802  1
  Pr3+  Pr23  1  0.75916185  0.13284489  0.05132862  1
  Pr3+  Pr24  1  0.50756402  0.88635413  0.06173025  1
  Pr3+  Pr25  1  0.76010456  0.63576571  0.06606948  1
  Nd3+  Nd26  1  0.61838058  0.50235180  0.43428160  1
  Nd3+  Nd27  1  0.87332919  0.50064255  0.43727750  1
  Nd3+  Nd28  1  0.13652333  0.01233349  0.41885096  1
  Nd3+  Nd29  1  0.87495933  0.75236088  0.43911706  1
  Nd3+  Nd30  1  0.88499646  0.25960050  0.93427608  1
  Nd3+  Nd31  1  0.63052147  0.25622293  0.92877530  1
  Nd3+  Nd32  1  0.12889110  0.50310841  0.44071082  1
  Nd3+  Nd33  1  0.76067031  0.38066349  0.06096889  1
  Nd3+  Nd34  1  0.00151575  0.13046839  0.55432693  1
  Nd3+  Nd35  1  0.61689880  0.25079297  0.43465762  1
  Nd3+  Nd36  1  0.86624811  0.25897521  0.41943929  1
  Nd3+  Nd37  1  0.87982445  0.75842308  0.93154026  1
  Nd3+  Nd38  1  0.87355379  0.00862784  0.42386711  1
  Nd3+  Nd39  1  0.01204424  0.13139072  0.05342130  1
  Nd3+  Nd40  1  0.37842334  0.75162925  0.44345884  1
  Nd3+  Nd41  1  0.38144431  0.00318570  0.43550781  1
  Nd3+  Nd42  1  0.00498015  0.88131730  0.55619040  1
  Nd3+  Nd43  1  0.12876094  0.51693774  0.93323432  1
  Nd3+  Nd44  1  0.24417359  0.12930712  0.56910435  1
  Sm3+  Sm45  1  0.26053660  0.13441300  0.05774132  1
  Sm3+  Sm46  1  0.38530989  0.51062840  0.94202190  1
  Sm3+  Sm47  1  0.26270264  0.63062041  0.05897398  1
  Sm3+  Sm48  1  0.75153706  0.37690360  0.56046520  1
  Sm3+  Sm49  1  0.51834497  0.38378340  0.06655594  1
  Sm3+  Sm50  1  0.75391338  0.62634824  0.56310357  1
  Sm3+  Sm51  1  0.63282908  0.50756294  0.94144763  1
  Sm3+  Sm52  1  0.62917289  0.74725173  0.43914398  1
  Sm3+  Sm53  1  0.37719688  0.50102029  0.45108067  1
  Sm3+  Sm54  1  0.00732515  0.38360701  0.06595076  1
  Sm3+  Sm55  1  0.00715583  0.63079291  0.06799368  1
  Sm3+  Sm56  1  0.62586529  -0.00077705  0.43745973  1
  Sm3+  Sm57  1  0.88268309  0.50751144  0.94445481  1
  Sm3+  Sm58  1  0.13383771  0.75555413  0.94363115  1
  Sm3+  Sm59  1  0.13606170  0.00712248  0.93172159  1
  Sm3+  Sm60  1  0.13328956  0.26206819  0.94622954  1
  Sm3+  Sm61  1  0.12874440  0.25442905  0.44057429  1
  Sm3+  Sm62  1  0.75797997  0.87811852  0.56096694  1
  Sm3+  Sm63  1  0.26159120  0.38524737  0.05662911  1
  Bi2+  Bi64  1  0.01454337  0.16212440  0.27867448  1
  Bi2+  Bi65  1  0.01559267  0.05256973  0.79897350  1
  Bi2+  Bi66  1  0.01100618  0.42927006  0.28401166  1
  Bi2+  Bi67  1  -0.02699289  0.34722342  0.78537648  1
  Bi2+  Bi68  1  -0.00749986  0.64755129  0.29607059  1
  Bi2+  Bi69  1  -0.06066338  0.63605222  0.79043290  1
  Bi2+  Bi70  1  -0.03443044  0.93888134  0.27811255  1
  Bi2+  Bi71  1  0.06372705  0.86909768  0.82935865  1
  Bi2+  Bi72  1  0.22315247  0.23970509  0.28105799  1
  Bi2+  Bi73  1  0.19683525  0.12212469  0.78130933  1
  Bi2+  Bi74  1  0.35241114  0.35837164  0.33083039  1
  Bi2+  Bi75  1  0.26752453  0.35594398  0.82604108  1
  Bi2+  Bi76  1  0.20952563  0.55997417  0.28597287  1
  Bi2+  Bi77  1  0.20603960  0.60444880  0.79606398  1
  Bi2+  Bi78  1  0.22990406  0.85624042  0.30528674  1
  Bi2+  Bi79  1  0.25588499  0.86512725  0.79601046  1
  Bi2+  Bi80  1  0.47203886  0.13557073  0.26802209  1
  Bi2+  Bi81  1  0.50987164  0.14026244  0.78445372  1
  Bi2+  Bi82  1  0.50002802  0.33485418  0.25159161  1
  Bi2+  Bi83  1  0.59304172  0.39753588  0.80585102  1
  Bi2+  Bi84  1  0.50578852  0.64752330  0.32556067  1
  Bi2+  Bi85  1  0.47671342  0.63256377  0.81094554  1
  Bi2+  Bi86  1  0.47607650  0.88984838  0.30005737  1
  Bi2+  Bi87  1  0.47514653  0.87818159  0.77418098  1
  Bi2+  Bi88  1  0.75566176  0.13047989  0.28902282  1
  Bi2+  Bi89  1  0.80286811  0.12822961  0.77276385  1
  Bi2+  Bi90  1  0.75088016  0.39027031  0.28490573  1
  Bi2+  Bi91  1  0.78299649  0.40641708  0.78888873  1
  Bi2+  Bi92  1  0.79953260  0.60558811  0.29274024  1
  Bi2+  Bi93  1  0.75657498  0.68980395  0.76024071  1
  Bi2+  Bi94  1  0.74475991  0.87278580  0.28731725  1
  Bi2+  Bi95  1  0.87031654  0.85006508  0.79765997  1
  Bi2+  Bi96  1  0.10170149  0.02276276  0.21064548  1
  Bi2+  Bi97  1  0.08764636  -0.05920664  0.68158194  1
  Bi2+  Bi98  1  0.08974167  0.30889751  0.20302732  1
  Bi2+  Bi99  1  0.04618710  0.21618596  0.71070294  1
  Bi2+  Bi100  1  0.07628250  0.50116418  0.17117506  1
  Bi2+  Bi101  1  0.02376627  0.49962175  0.71358510  1
  Bi2+  Bi102  1  0.12288283  0.68056636  0.20769653  1
  Bi2+  Bi103  1  0.10208653  0.75543756  0.73420616  1
  Bi2+  Bi104  1  0.35919247  0.00151248  0.20199456  1
  Bi2+  Bi105  1  0.27191048  -0.00532677  0.71019151  1
  Bi2+  Bi106  1  0.35174780  0.23265594  0.19252477  1
  Bi2+  Bi107  1  0.37982303  0.25001047  0.72006530  1
  Bi2+  Bi108  1  0.34059504  0.46034227  0.23241970  1
  Bi2+  Bi109  1  0.38445824  0.50503119  0.72580742  1
  Bi2+  Bi110  1  0.37525214  0.75103826  0.21136534  1
  Bi2+  Bi111  1  0.29604516  0.71302457  0.71018134  1
  Bi2+  Bi112  1  0.61801422  0.00919578  0.23892849  1
  Bi2+  Bi113  1  0.62378072  0.00121410  0.69325213  1
  Bi2+  Bi114  1  0.61742696  0.19502525  0.19402965  1
  Bi2+  Bi115  1  0.69280964  0.26850964  0.71760856  1
  Bi2+  Bi116  1  0.63781707  0.46881396  0.20297616  1
  Bi2+  Bi117  1  0.64970614  0.50396304  0.71660800  1
  Bi2+  Bi118  1  0.64256535  0.75899985  0.21090741  1
  Bi2+  Bi119  1  0.58699513  0.75563172  0.69908775  1
  Bi2+  Bi120  1  0.86458781  0.00242667  0.18553517  1
  Bi2+  Bi121  1  0.89552482  -0.00568583  0.71225933  1
  Bi2+  Bi122  1  0.88182651  0.28469063  0.22523999  1
  Bi2+  Bi123  1  0.87798554  0.27917179  0.66895287  1
  Bi2+  Bi124  1  0.87778857  0.51226199  0.20218567  1
  Bi2+  Bi125  1  0.84585163  0.47762549  0.66755837  1
  Bi2+  Bi126  1  0.94758011  0.77492400  0.21046347  1
  Bi2+  Bi127  1  0.89516846  0.67145825  0.67744812  1
  S2-  S128  1  -0.00820989  0.11017461  0.15060599  1
  S2-  S129  1  0.09207007  0.10398719  0.63884948  1
  S2-  S130  1  -0.11791863  0.36729869  0.13707875  1
  S2-  S131  1  0.09110266  0.37845707  0.65341297  1
  S2-  S132  1  -0.10968925  0.65272690  0.13998566  1
  S2-  S133  1  0.06500977  0.64767792  0.64641546  1
  S2-  S134  1  0.04218876  0.88927248  0.15358789  1
  S2-  S135  1  -0.06949643  0.87019252  0.64637212  1
  S2-  S136  1  0.23786627  0.09931626  0.15299812  1
  S2-  S137  1  0.27026291  0.21493861  0.65497937  1
  S2-  S138  1  0.27355438  0.37553015  0.15434963  1
  S2-  S139  1  0.26263874  0.38129763  0.73118560  1
  S2-  S140  1  0.33496748  0.63814553  0.14807303  1
  S2-  S141  1  0.26528453  0.55262360  0.65923487  1
  S2-  S142  1  0.27712199  0.87071015  0.16287085  1
  S2-  S143  1  0.25199553  0.85152944  0.64897463  1
  S2-  S144  1  0.48316199  0.02280375  0.13555991  1
  S2-  S145  1  0.49466300  0.14012603  0.67677252  1
  S2-  S146  1  0.49281763  0.47347074  0.14975463  1
  S2-  S147  1  0.42743257  0.38802888  0.66290449  1
  S2-  S148  1  0.51195992  0.64506176  0.23072455  1
  S2-  S149  1  0.44855852  0.66629028  0.67171201  1
  S2-  S150  1  0.50816364  0.79952942  0.15130417  1
  S2-  S151  1  0.48875961  0.89889977  0.66339633  1
  S2-  S152  1  0.76756953  0.12101116  0.15221082  1
  S2-  S153  1  0.71216749  0.12532621  0.65334044  1
  S2-  S154  1  0.65102721  0.34357636  0.13701531  1
  S2-  S155  1  0.64628746  0.37664182  0.64206342  1
  S2-  S156  1  0.66796712  0.62748042  0.15232675  1
  S2-  S157  1  0.64871810  0.62708956  0.64207572  1
  S2-  S158  1  0.75662220  0.86584009  0.15682698  1
  S2-  S159  1  0.70134651  0.87090851  0.65313343  1
  S2-  S160  1  0.08847993  -0.11148811  0.35032151  1
  S2-  S161  1  0.25030370  0.00853778  0.85810873  1
  S2-  S162  1  0.13591506  0.15931514  0.35655497  1
  S2-  S163  1  0.14640184  0.23945918  0.85015550  1
  S2-  S164  1  0.14059764  0.43544407  0.34855717  1
  S2-  S165  1  0.14350345  0.45834624  0.83870402  1
  S2-  S166  1  0.14605706  0.68885425  0.34507169  1
  S2-  S167  1  0.10532658  0.65489717  0.86590510  1
  S2-  S168  1  0.27695581  -0.01090593  0.35036814  1
  S2-  S169  1  0.47001885  0.00528639  0.84294024  1
  S2-  S170  1  0.47525153  0.24679365  0.36795500  1
  S2-  S171  1  0.39985132  0.23129357  0.84000021  1
  S2-  S172  1  0.47196706  0.49880424  0.36648711  1
  S2-  S173  1  0.38797833  0.48600976  0.84348280  1
  S2-  S174  1  0.36379540  0.75735299  0.34220760  1
  S2-  S175  1  0.32815575  0.70660877  0.84261005  1
  S2-  S176  1  0.50671587  0.00851212  0.36293390  1
  S2-  S177  1  0.62720899  -0.06564441  0.78516569  1
  S2-  S178  1  0.71398846  0.25216533  0.35029692  1
  S2-  S179  1  0.63778183  0.16483480  0.84329310  1
  S2-  S180  1  0.66371964  0.59895996  0.35410314  1
  S2-  S181  1  0.62204361  0.55739168  0.84672370  1
  S2-  S182  1  0.59794140  0.79944337  0.34548807  1
  S2-  S183  1  0.52436929  0.77188459  0.85256614  1
  S2-  S184  1  0.73696677  -0.00849493  0.35734829  1
  S2-  S185  1  0.79997402  0.00056210  0.84509615  1
  S2-  S186  1  0.89605809  0.13419440  0.35066241  1
  S2-  S187  1  0.89478290  0.22292220  0.83723230  1
  S2-  S188  1  0.88058577  0.39876519  0.35604299  1
  S2-  S189  1  0.90382407  0.49631734  0.84738549  1
  S2-  S190  1  0.84237950  0.76133746  0.34142720  1
  S2-  S191  1  0.76053458  0.75448109  0.85756235  1
  S2-  S192  1  0.00319962  0.13020645  0.45199795  1
  S2-  S193  1  0.01313053  0.13317285  0.94752419  1
  S2-  S194  1  0.00372354  0.37543721  0.45576420  1
  S2-  S195  1  0.00939744  0.38488095  0.95630506  1
  S2-  S196  1  -0.00067453  0.62565356  0.44835765  1
  S2-  S197  1  0.00008617  0.63451897  0.96378193  1
  S2-  S198  1  -0.00838899  0.88365377  0.45170941  1
  S2-  S199  1  0.00956218  0.88195586  0.94974148  1
  S2-  S200  1  0.25765650  0.12977224  0.46040037  1
  S2-  S201  1  0.25456533  0.13732802  0.95470842  1
  S2-  S202  1  0.25461009  0.37758150  0.45390766  1
  S2-  S203  1  0.25761929  0.38620808  0.95310265  1
  S2-  S204  1  0.25364855  0.62657285  0.45771842  1
  S2-  S205  1  0.26036750  0.63266709  0.95668338  1
  S2-  S206  1  0.25398746  0.87679536  0.45055142  1
  S2-  S207  1  0.25553158  0.87685815  0.95460192  1
  S2-  S208  1  0.50423195  0.12262265  0.46729698  1
  S2-  S209  1  0.50936597  0.13176220  0.95185871  1
  S2-  S210  1  0.50164863  0.37905281  0.46645219  1
  S2-  S211  1  0.50891274  0.38450395  0.95468536  1
  S2-  S212  1  0.50254859  0.63052374  0.46459514  1
  S2-  S213  1  0.50905675  0.62770928  0.95084470  1
  S2-  S214  1  0.50479106  0.87318576  0.45958204  1
  S2-  S215  1  0.51414647  0.89078925  0.95288816  1
  S2-  S216  1  0.74832738  0.12855901  0.45234075  1
  S2-  S217  1  0.75909406  0.13532360  0.94590268  1
  S2-  S218  1  0.74341934  0.38036860  0.45609580  1
  S2-  S219  1  0.75810672  0.38173197  0.94892287  1
  S2-  S220  1  0.75388111  0.62654909  0.45950532  1
  S2-  S221  1  0.76069354  0.62757260  0.95690809  1
  S2-  S222  1  0.75041866  0.87440940  0.45577922  1
  S2-  S223  1  0.75592593  0.88960852  0.95010232  1
  S2-  S224  1  0.13745504  0.00868800  0.03896334  1
  S2-  S225  1  0.12802466  0.00272137  0.53249545  1
  S2-  S226  1  0.13504519  0.26085559  0.05138456  1
  S2-  S227  1  0.12696306  0.25417149  0.54399256  1
  S2-  S228  1  0.13429655  0.50753315  0.04307254  1
  S2-  S229  1  0.12787038  0.50223295  0.54697044  1
  S2-  S230  1  0.13359907  0.75205928  0.04893980  1
  S2-  S231  1  0.12593457  0.75543089  0.54038221  1
  S2-  S232  1  0.37556073  0.00966528  0.03692014  1
  S2-  S233  1  0.37748440  0.00440482  0.55136295  1
  S2-  S234  1  0.38576420  0.26001450  0.04778445  1
  S2-  S235  1  0.37925998  0.25300137  0.55486260  1
  S2-  S236  1  0.38479533  0.50572921  0.04526052  1
  S2-  S237  1  0.37696983  0.50501561  0.55400509  1
  S2-  S238  1  0.38353330  0.75539002  0.04226509  1
  S2-  S239  1  0.37750790  0.75311603  0.55014584  1
  S2-  S240  1  0.63595741  0.00963579  0.04841796  1
  S2-  S241  1  0.63154955  0.00018611  0.54467275  1
  S2-  S242  1  0.63196906  0.25503226  0.03392177  1
  S2-  S243  1  0.62983227  0.25065605  0.54346123  1
  S2-  S244  1  0.63762017  0.50575723  0.04418503  1
  S2-  S245  1  0.63250937  0.50446644  0.54107687  1
  S2-  S246  1  0.63220381  0.75696659  0.04312904  1
  S2-  S247  1  0.63314334  0.75489428  0.54377316  1
  S2-  S248  1  0.88602335  0.00842056  0.03866504  1
  S2-  S249  1  0.87807825  0.00331845  0.54066885  1
  S2-  S250  1  0.88887049  0.25618026  0.03877625  1
  S2-  S251  1  0.87655326  0.25583818  0.53594860  1
  S2-  S252  1  0.88644707  0.50655237  0.04567709  1
  S2-  S253  1  0.87619651  0.50176325  0.54254708  1
  S2-  S254  1  0.88554156  0.76085635  0.03800322  1
  S2-  S255  1  0.87604273  0.75151514  0.54406945  1
