# generated using pymatgen
data_La6Ce7Pr13Nd19Sm19(BiS2)64
_symmetry_space_group_name_H-M   'P 1'
_cell_length_a   16.02138866
_cell_length_b   16.08030460
_cell_length_c   27.62206286
_cell_angle_alpha   90.28336515
_cell_angle_beta   90.09943672
_cell_angle_gamma   90.20209799
_symmetry_Int_Tables_number   1
_chemical_formula_structural   La6Ce7Pr13Nd19Sm19(BiS2)64
_chemical_formula_sum   'La6 Ce7 Pr13 Nd19 Sm19 Bi64 S128'
_cell_volume   7116.09694546
_cell_formula_units_Z   1
loop_
 _symmetry_equiv_pos_site_id
 _symmetry_equiv_pos_as_xyz
  1  'x, y, z'
loop_
 _atom_type_symbol
 _atom_type_oxidation_number
  La3+  3.0
  Ce3+  3.0
  Pr3+  3.0
  Nd3+  3.0
  Sm3+  3.0
  Bi2+  2.0
  S2-  -2.0
loop_
 _atom_site_type_symbol
 _atom_site_label
 _atom_site_symmetry_multiplicity
 _atom_site_fract_x
 _atom_site_fract_y
 _atom_site_fract_z
 _atom_site_occupancy
  La3+  La0  1  0.01788096  0.86140157  0.09446309  1
  La3+  La1  1  0.51301752  0.13443759  0.57775198  1
  La3+  La2  1  0.02380072  0.12554878  0.09456265  1
  La3+  La3  1  0.62893329  0.25700979  0.39050687  1
  La3+  La4  1  0.51490059  0.86938409  0.07835111  1
  La3+  La5  1  0.34195207  0.50033245  0.88263157  1
  Ce3+  Ce6  1  0.51317048  0.12053661  0.06143812  1
  Ce3+  Ce7  1  0.76350520  0.36790451  0.05250709  1
  Ce3+  Ce8  1  0.76740621  0.86936307  0.05922096  1
  Ce3+  Ce9  1  0.00854865  0.36845180  0.05924012  1
  Ce3+  Ce10  1  0.38836253  -0.00741959  0.94522597  1
  Ce3+  Ce11  1  0.50376358  0.64095522  0.57981620  1
  Ce3+  Ce12  1  0.38254667  0.51002141  0.44986464  1
  Pr3+  Pr13  1  0.38598935  0.01563674  0.43712965  1
  Pr3+  Pr14  1  0.25410965  0.38247451  0.56186522  1
  Pr3+  Pr15  1  0.25302102  0.88657319  0.54806202  1
  Pr3+  Pr16  1  0.88163968  0.75848610  0.43182547  1
  Pr3+  Pr17  1  0.89192955  -0.00975091  0.94579327  1
  Pr3+  Pr18  1  0.88005923  0.50793809  0.43349481  1
  Pr3+  Pr19  1  0.89098790  0.73444794  0.93292892  1
  Pr3+  Pr20  1  0.00012847  0.13948459  0.57202071  1
  Pr3+  Pr21  1  0.63198034  0.00935170  0.43123732  1
  Pr3+  Pr22  1  0.13107772  0.50991867  0.44889772  1
  Pr3+  Pr23  1  0.75392641  0.88336628  0.55645082  1
  Pr3+  Pr24  1  0.26671332  0.62015135  0.06631338  1
  Pr3+  Pr25  1  0.88240474  0.24085076  0.93559743  1
  Nd3+  Nd26  1  0.50949647  0.38466146  0.56997387  1
  Nd3+  Nd27  1  0.50470853  0.88786338  0.56059900  1
  Nd3+  Nd28  1  0.26369375  0.36875536  0.05794232  1
  Nd3+  Nd29  1  0.88479537  0.26171504  0.42438874  1
  Nd3+  Nd30  1  0.38174667  0.75729661  0.43495166  1
  Nd3+  Nd31  1  0.62336753  0.50827324  0.43724250  1
  Nd3+  Nd32  1  0.25337758  0.63926454  0.56954025  1
  Nd3+  Nd33  1  0.00278268  0.88505770  0.55189887  1
  Nd3+  Nd34  1  0.14327785  0.74108419  0.94036299  1
  Nd3+  Nd35  1  0.51435710  0.36802913  0.06358599  1
  Nd3+  Nd36  1  0.25402421  0.13652135  0.55095125  1
  Nd3+  Nd37  1  0.62445212  0.49121377  0.93417607  1
  Nd3+  Nd38  1  -0.00397561  0.38268010  0.56857999  1
  Nd3+  Nd39  1  0.76654932  0.11754822  0.06646213  1
  Nd3+  Nd40  1  0.75587229  0.38319001  0.54706298  1
  Nd3+  Nd41  1  0.12741461  0.01253009  0.43456629  1
  Nd3+  Nd42  1  0.12759711  0.26171993  0.43968833  1
  Nd3+  Nd43  1  0.12913101  0.75720428  0.43568394  1
  Nd3+  Nd44  1  0.62373905  0.76006561  0.42758156  1
  Sm3+  Sm45  1  0.63524627  0.74348968  0.94819223  1
  Sm3+  Sm46  1  0.51299484  0.61630642  0.06005918  1
  Sm3+  Sm47  1  0.63579881  -0.00996947  0.94637981  1
  Sm3+  Sm48  1  0.39374223  0.24900043  0.93320210  1
  Sm3+  Sm49  1  0.88589438  0.49404378  0.94037214  1
  Sm3+  Sm50  1  0.25998046  0.12061754  0.05230811  1
  Sm3+  Sm51  1  0.87724405  0.01570639  0.43388522  1
  Sm3+  Sm52  1  0.00546144  0.63769732  0.56806096  1
  Sm3+  Sm53  1  0.13613610  -0.00679253  0.94536981  1
  Sm3+  Sm54  1  0.38791606  0.26170086  0.44363649  1
  Sm3+  Sm55  1  0.75787760  0.13457500  0.56141462  1
  Sm3+  Sm56  1  0.63777575  0.23827169  0.93550763  1
  Sm3+  Sm57  1  0.01268726  0.62006657  0.06319608  1
  Sm3+  Sm58  1  0.38922237  0.74219425  0.94433494  1
  Sm3+  Sm59  1  0.13802626  0.24705815  0.94040002  1
  Sm3+  Sm60  1  0.13527634  0.49349485  0.95418916  1
  Sm3+  Sm61  1  0.26719160  0.87249918  0.06761022  1
  Sm3+  Sm62  1  0.76328627  0.61971567  0.05443421  1
  Sm3+  Sm63  1  0.75345330  0.63631316  0.54936506  1
  Bi2+  Bi64  1  -0.02865762  0.12593200  0.29811767  1
  Bi2+  Bi65  1  -0.08400361  0.20178060  0.80621461  1
  Bi2+  Bi66  1  0.02353057  0.37959688  0.29157577  1
  Bi2+  Bi67  1  -0.08073020  0.41259126  0.81690402  1
  Bi2+  Bi68  1  0.00283631  0.62668482  0.29373662  1
  Bi2+  Bi69  1  -0.00562962  0.61676936  0.71059531  1
  Bi2+  Bi70  1  -0.02328771  0.88159131  0.29650689  1
  Bi2+  Bi71  1  -0.01479657  0.90875427  0.81024297  1
  Bi2+  Bi72  1  0.26281828  0.16009643  0.28431071  1
  Bi2+  Bi73  1  0.28294406  0.12057286  0.75301548  1
  Bi2+  Bi74  1  0.28514274  0.38224151  0.28863907  1
  Bi2+  Bi75  1  0.19862739  0.37103911  0.78929980  1
  Bi2+  Bi76  1  0.24865136  0.58614052  0.31892424  1
  Bi2+  Bi77  1  0.20371242  0.63817872  0.79638016  1
  Bi2+  Bi78  1  0.22615619  0.88153976  0.28082792  1
  Bi2+  Bi79  1  0.20855538  0.87761256  0.80585865  1
  Bi2+  Bi80  1  0.46912706  0.12762427  0.28736593  1
  Bi2+  Bi81  1  0.50659904  0.10006282  0.79264495  1
  Bi2+  Bi82  1  0.48942836  0.39369814  0.29038707  1
  Bi2+  Bi83  1  0.47743673  0.35079234  0.79633379  1
  Bi2+  Bi84  1  0.60685551  0.61517798  0.30788505  1
  Bi2+  Bi85  1  0.51427562  0.65667899  0.78304031  1
  Bi2+  Bi86  1  0.50518304  0.87758158  0.29701455  1
  Bi2+  Bi87  1  0.51323459  0.90174149  0.80756632  1
  Bi2+  Bi88  1  0.72573755  0.11695680  0.27187599  1
  Bi2+  Bi89  1  0.68610141  0.11369008  0.74209348  1
  Bi2+  Bi90  1  0.80032613  0.44668005  0.27164246  1
  Bi2+  Bi91  1  0.72561265  0.37149801  0.81085015  1
  Bi2+  Bi92  1  0.80506670  0.62265978  0.32151281  1
  Bi2+  Bi93  1  0.76853310  0.57273741  0.80715641  1
  Bi2+  Bi94  1  0.68775517  0.86052345  0.25497724  1
  Bi2+  Bi95  1  0.73250262  0.77335422  0.78476068  1
  Bi2+  Bi96  1  0.13072956  0.00891060  0.21295119  1
  Bi2+  Bi97  1  0.09961102  -0.00052215  0.73511456  1
  Bi2+  Bi98  1  0.15591816  0.25348292  0.20968041  1
  Bi2+  Bi99  1  0.09251356  0.19072264  0.75097029  1
  Bi2+  Bi100  1  0.17152801  0.49430102  0.21639529  1
  Bi2+  Bi101  1  0.01929959  0.42208128  0.71890808  1
  Bi2+  Bi102  1  0.13638497  0.74807559  0.21656954  1
  Bi2+  Bi103  1  0.12586474  0.79251570  0.70020683  1
  Bi2+  Bi104  1  0.33873564  0.00124608  0.21423458  1
  Bi2+  Bi105  1  0.35550349  -0.04441263  0.70831462  1
  Bi2+  Bi106  1  0.37915974  0.26043616  0.21283703  1
  Bi2+  Bi107  1  0.34061191  0.26451205  0.69109746  1
  Bi2+  Bi108  1  0.36520787  0.56896614  0.22240282  1
  Bi2+  Bi109  1  0.38093727  0.49920280  0.68751011  1
  Bi2+  Bi110  1  0.35715495  0.73833038  0.28404119  1
  Bi2+  Bi111  1  0.36862457  0.78333266  0.76068723  1
  Bi2+  Bi112  1  0.53008587  -0.02684661  0.19687436  1
  Bi2+  Bi113  1  0.62299720  -0.05344338  0.68595495  1
  Bi2+  Bi114  1  0.63205877  0.27207588  0.18311872  1
  Bi2+  Bi115  1  0.61852293  0.29727283  0.72233683  1
  Bi2+  Bi116  1  0.64546427  0.51549253  0.21058377  1
  Bi2+  Bi117  1  0.60894759  0.49966760  0.73909196  1
  Bi2+  Bi118  1  0.59684583  0.70786475  0.20808331  1
  Bi2+  Bi119  1  0.63469436  0.70177306  0.69782159  1
  Bi2+  Bi120  1  0.83374311  -0.00886639  0.19738508  1
  Bi2+  Bi121  1  0.87139218  0.04394881  0.74146876  1
  Bi2+  Bi122  1  0.89297073  0.31285385  0.21214091  1
  Bi2+  Bi123  1  0.87217574  0.25171080  0.69592942  1
  Bi2+  Bi124  1  0.96953169  0.50140444  0.19392053  1
  Bi2+  Bi125  1  0.83371013  0.50324847  0.70296397  1
  Bi2+  Bi126  1  0.87301926  0.67339434  0.21355038  1
  Bi2+  Bi127  1  0.87402753  0.77088761  0.70430291  1
  S2-  S128  1  -0.02195708  0.08900719  0.19288656  1
  S2-  S129  1  -0.12629972  0.10926056  0.64066187  1
  S2-  S130  1  0.02015600  0.28497163  0.14354662  1
  S2-  S131  1  0.01825803  0.27369636  0.64412687  1
  S2-  S132  1  0.01453043  0.70502289  0.14709458  1
  S2-  S133  1  0.12562700  0.64733930  0.64070991  1
  S2-  S134  1  -0.05021307  0.88156511  0.19168240  1
  S2-  S135  1  -0.00509236  0.85487524  0.64877346  1
  S2-  S136  1  0.18679034  0.11942559  0.14071998  1
  S2-  S137  1  0.24370959  0.13920197  0.64852642  1
  S2-  S138  1  0.26822870  0.35147734  0.15538684  1
  S2-  S139  1  0.24156593  0.39857135  0.66043740  1
  S2-  S140  1  0.23200238  0.63342084  0.16408462  1
  S2-  S141  1  0.36611938  0.64365297  0.64498387  1
  S2-  S142  1  0.16760845  0.87171588  0.14772869  1
  S2-  S143  1  0.24902021  0.86545374  0.64649042  1
  S2-  S144  1  0.52170124  0.13735128  0.15732281  1
  S2-  S145  1  0.47088858  -0.00125419  0.64251019  1
  S2-  S146  1  0.53168711  0.40484289  0.16101265  1
  S2-  S147  1  0.49489863  0.26892615  0.64835249  1
  S2-  S148  1  0.46651751  0.65403081  0.15140442  1
  S2-  S149  1  0.53729903  0.50529295  0.64389123  1
  S2-  S150  1  0.38909499  0.88185677  0.14711637  1
  S2-  S151  1  0.53280190  0.78635549  0.63981670  1
  S2-  S152  1  0.75197071  0.14070526  0.16419494  1
  S2-  S153  1  0.65749908  0.10153080  0.64146327  1
  S2-  S154  1  0.76563894  0.36939998  0.14839548  1
  S2-  S155  1  0.78836044  0.37077039  0.64458371  1
  S2-  S156  1  0.74743834  0.62485627  0.15158019  1
  S2-  S157  1  0.78362703  0.64851269  0.64487073  1
  S2-  S158  1  0.71432730  0.88432874  0.14992410  1
  S2-  S159  1  0.76482402  0.88623692  0.65690648  1
  S2-  S160  1  0.08630517  0.01004525  0.33918402  1
  S2-  S161  1  0.12663878  0.00902577  0.84768993  1
  S2-  S162  1  0.04963009  0.24893725  0.35268288  1
  S2-  S163  1  0.12073711  0.26360977  0.84328981  1
  S2-  S164  1  0.09295798  0.51019569  0.35244775  1
  S2-  S165  1  0.16172550  0.50440164  0.85837398  1
  S2-  S166  1  0.07616288  0.75914685  0.34267305  1
  S2-  S167  1  0.10474622  0.73779137  0.84305196  1
  S2-  S168  1  0.39561392  -0.00026984  0.33921356  1
  S2-  S169  1  0.38963792  0.00417688  0.84949045  1
  S2-  S170  1  0.45943818  0.26167935  0.35468541  1
  S2-  S171  1  0.33411456  0.32442036  0.84923793  1
  S2-  S172  1  0.39154269  0.49601176  0.35341670  1
  S2-  S173  1  0.32294191  0.50645934  0.77601043  1
  S2-  S174  1  0.49256317  0.72423694  0.36028853  1
  S2-  S175  1  0.33915120  0.67782606  0.85879222  1
  S2-  S176  1  0.61339736  0.09816089  0.34474754  1
  S2-  S177  1  0.62913026  0.00646377  0.84969837  1
  S2-  S178  1  0.65280160  0.26296986  0.27768701  1
  S2-  S179  1  0.52092467  0.22793065  0.86122005  1
  S2-  S180  1  0.61400798  0.42310970  0.35089494  1
  S2-  S181  1  0.51388645  0.48457760  0.85689851  1
  S2-  S182  1  0.64617552  0.88279008  0.35515869  1
  S2-  S183  1  0.58815072  0.75193977  0.85455411  1
  S2-  S184  1  0.87283190  -0.00018414  0.33567995  1
  S2-  S185  1  0.87971250  0.02541873  0.84743371  1
  S2-  S186  1  0.83128695  0.19527372  0.33602592  1
  S2-  S187  1  0.75654774  0.22826813  0.86178040  1
  S2-  S188  1  0.88769117  0.39945164  0.35483885  1
  S2-  S189  1  0.91086231  0.58813253  0.86119214  1
  S2-  S190  1  0.85849201  0.79367962  0.33503116  1
  S2-  S191  1  0.86577406  0.80624193  0.84330456  1
  S2-  S192  1  0.00356600  0.13352543  0.45639352  1
  S2-  S193  1  0.01581526  0.12091858  0.94923104  1
  S2-  S194  1  0.00457646  0.38547628  0.46201753  1
  S2-  S195  1  0.01028527  0.36929829  0.95323832  1
  S2-  S196  1  0.00400294  0.63387815  0.45770668  1
  S2-  S197  1  0.01697530  0.61759395  0.96161553  1
  S2-  S198  1  0.00439318  0.88721586  0.44774798  1
  S2-  S199  1  0.01700234  0.86526141  0.95057655  1
  S2-  S200  1  0.25534090  0.13890153  0.44475867  1
  S2-  S201  1  0.26268318  0.12351107  0.94844481  1
  S2-  S202  1  0.25669895  0.38168292  0.45378689  1
  S2-  S203  1  0.26308917  0.37241228  0.95488238  1
  S2-  S204  1  0.25544074  0.63708869  0.45838066  1
  S2-  S205  1  0.26433324  0.61240096  0.96177549  1
  S2-  S206  1  0.25482698  0.88533271  0.44186543  1
  S2-  S207  1  0.26355405  0.86844878  0.95814891  1
  S2-  S208  1  0.50899164  0.13986771  0.45595250  1
  S2-  S209  1  0.51384844  0.11482542  0.95868664  1
  S2-  S210  1  0.50536933  0.38425142  0.46266587  1
  S2-  S211  1  0.51771299  0.36014750  0.96060533  1
  S2-  S212  1  0.50447154  0.63339255  0.46446233  1
  S2-  S213  1  0.51119305  0.62225759  0.95800939  1
  S2-  S214  1  0.50150476  0.88510099  0.45454004  1
  S2-  S215  1  0.51153912  0.86719750  0.96431268  1
  S2-  S216  1  0.75527819  0.13768051  0.45044961  1
  S2-  S217  1  0.76086414  0.11084103  0.96080690  1
  S2-  S218  1  0.74943558  0.38055773  0.44508026  1
  S2-  S219  1  0.75883592  0.37391042  0.95085064  1
  S2-  S220  1  0.75139769  0.63442904  0.44672094  1
  S2-  S221  1  0.75567112  0.61616900  0.95195637  1
  S2-  S222  1  0.76174035  0.88500497  0.45162069  1
  S2-  S223  1  0.76101280  0.86646440  0.95425201  1
  S2-  S224  1  0.13496576  -0.00612009  0.04703462  1
  S2-  S225  1  0.12539151  0.01354460  0.54230979  1
  S2-  S226  1  0.13694065  0.24486317  0.04182562  1
  S2-  S227  1  0.12733827  0.25966780  0.54297655  1
  S2-  S228  1  0.13582552  0.49394171  0.05782453  1
  S2-  S229  1  0.12459464  0.50583769  0.55279209  1
  S2-  S230  1  0.14034407  0.74419683  0.04609480  1
  S2-  S231  1  0.12611762  0.76051208  0.53955035  1
  S2-  S232  1  0.38527507  -0.00064040  0.04919424  1
  S2-  S233  1  0.37604349  0.01385296  0.54034789  1
  S2-  S234  1  0.38608284  0.24318611  0.04510141  1
  S2-  S235  1  0.37989000  0.25862968  0.54524314  1
  S2-  S236  1  0.39025836  0.49227291  0.05843883  1
  S2-  S237  1  0.37782016  0.50805852  0.55114588  1
  S2-  S238  1  0.38794086  0.74597283  0.04663000  1
  S2-  S239  1  0.37769797  0.76353930  0.53940849  1
  S2-  S240  1  0.63836638  -0.00557736  0.05044859  1
  S2-  S241  1  0.63273314  0.00791914  0.53717574  1
  S2-  S242  1  0.64080177  0.24095730  0.04449405  1
  S2-  S243  1  0.63622390  0.26072111  0.55238810  1
  S2-  S244  1  0.63768063  0.49595375  0.04359815  1
  S2-  S245  1  0.63573119  0.51147511  0.54186792  1
  S2-  S246  1  0.63769529  0.74266030  0.05090943  1
  S2-  S247  1  0.63304898  0.75876641  0.53547912  1
  S2-  S248  1  0.89816894  -0.00534529  0.05576440  1
  S2-  S249  1  0.88062283  0.00828616  0.53827345  1
  S2-  S250  1  0.88917810  0.23923203  0.04361402  1
  S2-  S251  1  0.87933431  0.25821036  0.53666645  1
  S2-  S252  1  0.88719471  0.49739308  0.04552315  1
  S2-  S253  1  0.88259811  0.51463726  0.54342815  1
  S2-  S254  1  0.88913375  0.74365127  0.04497462  1
  S2-  S255  1  0.88230935  0.75666050  0.54001353  1
