# generated using pymatgen
data_La6Ce7Pr13Nd19Sm19(BiS2)64
_symmetry_space_group_name_H-M   'P 1'
_cell_length_a   16.11669224
_cell_length_b   16.08320124
_cell_length_c   27.40072476
_cell_angle_alpha   90.09095027
_cell_angle_beta   89.97253084
_cell_angle_gamma   89.98267382
_symmetry_Int_Tables_number   1
_chemical_formula_structural   La6Ce7Pr13Nd19Sm19(BiS2)64
_chemical_formula_sum   'La6 Ce7 Pr13 Nd19 Sm19 Bi64 S128'
_cell_volume   7102.47709695
_cell_formula_units_Z   1
loop_
 _symmetry_equiv_pos_site_id
 _symmetry_equiv_pos_as_xyz
  1  'x, y, z'
loop_
 _atom_type_symbol
 _atom_type_oxidation_number
  La3+  3.0
  Ce3+  3.0
  Pr3+  3.0
  Nd3+  3.0
  Sm3+  3.0
  Bi2+  2.0
  S2-  -2.0
loop_
 _atom_site_type_symbol
 _atom_site_label
 _atom_site_symmetry_multiplicity
 _atom_site_fract_x
 _atom_site_fract_y
 _atom_site_fract_z
 _atom_site_occupancy
  La3+  La0  1  0.25052508  0.88535190  0.61337544  1
  La3+  La1  1  -0.00089303  0.63661347  0.10403081  1
  La3+  La2  1  0.00298871  0.12883788  0.57124534  1
  La3+  La3  1  0.37802197  0.74251870  0.91865936  1
  La3+  La4  1  0.63142603  0.73809219  0.91906962  1
  La3+  La5  1  0.49906436  0.11872240  0.07067859  1
  Ce3+  Ce6  1  0.88171131  0.50599261  0.43685700  1
  Ce3+  Ce7  1  0.25192774  0.12165552  0.06234286  1
  Ce3+  Ce8  1  0.12972224  0.50513752  0.44541833  1
  Ce3+  Ce9  1  0.75314235  0.63183668  0.55422522  1
  Ce3+  Ce10  1  0.75141298  0.88133331  0.55223019  1
  Ce3+  Ce11  1  0.62731961  0.50747322  0.44217705  1
  Ce3+  Ce12  1  0.38009794  -0.00235862  0.93389328  1
  Pr3+  Pr13  1  0.62540638  0.25424546  0.43363614  1
  Pr3+  Pr14  1  0.75399625  0.08504870  0.11169211  1
  Pr3+  Pr15  1  0.88366013  0.25265857  0.43212187  1
  Pr3+  Pr16  1  0.75447520  0.62152712  0.06013252  1
  Pr3+  Pr17  1  0.24951935  0.62994365  0.57427084  1
  Pr3+  Pr18  1  0.00321675  0.63159519  0.56607207  1
  Pr3+  Pr19  1  0.37540653  0.51575530  0.43298433  1
  Pr3+  Pr20  1  0.37987019  0.49560396  0.92724285  1
  Pr3+  Pr21  1  0.12779288  0.49558137  0.93555012  1
  Pr3+  Pr22  1  0.75251688  0.37967951  0.55211996  1
  Pr3+  Pr23  1  0.37708786  0.00355040  0.44844539  1
  Pr3+  Pr24  1  0.49677180  0.62303031  0.06004288  1
  Pr3+  Pr25  1  0.12775077  0.00666879  0.91882127  1
  Nd3+  Nd26  1  0.00261589  0.12267601  0.06379882  1
  Nd3+  Nd27  1  0.12576210  0.73774325  0.92335435  1
  Nd3+  Nd28  1  0.12799199  0.75620831  0.44768091  1
  Nd3+  Nd29  1  0.87673426  0.00707657  0.92908417  1
  Nd3+  Nd30  1  0.38092750  0.24566655  0.94300368  1
  Nd3+  Nd31  1  0.13038420  0.00388251  0.44757669  1
  Nd3+  Nd32  1  0.62625285  0.75526377  0.43931590  1
  Nd3+  Nd33  1  0.88146778  0.75661439  0.44255951  1
  Nd3+  Nd34  1  0.25517186  0.12992462  0.56822708  1
  Nd3+  Nd35  1  0.88318344  0.74827813  0.93824217  1
  Nd3+  Nd36  1  0.88088410  0.49722924  0.93916504  1
  Nd3+  Nd37  1  0.51194941  0.88885290  0.57965161  1
  Nd3+  Nd38  1  0.50332868  0.63424788  0.56968498  1
  Nd3+  Nd39  1  0.50150365  0.13063280  0.56258473  1
  Nd3+  Nd40  1  0.00251378  0.88593649  0.57591750  1
  Nd3+  Nd41  1  0.25466827  0.38453953  0.56851141  1
  Nd3+  Nd42  1  0.75162505  0.13062017  0.55183448  1
  Nd3+  Nd43  1  0.88385423  0.00463394  0.43473321  1
  Nd3+  Nd44  1  0.50194804  0.38264686  0.55347356  1
  Sm3+  Sm45  1  0.37715315  0.75618317  0.45466046  1
  Sm3+  Sm46  1  -0.00055504  0.37659684  0.56496723  1
  Sm3+  Sm47  1  0.75386343  0.37010490  0.05596538  1
  Sm3+  Sm48  1  0.75418162  0.86801154  0.04660647  1
  Sm3+  Sm49  1  0.50350711  0.37132750  0.05445745  1
  Sm3+  Sm50  1  0.63046742  0.24244201  0.94808653  1
  Sm3+  Sm51  1  0.50268699  0.87004420  0.04545323  1
  Sm3+  Sm52  1  0.24872128  0.62763828  0.05995894  1
  Sm3+  Sm53  1  0.25324342  0.37735749  0.05361674  1
  Sm3+  Sm54  1  0.12905737  0.25480839  0.44964016  1
  Sm3+  Sm55  1  0.12999563  0.24729656  0.93864321  1
  Sm3+  Sm56  1  0.62507822  0.00466317  0.43878328  1
  Sm3+  Sm57  1  0.37615191  0.25758573  0.44556331  1
  Sm3+  Sm58  1  0.24984452  0.86975474  0.04207593  1
  Sm3+  Sm59  1  0.63009274  -0.00064743  0.94121802  1
  Sm3+  Sm60  1  0.00520569  0.37807257  0.05842838  1
  Sm3+  Sm61  1  0.87780911  0.24400851  0.94763096  1
  Sm3+  Sm62  1  0.63018975  0.49593642  0.94401394  1
  Sm3+  Sm63  1  0.00401910  0.87278702  0.04725727  1
  Bi2+  Bi64  1  0.00404537  0.12926575  0.31055674  1
  Bi2+  Bi65  1  -0.01214446  0.19147588  0.79050084  1
  Bi2+  Bi66  1  0.02454191  0.38131443  0.23078382  1
  Bi2+  Bi67  1  0.01671785  0.38530609  0.80096525  1
  Bi2+  Bi68  1  -0.01872205  0.61842546  0.31392901  1
  Bi2+  Bi69  1  -0.03421173  0.59029141  0.79380865  1
  Bi2+  Bi70  1  0.00235470  0.85998235  0.31351619  1
  Bi2+  Bi71  1  0.00245956  0.82626657  0.80445551  1
  Bi2+  Bi72  1  0.26758124  0.08425691  0.28630986  1
  Bi2+  Bi73  1  0.24205580  0.18284331  0.78286191  1
  Bi2+  Bi74  1  0.18991475  0.28927042  0.26611093  1
  Bi2+  Bi75  1  0.20829010  0.37628434  0.83008430  1
  Bi2+  Bi76  1  0.24171426  0.57975370  0.30802622  1
  Bi2+  Bi77  1  0.24079951  0.55060904  0.79023818  1
  Bi2+  Bi78  1  0.27317356  0.82336695  0.27591880  1
  Bi2+  Bi79  1  0.26555920  0.92452070  0.80465040  1
  Bi2+  Bi80  1  0.50922551  0.11891057  0.31024127  1
  Bi2+  Bi81  1  0.51074116  0.21326110  0.77426709  1
  Bi2+  Bi82  1  0.44078786  0.36488387  0.28488948  1
  Bi2+  Bi83  1  0.43063097  0.38787416  0.81288129  1
  Bi2+  Bi84  1  0.49634201  0.61935655  0.31364867  1
  Bi2+  Bi85  1  0.53191121  0.64612670  0.79715507  1
  Bi2+  Bi86  1  0.46246333  0.86111398  0.29585346  1
  Bi2+  Bi87  1  0.52010792  0.92519829  0.79131722  1
  Bi2+  Bi88  1  0.75405090  0.13216372  0.30466037  1
  Bi2+  Bi89  1  0.73677772  0.12473139  0.79656520  1
  Bi2+  Bi90  1  0.73063919  0.39482152  0.25581194  1
  Bi2+  Bi91  1  0.74840351  0.34364678  0.79406604  1
  Bi2+  Bi92  1  0.68937242  0.64330075  0.28908725  1
  Bi2+  Bi93  1  0.78388129  0.59005355  0.73795238  1
  Bi2+  Bi94  1  0.72214998  0.89453649  0.23584749  1
  Bi2+  Bi95  1  0.76722023  0.86542336  0.76576571  1
  Bi2+  Bi96  1  0.12318480  0.03152234  0.21268112  1
  Bi2+  Bi97  1  0.09296920  0.00778560  0.71454891  1
  Bi2+  Bi98  1  0.11334142  0.21210406  0.16679486  1
  Bi2+  Bi99  1  0.11511044  0.26756304  0.70822506  1
  Bi2+  Bi100  1  0.18974929  0.48831556  0.21754348  1
  Bi2+  Bi101  1  0.10150715  0.47030703  0.69939273  1
  Bi2+  Bi102  1  0.13942024  0.76654694  0.20181502  1
  Bi2+  Bi103  1  0.13396221  0.73260151  0.72577929  1
  Bi2+  Bi104  1  0.30802603  -0.03081575  0.19384481  1
  Bi2+  Bi105  1  0.39017416  0.11281651  0.70526723  1
  Bi2+  Bi106  1  0.36131882  0.21786166  0.22423718  1
  Bi2+  Bi107  1  0.30580882  0.27915799  0.68119644  1
  Bi2+  Bi108  1  0.40596847  0.48148885  0.19273078  1
  Bi2+  Bi109  1  0.37058920  0.46328549  0.71534001  1
  Bi2+  Bi110  1  0.39597430  0.70356492  0.22244686  1
  Bi2+  Bi111  1  0.38199325  0.74136394  0.72745946  1
  Bi2+  Bi112  1  0.54143964  -0.01392192  0.22111246  1
  Bi2+  Bi113  1  0.66917974  0.03554368  0.70300319  1
  Bi2+  Bi114  1  0.61467597  0.26031288  0.20749186  1
  Bi2+  Bi115  1  0.61659707  0.30255140  0.69793864  1
  Bi2+  Bi116  1  0.58935480  0.51562396  0.22370530  1
  Bi2+  Bi117  1  0.60353461  0.46991392  0.77425348  1
  Bi2+  Bi118  1  0.57951909  0.77048321  0.20397995  1
  Bi2+  Bi119  1  0.61549091  0.75074807  0.69244371  1
  Bi2+  Bi120  1  0.93195773  -0.01713714  0.23640085  1
  Bi2+  Bi121  1  0.88364720  0.01824014  0.74286826  1
  Bi2+  Bi122  1  0.92887348  0.21987327  0.20343104  1
  Bi2+  Bi123  1  0.85018050  0.26932039  0.70641070  1
  Bi2+  Bi124  1  0.84978049  0.51301167  0.20305937  1
  Bi2+  Bi125  1  0.90817667  0.46370269  0.68717085  1
  Bi2+  Bi126  1  0.86902040  0.77366445  0.20587766  1
  Bi2+  Bi127  1  0.89467480  0.74585414  0.71597146  1
  S2-  S128  1  -0.07928925  0.07139020  0.14601379  1
  S2-  S129  1  -0.03408832  0.01665023  0.64728424  1
  S2-  S130  1  -0.00876290  0.46800511  0.14178685  1
  S2-  S131  1  -0.01554706  0.25955878  0.63963022  1
  S2-  S132  1  -0.03106291  0.64508912  0.21211852  1
  S2-  S133  1  0.06892182  0.63094554  0.65932818  1
  S2-  S134  1  0.00233456  0.81165268  0.13922462  1
  S2-  S135  1  0.09495234  0.86173535  0.66246505  1
  S2-  S136  1  0.36111040  0.11918244  0.13950239  1
  S2-  S137  1  0.21739308  0.05446627  0.65497322  1
  S2-  S138  1  0.27203743  0.39319281  0.15039196  1
  S2-  S139  1  0.25606791  0.49873449  0.64425527  1
  S2-  S140  1  0.15811128  0.63137378  0.14581324  1
  S2-  S141  1  0.26410619  0.72280940  0.65907803  1
  S2-  S142  1  0.25511710  0.83672773  0.13836936  1
  S2-  S143  1  0.30094610  0.89438144  0.71591959  1
  S2-  S144  1  0.59556457  0.11532720  0.15380535  1
  S2-  S145  1  0.51655693  0.04755621  0.64858820  1
  S2-  S146  1  0.50865433  0.34307573  0.15066308  1
  S2-  S147  1  0.50086724  0.39576226  0.65175057  1
  S2-  S148  1  0.37513086  0.62271102  0.13086018  1
  S2-  S149  1  0.49021571  0.63876583  0.66920059  1
  S2-  S150  1  0.49767471  0.88450900  0.14301641  1
  S2-  S151  1  0.48340801  0.84483415  0.67480898  1
  S2-  S152  1  0.76324880  0.16550211  0.20632967  1
  S2-  S153  1  0.75326405  0.14711957  0.65024152  1
  S2-  S154  1  0.75642445  0.39394883  0.15248956  1
  S2-  S155  1  0.75334725  0.39077061  0.65172861  1
  S2-  S156  1  0.77612334  0.64972952  0.15779957  1
  S2-  S157  1  0.71437846  0.62897721  0.64826377  1
  S2-  S158  1  0.75998482  0.91588946  0.14040791  1
  S2-  S159  1  0.69152023  0.88751664  0.64265342  1
  S2-  S160  1  0.09631344  -0.00247598  0.35110329  1
  S2-  S161  1  0.09227691  -0.03270483  0.81874235  1
  S2-  S162  1  0.10100049  0.24510462  0.35376148  1
  S2-  S163  1  0.12528598  0.15422867  0.85703048  1
  S2-  S164  1  0.09830340  0.50607796  0.34919302  1
  S2-  S165  1  0.11286652  0.59617759  0.85323676  1
  S2-  S166  1  0.10188109  0.73998919  0.34879260  1
  S2-  S167  1  0.17036649  0.78080236  0.82708066  1
  S2-  S168  1  0.38633413  0.00091588  0.34764811  1
  S2-  S169  1  0.40883022  0.01392300  0.83714558  1
  S2-  S170  1  0.39461560  0.23651748  0.35016246  1
  S2-  S171  1  0.37941924  0.22175036  0.84546703  1
  S2-  S172  1  0.32885021  0.44656257  0.34293041  1
  S2-  S173  1  0.37917718  0.60798546  0.84931468  1
  S2-  S174  1  0.35847691  0.66509454  0.37064293  1
  S2-  S175  1  0.39995254  0.81376893  0.82548039  1
  S2-  S176  1  0.63050662  0.01597325  0.34189326  1
  S2-  S177  1  0.63571131  0.01393697  0.84340841  1
  S2-  S178  1  0.62704791  0.24074180  0.33371755  1
  S2-  S179  1  0.63763109  0.24497453  0.84970652  1
  S2-  S180  1  0.62059107  0.50682208  0.34621082  1
  S2-  S181  1  0.64298268  0.58198444  0.85924331  1
  S2-  S182  1  0.61529493  0.76759644  0.34099269  1
  S2-  S183  1  0.62826867  0.79084783  0.82212020  1
  S2-  S184  1  0.86402607  0.00397998  0.33614724  1
  S2-  S185  1  0.86762012  -0.06944063  0.83811679  1
  S2-  S186  1  0.86790089  0.24190456  0.33264162  1
  S2-  S187  1  0.87693458  0.15158892  0.86414941  1
  S2-  S188  1  0.86730662  0.51297967  0.33982125  1
  S2-  S189  1  0.87031391  0.45292480  0.84266303  1
  S2-  S190  1  0.87843440  0.75506457  0.34271008  1
  S2-  S191  1  0.87593067  0.70541566  0.84271128  1
  S2-  S192  1  0.00591901  0.12932735  0.46033409  1
  S2-  S193  1  0.00634900  0.12373449  0.95975932  1
  S2-  S194  1  0.00444917  0.37778871  0.45853241  1
  S2-  S195  1  0.00255768  0.36750503  0.95298246  1
  S2-  S196  1  0.00286811  0.63095048  0.45901127  1
  S2-  S197  1  -0.00055155  0.62112907  0.95202174  1
  S2-  S198  1  0.00316099  0.88148057  0.46270847  1
  S2-  S199  1  0.00741831  0.87621773  0.94323311  1
  S2-  S200  1  0.25381463  0.13220917  0.45888149  1
  S2-  S201  1  0.25490435  0.12238357  0.95515159  1
  S2-  S202  1  0.25283286  0.37831566  0.46035559  1
  S2-  S203  1  0.25558454  0.37042123  0.95032908  1
  S2-  S204  1  0.24870794  0.63209325  0.46765541  1
  S2-  S205  1  0.25333347  0.62051504  0.95229799  1
  S2-  S206  1  0.25448443  0.87690231  0.44558957  1
  S2-  S207  1  0.24933220  0.87434311  0.93852414  1
  S2-  S208  1  0.50143325  0.13060706  0.45657190  1
  S2-  S209  1  0.50542599  0.12139605  0.95744972  1
  S2-  S210  1  0.49923539  0.38188272  0.44743463  1
  S2-  S211  1  0.50862992  0.37121480  0.95000726  1
  S2-  S212  1  0.50463747  0.63312546  0.46210782  1
  S2-  S213  1  0.50570273  0.61892189  0.95464595  1
  S2-  S214  1  0.50336031  0.87944494  0.45781379  1
  S2-  S215  1  0.50837467  0.87066615  0.94210809  1
  S2-  S216  1  0.75278330  0.12773946  0.44627185  1
  S2-  S217  1  0.75040057  0.12266071  0.95743673  1
  S2-  S218  1  0.75392973  0.37837543  0.44498663  1
  S2-  S219  1  0.75298776  0.36993885  0.95190815  1
  S2-  S220  1  0.75458299  0.63253092  0.44843823  1
  S2-  S221  1  0.75770924  0.62086439  0.95487721  1
  S2-  S222  1  0.75251205  0.88225277  0.44587324  1
  S2-  S223  1  0.75123434  0.87099658  0.94338708  1
  S2-  S224  1  0.12715218  -0.00403787  0.04500732  1
  S2-  S225  1  0.13203746  0.00119623  0.55102959  1
  S2-  S226  1  0.12939433  0.25203479  0.04231116  1
  S2-  S227  1  0.13295619  0.25725054  0.55288767  1
  S2-  S228  1  0.12951926  0.49760013  0.04190625  1
  S2-  S229  1  0.12100247  0.49982927  0.54977413  1
  S2-  S230  1  0.12449420  0.74783579  0.03326090  1
  S2-  S231  1  0.12749537  0.76049468  0.55247615  1
  S2-  S232  1  0.37658043  -0.00891412  0.03881022  1
  S2-  S233  1  0.37554591  0.00067785  0.55487165  1
  S2-  S234  1  0.37710476  0.25238944  0.04649368  1
  S2-  S235  1  0.37842359  0.25598083  0.54967514  1
  S2-  S236  1  0.37869010  0.49341118  0.03509790  1
  S2-  S237  1  0.38095443  0.50932854  0.54388715  1
  S2-  S238  1  0.37632440  0.75009839  0.03060439  1
  S2-  S239  1  0.38167982  0.76336999  0.55639089  1
  S2-  S240  1  0.63043916  -0.00705087  0.04517788  1
  S2-  S241  1  0.62750298  0.00770015  0.54161810  1
  S2-  S242  1  0.62926390  0.24886504  0.05055226  1
  S2-  S243  1  0.62480861  0.25457932  0.54209286  1
  S2-  S244  1  0.62688746  0.49649519  0.04863138  1
  S2-  S245  1  0.62646879  0.50671569  0.54784825  1
  S2-  S246  1  0.62693140  0.74620673  0.04160154  1
  S2-  S247  1  0.62571234  0.75713807  0.54536949  1
  S2-  S248  1  0.87736321  -0.00814811  0.03633939  1
  S2-  S249  1  0.87403074  0.00526134  0.54112734  1
  S2-  S250  1  0.88220083  0.25257334  0.05140550  1
  S2-  S251  1  0.87529472  0.25427159  0.53886225  1
  S2-  S252  1  0.87602353  0.49617115  0.04378499  1
  S2-  S253  1  0.87949814  0.50444705  0.54490746  1
  S2-  S254  1  0.88011952  0.74614080  0.04390199  1
  S2-  S255  1  0.87937711  0.75861848  0.55095075  1
