# generated using pymatgen
data_La6Ce7Pr13Nd19Sm19(BiS2)64
_symmetry_space_group_name_H-M   'P 1'
_cell_length_a   16.03578966
_cell_length_b   16.05693934
_cell_length_c   27.51342580
_cell_angle_alpha   90.33066612
_cell_angle_beta   90.23158752
_cell_angle_gamma   89.97623747
_symmetry_Int_Tables_number   1
_chemical_formula_structural   La6Ce7Pr13Nd19Sm19(BiS2)64
_chemical_formula_sum   'La6 Ce7 Pr13 Nd19 Sm19 Bi64 S128'
_cell_volume   7084.13736434
_cell_formula_units_Z   1
loop_
 _symmetry_equiv_pos_site_id
 _symmetry_equiv_pos_as_xyz
  1  'x, y, z'
loop_
 _atom_type_symbol
 _atom_type_oxidation_number
  La3+  3.0
  Ce3+  3.0
  Pr3+  3.0
  Nd3+  3.0
  Sm3+  3.0
  Bi2+  2.0
  S2-  -2.0
loop_
 _atom_site_type_symbol
 _atom_site_label
 _atom_site_symmetry_multiplicity
 _atom_site_fract_x
 _atom_site_fract_y
 _atom_site_fract_z
 _atom_site_occupancy
  La3+  La0  1  0.01239418  0.38123882  0.57364137  1
  La3+  La1  1  0.39430244  0.23402399  0.39310066  1
  La3+  La2  1  0.87546045  0.74507884  0.39070225  1
  La3+  La3  1  0.73870672  0.88874827  0.08724507  1
  La3+  La4  1  0.50235634  0.61743837  0.61183721  1
  La3+  La5  1  0.00202214  0.88387506  0.06787577  1
  Ce3+  Ce6  1  0.50194817  0.62789607  0.06202238  1
  Ce3+  Ce7  1  0.87779672  0.25252394  0.92580612  1
  Ce3+  Ce8  1  0.62685444  0.50078204  0.43583449  1
  Ce3+  Ce9  1  0.50511806  0.12338576  0.56670070  1
  Ce3+  Ce10  1  0.24897479  0.37972466  0.06154623  1
  Ce3+  Ce11  1  0.25328672  0.62559498  0.05551051  1
  Ce3+  Ce12  1  0.12389783  0.75394520  0.44572787  1
  Pr3+  Pr13  1  0.62874126  0.00302886  0.43695566  1
  Pr3+  Pr14  1  0.11957200  0.75015857  0.94212358  1
  Pr3+  Pr15  1  0.37595841  0.49555643  0.93915998  1
  Pr3+  Pr16  1  0.38258322  0.75433883  0.43597055  1
  Pr3+  Pr17  1  0.25487418  0.87613221  0.57106140  1
  Pr3+  Pr18  1  0.76199005  0.12968861  0.55645258  1
  Pr3+  Pr19  1  0.37507457  0.75033712  0.93778940  1
  Pr3+  Pr20  1  0.00413560  0.62565470  0.56819778  1
  Pr3+  Pr21  1  0.38015582  0.50015162  0.43688092  1
  Pr3+  Pr22  1  0.75326481  0.37624438  0.05775972  1
  Pr3+  Pr23  1  0.37552280  0.24822404  0.93791207  1
  Pr3+  Pr24  1  0.01311398  0.13168273  0.59139901  1
  Pr3+  Pr25  1  0.87313434  -0.00101570  0.90432289  1
  Nd3+  Nd26  1  -0.00485631  0.12358250  0.06022350  1
  Nd3+  Nd27  1  0.75055199  0.12629174  0.05289325  1
  Nd3+  Nd28  1  0.12231326  0.00137139  0.93133512  1
  Nd3+  Nd29  1  0.37028770  0.00184470  0.93465724  1
  Nd3+  Nd30  1  0.62461943  0.49948824  0.94402730  1
  Nd3+  Nd31  1  0.00012739  0.63548670  0.07457058  1
  Nd3+  Nd32  1  0.87331409  0.75306726  0.94049073  1
  Nd3+  Nd33  1  0.12694366  0.50318224  0.43927898  1
  Nd3+  Nd34  1  0.24954454  0.12792384  0.06400615  1
  Nd3+  Nd35  1  0.74990848  0.62872523  0.06215740  1
  Nd3+  Nd36  1  0.50316091  0.36989949  0.07220570  1
  Nd3+  Nd37  1  0.88345583  -0.00484135  0.44277888  1
  Nd3+  Nd38  1  0.49529174  0.12517131  0.07054773  1
  Nd3+  Nd39  1  0.88636976  0.25231729  0.43532601  1
  Nd3+  Nd40  1  0.76258933  0.87552207  0.56386254  1
  Nd3+  Nd41  1  0.12130473  0.50184094  0.94141364  1
  Nd3+  Nd42  1  0.00618469  0.87458869  0.57119563  1
  Nd3+  Nd43  1  0.62593658  0.00104165  0.93235278  1
  Nd3+  Nd44  1  0.13088718  0.25054287  0.43481168  1
  Sm3+  Sm45  1  0.50395632  0.37800578  0.55272712  1
  Sm3+  Sm46  1  0.12107811  0.24904266  0.94507806  1
  Sm3+  Sm47  1  0.25080080  0.87771576  0.05650770  1
  Sm3+  Sm48  1  0.62561863  0.24829165  0.94009561  1
  Sm3+  Sm49  1  0.12923413  0.00277711  0.44929424  1
  Sm3+  Sm50  1  0.49980512  0.87801767  0.05241191  1
  Sm3+  Sm51  1  0.37738572  0.00199893  0.44693827  1
  Sm3+  Sm52  1  0.26492457  0.62903488  0.55171478  1
  Sm3+  Sm53  1  0.62947170  0.24961366  0.44685275  1
  Sm3+  Sm54  1  0.51161322  0.87793382  0.56694160  1
  Sm3+  Sm55  1  -0.00083993  0.37791804  0.05492876  1
  Sm3+  Sm56  1  0.75425068  0.37875136  0.55287979  1
  Sm3+  Sm57  1  0.25386432  0.13053936  0.56014282  1
  Sm3+  Sm58  1  0.62758187  0.75227281  0.94258219  1
  Sm3+  Sm59  1  0.62662277  0.75264339  0.43548723  1
  Sm3+  Sm60  1  0.74641728  0.63020248  0.55309158  1
  Sm3+  Sm61  1  0.87443616  0.50285060  0.93575835  1
  Sm3+  Sm62  1  0.87893059  0.50449165  0.44248081  1
  Sm3+  Sm63  1  0.25629568  0.37738769  0.55554450  1
  Bi2+  Bi64  1  -0.01586965  0.11570932  0.28882484  1
  Bi2+  Bi65  1  -0.00030834  0.12151298  0.78202049  1
  Bi2+  Bi66  1  0.01341187  0.36340045  0.28970642  1
  Bi2+  Bi67  1  0.01894958  0.36641005  0.79735672  1
  Bi2+  Bi68  1  0.01161237  0.60746844  0.29279580  1
  Bi2+  Bi69  1  0.02761350  0.61857007  0.80537809  1
  Bi2+  Bi70  1  0.01268541  0.87417368  0.29307133  1
  Bi2+  Bi71  1  0.00118963  0.85821690  0.78524563  1
  Bi2+  Bi72  1  0.24731956  0.02903818  0.29640876  1
  Bi2+  Bi73  1  0.31283502  0.14248659  0.79750632  1
  Bi2+  Bi74  1  0.25694252  0.38575534  0.30445010  1
  Bi2+  Bi75  1  0.23748763  0.38676180  0.73684439  1
  Bi2+  Bi76  1  0.25615362  0.66763702  0.27877813  1
  Bi2+  Bi77  1  0.24628407  0.68861535  0.72110836  1
  Bi2+  Bi78  1  0.29110210  0.84377497  0.32031850  1
  Bi2+  Bi79  1  0.24537864  0.87419624  0.79549130  1
  Bi2+  Bi80  1  0.52237843  0.09597217  0.28813845  1
  Bi2+  Bi81  1  0.48543147  0.07659687  0.83550390  1
  Bi2+  Bi82  1  0.61538716  0.36811328  0.31296599  1
  Bi2+  Bi83  1  0.46905257  0.38069915  0.80153569  1
  Bi2+  Bi84  1  0.48161588  0.62926030  0.29304349  1
  Bi2+  Bi85  1  0.50670609  0.63550503  0.81871914  1
  Bi2+  Bi86  1  0.47775942  0.84883599  0.27150281  1
  Bi2+  Bi87  1  0.45305840  0.89406627  0.79200195  1
  Bi2+  Bi88  1  0.78658021  0.15052566  0.28296499  1
  Bi2+  Bi89  1  0.72604120  0.12458060  0.78894813  1
  Bi2+  Bi90  1  0.81648085  0.33872342  0.31986680  1
  Bi2+  Bi91  1  0.75730699  0.37368958  0.78369774  1
  Bi2+  Bi92  1  0.76199245  0.52120847  0.27801775  1
  Bi2+  Bi93  1  0.75797037  0.60139220  0.79571297  1
  Bi2+  Bi94  1  0.73954943  0.88256888  0.28928581  1
  Bi2+  Bi95  1  0.74255811  0.84401554  0.78841051  1
  Bi2+  Bi96  1  0.13495440  0.02952639  0.20560465  1
  Bi2+  Bi97  1  0.18227072  -0.00628250  0.71314972  1
  Bi2+  Bi98  1  0.10288906  0.22015082  0.21964672  1
  Bi2+  Bi99  1  0.10335759  0.24780681  0.71690875  1
  Bi2+  Bi100  1  0.14672403  0.45072384  0.20262880  1
  Bi2+  Bi101  1  0.12156880  0.53783134  0.70075759  1
  Bi2+  Bi102  1  0.11031524  0.70359748  0.20199323  1
  Bi2+  Bi103  1  0.06006007  0.73317538  0.69440213  1
  Bi2+  Bi104  1  0.39261609  0.00309281  0.20768303  1
  Bi2+  Bi105  1  0.36159806  0.06164753  0.68952039  1
  Bi2+  Bi106  1  0.39724159  0.27308267  0.19969111  1
  Bi2+  Bi107  1  0.38728387  0.25583779  0.71024190  1
  Bi2+  Bi108  1  0.36282839  0.54657835  0.21383671  1
  Bi2+  Bi109  1  0.39747084  0.48935997  0.71412256  1
  Bi2+  Bi110  1  0.31951556  0.81341424  0.20082212  1
  Bi2+  Bi111  1  0.34288987  0.85805961  0.69333758  1
  Bi2+  Bi112  1  0.58988195  0.00827477  0.19827532  1
  Bi2+  Bi113  1  0.56638768  0.02760785  0.73490113  1
  Bi2+  Bi114  1  0.64918069  0.24751639  0.22097049  1
  Bi2+  Bi115  1  0.57404714  0.23892593  0.74544016  1
  Bi2+  Bi116  1  0.60711801  0.46414456  0.21447406  1
  Bi2+  Bi117  1  0.65851572  0.48002389  0.70459520  1
  Bi2+  Bi118  1  0.58593639  0.72170718  0.20790344  1
  Bi2+  Bi119  1  0.63194961  0.76405100  0.70611088  1
  Bi2+  Bi120  1  0.86297383  0.01617066  0.20773421  1
  Bi2+  Bi121  1  0.82788053  -0.01600729  0.69865172  1
  Bi2+  Bi122  1  0.91443111  0.20334134  0.18406644  1
  Bi2+  Bi123  1  0.83265967  0.25064907  0.70612254  1
  Bi2+  Bi124  1  0.87135377  0.39751407  0.20989121  1
  Bi2+  Bi125  1  0.89629198  0.50694894  0.73464442  1
  Bi2+  Bi126  1  0.85401080  0.70405985  0.19176491  1
  Bi2+  Bi127  1  0.86791943  0.71443991  0.72409779  1
  S2-  S128  1  -0.00232450  0.01611200  0.13999162  1
  S2-  S129  1  -0.03192347  0.05926542  0.68399964  1
  S2-  S130  1  0.02429377  0.38759127  0.15116952  1
  S2-  S131  1  -0.02857586  0.27178595  0.64986487  1
  S2-  S132  1  -0.01588608  0.59203000  0.17185964  1
  S2-  S133  1  -0.02037160  0.50954374  0.64372332  1
  S2-  S134  1  -0.00574554  0.78389587  0.15063305  1
  S2-  S135  1  -0.10758021  0.86193257  0.64859180  1
  S2-  S136  1  0.35745095  0.12791215  0.14191458  1
  S2-  S137  1  0.16774446  0.13759995  0.64629737  1
  S2-  S138  1  0.25148358  0.33984629  0.15633289  1
  S2-  S139  1  0.17081296  0.38704724  0.64035177  1
  S2-  S140  1  0.22223617  0.58878304  0.14835593  1
  S2-  S141  1  0.32637334  0.61247441  0.64295237  1
  S2-  S142  1  0.19478079  0.89569983  0.14759120  1
  S2-  S143  1  0.12992178  0.87771624  0.64551348  1
  S2-  S144  1  0.53524741  0.23863462  0.14438721  1
  S2-  S145  1  0.51236214  0.01031089  0.63933210  1
  S2-  S146  1  0.45930851  0.43079088  0.16366130  1
  S2-  S147  1  0.51476504  0.44506653  0.64332857  1
  S2-  S148  1  0.45433728  0.65592584  0.15349021  1
  S2-  S149  1  0.50747876  0.62318308  0.72355779  1
  S2-  S150  1  0.57674935  0.86486094  0.14021124  1
  S2-  S151  1  0.49364008  0.78365451  0.64823108  1
  S2-  S152  1  0.72544862  0.05211243  0.14150954  1
  S2-  S153  1  0.74981878  0.12823161  0.65656129  1
  S2-  S154  1  0.71925318  0.36887816  0.15530545  1
  S2-  S155  1  0.74952043  0.37841643  0.65038393  1
  S2-  S156  1  0.70289479  0.62592395  0.15797204  1
  S2-  S157  1  0.67811464  0.62208530  0.64391362  1
  S2-  S158  1  0.78586141  0.85457337  0.18496332  1
  S2-  S159  1  0.69017687  0.88674942  0.65536964  1
  S2-  S160  1  0.10091196  -0.01066140  0.35220910  1
  S2-  S161  1  0.02489893  -0.00303074  0.84619527  1
  S2-  S162  1  0.23124024  0.24676410  0.35210772  1
  S2-  S163  1  0.08787829  0.23857708  0.84846907  1
  S2-  S164  1  0.11738373  0.49039237  0.33985648  1
  S2-  S165  1  0.12079839  0.49506640  0.84258775  1
  S2-  S166  1  0.05238507  0.74515229  0.35723854  1
  S2-  S167  1  0.11786299  0.76368898  0.84253607  1
  S2-  S168  1  0.39244121  0.06705165  0.35660882  1
  S2-  S169  1  0.25044863  0.00965678  0.86007451  1
  S2-  S170  1  0.40086960  0.29974813  0.29306637  1
  S2-  S171  1  0.34059519  0.30044474  0.84515770  1
  S2-  S172  1  0.37104369  0.50651437  0.33720686  1
  S2-  S173  1  0.38586971  0.52438365  0.84130657  1
  S2-  S174  1  0.50025849  0.75968483  0.36030136  1
  S2-  S175  1  0.37998547  0.75421351  0.83842654  1
  S2-  S176  1  0.63522036  -0.02053464  0.33679760  1
  S2-  S177  1  0.71945471  -0.00963953  0.84798391  1
  S2-  S178  1  0.56904869  0.21193588  0.35869856  1
  S2-  S179  1  0.64929472  0.26163985  0.84367854  1
  S2-  S180  1  0.62482890  0.54421179  0.34149027  1
  S2-  S181  1  0.62633801  0.51602880  0.84629555  1
  S2-  S182  1  0.71589676  0.76243700  0.34906549  1
  S2-  S183  1  0.62857428  0.76223688  0.84450389  1
  S2-  S184  1  0.87987071  -0.08316319  0.35218413  1
  S2-  S185  1  0.87326985  0.14806081  0.84525405  1
  S2-  S186  1  1.00649994  0.24259498  0.36156180  1
  S2-  S187  1  0.87891936  0.38598695  0.85793205  1
  S2-  S188  1  0.88673118  0.57301383  0.35188419  1
  S2-  S189  1  0.88201534  0.62421016  0.86591649  1
  S2-  S190  1  0.90188224  0.74370937  0.28119791  1
  S2-  S191  1  0.88230088  0.84185142  0.85241390  1
  S2-  S192  1  0.00504761  0.12230064  0.45855971  1
  S2-  S193  1  -0.00164460  0.12531014  0.95555462  1
  S2-  S194  1  0.00335633  0.38290852  0.45865860  1
  S2-  S195  1  0.00085678  0.37678417  0.95440357  1
  S2-  S196  1  0.00167247  0.62593091  0.46059580  1
  S2-  S197  1  -0.00259702  0.62538244  0.96582726  1
  S2-  S198  1  0.00681207  0.87814164  0.46488897  1
  S2-  S199  1  -0.00040779  0.87754401  0.95802126  1
  S2-  S200  1  0.25615295  0.12584797  0.45741018  1
  S2-  S201  1  0.24781034  0.13022281  0.95858894  1
  S2-  S202  1  0.25292856  0.37789452  0.45306023  1
  S2-  S203  1  0.24493330  0.37465994  0.95462097  1
  S2-  S204  1  0.25476703  0.62942246  0.44662835  1
  S2-  S205  1  0.25007865  0.62408453  0.94892868  1
  S2-  S206  1  0.25310108  0.87827350  0.46029867  1
  S2-  S207  1  0.24858638  0.87361374  0.95368223  1
  S2-  S208  1  0.50170300  0.12731685  0.46268313  1
  S2-  S209  1  0.50041434  0.12603701  0.96002261  1
  S2-  S210  1  0.49914528  0.36723371  0.44872959  1
  S2-  S211  1  0.50281572  0.37186875  0.95679139  1
  S2-  S212  1  0.50443526  0.62385116  0.45031697  1
  S2-  S213  1  0.50124918  0.62665374  0.95525489  1
  S2-  S214  1  0.50335827  0.88381749  0.45987469  1
  S2-  S215  1  0.49983296  0.87685661  0.94862164  1
  S2-  S216  1  0.75842867  0.12792717  0.44802724  1
  S2-  S217  1  0.74984763  0.12680735  0.94950972  1
  S2-  S218  1  0.75454050  0.37542220  0.44941570  1
  S2-  S219  1  0.74854317  0.37547797  0.95322970  1
  S2-  S220  1  0.75251311  0.62743726  0.45027955  1
  S2-  S221  1  0.74722780  0.62508707  0.95758935  1
  S2-  S222  1  0.75392728  0.87766250  0.45703983  1
  S2-  S223  1  0.74607889  0.87575803  0.95485393  1
  S2-  S224  1  0.13061600  0.00509945  0.03880925  1
  S2-  S225  1  0.13000844  0.00532512  0.55061805  1
  S2-  S226  1  0.12204798  0.25042708  0.05002699  1
  S2-  S227  1  0.13126592  0.25256647  0.54138545  1
  S2-  S228  1  0.12126611  0.50359785  0.04692043  1
  S2-  S229  1  0.13784796  0.50917469  0.54303755  1
  S2-  S230  1  0.12922732  0.75138537  0.04745524  1
  S2-  S231  1  0.13414124  0.74539777  0.54971303  1
  S2-  S232  1  0.37369951  -0.00095986  0.04133083  1
  S2-  S233  1  0.37457536  0.00249987  0.54887071  1
  S2-  S234  1  0.37458039  0.25426962  0.04380052  1
  S2-  S235  1  0.37941153  0.25385353  0.56105359  1
  S2-  S236  1  0.37866996  0.49900438  0.04602181  1
  S2-  S237  1  0.38155799  0.49939997  0.54246234  1
  S2-  S238  1  0.37551037  0.75497432  0.04473936  1
  S2-  S239  1  0.38113601  0.75587403  0.54267030  1
  S2-  S240  1  0.61848429  0.00450872  0.03834715  1
  S2-  S241  1  0.63615175  0.00499695  0.54241344  1
  S2-  S242  1  0.62703743  0.25093259  0.04220366  1
  S2-  S243  1  0.62904700  0.25309089  0.55088413  1
  S2-  S244  1  0.62390257  0.49929559  0.05015206  1
  S2-  S245  1  0.62829153  0.49897849  0.54016813  1
  S2-  S246  1  0.62601925  0.75308851  0.04507988  1
  S2-  S247  1  0.63152293  0.75734986  0.54156534  1
  S2-  S248  1  0.86790346  -0.00010883  0.04570291  1
  S2-  S249  1  0.88761527  0.00687994  0.54960964  1
  S2-  S250  1  0.87693073  0.25170462  0.04163540  1
  S2-  S251  1  0.88128601  0.25723082  0.54064935  1
  S2-  S252  1  0.87732439  0.50405145  0.04859117  1
  S2-  S253  1  0.87139811  0.50433503  0.54411493  1
  S2-  S254  1  0.86817002  0.75594973  0.05035535  1
  S2-  S255  1  0.87775092  0.74400215  0.55337430  1
