# generated using pymatgen
data_La6Ce7Pr13Nd19Sm19(BiS2)64
_symmetry_space_group_name_H-M   'P 1'
_cell_length_a   15.95038298
_cell_length_b   16.04740434
_cell_length_c   27.50678816
_cell_angle_alpha   89.48659747
_cell_angle_beta   89.84608608
_cell_angle_gamma   89.97727262
_symmetry_Int_Tables_number   1
_chemical_formula_structural   La6Ce7Pr13Nd19Sm19(BiS2)64
_chemical_formula_sum   'La6 Ce7 Pr13 Nd19 Sm19 Bi64 S128'
_cell_volume   7040.39070914
_cell_formula_units_Z   1
loop_
 _symmetry_equiv_pos_site_id
 _symmetry_equiv_pos_as_xyz
  1  'x, y, z'
loop_
 _atom_type_symbol
 _atom_type_oxidation_number
  La3+  3.0
  Ce3+  3.0
  Pr3+  3.0
  Nd3+  3.0
  Sm3+  3.0
  Bi2+  2.0
  S2-  -2.0
loop_
 _atom_site_type_symbol
 _atom_site_label
 _atom_site_symmetry_multiplicity
 _atom_site_fract_x
 _atom_site_fract_y
 _atom_site_fract_z
 _atom_site_occupancy
  La3+  La0  1  0.01583810  0.87184205  0.58414987  1
  La3+  La1  1  0.76908119  0.37607938  0.09749193  1
  La3+  La2  1  0.64213847  0.49475801  0.89617737  1
  La3+  La3  1  0.38891288  0.25295360  0.93912087  1
  La3+  La4  1  0.50963867  0.86962748  0.55628644  1
  La3+  La5  1  0.63989537  0.00047889  0.42202497  1
  Ce3+  Ce6  1  0.76262565  0.87209855  0.05767596  1
  Ce3+  Ce7  1  0.75433773  0.61695865  0.56999448  1
  Ce3+  Ce8  1  0.38663428  0.50452490  0.94192013  1
  Ce3+  Ce9  1  0.88472827  0.49856087  0.44339101  1
  Ce3+  Ce10  1  0.26938698  0.86761570  0.56786137  1
  Ce3+  Ce11  1  0.01473284  0.37911549  0.06280102  1
  Ce3+  Ce12  1  0.52042428  0.12680772  0.05472519  1
  Pr3+  Pr13  1  0.51840842  0.62438684  0.05048913  1
  Pr3+  Pr14  1  0.25791407  0.36625388  0.57643724  1
  Pr3+  Pr15  1  0.39586153  0.75048661  0.92829875  1
  Pr3+  Pr16  1  0.37278622  0.73797435  0.40709439  1
  Pr3+  Pr17  1  0.64358269  0.75752193  0.92192447  1
  Pr3+  Pr18  1  0.13808264  -0.00414533  0.44614474  1
  Pr3+  Pr19  1  0.26954218  0.11971552  0.56725386  1
  Pr3+  Pr20  1  0.00915952  0.62564444  0.57028683  1
  Pr3+  Pr21  1  0.51901311  0.87009396  0.06906390  1
  Pr3+  Pr22  1  0.13837879  0.49863616  0.44567733  1
  Pr3+  Pr23  1  0.26324092  0.62590470  0.08781005  1
  Pr3+  Pr24  1  0.01026917  0.37610664  0.57434232  1
  Pr3+  Pr25  1  0.26654725  0.37551137  0.07465032  1
  Nd3+  Nd26  1  0.75871296  0.37031847  0.56741948  1
  Nd3+  Nd27  1  0.88992338  0.75011581  0.93197922  1
  Nd3+  Nd28  1  0.01677149  0.62312037  0.06103892  1
  Nd3+  Nd29  1  0.01704172  0.87368219  0.05686325  1
  Nd3+  Nd30  1  0.75179959  0.87002152  0.56045211  1
  Nd3+  Nd31  1  0.38961284  -0.00681599  0.42750915  1
  Nd3+  Nd32  1  0.76459054  0.62238997  0.05198147  1
  Nd3+  Nd33  1  0.64505936  0.49884669  0.43238373  1
  Nd3+  Nd34  1  0.51436949  0.12026047  0.55934593  1
  Nd3+  Nd35  1  0.14041598  0.25109812  0.94653772  1
  Nd3+  Nd36  1  0.13822059  0.75232293  0.93350534  1
  Nd3+  Nd37  1  0.00757989  0.11939046  0.57284047  1
  Nd3+  Nd38  1  0.51127515  0.62033806  0.55139443  1
  Nd3+  Nd39  1  0.63796683  0.74827215  0.42133927  1
  Nd3+  Nd40  1  0.26898969  0.61601689  0.57332870  1
  Nd3+  Nd41  1  0.64395726  0.25041303  0.43040408  1
  Nd3+  Nd42  1  0.13272080  0.24847151  0.44216006  1
  Nd3+  Nd43  1  0.13754429  0.49902983  0.93327461  1
  Nd3+  Nd44  1  0.75758941  0.12539391  0.07250010  1
  Sm3+  Sm45  1  0.51791804  0.37743885  0.05309179  1
  Sm3+  Sm46  1  0.38784676  0.25130225  0.43943762  1
  Sm3+  Sm47  1  0.39224667  -0.00154062  0.94715556  1
  Sm3+  Sm48  1  0.64448851  0.00155510  0.93370142  1
  Sm3+  Sm49  1  0.01340589  0.12602892  0.05772579  1
  Sm3+  Sm50  1  0.89047473  0.50016623  0.93170896  1
  Sm3+  Sm51  1  0.13842227  0.74700520  0.45032674  1
  Sm3+  Sm52  1  0.51097128  0.37211681  0.55463430  1
  Sm3+  Sm53  1  0.89017987  0.00502281  0.94860591  1
  Sm3+  Sm54  1  0.88960329  0.24699854  0.43941728  1
  Sm3+  Sm55  1  0.14189100  0.00103727  0.93857880  1
  Sm3+  Sm56  1  0.88353142  0.74794111  0.44632187  1
  Sm3+  Sm57  1  0.75471742  0.12103729  0.56098956  1
  Sm3+  Sm58  1  0.88560847  0.25479677  0.94650777  1
  Sm3+  Sm59  1  0.26552220  0.12584706  0.06994759  1
  Sm3+  Sm60  1  0.88923289  -0.00395564  0.44672266  1
  Sm3+  Sm61  1  0.26693499  0.87719658  0.06809234  1
  Sm3+  Sm62  1  0.38645245  0.49246426  0.43246266  1
  Sm3+  Sm63  1  0.64385389  0.25580050  0.93989895  1
  Bi2+  Bi64  1  0.04998604  0.12590328  0.30630776  1
  Bi2+  Bi65  1  -0.04835239  0.16267054  0.77963431  1
  Bi2+  Bi66  1  -0.01873511  0.37795157  0.24226003  1
  Bi2+  Bi67  1  -0.02794167  0.35824924  0.76282728  1
  Bi2+  Bi68  1  -0.00477681  0.63764815  0.29642249  1
  Bi2+  Bi69  1  -0.02631247  0.64041182  0.79082821  1
  Bi2+  Bi70  1  0.00463433  0.83114012  0.30512633  1
  Bi2+  Bi71  1  -0.03761384  0.91721508  0.80257400  1
  Bi2+  Bi72  1  0.26299988  0.15376746  0.30461585  1
  Bi2+  Bi73  1  0.24795831  0.19028603  0.80133543  1
  Bi2+  Bi74  1  0.20636105  0.34403144  0.30547848  1
  Bi2+  Bi75  1  0.24808472  0.40478046  0.79509743  1
  Bi2+  Bi76  1  0.20817721  0.60974817  0.29795423  1
  Bi2+  Bi77  1  0.15954585  0.57974694  0.80501187  1
  Bi2+  Bi78  1  0.24151359  0.95506335  0.28685431  1
  Bi2+  Bi79  1  0.16087026  0.88596145  0.80851005  1
  Bi2+  Bi80  1  0.53304831  0.10066817  0.26029072  1
  Bi2+  Bi81  1  0.55430588  0.10590348  0.78841937  1
  Bi2+  Bi82  1  0.45762940  0.37706844  0.28275737  1
  Bi2+  Bi83  1  0.52775112  0.30097197  0.77410989  1
  Bi2+  Bi84  1  0.58420363  0.61709360  0.27946774  1
  Bi2+  Bi85  1  0.43661143  0.61970159  0.78988363  1
  Bi2+  Bi86  1  0.51290842  0.88262036  0.29724684  1
  Bi2+  Bi87  1  0.46714418  0.87060244  0.80657534  1
  Bi2+  Bi88  1  0.73974650  0.11743416  0.29956193  1
  Bi2+  Bi89  1  0.74953075  0.12168896  0.79790319  1
  Bi2+  Bi90  1  0.69282563  0.37195855  0.30444664  1
  Bi2+  Bi91  1  0.77255850  0.37488968  0.78234379  1
  Bi2+  Bi92  1  0.80204448  0.60474067  0.28490889  1
  Bi2+  Bi93  1  0.73625983  0.64583017  0.78319588  1
  Bi2+  Bi94  1  0.76446296  0.81796760  0.27879877  1
  Bi2+  Bi95  1  0.69376633  0.93445782  0.75853527  1
  Bi2+  Bi96  1  0.09843936  0.01365827  0.20319003  1
  Bi2+  Bi97  1  0.12343350  0.02067860  0.70775443  1
  Bi2+  Bi98  1  0.12608313  0.24689264  0.21589979  1
  Bi2+  Bi99  1  0.12909853  0.21715563  0.70894614  1
  Bi2+  Bi100  1  0.14046687  0.45839858  0.19470906  1
  Bi2+  Bi101  1  0.14235750  0.50976296  0.69912694  1
  Bi2+  Bi102  1  0.15330252  0.80960360  0.22953057  1
  Bi2+  Bi103  1  0.10013642  0.76349320  0.71698845  1
  Bi2+  Bi104  1  0.37187369  0.02604940  0.20777014  1
  Bi2+  Bi105  1  0.29790558  0.01041867  0.75883219  1
  Bi2+  Bi106  1  0.38195532  0.22778069  0.22039931  1
  Bi2+  Bi107  1  0.40222620  0.19222540  0.70971071  1
  Bi2+  Bi108  1  0.37269798  0.54826336  0.24711281  1
  Bi2+  Bi109  1  0.38829614  0.40144094  0.71433701  1
  Bi2+  Bi110  1  0.38648677  0.75192109  0.21299137  1
  Bi2+  Bi111  1  0.31211531  0.79744604  0.72126974  1
  Bi2+  Bi112  1  0.68813260  0.00033308  0.21062628  1
  Bi2+  Bi113  1  0.54463715  0.01001724  0.69222895  1
  Bi2+  Bi114  1  0.62548281  0.25637866  0.19508705  1
  Bi2+  Bi115  1  0.72540819  0.24333546  0.69681530  1
  Bi2+  Bi116  1  0.59446386  0.51326052  0.18188862  1
  Bi2+  Bi117  1  0.60866021  0.52363153  0.69203339  1
  Bi2+  Bi118  1  0.63284708  0.73584285  0.19667152  1
  Bi2+  Bi119  1  0.54837902  0.75790475  0.68591135  1
  Bi2+  Bi120  1  0.87796629  -0.00806092  0.24941607  1
  Bi2+  Bi121  1  0.82867088  0.06363103  0.69592614  1
  Bi2+  Bi122  1  0.89209678  0.19361622  0.23224109  1
  Bi2+  Bi123  1  0.91809417  0.24721140  0.66992060  1
  Bi2+  Bi124  1  0.95106304  0.58405022  0.19011655  1
  Bi2+  Bi125  1  0.87264226  0.51666468  0.72090262  1
  Bi2+  Bi126  1  0.90980351  0.77667910  0.20424852  1
  Bi2+  Bi127  1  0.83736996  0.79921874  0.74812439  1
  S2-  S128  1  -0.00080394  0.12523700  0.15471842  1
  S2-  S129  1  -0.01793618  0.00594358  0.65154577  1
  S2-  S130  1  -0.07300074  0.40123093  0.14678783  1
  S2-  S131  1  0.12569171  0.36274174  0.65244123  1
  S2-  S132  1  0.11055257  0.61248382  0.14578562  1
  S2-  S133  1  -0.00472561  0.51103906  0.64795942  1
  S2-  S134  1  0.04306853  0.86428451  0.15422934  1
  S2-  S135  1  -0.01440303  0.73904118  0.65023133  1
  S2-  S136  1  0.24246737  0.00383552  0.13972329  1
  S2-  S137  1  0.27112658  0.23048681  0.64685316  1
  S2-  S138  1  0.26475292  0.24418277  0.14610916  1
  S2-  S139  1  0.29684818  0.48687259  0.64738508  1
  S2-  S140  1  0.29313381  0.48826644  0.15310615  1
  S2-  S141  1  0.23382866  0.67897732  0.66891133  1
  S2-  S142  1  0.26186523  0.76928795  0.14681339  1
  S2-  S143  1  0.16648255  0.88539319  0.64865467  1
  S2-  S144  1  0.60829288  0.10960284  0.13740798  1
  S2-  S145  1  0.40640759  0.07311255  0.63645965  1
  S2-  S146  1  0.51341643  0.36623499  0.15102863  1
  S2-  S147  1  0.53705741  0.38590264  0.65206119  1
  S2-  S148  1  0.48643631  0.65401973  0.14757413  1
  S2-  S149  1  0.47769211  0.61985241  0.65256331  1
  S2-  S150  1  0.44420308  0.88235208  0.16359184  1
  S2-  S151  1  0.39939773  0.84680356  0.64224857  1
  S2-  S152  1  0.78038853  0.22485015  0.15375626  1
  S2-  S153  1  0.63619844  0.12977568  0.63528047  1
  S2-  S154  1  0.71523875  0.40612303  0.19907818  1
  S2-  S155  1  0.75344724  0.48178053  0.64402947  1
  S2-  S156  1  0.73037294  0.62030214  0.15080565  1
  S2-  S157  1  0.68342348  0.67653092  0.65610351  1
  S2-  S158  1  0.66197650  0.87367865  0.13691619  1
  S2-  S159  1  0.63221203  0.88555833  0.63411300  1
  S2-  S160  1  0.08593371  -0.03550800  0.35200020  1
  S2-  S161  1  0.08662683  0.02644359  0.84691954  1
  S2-  S162  1  0.01467576  0.24803602  0.36712033  1
  S2-  S163  1  0.14700794  0.30596545  0.85339388  1
  S2-  S164  1  0.12178685  0.47166411  0.34677053  1
  S2-  S165  1  0.01786853  0.50943879  0.85979432  1
  S2-  S166  1  0.20216873  0.73585877  0.35939155  1
  S2-  S167  1  0.01587764  0.76087948  0.85982151  1
  S2-  S168  1  0.50632474  0.03279419  0.35165056  1
  S2-  S169  1  0.38905002  -0.00016889  0.85013362  1
  S2-  S170  1  0.35745926  0.36248821  0.36377887  1
  S2-  S171  1  0.39930954  0.24589681  0.84065696  1
  S2-  S172  1  0.35777548  0.58636218  0.34884929  1
  S2-  S173  1  0.38627654  0.49445912  0.84441084  1
  S2-  S174  1  0.36045170  0.88568250  0.34758442  1
  S2-  S175  1  0.33185423  0.75928984  0.83017120  1
  S2-  S176  1  0.65376666  -0.11864215  0.34753683  1
  S2-  S177  1  0.62121760  -0.09169731  0.85328670  1
  S2-  S178  1  0.56789307  0.27176634  0.33785498  1
  S2-  S179  1  0.63953489  0.33323089  0.85072009  1
  S2-  S180  1  0.56857227  0.48152137  0.34187742  1
  S2-  S181  1  0.58391853  0.54494955  0.79711731  1
  S2-  S182  1  0.51732462  0.73477093  0.34365875  1
  S2-  S183  1  0.52221314  0.72764302  0.85031612  1
  S2-  S184  1  0.83550474  0.01194645  0.35375546  1
  S2-  S185  1  0.84582286  -0.00073039  0.85524028  1
  S2-  S186  1  0.78083748  0.25941811  0.36053072  1
  S2-  S187  1  0.89481579  0.27599153  0.84856767  1
  S2-  S188  1  0.78835210  0.48736709  0.36081468  1
  S2-  S189  1  0.79567641  0.50801209  0.84631373  1
  S2-  S190  1  0.79092484  0.72073473  0.36247766  1
  S2-  S191  1  0.77931163  0.75170358  0.85131427  1
  S2-  S192  1  0.00888973  0.11804142  0.46551931  1
  S2-  S193  1  0.01293074  0.12866171  0.95364932  1
  S2-  S194  1  0.00924411  0.37505299  0.46531817  1
  S2-  S195  1  0.01283130  0.37314416  0.95822938  1
  S2-  S196  1  0.00994797  0.62585685  0.45673257  1
  S2-  S197  1  0.01467070  0.62693270  0.95795149  1
  S2-  S198  1  0.00987811  0.86872653  0.46508535  1
  S2-  S199  1  0.01361005  0.88275278  0.95423056  1
  S2-  S200  1  0.26308025  0.12559996  0.45207060  1
  S2-  S201  1  0.26511031  0.12288737  0.95808676  1
  S2-  S202  1  0.25675300  0.36919311  0.46535753  1
  S2-  S203  1  0.26348315  0.37740070  0.95997600  1
  S2-  S204  1  0.26274091  0.61964046  0.46178854  1
  S2-  S205  1  0.26147680  0.62839345  0.94159489  1
  S2-  S206  1  0.26061189  0.86995696  0.45912223  1
  S2-  S207  1  0.26480829  0.87760183  0.95344672  1
  S2-  S208  1  0.51214139  0.13203440  0.45319118  1
  S2-  S209  1  0.51957167  0.12573075  0.94821902  1
  S2-  S210  1  0.51489526  0.37261605  0.45220056  1
  S2-  S211  1  0.51756772  0.37968377  0.94930941  1
  S2-  S212  1  0.51163081  0.61644701  0.44761769  1
  S2-  S213  1  0.52395524  0.61526748  0.94647343  1
  S2-  S214  1  0.51105256  0.86823697  0.44902445  1
  S2-  S215  1  0.51516528  0.87837296  0.95864340  1
  S2-  S216  1  0.76608942  0.12243705  0.45840541  1
  S2-  S217  1  0.76336325  0.12792982  0.95837911  1
  S2-  S218  1  0.76594270  0.37101774  0.46352130  1
  S2-  S219  1  0.76520116  0.37844925  0.95035086  1
  S2-  S220  1  0.76265829  0.62152064  0.46365028  1
  S2-  S221  1  0.76297952  0.62142080  0.94875692  1
  S2-  S222  1  0.76453025  0.87351993  0.45680623  1
  S2-  S223  1  0.76911105  0.87948557  0.95514562  1
  S2-  S224  1  0.13753973  0.00234496  0.04144817  1
  S2-  S225  1  0.13852954  0.00130486  0.55037184  1
  S2-  S226  1  0.13718112  0.24845132  0.05073478  1
  S2-  S227  1  0.13117394  0.23971446  0.54705540  1
  S2-  S228  1  0.14373366  0.50021915  0.04170612  1
  S2-  S229  1  0.13665005  0.50085035  0.55007776  1
  S2-  S230  1  0.14274142  0.75153007  0.03968251  1
  S2-  S231  1  0.14148055  0.74349552  0.55171545  1
  S2-  S232  1  0.39356294  0.00219845  0.04983825  1
  S2-  S233  1  0.38570407  -0.00435909  0.53196758  1
  S2-  S234  1  0.39337030  0.24979930  0.04616556  1
  S2-  S235  1  0.39065086  0.24888820  0.54225875  1
  S2-  S236  1  0.39022707  0.50116705  0.04585142  1
  S2-  S237  1  0.38929722  0.49212975  0.53870550  1
  S2-  S238  1  0.38753349  0.74987128  0.03946434  1
  S2-  S239  1  0.38429477  0.73941020  0.54137938  1
  S2-  S240  1  0.64141426  -0.00082832  0.03643348  1
  S2-  S241  1  0.63700949  -0.00021301  0.53129427  1
  S2-  S242  1  0.64452621  0.25740741  0.04348449  1
  S2-  S243  1  0.63714095  0.25121888  0.53860788  1
  S2-  S244  1  0.64486601  0.49381558  0.05364096  1
  S2-  S245  1  0.63482995  0.49309819  0.53975043  1
  S2-  S246  1  0.64191345  0.74900954  0.03431809  1
  S2-  S247  1  0.63583658  0.74311536  0.53429895  1
  S2-  S248  1  0.88806288  0.00108319  0.05384364  1
  S2-  S249  1  0.87773973  -0.00487596  0.54937874  1
  S2-  S250  1  0.88862165  0.25020940  0.04896076  1
  S2-  S251  1  0.88268236  0.24377122  0.54708115  1
  S2-  S252  1  0.88918675  0.50046418  0.04053020  1
  S2-  S253  1  0.88402333  0.49751254  0.54581003  1
  S2-  S254  1  0.89112015  0.74910210  0.04452872  1
  S2-  S255  1  0.87779489  0.74819361  0.54896759  1
