# generated using pymatgen
data_La6Ce7Pr13Nd19Sm19(BiS2)64
_symmetry_space_group_name_H-M   'P 1'
_cell_length_a   16.04346128
_cell_length_b   15.99623840
_cell_length_c   27.47182026
_cell_angle_alpha   89.55652529
_cell_angle_beta   89.60136429
_cell_angle_gamma   89.88084245
_symmetry_Int_Tables_number   1
_chemical_formula_structural   La6Ce7Pr13Nd19Sm19(BiS2)64
_chemical_formula_sum   'La6 Ce7 Pr13 Nd19 Sm19 Bi64 S128'
_cell_volume   7049.83517042
_cell_formula_units_Z   1
loop_
 _symmetry_equiv_pos_site_id
 _symmetry_equiv_pos_as_xyz
  1  'x, y, z'
loop_
 _atom_type_symbol
 _atom_type_oxidation_number
  La3+  3.0
  Ce3+  3.0
  Pr3+  3.0
  Nd3+  3.0
  Sm3+  3.0
  Bi2+  2.0
  S2-  -2.0
loop_
 _atom_site_type_symbol
 _atom_site_label
 _atom_site_symmetry_multiplicity
 _atom_site_fract_x
 _atom_site_fract_y
 _atom_site_fract_z
 _atom_site_occupancy
  La3+  La0  1  0.34474732  0.23766067  0.90718697  1
  La3+  La1  1  0.51587117  0.36285144  0.60586028  1
  La3+  La2  1  0.61276856  0.75698908  0.92117606  1
  La3+  La3  1  0.10623515  0.76877278  0.92534430  1
  La3+  La4  1  0.86216297  0.76535859  0.92823370  1
  La3+  La5  1  0.35236149  0.51030384  0.90550327  1
  Ce3+  Ce6  1  0.22454150  0.88358061  0.06137399  1
  Ce3+  Ce7  1  0.75596713  0.61566484  0.56551303  1
  Ce3+  Ce8  1  0.00771154  0.61713100  0.55852597  1
  Ce3+  Ce9  1  0.72373883  0.38843280  0.06947562  1
  Ce3+  Ce10  1  0.14379895  0.74088761  0.44111100  1
  Ce3+  Ce11  1  0.10804092  0.50689318  0.93211452  1
  Ce3+  Ce12  1  0.76513019  0.11722842  0.54867737  1
  Pr3+  Pr13  1  0.89127093  -0.01318838  0.42317016  1
  Pr3+  Pr14  1  0.11322926  0.02085127  0.93905694  1
  Pr3+  Pr15  1  0.85722737  0.01131908  0.93837099  1
  Pr3+  Pr16  1  0.60493146  0.01495080  0.93342876  1
  Pr3+  Pr17  1  -0.01786858  0.62844006  0.06406858  1
  Pr3+  Pr18  1  0.26312063  0.61515840  0.57204333  1
  Pr3+  Pr19  1  0.77612440  0.87744491  0.57630949  1
  Pr3+  Pr20  1  -0.02618397  0.87723021  0.07191307  1
  Pr3+  Pr21  1  -0.02855325  0.12676381  0.07756699  1
  Pr3+  Pr22  1  0.48386755  0.87398209  0.07080294  1
  Pr3+  Pr23  1  0.35910803  0.76124419  0.93279522  1
  Pr3+  Pr24  1  0.14445254  0.49303511  0.44386273  1
  Pr3+  Pr25  1  0.73002898  0.87467940  0.06853856  1
  Nd3+  Nd26  1  0.88954727  0.74329432  0.43534172  1
  Nd3+  Nd27  1  0.50570666  0.62184407  0.58081159  1
  Nd3+  Nd28  1  0.88987845  0.49673813  0.43308465  1
  Nd3+  Nd29  1  0.64134893  0.74136059  0.44176621  1
  Nd3+  Nd30  1  0.60858488  0.26366955  0.93179579  1
  Nd3+  Nd31  1  0.48081273  0.13444293  0.06309318  1
  Nd3+  Nd32  1  0.01463101  0.36288954  0.56283084  1
  Nd3+  Nd33  1  0.64246665  0.23937895  0.41974145  1
  Nd3+  Nd34  1  0.22725555  0.13362139  0.07670419  1
  Nd3+  Nd35  1  0.26476402  0.12103077  0.55543423  1
  Nd3+  Nd36  1  0.39477779  0.24483898  0.42844493  1
  Nd3+  Nd37  1  0.76067777  0.36460340  0.55705758  1
  Nd3+  Nd38  1  0.14517693  -0.00747605  0.43066438  1
  Nd3+  Nd39  1  0.10781603  0.25771977  0.95014342  1
  Nd3+  Nd40  1  0.22883755  0.63285901  0.05135620  1
  Nd3+  Nd41  1  0.64236117  -0.01315400  0.43509393  1
  Nd3+  Nd42  1  0.47613708  0.38035646  0.04383811  1
  Nd3+  Nd43  1  0.51549646  0.11974205  0.55865858  1
  Nd3+  Nd44  1  0.48020571  0.63066806  0.05496049  1
  Sm3+  Sm45  1  0.72594966  0.13171806  0.06278899  1
  Sm3+  Sm46  1  0.14367684  0.24609615  0.42620356  1
  Sm3+  Sm47  1  0.51820249  0.86686244  0.56625192  1
  Sm3+  Sm48  1  0.89334891  0.24527868  0.42608978  1
  Sm3+  Sm49  1  0.23243366  0.38181643  0.05633374  1
  Sm3+  Sm50  1  0.01747428  0.86828456  0.55580826  1
  Sm3+  Sm51  1  0.01459720  0.11783772  0.54362271  1
  Sm3+  Sm52  1  0.63823588  0.49550414  0.44457457  1
  Sm3+  Sm53  1  0.85775554  0.50908385  0.94287575  1
  Sm3+  Sm54  1  0.85684809  0.26121350  0.95085453  1
  Sm3+  Sm55  1  0.36095078  0.00797636  0.95525960  1
  Sm3+  Sm56  1  0.39674903  0.49096493  0.45454859  1
  Sm3+  Sm57  1  0.72878994  0.63044899  0.05766202  1
  Sm3+  Sm58  1  0.26112962  0.86930872  0.55684500  1
  Sm3+  Sm59  1  0.60635401  0.50436921  0.92924035  1
  Sm3+  Sm60  1  0.39402987  0.73989642  0.44920690  1
  Sm3+  Sm61  1  0.39244818  -0.00749109  0.44639137  1
  Sm3+  Sm62  1  0.26148279  0.36182157  0.56332095  1
  Sm3+  Sm63  1  -0.01903718  0.38568875  0.06134640  1
  Bi2+  Bi64  1  -0.10110326  0.22216379  0.28113360  1
  Bi2+  Bi65  1  -0.01079076  0.11461831  0.79893825  1
  Bi2+  Bi66  1  -0.02710799  0.44392794  0.30253170  1
  Bi2+  Bi67  1  -0.01866992  0.31845648  0.79837988  1
  Bi2+  Bi68  1  0.00015073  0.64694643  0.28648387  1
  Bi2+  Bi69  1  -0.00833915  0.58416975  0.79781139  1
  Bi2+  Bi70  1  0.02969512  0.87018069  0.29510639  1
  Bi2+  Bi71  1  0.05131179  0.83351903  0.77696793  1
  Bi2+  Bi72  1  0.25718844  0.10454185  0.30187152  1
  Bi2+  Bi73  1  0.22309385  0.03917921  0.80528645  1
  Bi2+  Bi74  1  0.29153419  0.33427288  0.25385840  1
  Bi2+  Bi75  1  0.18084898  0.30623874  0.79991104  1
  Bi2+  Bi76  1  0.26082867  0.53505673  0.28418902  1
  Bi2+  Bi77  1  0.21766158  0.73552135  0.80572860  1
  Bi2+  Bi78  1  0.23672339  0.84988195  0.25882359  1
  Bi2+  Bi79  1  0.34732268  0.88597098  0.81921952  1
  Bi2+  Bi80  1  0.50175406  0.11744689  0.30254650  1
  Bi2+  Bi81  1  0.52683633  0.07209195  0.78096918  1
  Bi2+  Bi82  1  0.56991643  0.39303150  0.28193551  1
  Bi2+  Bi83  1  0.52346812  0.31759344  0.79899360  1
  Bi2+  Bi84  1  0.48365055  0.61883919  0.31189069  1
  Bi2+  Bi85  1  0.47563585  0.61954025  0.77790943  1
  Bi2+  Bi86  1  0.51507398  0.85838879  0.29634547  1
  Bi2+  Bi87  1  0.52503886  0.83012457  0.77688141  1
  Bi2+  Bi88  1  0.73342314  0.16390743  0.23172788  1
  Bi2+  Bi89  1  0.79708657  0.07462222  0.80886730  1
  Bi2+  Bi90  1  0.76187761  0.42664797  0.30792632  1
  Bi2+  Bi91  1  0.77555647  0.25647991  0.75545285  1
  Bi2+  Bi92  1  0.74485468  0.62323398  0.28792685  1
  Bi2+  Bi93  1  0.73801665  0.61792829  0.79012149  1
  Bi2+  Bi94  1  0.76499295  0.94768654  0.30296262  1
  Bi2+  Bi95  1  0.74751197  0.88670270  0.78830232  1
  Bi2+  Bi96  1  0.14764633  0.06516386  0.21324681  1
  Bi2+  Bi97  1  0.09254554  0.00207914  0.72251433  1
  Bi2+  Bi98  1  0.09493801  0.31128056  0.26647283  1
  Bi2+  Bi99  1  0.09914370  0.23103728  0.70154167  1
  Bi2+  Bi100  1  0.14124113  0.49548089  0.19651143  1
  Bi2+  Bi101  1  0.13720539  0.48159883  0.75433204  1
  Bi2+  Bi102  1  0.11777420  0.72435455  0.20728410  1
  Bi2+  Bi103  1  0.15255125  0.70361709  0.69993431  1
  Bi2+  Bi104  1  0.39782162  -0.06214294  0.21586503  1
  Bi2+  Bi105  1  0.36614050  -0.00019164  0.70999481  1
  Bi2+  Bi106  1  0.43149903  0.20872482  0.21271044  1
  Bi2+  Bi107  1  0.36493691  0.20831266  0.70881933  1
  Bi2+  Bi108  1  0.41676600  0.48283890  0.21680360  1
  Bi2+  Bi109  1  0.34754368  0.47110452  0.71985607  1
  Bi2+  Bi110  1  0.38745728  0.73721221  0.22243685  1
  Bi2+  Bi111  1  0.31980995  0.80551881  0.70948955  1
  Bi2+  Bi112  1  0.61661565  0.00230438  0.22603821  1
  Bi2+  Bi113  1  0.55511138  -0.03747944  0.68611351  1
  Bi2+  Bi114  1  0.62947275  0.30826276  0.18485939  1
  Bi2+  Bi115  1  0.65157308  0.13691824  0.70061619  1
  Bi2+  Bi116  1  0.60712812  0.55447081  0.21283701  1
  Bi2+  Bi117  1  0.66982995  0.44518232  0.72224683  1
  Bi2+  Bi118  1  0.60892854  0.76833608  0.20669313  1
  Bi2+  Bi119  1  0.62970218  0.70251306  0.70402032  1
  Bi2+  Bi120  1  0.92667321  0.02601966  0.20235493  1
  Bi2+  Bi121  1  0.89597530  0.04225009  0.70765978  1
  Bi2+  Bi122  1  0.82357878  0.35552310  0.20136437  1
  Bi2+  Bi123  1  0.91646528  0.31247485  0.67968920  1
  Bi2+  Bi124  1  0.88050234  0.54878470  0.21053202  1
  Bi2+  Bi125  1  0.87735902  0.48554914  0.72494219  1
  Bi2+  Bi126  1  0.85253201  0.77213930  0.20812801  1
  Bi2+  Bi127  1  0.89023753  0.73944437  0.69055965  1
  S2-  S128  1  0.02815457  0.16633238  0.17193540  1
  S2-  S129  1  0.02598770  0.10108492  0.64062569  1
  S2-  S130  1  -0.00295548  0.49574093  0.13745126  1
  S2-  S131  1  0.13269908  0.34910304  0.63609425  1
  S2-  S132  1  -0.01910680  0.73941997  0.14342737  1
  S2-  S133  1  0.02449980  0.62933956  0.65491357  1
  S2-  S134  1  0.05033661  0.95764166  0.15487839  1
  S2-  S135  1  -0.06254349  0.86956010  0.64135889  1
  S2-  S136  1  0.28329068  0.13164811  0.17083339  1
  S2-  S137  1  0.26720408  0.11723084  0.65478566  1
  S2-  S138  1  0.22177479  0.37060548  0.15463812  1
  S2-  S139  1  0.34698157  0.34978516  0.64916460  1
  S2-  S140  1  0.22832263  0.63134660  0.15110430  1
  S2-  S141  1  0.35665052  0.59426339  0.65737864  1
  S2-  S142  1  0.27069464  0.88025243  0.15513947  1
  S2-  S143  1  0.19299580  0.86011834  0.64621133  1
  S2-  S144  1  0.55165323  0.13691757  0.15329783  1
  S2-  S145  1  0.50613482  0.19482088  0.64830641  1
  S2-  S146  1  0.49510394  0.39425446  0.14257211  1
  S2-  S147  1  0.50877493  0.39109243  0.71141067  1
  S2-  S148  1  0.47664342  0.72865444  0.13828270  1
  S2-  S149  1  0.59636330  0.55722984  0.65632794  1
  S2-  S150  1  0.60581506  0.90659078  0.14270259  1
  S2-  S151  1  0.50770602  0.76323398  0.64481136  1
  S2-  S152  1  0.82133688  0.12343340  0.14455529  1
  S2-  S153  1  0.77133782  0.04748374  0.63837758  1
  S2-  S154  1  0.71213734  0.51481671  0.13636874  1
  S2-  S155  1  0.68212304  0.34371657  0.64509032  1
  S2-  S156  1  0.73287590  0.73226580  0.13928120  1
  S2-  S157  1  0.81267273  0.59249382  0.65613707  1
  S2-  S158  1  0.84400120  0.90420646  0.15002102  1
  S2-  S159  1  0.74774438  0.82171323  0.67257705  1
  S2-  S160  1  0.11090101  0.00813477  0.33362492  1
  S2-  S161  1  0.11402611  -0.08474360  0.85779584  1
  S2-  S162  1  0.02229993  0.25345293  0.35511836  1
  S2-  S163  1  0.15728396  0.16625092  0.87047872  1
  S2-  S164  1  0.13081477  0.48253737  0.34461324  1
  S2-  S165  1  0.19845986  0.49299460  0.84861493  1
  S2-  S166  1  0.11496021  0.74664695  0.34570232  1
  S2-  S167  1  -0.01451921  0.72751784  0.85264051  1
  S2-  S168  1  0.37143526  0.01194306  0.34948356  1
  S2-  S169  1  0.36052963  0.07023272  0.86359773  1
  S2-  S170  1  0.26951253  0.24721204  0.35516519  1
  S2-  S171  1  0.34818513  0.27283162  0.80747812  1
  S2-  S172  1  0.38810524  0.50240319  0.35586686  1
  S2-  S173  1  0.42735660  0.46696850  0.81566709  1
  S2-  S174  1  0.39999927  0.75206896  0.35196021  1
  S2-  S175  1  0.36786688  0.66320334  0.84687513  1
  S2-  S176  1  0.63981502  0.08983404  0.35350839  1
  S2-  S177  1  0.60472580  -0.09959864  0.85436518  1
  S2-  S178  1  0.51179095  0.26500812  0.35062507  1
  S2-  S179  1  0.59768519  0.14446621  0.85764252  1
  S2-  S180  1  0.62854411  0.61432063  0.36900373  1
  S2-  S181  1  0.63136067  0.38452385  0.85610009  1
  S2-  S182  1  0.64682171  0.85686446  0.36318481  1
  S2-  S183  1  0.59628680  0.61641888  0.85098627  1
  S2-  S184  1  0.87600807  0.05816439  0.32749481  1
  S2-  S185  1  0.86458962  -0.08066339  0.85210084  1
  S2-  S186  1  0.77600765  0.26763145  0.35355223  1
  S2-  S187  1  0.84463186  0.27094163  0.85347683  1
  S2-  S188  1  0.87983471  0.62349221  0.36045174  1
  S2-  S189  1  0.85011901  0.51396933  0.84432514  1
  S2-  S190  1  0.88480424  0.85209840  0.35341786  1
  S2-  S191  1  0.75350660  0.74571953  0.84841263  1
  S2-  S192  1  0.01826094  0.11532456  0.44246252  1
  S2-  S193  1  -0.02067623  0.13785668  0.96261163  1
  S2-  S194  1  0.01465012  0.37179873  0.45611489  1
  S2-  S195  1  -0.01717547  0.38297163  0.95619030  1
  S2-  S196  1  0.01779489  0.61766649  0.45362501  1
  S2-  S197  1  -0.01530904  0.62749505  0.95670026  1
  S2-  S198  1  0.02136571  0.86730805  0.45210446  1
  S2-  S199  1  -0.01405023  0.89099741  0.96068680  1
  S2-  S200  1  0.26666957  0.11639479  0.45186641  1
  S2-  S201  1  0.24105238  0.13572186  0.97274885  1
  S2-  S202  1  0.26881524  0.36921003  0.45691427  1
  S2-  S203  1  0.23901688  0.37472038  0.95115135  1
  S2-  S204  1  0.27007736  0.61717485  0.46124435  1
  S2-  S205  1  0.22912663  0.63510972  0.94717057  1
  S2-  S206  1  0.26893433  0.86692168  0.45165079  1
  S2-  S207  1  0.23650718  0.88800865  0.95659830  1
  S2-  S208  1  0.51306884  0.11457294  0.45432206  1
  S2-  S209  1  0.47659377  0.14169212  0.95944776  1
  S2-  S210  1  0.51987267  0.37172203  0.44980202  1
  S2-  S211  1  0.46734430  0.37688316  0.94014562  1
  S2-  S212  1  0.51284947  0.61926387  0.47163846  1
  S2-  S213  1  0.47656351  0.62582048  0.95181929  1
  S2-  S214  1  0.51130653  0.86678050  0.46223509  1
  S2-  S215  1  0.48162145  0.88403694  0.95848444  1
  S2-  S216  1  0.77327051  0.11731092  0.44716466  1
  S2-  S217  1  0.73393757  0.13896777  0.95880940  1
  S2-  S218  1  0.76540541  0.37399157  0.45298061  1
  S2-  S219  1  0.73535543  0.38541721  0.96137256  1
  S2-  S220  1  0.76604667  0.61606044  0.46222955  1
  S2-  S221  1  0.73283503  0.62600073  0.95334930  1
  S2-  S222  1  0.76788476  0.86659720  0.46323127  1
  S2-  S223  1  0.73102140  0.88746960  0.95736580  1
  S2-  S224  1  0.10570838  0.01397969  0.04650823  1
  S2-  S225  1  0.14009109  -0.00635665  0.53866994  1
  S2-  S226  1  0.10316374  0.25915058  0.05455197  1
  S2-  S227  1  0.13884565  0.23967253  0.53151905  1
  S2-  S228  1  0.11035138  0.50248287  0.03719201  1
  S2-  S229  1  0.13929446  0.49453508  0.54895424  1
  S2-  S230  1  0.10654092  0.75883460  0.03966584  1
  S2-  S231  1  0.13941314  0.74063238  0.54556603  1
  S2-  S232  1  0.35850458  0.00623546  0.05864844  1
  S2-  S233  1  0.38868787  -0.00962980  0.55117836  1
  S2-  S234  1  0.35350717  0.25695587  0.05877721  1
  S2-  S235  1  0.38956526  0.24270779  0.53904715  1
  S2-  S236  1  0.35309474  0.50705935  0.04780790  1
  S2-  S237  1  0.39099911  0.48542228  0.55534570  1
  S2-  S238  1  0.35201293  0.75845891  0.03980081  1
  S2-  S239  1  0.38128218  0.74711709  0.55164349  1
  S2-  S240  1  0.60518406  0.01220107  0.04085113  1
  S2-  S241  1  0.63836498  -0.00953717  0.54335762  1
  S2-  S242  1  0.60695504  0.25885066  0.04135011  1
  S2-  S243  1  0.63925867  0.23939918  0.53632023  1
  S2-  S244  1  0.60043708  0.50638762  0.03406131  1
  S2-  S245  1  0.63446048  0.48804967  0.54658870  1
  S2-  S246  1  0.60507404  0.75224810  0.03423840  1
  S2-  S247  1  0.64302323  0.74762153  0.54883165  1
  S2-  S248  1  0.85069959  0.00825512  0.04316266  1
  S2-  S249  1  0.89600582  -0.00631248  0.53385860  1
  S2-  S250  1  0.85478212  0.26389433  0.05407077  1
  S2-  S251  1  0.89103928  0.24190460  0.53629580  1
  S2-  S252  1  0.85527298  0.50459033  0.04498038  1
  S2-  S253  1  0.88895406  0.48836740  0.54385871  1
  S2-  S254  1  0.85606540  0.75104487  0.03678230  1
  S2-  S255  1  0.88868163  0.74289806  0.54334650  1
