# generated using pymatgen
data_La6Ce7Pr13Nd19Sm19(BiS2)64
_symmetry_space_group_name_H-M   'P 1'
_cell_length_a   16.10780586
_cell_length_b   16.08477661
_cell_length_c   27.22085453
_cell_angle_alpha   89.95852723
_cell_angle_beta   89.76378274
_cell_angle_gamma   89.94806755
_symmetry_Int_Tables_number   1
_chemical_formula_structural   La6Ce7Pr13Nd19Sm19(BiS2)64
_chemical_formula_sum   'La6 Ce7 Pr13 Nd19 Sm19 Bi64 S128'
_cell_volume   7052.59902786
_cell_formula_units_Z   1
loop_
 _symmetry_equiv_pos_site_id
 _symmetry_equiv_pos_as_xyz
  1  'x, y, z'
loop_
 _atom_type_symbol
 _atom_type_oxidation_number
  La3+  3.0
  Ce3+  3.0
  Pr3+  3.0
  Nd3+  3.0
  Sm3+  3.0
  Bi2+  2.0
  S2-  -2.0
loop_
 _atom_site_type_symbol
 _atom_site_label
 _atom_site_symmetry_multiplicity
 _atom_site_fract_x
 _atom_site_fract_y
 _atom_site_fract_z
 _atom_site_occupancy
  La3+  La0  1  0.49110935  0.36919738  0.08404237  1
  La3+  La1  1  0.73284617  0.37118742  0.57350761  1
  La3+  La2  1  0.50481930  0.87012006  0.10903807  1
  La3+  La3  1  0.38805920  0.24750816  0.92791633  1
  La3+  La4  1  0.75994489  0.36473563  0.09052852  1
  La3+  La5  1  0.13600544  0.49466322  0.90772226  1
  Ce3+  Ce6  1  0.49711373  0.87108783  0.55129919  1
  Ce3+  Ce7  1  0.24578043  0.37593012  0.56175975  1
  Ce3+  Ce8  1  -0.00803780  0.37792881  0.56676056  1
  Ce3+  Ce9  1  0.50443022  0.62136071  0.55676608  1
  Ce3+  Ce10  1  0.87471782  0.24983640  0.94413910  1
  Ce3+  Ce11  1  0.87839728  -0.00411693  0.93535518  1
  Ce3+  Ce12  1  -0.00716181  0.87520154  0.56396741  1
  Pr3+  Pr13  1  0.63025413  0.74831533  0.42032695  1
  Pr3+  Pr14  1  0.13072132  -0.00503316  0.92834912  1
  Pr3+  Pr15  1  0.73599144  0.87326188  0.56943646  1
  Pr3+  Pr16  1  0.25189874  0.11875118  0.05665241  1
  Pr3+  Pr17  1  -0.00039624  0.37394312  0.06093902  1
  Pr3+  Pr18  1  -0.00024051  0.86245163  0.06215084  1
  Pr3+  Pr19  1  0.75275541  0.62598206  0.06799645  1
  Pr3+  Pr20  1  0.63095381  -0.00000116  0.93186044  1
  Pr3+  Pr21  1  0.86589912  0.74207039  0.92292593  1
  Pr3+  Pr22  1  0.62591537  0.74688218  0.94400393  1
  Pr3+  Pr23  1  0.86969166  -0.00198438  0.44146757  1
  Pr3+  Pr24  1  0.02734195  0.61914006  0.61927662  1
  Pr3+  Pr25  1  0.36422540  -0.00628512  0.42208502  1
  Nd3+  Nd26  1  0.11706244  0.74400893  0.44254181  1
  Nd3+  Nd27  1  0.11817460  -0.00236605  0.43218052  1
  Nd3+  Nd28  1  0.74884249  0.62384984  0.56402759  1
  Nd3+  Nd29  1  0.75089069  0.87279236  0.06108260  1
  Nd3+  Nd30  1  0.48926986  0.11977129  0.55234946  1
  Nd3+  Nd31  1  0.62014021  0.24828380  0.43102705  1
  Nd3+  Nd32  1  0.74852326  0.11621663  0.06370877  1
  Nd3+  Nd33  1  0.37397395  0.49702137  0.43684317  1
  Nd3+  Nd34  1  0.37251981  0.74573602  0.43633985  1
  Nd3+  Nd35  1  0.63053468  0.49548416  0.42598873  1
  Nd3+  Nd36  1  0.24415775  0.86967053  0.55878772  1
  Nd3+  Nd37  1  0.37786651  0.74898322  0.94578986  1
  Nd3+  Nd38  1  0.11872608  0.25029349  0.44868643  1
  Nd3+  Nd39  1  0.49866879  0.11983062  0.06670959  1
  Nd3+  Nd40  1  0.24518959  0.62071151  0.06252059  1
  Nd3+  Nd41  1  0.00279833  0.11741535  0.05418862  1
  Nd3+  Nd42  1  0.12860659  0.74786546  0.92989675  1
  Nd3+  Nd43  1  0.85806799  0.48090600  0.90222702  1
  Nd3+  Nd44  1  0.24663145  0.86428269  0.07363363  1
  Sm3+  Sm45  1  0.37720860  0.49759453  0.94869688  1
  Sm3+  Sm46  1  0.62931394  0.49401325  0.95937626  1
  Sm3+  Sm47  1  0.24695005  0.37438955  0.05975404  1
  Sm3+  Sm48  1  0.48850052  0.37154197  0.55513907  1
  Sm3+  Sm49  1  0.50133140  0.62562287  0.06475750  1
  Sm3+  Sm50  1  0.36948045  0.24875017  0.43665403  1
  Sm3+  Sm51  1  0.74038543  0.12266959  0.55099556  1
  Sm3+  Sm52  1  0.12677809  0.25271702  0.94336533  1
  Sm3+  Sm53  1  0.87015905  0.24842698  0.45060693  1
  Sm3+  Sm54  1  0.62828813  0.25340857  0.95584732  1
  Sm3+  Sm55  1  0.37891004  -0.00592349  0.95031413  1
  Sm3+  Sm56  1  -0.00164262  0.61816124  0.04590367  1
  Sm3+  Sm57  1  0.61937595  -0.00217073  0.43400516  1
  Sm3+  Sm58  1  0.11734301  0.49896491  0.44671611  1
  Sm3+  Sm59  1  -0.00489334  0.11915419  0.56296778  1
  Sm3+  Sm60  1  0.24527882  0.12027308  0.55279468  1
  Sm3+  Sm61  1  0.86921577  0.74767190  0.44345173  1
  Sm3+  Sm62  1  0.24876056  0.62291737  0.55462705  1
  Sm3+  Sm63  1  0.86890018  0.49647309  0.44493301  1
  Bi2+  Bi64  1  0.01602041  0.09118694  0.31336326  1
  Bi2+  Bi65  1  -0.04764769  0.08729645  0.81832898  1
  Bi2+  Bi66  1  0.00636680  0.36479282  0.29314138  1
  Bi2+  Bi67  1  0.00568632  0.34132564  0.79180879  1
  Bi2+  Bi68  1  0.00931023  0.62442925  0.29124755  1
  Bi2+  Bi69  1  0.00042805  0.66644724  0.81593211  1
  Bi2+  Bi70  1  -0.02373798  0.85511470  0.27501263  1
  Bi2+  Bi71  1  0.03839116  0.90484602  0.77817492  1
  Bi2+  Bi72  1  0.20052736  0.14235845  0.28626600  1
  Bi2+  Bi73  1  0.14552479  0.09623755  0.80516776  1
  Bi2+  Bi74  1  0.21393491  0.42574942  0.28448593  1
  Bi2+  Bi75  1  0.26949834  0.38025297  0.78694736  1
  Bi2+  Bi76  1  0.20290825  0.64190342  0.27663532  1
  Bi2+  Bi77  1  0.30669325  0.64212787  0.79195314  1
  Bi2+  Bi78  1  0.22793668  0.87287902  0.28733372  1
  Bi2+  Bi79  1  0.29075191  0.91446443  0.79690044  1
  Bi2+  Bi80  1  0.50590963  0.16340785  0.29177578  1
  Bi2+  Bi81  1  0.47396963  0.13946794  0.80151474  1
  Bi2+  Bi82  1  0.45377319  0.40331688  0.28941134  1
  Bi2+  Bi83  1  0.49781695  0.41968895  0.77009785  1
  Bi2+  Bi84  1  0.45113189  0.59825794  0.22925646  1
  Bi2+  Bi85  1  0.50406765  0.61218877  0.79546429  1
  Bi2+  Bi86  1  0.50657570  0.87631447  0.30826818  1
  Bi2+  Bi87  1  0.50467554  0.87425980  0.76874476  1
  Bi2+  Bi88  1  0.82539366  0.11600183  0.28728992  1
  Bi2+  Bi89  1  0.69835023  0.17604740  0.75269201  1
  Bi2+  Bi90  1  0.76931032  0.35925609  0.29552456  1
  Bi2+  Bi91  1  0.68560420  0.33371571  0.81522937  1
  Bi2+  Bi92  1  0.82017147  0.61497403  0.28663250  1
  Bi2+  Bi93  1  0.70250347  0.61996549  0.78342405  1
  Bi2+  Bi94  1  0.75563459  0.87731852  0.29126296  1
  Bi2+  Bi95  1  0.74873829  0.88943879  0.80445276  1
  Bi2+  Bi96  1  0.10004906  0.00200876  0.22142893  1
  Bi2+  Bi97  1  0.14339619  0.02558543  0.69985267  1
  Bi2+  Bi98  1  0.12551960  0.30625540  0.20294816  1
  Bi2+  Bi99  1  0.10768223  0.22360327  0.71239387  1
  Bi2+  Bi100  1  0.10857275  0.49251578  0.14971966  1
  Bi2+  Bi101  1  0.24442977  0.47476432  0.69184170  1
  Bi2+  Bi102  1  0.09406961  0.74404540  0.19665053  1
  Bi2+  Bi103  1  0.16135338  0.78000470  0.70622806  1
  Bi2+  Bi104  1  0.38589025  0.02532799  0.21409807  1
  Bi2+  Bi105  1  0.40380600  0.01957838  0.71808668  1
  Bi2+  Bi106  1  0.31320019  0.24226608  0.21544986  1
  Bi2+  Bi107  1  0.30709118  0.22669609  0.71503230  1
  Bi2+  Bi108  1  0.28925324  0.51718481  0.18899584  1
  Bi2+  Bi109  1  0.42609499  0.54635006  0.68787075  1
  Bi2+  Bi110  1  0.34346940  0.76393606  0.22263301  1
  Bi2+  Bi111  1  0.40983945  0.73981718  0.70200951  1
  Bi2+  Bi112  1  0.73806688  0.01629939  0.20155351  1
  Bi2+  Bi113  1  0.65261903  0.01364840  0.69140481  1
  Bi2+  Bi114  1  0.61982949  0.24439742  0.21011256  1
  Bi2+  Bi115  1  0.52725429  0.25032011  0.71024184  1
  Bi2+  Bi116  1  0.62515087  0.50428126  0.22865749  1
  Bi2+  Bi117  1  0.65023258  0.48101058  0.70012274  1
  Bi2+  Bi118  1  0.63240014  0.74032222  0.22040493  1
  Bi2+  Bi119  1  0.61450331  0.74563451  0.70894692  1
  Bi2+  Bi120  1  0.91171361  -0.05250090  0.17755503  1
  Bi2+  Bi121  1  0.89614286  0.01069778  0.71665048  1
  Bi2+  Bi122  1  0.94143157  0.22378676  0.21860565  1
  Bi2+  Bi123  1  0.90925922  0.20802006  0.72741882  1
  Bi2+  Bi124  1  0.94021001  0.49556306  0.21419541  1
  Bi2+  Bi125  1  0.88879490  0.49661145  0.71674117  1
  Bi2+  Bi126  1  0.85306461  0.75835437  0.20253025  1
  Bi2+  Bi127  1  0.87615705  0.75476311  0.70957935  1
  S2-  S128  1  0.00163603  0.10349730  0.15309322  1
  S2-  S129  1  0.00689663  0.00609121  0.63635434  1
  S2-  S130  1  -0.08747190  0.35550615  0.14949723  1
  S2-  S131  1  0.01174252  0.44870143  0.65504122  1
  S2-  S132  1  -0.03301434  0.70344909  0.13175271  1
  S2-  S133  1  0.01633345  0.62167367  0.72691097  1
  S2-  S134  1  0.11238324  0.88990777  0.13961550  1
  S2-  S135  1  0.01392886  0.79069076  0.65036939  1
  S2-  S136  1  0.25943464  0.11316514  0.15715650  1
  S2-  S137  1  0.28757154  0.09270439  0.64652781  1
  S2-  S138  1  0.33756756  0.35663728  0.14247098  1
  S2-  S139  1  0.34062825  0.35225640  0.64197189  1
  S2-  S140  1  0.24140368  0.72131955  0.14354183  1
  S2-  S141  1  0.19696973  0.63519174  0.64948067  1
  S2-  S142  1  0.34522545  0.89786877  0.15678906  1
  S2-  S143  1  0.28039589  0.85022237  0.65697046  1
  S2-  S144  1  0.49618752  0.14422165  0.16658111  1
  S2-  S145  1  0.51533730  0.09715848  0.65039803  1
  S2-  S146  1  0.52597051  0.38251313  0.18558516  1
  S2-  S147  1  0.58496043  0.36068723  0.63579198  1
  S2-  S148  1  0.49923369  0.70729049  0.15250639  1
  S2-  S149  1  0.61852559  0.62023049  0.63343010  1
  S2-  S150  1  0.51468773  0.92810720  0.21248778  1
  S2-  S151  1  0.58986453  0.87215895  0.63394751  1
  S2-  S152  1  0.74637884  0.17968335  0.15631496  1
  S2-  S153  1  0.73427362  0.13518375  0.64871772  1
  S2-  S154  1  0.72396333  0.38539934  0.19281934  1
  S2-  S155  1  0.79286115  0.39344887  0.67017299  1
  S2-  S156  1  0.71281540  0.62332524  0.16768084  1
  S2-  S157  1  0.85069266  0.62707895  0.64961980  1
  S2-  S158  1  0.67438906  0.86372445  0.15099777  1
  S2-  S159  1  0.80419757  0.88285424  0.66606075  1
  S2-  S160  1  0.22520459  -0.00203321  0.35390823  1
  S2-  S161  1  0.14626991  -0.12794507  0.85594980  1
  S2-  S162  1  0.10829030  0.24181351  0.34985552  1
  S2-  S163  1  0.13485965  0.33274763  0.85610713  1
  S2-  S164  1  0.09035971  0.48781379  0.35024228  1
  S2-  S165  1  0.00141769  0.49233059  0.83789891  1
  S2-  S166  1  0.13153926  0.76063614  0.34394094  1
  S2-  S167  1  0.15923494  0.64349128  0.84840661  1
  S2-  S168  1  0.42868339  0.03659223  0.32835037  1
  S2-  S169  1  0.37173019  0.01930531  0.85240969  1
  S2-  S170  1  0.38783233  0.25856649  0.33917152  1
  S2-  S171  1  0.33649829  0.23485983  0.83064508  1
  S2-  S172  1  0.34586281  0.50165585  0.33920282  1
  S2-  S173  1  0.31073037  0.49354238  0.85802280  1
  S2-  S174  1  0.36195764  0.79700045  0.34193314  1
  S2-  S175  1  0.36226656  0.77250966  0.84627736  1
  S2-  S176  1  0.64486709  -0.02328970  0.33773140  1
  S2-  S177  1  0.59876952  -0.03961133  0.83392340  1
  S2-  S178  1  0.63403134  0.26846492  0.33154632  1
  S2-  S179  1  0.54827173  0.25584890  0.86846608  1
  S2-  S180  1  0.56648501  0.49110958  0.33124364  1
  S2-  S181  1  0.68731183  0.47818014  0.86609299  1
  S2-  S182  1  0.57437648  0.73062539  0.32211224  1
  S2-  S183  1  0.69127375  0.75710457  0.85036919  1
  S2-  S184  1  0.88522552  -0.03195351  0.34277165  1
  S2-  S185  1  0.78570121  0.02989291  0.85558408  1
  S2-  S186  1  0.85536285  0.26001817  0.35306761  1
  S2-  S187  1  0.84916996  0.32310134  0.85541444  1
  S2-  S188  1  0.77807923  0.49079389  0.35999260  1
  S2-  S189  1  0.84386871  0.62078883  0.84327251  1
  S2-  S190  1  0.78104896  0.74229664  0.35825505  1
  S2-  S191  1  0.90799350  0.83010088  0.83481093  1
  S2-  S192  1  -0.00467055  0.12378226  0.45802620  1
  S2-  S193  1  0.00504140  0.12575185  0.94832524  1
  S2-  S194  1  -0.00694893  0.37346546  0.45845508  1
  S2-  S195  1  -0.00261742  0.37351501  0.95448524  1
  S2-  S196  1  -0.01031437  0.62092445  0.44557470  1
  S2-  S197  1  -0.00211307  0.62295228  0.94407302  1
  S2-  S198  1  -0.00476069  0.87201395  0.45188808  1
  S2-  S199  1  0.00021948  0.87337329  0.95282383  1
  S2-  S200  1  0.24543499  0.12713337  0.44909940  1
  S2-  S201  1  0.25160745  0.12525910  0.94961262  1
  S2-  S202  1  0.24466337  0.37451436  0.45282638  1
  S2-  S203  1  0.25868922  0.36859959  0.95739575  1
  S2-  S204  1  0.24493036  0.62064773  0.44861684  1
  S2-  S205  1  0.25685633  0.62275777  0.95761145  1
  S2-  S206  1  0.24285558  0.86728894  0.45297646  1
  S2-  S207  1  0.25599017  0.87288057  0.96127991  1
  S2-  S208  1  0.49332296  0.12276948  0.44541888  1
  S2-  S209  1  0.50499403  0.11837724  0.96045655  1
  S2-  S210  1  0.49551983  0.37111601  0.44891805  1
  S2-  S211  1  0.50195808  0.37710320  0.96934482  1
  S2-  S212  1  0.49924783  0.62182089  0.44547713  1
  S2-  S213  1  0.50300336  0.61892080  0.95780932  1
  S2-  S214  1  0.49667442  0.87342656  0.44475905  1
  S2-  S215  1  0.50291367  0.87446718  0.94828549  1
  S2-  S216  1  0.74421135  0.12355597  0.44569375  1
  S2-  S217  1  0.74773143  0.12841830  0.95869162  1
  S2-  S218  1  0.74472418  0.36619547  0.46042986  1
  S2-  S219  1  0.75165592  0.37180702  0.97277317  1
  S2-  S220  1  0.74762732  0.62171788  0.45787737  1
  S2-  S221  1  0.74877391  0.61686719  0.96108364  1
  S2-  S222  1  0.74383352  0.87726959  0.45564680  1
  S2-  S223  1  0.75047486  0.87485530  0.95485221  1
  S2-  S224  1  0.12656621  -0.00380713  0.03667444  1
  S2-  S225  1  0.12450076  -0.00210576  0.53792790  1
  S2-  S226  1  0.12687679  0.24721585  0.04872434  1
  S2-  S227  1  0.12004404  0.24543895  0.55529654  1
  S2-  S228  1  0.12653308  0.49707393  0.03366301  1
  S2-  S229  1  0.12085693  0.50244121  0.54948459  1
  S2-  S230  1  0.12307208  0.74142115  0.03605668  1
  S2-  S231  1  0.12051302  0.74320987  0.54652102  1
  S2-  S232  1  0.37988979  -0.00690313  0.05287202  1
  S2-  S233  1  0.36731334  -0.00597702  0.53576630  1
  S2-  S234  1  0.37615583  0.24391349  0.04217771  1
  S2-  S235  1  0.36756953  0.24469610  0.54053649  1
  S2-  S236  1  0.37672528  0.50257704  0.05255909  1
  S2-  S237  1  0.37165668  0.50012449  0.54318300  1
  S2-  S238  1  0.38148169  0.74797593  0.04998779  1
  S2-  S239  1  0.37238102  0.74497276  0.54368177  1
  S2-  S240  1  0.62154331  -0.00548012  0.05014829  1
  S2-  S241  1  0.61814749  0.00191969  0.53753894  1
  S2-  S242  1  0.62311911  0.24863747  0.05897813  1
  S2-  S243  1  0.61357490  0.24139814  0.53790529  1
  S2-  S244  1  0.62404641  0.49655686  0.06448023  1
  S2-  S245  1  0.61561799  0.49292676  0.53376510  1
  S2-  S246  1  0.62289161  0.74906091  0.04940334  1
  S2-  S247  1  0.62020541  0.74851465  0.53118123  1
  S2-  S248  1  0.87544161  -0.00348490  0.04340799  1
  S2-  S249  1  0.86346555  0.00182515  0.54681984  1
  S2-  S250  1  0.87629838  0.23920525  0.04878346  1
  S2-  S251  1  0.86994587  0.24418142  0.55568398  1
  S2-  S252  1  0.87435308  0.50094128  0.05955587  1
  S2-  S253  1  0.86330492  0.49127011  0.54695370  1
  S2-  S254  1  0.86991842  0.74828117  0.03364004  1
  S2-  S255  1  0.86382357  0.75639353  0.54501101  1
