# generated using pymatgen
data_La6Ce7Pr13Nd19Sm19(BiS2)64
_symmetry_space_group_name_H-M   'P 1'
_cell_length_a   16.09575364
_cell_length_b   15.99599383
_cell_length_c   27.25858561
_cell_angle_alpha   90.27618768
_cell_angle_beta   90.15901060
_cell_angle_gamma   89.96471644
_symmetry_Int_Tables_number   1
_chemical_formula_structural   La6Ce7Pr13Nd19Sm19(BiS2)64
_chemical_formula_sum   'La6 Ce7 Pr13 Nd19 Sm19 Bi64 S128'
_cell_volume   7018.09211962
_cell_formula_units_Z   1
loop_
 _symmetry_equiv_pos_site_id
 _symmetry_equiv_pos_as_xyz
  1  'x, y, z'
loop_
 _atom_type_symbol
 _atom_type_oxidation_number
  La3+  3.0
  Ce3+  3.0
  Pr3+  3.0
  Nd3+  3.0
  Sm3+  3.0
  Bi2+  2.0
  S2-  -2.0
loop_
 _atom_site_type_symbol
 _atom_site_label
 _atom_site_symmetry_multiplicity
 _atom_site_fract_x
 _atom_site_fract_y
 _atom_site_fract_z
 _atom_site_occupancy
  La3+  La0  1  0.51440805  0.87833493  0.10541138  1
  La3+  La1  1  0.49457949  0.86012223  0.59700969  1
  La3+  La2  1  0.62436358  0.49874442  0.42549490  1
  La3+  La3  1  0.50355222  0.61456938  0.10040169  1
  La3+  La4  1  0.24735751  0.62918300  0.08104854  1
  La3+  La5  1  0.36918355  0.76058832  0.41819387  1
  Ce3+  Ce6  1  0.74513463  0.62857985  0.55649178  1
  Ce3+  Ce7  1  0.49971066  0.11978201  0.06058083  1
  Ce3+  Ce8  1  0.87439748  0.49411274  0.94634456  1
  Ce3+  Ce9  1  0.87399985  0.75088057  0.44305213  1
  Ce3+  Ce10  1  -0.00026769  0.62255514  0.56189325  1
  Ce3+  Ce11  1  0.87247419  -0.00265711  0.44937629  1
  Ce3+  Ce12  1  0.49587521  0.62877144  0.54623510  1
  Pr3+  Pr13  1  0.49704007  0.36750606  0.07412086  1
  Pr3+  Pr14  1  0.61842167  0.00148144  0.91536593  1
  Pr3+  Pr15  1  0.24618411  0.12601442  0.56982247  1
  Pr3+  Pr16  1  0.37835995  0.74458336  0.95244510  1
  Pr3+  Pr17  1  0.12576833  -0.00976641  0.92876555  1
  Pr3+  Pr18  1  0.37239891  0.24515839  0.94729190  1
  Pr3+  Pr19  1  0.62335874  0.24344242  0.43903689  1
  Pr3+  Pr20  1  0.12733619  0.24305914  0.92644702  1
  Pr3+  Pr21  1  0.25043164  0.38112736  0.56235109  1
  Pr3+  Pr22  1  0.37136642  0.24488933  0.43719620  1
  Pr3+  Pr23  1  0.49957427  0.12257844  0.56396100  1
  Pr3+  Pr24  1  -0.00152943  0.87004600  0.57355085  1
  Pr3+  Pr25  1  0.12302007  -0.00065194  0.43211783  1
  Nd3+  Nd26  1  0.37298053  0.49560402  0.95072755  1
  Nd3+  Nd27  1  0.37616238  0.49164316  0.41152558  1
  Nd3+  Nd28  1  0.74340808  0.11480782  0.05706453  1
  Nd3+  Nd29  1  0.24605278  0.11511033  0.06661490  1
  Nd3+  Nd30  1  0.62220830  0.75360439  0.43691676  1
  Nd3+  Nd31  1  0.87331833  0.24457544  0.94028513  1
  Nd3+  Nd32  1  0.74822510  0.87316138  0.58964479  1
  Nd3+  Nd33  1  0.86986803  0.24721984  0.44185263  1
  Nd3+  Nd34  1  0.87223835  0.74021189  0.93708870  1
  Nd3+  Nd35  1  0.87196744  -0.00708621  0.93714091  1
  Nd3+  Nd36  1  -0.00032056  0.62537546  0.06563040  1
  Nd3+  Nd37  1  0.12309394  0.24999886  0.42972849  1
  Nd3+  Nd38  1  0.12676338  0.49597343  0.42545543  1
  Nd3+  Nd39  1  0.74999514  0.13159359  0.57471140  1
  Nd3+  Nd40  1  0.12210489  0.74373476  0.43169145  1
  Nd3+  Nd41  1  0.87042344  0.49867955  0.43297478  1
  Nd3+  Nd42  1  -0.00042630  0.12862480  0.56173900  1
  Nd3+  Nd43  1  -0.00088252  0.36966343  0.05774813  1
  Nd3+  Nd44  1  0.37653342  -0.00839306  0.94193208  1
  Sm3+  Sm45  1  0.12601155  0.49570983  0.93463037  1
  Sm3+  Sm46  1  0.00021101  0.38287829  0.55521286  1
  Sm3+  Sm47  1  -0.00166615  0.86956584  0.05089418  1
  Sm3+  Sm48  1  0.62048168  0.49320790  0.94534149  1
  Sm3+  Sm49  1  0.24315344  0.37200970  0.06716475  1
  Sm3+  Sm50  1  0.61985942  0.74322018  0.93700191  1
  Sm3+  Sm51  1  0.49556629  0.37845741  0.55220372  1
  Sm3+  Sm52  1  0.74643193  0.37617739  0.56321842  1
  Sm3+  Sm53  1  0.74369907  0.62218248  0.05560601  1
  Sm3+  Sm54  1  0.25228582  0.87324134  0.06625622  1
  Sm3+  Sm55  1  0.74749499  0.37024639  0.05611879  1
  Sm3+  Sm56  1  0.12888805  0.74119457  0.93294278  1
  Sm3+  Sm57  1  0.37286051  -0.00479408  0.45185063  1
  Sm3+  Sm58  1  0.62392689  -0.00457561  0.45019162  1
  Sm3+  Sm59  1  0.74256704  0.86933687  0.04745381  1
  Sm3+  Sm60  1  -0.00192649  0.11833802  0.05354140  1
  Sm3+  Sm61  1  0.24650674  0.87413113  0.56604972  1
  Sm3+  Sm62  1  0.25321453  0.63028686  0.55449019  1
  Sm3+  Sm63  1  0.62173842  0.24390634  0.94075079  1
  Bi2+  Bi64  1  0.02536160  0.15053783  0.27989451  1
  Bi2+  Bi65  1  0.02188588  0.06799887  0.78170691  1
  Bi2+  Bi66  1  -0.02267819  0.43854150  0.30331084  1
  Bi2+  Bi67  1  0.01741365  0.33641896  0.78355754  1
  Bi2+  Bi68  1  -0.03092578  0.65130933  0.28980919  1
  Bi2+  Bi69  1  0.01919395  0.54665872  0.78297966  1
  Bi2+  Bi70  1  0.05371378  0.88325192  0.30880246  1
  Bi2+  Bi71  1  0.02502376  0.83509492  0.78115996  1
  Bi2+  Bi72  1  0.28665821  0.18050528  0.30777749  1
  Bi2+  Bi73  1  0.22912397  0.15716226  0.77135902  1
  Bi2+  Bi74  1  0.19717258  0.33678529  0.25951255  1
  Bi2+  Bi75  1  0.25270464  0.40445288  0.78312838  1
  Bi2+  Bi76  1  0.21459302  0.64698884  0.28566582  1
  Bi2+  Bi77  1  0.27361700  0.63340504  0.80525617  1
  Bi2+  Bi78  1  0.23953222  0.93421433  0.29956180  1
  Bi2+  Bi79  1  0.21836040  0.85215482  0.76258222  1
  Bi2+  Bi80  1  0.54583858  0.11614239  0.29212163  1
  Bi2+  Bi81  1  0.48093708  0.19543023  0.79924411  1
  Bi2+  Bi82  1  0.51405761  0.31088310  0.28686198  1
  Bi2+  Bi83  1  0.48298396  0.38689608  0.79885665  1
  Bi2+  Bi84  1  0.54241294  0.61983134  0.28450249  1
  Bi2+  Bi85  1  0.53333753  0.60727847  0.78512659  1
  Bi2+  Bi86  1  0.51149191  0.87568513  0.30132920  1
  Bi2+  Bi87  1  0.46799817  0.86624461  0.80028981  1
  Bi2+  Bi88  1  0.76785031  0.13467894  0.31291649  1
  Bi2+  Bi89  1  0.75866448  0.20945363  0.78944174  1
  Bi2+  Bi90  1  0.79851627  0.35922447  0.28530771  1
  Bi2+  Bi91  1  0.75213603  0.40481005  0.80118049  1
  Bi2+  Bi92  1  0.74719798  0.62078227  0.29110883  1
  Bi2+  Bi93  1  0.79516621  0.62489077  0.78614178  1
  Bi2+  Bi94  1  0.86380812  0.87901080  0.27559286  1
  Bi2+  Bi95  1  0.77157031  0.87565511  0.79128088  1
  Bi2+  Bi96  1  0.11674760  -0.00595031  0.21368669  1
  Bi2+  Bi97  1  0.09651061  -0.04191348  0.69795776  1
  Bi2+  Bi98  1  0.21033557  0.17258192  0.19576590  1
  Bi2+  Bi99  1  0.09034463  0.22185367  0.69792813  1
  Bi2+  Bi100  1  0.09955649  0.49140442  0.21478933  1
  Bi2+  Bi101  1  0.13572408  0.46380307  0.70009364  1
  Bi2+  Bi102  1  0.10058793  0.76345771  0.21132744  1
  Bi2+  Bi103  1  0.12666712  0.68302285  0.72531290  1
  Bi2+  Bi104  1  0.37512710  0.07132170  0.22801796  1
  Bi2+  Bi105  1  0.35960087  0.05250789  0.71237300  1
  Bi2+  Bi106  1  0.47156221  0.22976888  0.18407465  1
  Bi2+  Bi107  1  0.35712662  0.28528572  0.71056643  1
  Bi2+  Bi108  1  0.36777704  0.48076003  0.22618869  1
  Bi2+  Bi109  1  0.39348991  0.50456742  0.70413672  1
  Bi2+  Bi110  1  0.36355636  0.75600244  0.21692050  1
  Bi2+  Bi111  1  0.36241604  0.70086008  0.70932154  1
  Bi2+  Bi112  1  0.65643776  0.01219653  0.21228972  1
  Bi2+  Bi113  1  0.60173712  0.01693129  0.71761181  1
  Bi2+  Bi114  1  0.66246046  0.23901660  0.20481622  1
  Bi2+  Bi115  1  0.62942444  0.31339596  0.72361718  1
  Bi2+  Bi116  1  0.64430106  0.48167920  0.21512299  1
  Bi2+  Bi117  1  0.66796184  0.51122202  0.70597564  1
  Bi2+  Bi118  1  0.67917311  0.75077616  0.21014657  1
  Bi2+  Bi119  1  0.62294879  0.72398032  0.71301476  1
  Bi2+  Bi120  1  0.89099238  0.04681778  0.21895637  1
  Bi2+  Bi121  1  0.86414888  0.00966865  0.72363238  1
  Bi2+  Bi122  1  0.93939680  0.28738640  0.21736099  1
  Bi2+  Bi123  1  0.87702704  0.29856360  0.70454513  1
  Bi2+  Bi124  1  0.88257108  0.53060120  0.21060075  1
  Bi2+  Bi125  1  0.86469722  0.50076897  0.70021923  1
  Bi2+  Bi126  1  0.87761893  0.72974084  0.19180576  1
  Bi2+  Bi127  1  0.89094111  0.73518556  0.70466861  1
  S2-  S128  1  0.00691699  0.09498610  0.14977272  1
  S2-  S129  1  -0.05268336  0.14957785  0.65638659  1
  S2-  S130  1  0.04741673  0.35560606  0.15243455  1
  S2-  S131  1  0.00470240  0.49299522  0.63283579  1
  S2-  S132  1  0.10468592  0.60903816  0.14476955  1
  S2-  S133  1  0.02284772  0.72803059  0.64089318  1
  S2-  S134  1  -0.01076121  0.84016314  0.14758809  1
  S2-  S135  1  -0.11585463  0.88787008  0.65422124  1
  S2-  S136  1  0.23625433  -0.00348604  0.13920077  1
  S2-  S137  1  0.23909757  -0.00007618  0.64215666  1
  S2-  S138  1  0.28002525  0.39125437  0.16453648  1
  S2-  S139  1  0.23798141  0.25940317  0.63890815  1
  S2-  S140  1  0.35356058  0.60393853  0.16387179  1
  S2-  S141  1  0.26063222  0.51374404  0.63278711  1
  S2-  S142  1  0.23888261  0.77746475  0.14895992  1
  S2-  S143  1  0.26472450  0.75035939  0.63555345  1
  S2-  S144  1  0.55101137  0.04448783  0.14161825  1
  S2-  S145  1  0.50362204  0.12266423  0.66509876  1
  S2-  S146  1  0.50761407  0.46281400  0.16058912  1
  S2-  S147  1  0.47157492  0.38160624  0.64971093  1
  S2-  S148  1  0.52043876  0.74023987  0.17049059  1
  S2-  S149  1  0.49567351  0.69080549  0.63944351  1
  S2-  S150  1  0.43506130  0.90593092  0.20475537  1
  S2-  S151  1  0.43762042  0.91172730  0.69595054  1
  S2-  S152  1  0.76450721  0.11790669  0.15580860  1
  S2-  S153  1  0.73178213  0.04870221  0.66292097  1
  S2-  S154  1  0.73489705  0.36832196  0.15345598  1
  S2-  S155  1  0.73772812  0.27115575  0.64205973  1
  S2-  S156  1  0.67784019  0.61175751  0.14593203  1
  S2-  S157  1  0.75033086  0.70870684  0.64425024  1
  S2-  S158  1  0.69203308  0.88199964  0.14186841  1
  S2-  S159  1  0.62936951  0.87329023  0.66447060  1
  S2-  S160  1  0.13447255  0.12355098  0.35769041  1
  S2-  S161  1  0.13133045  0.11231193  0.85504091  1
  S2-  S162  1  0.11926952  0.36678065  0.35260118  1
  S2-  S163  1  0.13562895  0.37581097  0.85857919  1
  S2-  S164  1  0.09727203  0.61971915  0.35535280  1
  S2-  S165  1  0.12389918  0.61639878  0.86190833  1
  S2-  S166  1  0.22590758  0.78375327  0.35266151  1
  S2-  S167  1  0.14062672  0.85983559  0.85771926  1
  S2-  S168  1  0.38036877  -0.06127463  0.35754851  1
  S2-  S169  1  0.41111715  -0.00491177  0.84315839  1
  S2-  S170  1  0.37781005  0.32138320  0.34681237  1
  S2-  S171  1  0.33657761  0.22613623  0.84962769  1
  S2-  S172  1  0.29248804  0.51886983  0.32197048  1
  S2-  S173  1  0.35892713  0.49323154  0.85088063  1
  S2-  S174  1  0.42033955  0.72622814  0.31806140  1
  S2-  S175  1  0.36733764  0.75864375  0.84976935  1
  S2-  S176  1  0.61554845  -0.00997412  0.34964098  1
  S2-  S177  1  0.62817786  -0.05410690  0.81582984  1
  S2-  S178  1  0.66693558  0.27699794  0.34407362  1
  S2-  S179  1  0.62387718  0.15621548  0.85537553  1
  S2-  S180  1  0.51568070  0.49488797  0.34397124  1
  S2-  S181  1  0.60831324  0.47895518  0.84748925  1
  S2-  S182  1  0.62422421  0.75992788  0.33583416  1
  S2-  S183  1  0.61149930  0.72704255  0.83755723  1
  S2-  S184  1  0.85256939  0.00791406  0.35148918  1
  S2-  S185  1  0.86406865  -0.00464731  0.83762704  1
  S2-  S186  1  0.90034129  0.22837589  0.34415065  1
  S2-  S187  1  0.90364117  0.23690996  0.84279209  1
  S2-  S188  1  0.75749116  0.48881408  0.35505475  1
  S2-  S189  1  0.88267158  0.50503053  0.84950088  1
  S2-  S190  1  0.84795399  0.74580266  0.34587702  1
  S2-  S191  1  0.87473301  0.75174570  0.83819806  1
  S2-  S192  1  -0.00323995  0.12533442  0.45518033  1
  S2-  S193  1  -0.00382082  0.11837687  0.95006441  1
  S2-  S194  1  -0.00696919  0.37430431  0.45209650  1
  S2-  S195  1  -0.00112034  0.36885231  0.95263469  1
  S2-  S196  1  -0.00792177  0.62059320  0.45482255  1
  S2-  S197  1  -0.00225387  0.61988710  0.95905107  1
  S2-  S198  1  0.00022147  0.87407493  0.45565111  1
  S2-  S199  1  -0.00512572  0.86585696  0.94726886  1
  S2-  S200  1  0.25013982  0.12038506  0.46215615  1
  S2-  S201  1  0.25072557  0.11598530  0.96038649  1
  S2-  S202  1  0.25160764  0.37338384  0.45243013  1
  S2-  S203  1  0.24805074  0.37051371  0.96180799  1
  S2-  S204  1  0.25448653  0.62204301  0.44741153  1
  S2-  S205  1  0.25033553  0.62049448  0.96526678  1
  S2-  S206  1  0.24443286  0.87938738  0.46095144  1
  S2-  S207  1  0.25185643  0.86913034  0.96089119  1
  S2-  S208  1  0.49760078  0.11946300  0.45494561  1
  S2-  S209  1  0.49759519  0.12102796  0.95474029  1
  S2-  S210  1  0.50017076  0.37039466  0.44914308  1
  S2-  S211  1  0.49955326  0.36789140  0.96061456  1
  S2-  S212  1  0.49578803  0.62782460  0.44213580  1
  S2-  S213  1  0.50102588  0.61682700  0.95073908  1
  S2-  S214  1  0.50030509  0.87621462  0.45373535  1
  S2-  S215  1  0.50416820  0.87037636  0.94255714  1
  S2-  S216  1  0.74731216  0.12234078  0.46393664  1
  S2-  S217  1  0.74914449  0.11969616  0.95120780  1
  S2-  S218  1  0.74643959  0.37080386  0.45908470  1
  S2-  S219  1  0.74611428  0.36795947  0.95112992  1
  S2-  S220  1  0.74656526  0.62731450  0.45202014  1
  S2-  S221  1  0.74447730  0.61745974  0.95028179  1
  S2-  S222  1  0.74754488  0.87464945  0.45377851  1
  S2-  S223  1  0.74572301  0.86782310  0.94284771  1
  S2-  S224  1  0.11766644  -0.00708844  0.03765622  1
  S2-  S225  1  0.11725873  -0.00095994  0.54275944  1
  S2-  S226  1  0.12342788  0.24185180  0.04389708  1
  S2-  S227  1  0.11858833  0.25532914  0.53871278  1
  S2-  S228  1  0.12291006  0.49318512  0.04260169  1
  S2-  S229  1  0.12617962  0.50239064  0.53211686  1
  S2-  S230  1  0.12111486  0.74970146  0.03971826  1
  S2-  S231  1  0.12524068  0.74977760  0.53718428  1
  S2-  S232  1  0.38218151  -0.00929821  0.04957457  1
  S2-  S233  1  0.38031509  -0.00814010  0.55455206  1
  S2-  S234  1  0.36736517  0.24539364  0.05474089  1
  S2-  S235  1  0.37665683  0.24966389  0.54423432  1
  S2-  S236  1  0.37227407  0.49232897  0.05470634  1
  S2-  S237  1  0.37792484  0.50146987  0.53081049  1
  S2-  S238  1  0.38695132  0.75319371  0.05792291  1
  S2-  S239  1  0.37536989  0.75521429  0.53445278  1
  S2-  S240  1  0.62393935  -0.00748443  0.03166978  1
  S2-  S241  1  0.62307906  -0.00477652  0.55436706  1
  S2-  S242  1  0.62460373  0.24610150  0.04639711  1
  S2-  S243  1  0.61879939  0.25284798  0.54570499  1
  S2-  S244  1  0.62259573  0.49237634  0.04799038  1
  S2-  S245  1  0.62232105  0.49932942  0.54266304  1
  S2-  S246  1  0.62128287  0.74527459  0.04309032  1
  S2-  S247  1  0.62255118  0.75526231  0.54326203  1
  S2-  S248  1  0.87197292  -0.00753667  0.04446165  1
  S2-  S249  1  0.87286263  0.00311932  0.55335754  1
  S2-  S250  1  0.87177727  0.24349280  0.04819228  1
  S2-  S251  1  0.87653589  0.25761910  0.54670029  1
  S2-  S252  1  0.87169108  0.49736676  0.05379676  1
  S2-  S253  1  0.86637027  0.49871981  0.53979041  1
  S2-  S254  1  0.86949440  0.74525018  0.04325615  1
  S2-  S255  1  0.87192650  0.75150734  0.54593413  1
