# generated using pymatgen
data_La6Ce7Pr13Nd19Sm19(BiS2)64
_symmetry_space_group_name_H-M   'P 1'
_cell_length_a   16.08234893
_cell_length_b   16.09043978
_cell_length_c   27.35045996
_cell_angle_alpha   89.96752834
_cell_angle_beta   90.06542619
_cell_angle_gamma   90.05536602
_symmetry_Int_Tables_number   1
_chemical_formula_structural   La6Ce7Pr13Nd19Sm19(BiS2)64
_chemical_formula_sum   'La6 Ce7 Pr13 Nd19 Sm19 Bi64 S128'
_cell_volume   7077.52600753
_cell_formula_units_Z   1
loop_
 _symmetry_equiv_pos_site_id
 _symmetry_equiv_pos_as_xyz
  1  'x, y, z'
loop_
 _atom_type_symbol
 _atom_type_oxidation_number
  La3+  3.0
  Ce3+  3.0
  Pr3+  3.0
  Nd3+  3.0
  Sm3+  3.0
  Bi2+  2.0
  S2-  -2.0
loop_
 _atom_site_type_symbol
 _atom_site_label
 _atom_site_symmetry_multiplicity
 _atom_site_fract_x
 _atom_site_fract_y
 _atom_site_fract_z
 _atom_site_occupancy
  La3+  La0  1  0.75916234  0.60650546  0.08556543  1
  La3+  La1  1  0.50356883  0.85775896  0.07684286  1
  La3+  La2  1  0.75900255  0.89109957  0.56673057  1
  La3+  La3  1  0.12102465  0.24142216  0.88353072  1
  La3+  La4  1  0.24494219  0.86922528  0.10122349  1
  La3+  La5  1  0.64338892  0.02208706  0.41627613  1
  Ce3+  Ce6  1  0.64932459  0.75728005  0.41230131  1
  Ce3+  Ce7  1  0.74771675  0.11330258  0.05566055  1
  Ce3+  Ce8  1  0.26186867  0.63958367  0.56354821  1
  Ce3+  Ce9  1  0.24472080  0.61901582  0.05509184  1
  Ce3+  Ce10  1  0.37670068  0.74065471  0.94618710  1
  Ce3+  Ce11  1  0.76608121  0.13601488  0.57045319  1
  Ce3+  Ce12  1  0.37655318  0.23505718  0.93483867  1
  Pr3+  Pr13  1  0.62154230  -0.01103113  0.93824847  1
  Pr3+  Pr14  1  0.12354947  0.48643218  0.93346426  1
  Pr3+  Pr15  1  0.37476750  0.48975750  0.93899984  1
  Pr3+  Pr16  1  0.87416369  -0.01425534  0.93837288  1
  Pr3+  Pr17  1  0.12022759  0.74092921  0.93163017  1
  Pr3+  Pr18  1  0.12708183  -0.01655619  0.93147534  1
  Pr3+  Pr19  1  0.51874962  0.38738862  0.57462797  1
  Pr3+  Pr20  1  0.63163786  0.26702896  0.43952994  1
  Pr3+  Pr21  1  0.38890831  0.01617267  0.42873395  1
  Pr3+  Pr22  1  0.49752447  0.36153130  0.06015472  1
  Pr3+  Pr23  1  0.49846004  0.61293608  0.07019851  1
  Pr3+  Pr24  1  0.88645258  0.51486746  0.43917036  1
  Pr3+  Pr25  1  0.13982500  0.26294493  0.43985800  1
  Nd3+  Nd26  1  0.01542207  0.38757258  0.56022574  1
  Nd3+  Nd27  1  0.86112030  0.73173251  0.93057360  1
  Nd3+  Nd28  1  0.26902485  0.39345345  0.59074248  1
  Nd3+  Nd29  1  0.87067566  0.48378220  0.93855572  1
  Nd3+  Nd30  1  0.51389152  0.64053823  0.55538065  1
  Nd3+  Nd31  1  0.49937802  0.11036474  0.07087198  1
  Nd3+  Nd32  1  0.00026744  0.86304319  0.06032082  1
  Nd3+  Nd33  1  0.37494866  -0.01395921  0.95003341  1
  Nd3+  Nd34  1  0.87390682  0.23759742  0.93222315  1
  Nd3+  Nd35  1  0.75759083  0.64785222  0.57194959  1
  Nd3+  Nd36  1  0.26609326  0.12824078  0.57800446  1
  Nd3+  Nd37  1  0.01729604  0.13817158  0.56602394  1
  Nd3+  Nd38  1  0.38453949  0.26521333  0.44839203  1
  Nd3+  Nd39  1  0.14010513  0.51716600  0.44484308  1
  Nd3+  Nd40  1  0.63455636  0.51429303  0.44016941  1
  Nd3+  Nd41  1  0.88468426  0.01515694  0.43916181  1
  Nd3+  Nd42  1  0.88613592  0.26349719  0.44726988  1
  Nd3+  Nd43  1  0.24745044  0.36137680  0.05684705  1
  Nd3+  Nd44  1  0.14012790  0.77334599  0.43120407  1
  Sm3+  Sm45  1  0.01211725  0.63806205  0.55438287  1
  Sm3+  Sm46  1  0.62184486  0.73677272  0.94463329  1
  Sm3+  Sm47  1  0.01375893  0.88953296  0.55393471  1
  Sm3+  Sm48  1  0.26341518  0.88933215  0.55444133  1
  Sm3+  Sm49  1  0.13761103  0.02121761  0.43392006  1
  Sm3+  Sm50  1  0.51108963  0.13516747  0.56016713  1
  Sm3+  Sm51  1  0.00181495  0.11214802  0.04981558  1
  Sm3+  Sm52  1  0.24652183  0.11342875  0.05490058  1
  Sm3+  Sm53  1  0.51623420  0.89035556  0.54263722  1
  Sm3+  Sm54  1  0.62060114  0.23975725  0.93575762  1
  Sm3+  Sm55  1  0.00125688  0.35868413  0.05138181  1
  Sm3+  Sm56  1  0.75031426  0.86267091  0.06171246  1
  Sm3+  Sm57  1  0.88342501  0.76406839  0.44388303  1
  Sm3+  Sm58  1  0.38624191  0.51472915  0.44694076  1
  Sm3+  Sm59  1  0.62451981  0.49069261  0.94799848  1
  Sm3+  Sm60  1  0.75067964  0.35761437  0.06152264  1
  Sm3+  Sm61  1  0.38864852  0.76526973  0.44129683  1
  Sm3+  Sm62  1  -0.00362759  0.61223359  0.05126845  1
  Sm3+  Sm63  1  0.76145639  0.39500318  0.56412420  1
  Bi2+  Bi64  1  -0.00102599  0.15855798  0.29782083  1
  Bi2+  Bi65  1  -0.03126298  0.07559077  0.79050132  1
  Bi2+  Bi66  1  0.04435598  0.37362776  0.27917786  1
  Bi2+  Bi67  1  -0.07291750  0.41321445  0.81085024  1
  Bi2+  Bi68  1  -0.04113755  0.64474252  0.27536016  1
  Bi2+  Bi69  1  0.03213942  0.58935866  0.79864981  1
  Bi2+  Bi70  1  -0.00652822  0.94129969  0.29283796  1
  Bi2+  Bi71  1  0.03358010  0.86594318  0.77484235  1
  Bi2+  Bi72  1  0.22607260  0.16134741  0.26921157  1
  Bi2+  Bi73  1  0.25703347  0.10775421  0.78692887  1
  Bi2+  Bi74  1  0.22465904  0.33420457  0.32104569  1
  Bi2+  Bi75  1  0.25274466  0.36950924  0.78030070  1
  Bi2+  Bi76  1  0.23988560  0.58546656  0.30159029  1
  Bi2+  Bi77  1  0.21553039  0.64345320  0.77696418  1
  Bi2+  Bi78  1  0.22960714  0.83185000  0.29146122  1
  Bi2+  Bi79  1  0.25762309  0.90885445  0.78211228  1
  Bi2+  Bi80  1  0.50148682  0.14898569  0.29867506  1
  Bi2+  Bi81  1  0.50634641  0.06146148  0.80395400  1
  Bi2+  Bi82  1  0.55861992  0.40674084  0.32577372  1
  Bi2+  Bi83  1  0.56350335  0.33218817  0.79483772  1
  Bi2+  Bi84  1  0.49438491  0.57645396  0.27909627  1
  Bi2+  Bi85  1  0.46899902  0.58464821  0.80931596  1
  Bi2+  Bi86  1  0.46740435  0.89049664  0.30156515  1
  Bi2+  Bi87  1  0.51404606  0.82164087  0.77631060  1
  Bi2+  Bi88  1  0.77373500  0.15237454  0.28993205  1
  Bi2+  Bi89  1  0.69029212  0.10720531  0.79077457  1
  Bi2+  Bi90  1  0.75366184  0.41856732  0.28811908  1
  Bi2+  Bi91  1  0.74812943  0.29422269  0.82712128  1
  Bi2+  Bi92  1  0.76028603  0.63750695  0.28761329  1
  Bi2+  Bi93  1  0.72980216  0.54786883  0.77502960  1
  Bi2+  Bi94  1  0.80253558  0.89225653  0.28207788  1
  Bi2+  Bi95  1  0.76919953  0.85712276  0.81259858  1
  Bi2+  Bi96  1  0.11965691  0.00659058  0.21241713  1
  Bi2+  Bi97  1  0.12377288  -0.02218531  0.69382275  1
  Bi2+  Bi98  1  0.09574848  0.25031274  0.19536551  1
  Bi2+  Bi99  1  0.04980832  0.25927882  0.69564427  1
  Bi2+  Bi100  1  0.11890610  0.52012641  0.21173579  1
  Bi2+  Bi101  1  0.11143579  0.51072323  0.70174016  1
  Bi2+  Bi102  1  0.10248099  0.71623810  0.20721611  1
  Bi2+  Bi103  1  0.14778625  0.76626787  0.69819754  1
  Bi2+  Bi104  1  0.38061343  0.02176822  0.20822299  1
  Bi2+  Bi105  1  0.40927570  -0.00580789  0.70267540  1
  Bi2+  Bi106  1  0.34292582  0.31758249  0.23334341  1
  Bi2+  Bi107  1  0.43926218  0.24625587  0.72164408  1
  Bi2+  Bi108  1  0.31955746  0.50801313  0.20596574  1
  Bi2+  Bi109  1  0.40180500  0.59094113  0.70295362  1
  Bi2+  Bi110  1  0.37368478  0.69613030  0.21566870  1
  Bi2+  Bi111  1  0.34832227  0.77862248  0.71071874  1
  Bi2+  Bi112  1  0.63720516  0.05126822  0.19225211  1
  Bi2+  Bi113  1  0.65009586  -0.09751614  0.70237952  1
  Bi2+  Bi114  1  0.61482790  0.32391581  0.22926452  1
  Bi2+  Bi115  1  0.62256305  0.20057357  0.69644441  1
  Bi2+  Bi116  1  0.60753373  0.51515823  0.19660875  1
  Bi2+  Bi117  1  0.55141788  0.45842637  0.70475708  1
  Bi2+  Bi118  1  0.61913565  0.79505698  0.21049813  1
  Bi2+  Bi119  1  0.64798558  0.70731041  0.72572774  1
  Bi2+  Bi120  1  0.89142316  0.05902964  0.21406189  1
  Bi2+  Bi121  1  0.88032861  0.00074522  0.70295766  1
  Bi2+  Bi122  1  0.86610587  0.28406370  0.22196383  1
  Bi2+  Bi123  1  0.81730296  0.21464125  0.72499338  1
  Bi2+  Bi124  1  0.88950935  0.49252152  0.20193961  1
  Bi2+  Bi125  1  0.83050491  0.41502766  0.71234105  1
  Bi2+  Bi126  1  0.92713776  0.80780745  0.21079701  1
  Bi2+  Bi127  1  0.89522760  0.63875347  0.72205029  1
  S2-  S128  1  0.01394379  0.10609221  0.14861305  1
  S2-  S129  1  -0.09389105  0.14702681  0.64327424  1
  S2-  S130  1  -0.03417023  0.35198830  0.14768619  1
  S2-  S131  1  -0.01576511  0.40930851  0.65720944  1
  S2-  S132  1  -0.08399271  0.61467352  0.13783084  1
  S2-  S133  1  0.02251970  0.64962267  0.65225511  1
  S2-  S134  1  0.08731120  0.87308737  0.14691935  1
  S2-  S135  1  -0.02836685  0.89909363  0.64982129  1
  S2-  S136  1  0.24612476  0.04624350  0.14581403  1
  S2-  S137  1  0.13158457  0.13541088  0.64566917  1
  S2-  S138  1  0.23883866  0.31031846  0.15230753  1
  S2-  S139  1  0.19058565  0.35603461  0.67910905  1
  S2-  S140  1  0.23852802  0.69837452  0.14185790  1
  S2-  S141  1  0.25728118  0.54807123  0.64693521  1
  S2-  S142  1  0.31746751  0.87065436  0.19893844  1
  S2-  S143  1  0.26887555  0.97457587  0.63909266  1
  S2-  S144  1  0.49444684  0.14205630  0.16976227  1
  S2-  S145  1  0.40844872  0.13137494  0.64180383  1
  S2-  S146  1  0.50301573  0.38688298  0.15916790  1
  S2-  S147  1  0.41038861  0.37414828  0.65422058  1
  S2-  S148  1  0.49741501  0.72097159  0.14949756  1
  S2-  S149  1  0.55847548  0.62588571  0.65103636  1
  S2-  S150  1  0.51341279  0.93374267  0.16962253  1
  S2-  S151  1  0.51407121  0.90503439  0.64150737  1
  S2-  S152  1  0.72355570  0.16574259  0.14726526  1
  S2-  S153  1  0.73723274  0.01406240  0.63979799  1
  S2-  S154  1  0.74957041  0.45188301  0.14294204  1
  S2-  S155  1  0.65521208  0.37691692  0.64180493  1
  S2-  S156  1  0.70618344  0.66806055  0.18190572  1
  S2-  S157  1  0.79902518  0.55918827  0.65425399  1
  S2-  S158  1  0.72141105  0.90140821  0.15665544  1
  S2-  S159  1  0.74440085  0.77739341  0.64556825  1
  S2-  S160  1  0.14580206  -0.08783200  0.35787320  1
  S2-  S161  1  0.12115719  0.07445589  0.84509021  1
  S2-  S162  1  0.14115203  0.14485758  0.36275725  1
  S2-  S163  1  0.13797186  0.23426746  0.77288460  1
  S2-  S164  1  0.12696996  0.47807611  0.34913083  1
  S2-  S165  1  0.13912976  0.40764775  0.84401282  1
  S2-  S166  1  0.13780779  0.70607197  0.33956209  1
  S2-  S167  1  0.14267394  0.85027924  0.85383549  1
  S2-  S168  1  0.37236624  0.03731878  0.32817922  1
  S2-  S169  1  0.36680845  0.00314557  0.84994398  1
  S2-  S170  1  0.44847955  0.26970415  0.35517584  1
  S2-  S171  1  0.29142429  0.24148562  0.84790129  1
  S2-  S172  1  0.39057303  0.50924418  0.34867388  1
  S2-  S173  1  0.36842214  0.45951125  0.83943665  1
  S2-  S174  1  0.36071123  0.76772306  0.34485743  1
  S2-  S175  1  0.44082463  0.74103314  0.85605731  1
  S2-  S176  1  0.58152277  0.00033836  0.31761807  1
  S2-  S177  1  0.61027893  -0.08010241  0.84580357  1
  S2-  S178  1  0.64589537  0.17782950  0.35425531  1
  S2-  S179  1  0.50499817  0.21124277  0.86381796  1
  S2-  S180  1  0.65005037  0.60618611  0.35637491  1
  S2-  S181  1  0.60880796  0.52653068  0.85225015  1
  S2-  S182  1  0.59134284  0.79203109  0.31607472  1
  S2-  S183  1  0.71923842  0.73200226  0.86462491  1
  S2-  S184  1  0.79165063  0.01019253  0.35443272  1
  S2-  S185  1  0.83736286  0.01513529  0.84102502  1
  S2-  S186  1  0.88475435  0.25367757  0.34879062  1
  S2-  S187  1  0.95507778  0.24202079  0.84387544  1
  S2-  S188  1  0.87595505  0.52392479  0.33920217  1
  S2-  S189  1  0.85192939  0.55788540  0.84947572  1
  S2-  S190  1  0.80464241  0.76471482  0.35630067  1
  S2-  S191  1  0.91519461  0.80316024  0.84363940  1
  S2-  S192  1  0.00947349  0.13865697  0.45951927  1
  S2-  S193  1  -0.00167020  0.11312972  0.94778546  1
  S2-  S194  1  0.01407988  0.38867848  0.45304062  1
  S2-  S195  1  0.00043226  0.36115766  0.94874809  1
  S2-  S196  1  0.01226757  0.64252082  0.44955609  1
  S2-  S197  1  -0.00374978  0.61234717  0.94780399  1
  S2-  S198  1  0.00717813  0.88862230  0.45022696  1
  S2-  S199  1  -0.00490108  0.86193661  0.95515212  1
  S2-  S200  1  0.26606421  0.13667155  0.46103996  1
  S2-  S201  1  0.25113462  0.11119090  0.95309509  1
  S2-  S202  1  0.26305830  0.39209779  0.45763493  1
  S2-  S203  1  0.25056413  0.36410076  0.95307564  1
  S2-  S204  1  0.26417322  0.64228070  0.45591981  1
  S2-  S205  1  0.24733604  0.61543149  0.94672164  1
  S2-  S206  1  0.26697038  0.89219363  0.45270414  1
  S2-  S207  1  0.25285615  0.86134319  0.95523024  1
  S2-  S208  1  0.50960856  0.13908614  0.45617467  1
  S2-  S209  1  0.50051470  0.11068929  0.96464976  1
  S2-  S210  1  0.50932028  0.39210008  0.46471654  1
  S2-  S211  1  0.50047384  0.36610188  0.95427971  1
  S2-  S212  1  0.50867585  0.64076192  0.44982997  1
  S2-  S213  1  0.50070991  0.61311145  0.96345912  1
  S2-  S214  1  0.51563480  0.88763322  0.43895583  1
  S2-  S215  1  0.50317518  0.86231819  0.96443757  1
  S2-  S216  1  0.76361500  0.14207247  0.46081435  1
  S2-  S217  1  0.74596590  0.11566452  0.94932112  1
  S2-  S218  1  0.76105987  0.38997954  0.45594595  1
  S2-  S219  1  0.74467462  0.36236732  0.95689932  1
  S2-  S220  1  0.76476903  0.63756791  0.46196694  1
  S2-  S221  1  0.74712306  0.60799848  0.96657882  1
  S2-  S222  1  0.76116559  0.88811667  0.45644821  1
  S2-  S223  1  0.74673619  0.86526951  0.95849987  1
  S2-  S224  1  0.12466523  -0.01245494  0.04051174  1
  S2-  S225  1  0.13644878  0.00966325  0.53823088  1
  S2-  S226  1  0.12356086  0.23541306  0.04664311  1
  S2-  S227  1  0.14429189  0.26785367  0.54787960  1
  S2-  S228  1  0.12122778  0.48798975  0.04412805  1
  S2-  S229  1  0.13664936  0.51365652  0.54895756  1
  S2-  S230  1  0.11710787  0.73676168  0.03870545  1
  S2-  S231  1  0.13728644  0.76522025  0.54254294  1
  S2-  S232  1  0.37446645  -0.01491572  0.05520421  1
  S2-  S233  1  0.39016693  0.00996269  0.53606319  1
  S2-  S234  1  0.37329097  0.23487246  0.04822298  1
  S2-  S235  1  0.38437701  0.26364816  0.55087604  1
  S2-  S236  1  0.37093166  0.49021739  0.04907518  1
  S2-  S237  1  0.38928183  0.51444427  0.55023361  1
  S2-  S238  1  0.37072088  0.74181615  0.04969596  1
  S2-  S239  1  0.38847302  0.76657451  0.54739443  1
  S2-  S240  1  0.62523809  -0.01246909  0.04685532  1
  S2-  S241  1  0.63179997  0.01729741  0.53535059  1
  S2-  S242  1  0.62195766  0.23944491  0.04277378  1
  S2-  S243  1  0.63851258  0.25745371  0.54539335  1
  S2-  S244  1  0.62320544  0.48739151  0.05044205  1
  S2-  S245  1  0.64080093  0.51794844  0.54492323  1
  S2-  S246  1  0.63247400  0.73487229  0.05039348  1
  S2-  S247  1  0.63379481  0.76490232  0.53764142  1
  S2-  S248  1  0.87446054  -0.01165167  0.04782864  1
  S2-  S249  1  0.89148022  0.01218425  0.54250775  1
  S2-  S250  1  0.87561195  0.23699902  0.04145894  1
  S2-  S251  1  0.88389966  0.27118916  0.55113154  1
  S2-  S252  1  0.87757699  0.48019278  0.04171378  1
  S2-  S253  1  0.88935998  0.51288411  0.54530616  1
  S2-  S254  1  0.87392726  0.74145933  0.04256374  1
  S2-  S255  1  0.89212305  0.76240177  0.54699502  1
