# generated using pymatgen
data_La6Ce7Pr13Nd19Sm19(BiS2)64
_symmetry_space_group_name_H-M   'P 1'
_cell_length_a   16.15449162
_cell_length_b   16.18040072
_cell_length_c   27.11998391
_cell_angle_alpha   90.03440107
_cell_angle_beta   89.94520704
_cell_angle_gamma   90.01445806
_symmetry_Int_Tables_number   1
_chemical_formula_structural   La6Ce7Pr13Nd19Sm19(BiS2)64
_chemical_formula_sum   'La6 Ce7 Pr13 Nd19 Sm19 Bi64 S128'
_cell_volume   7088.78338315
_cell_formula_units_Z   1
loop_
 _symmetry_equiv_pos_site_id
 _symmetry_equiv_pos_as_xyz
  1  'x, y, z'
loop_
 _atom_type_symbol
 _atom_type_oxidation_number
  La3+  3.0
  Ce3+  3.0
  Pr3+  3.0
  Nd3+  3.0
  Sm3+  3.0
  Bi2+  2.0
  S2-  -2.0
loop_
 _atom_site_type_symbol
 _atom_site_label
 _atom_site_symmetry_multiplicity
 _atom_site_fract_x
 _atom_site_fract_y
 _atom_site_fract_z
 _atom_site_occupancy
  La3+  La0  1  0.74900452  0.87523633  0.07277521  1
  La3+  La1  1  0.37671095  0.25493422  0.43565656  1
  La3+  La2  1  0.88395538  0.00752150  0.88783516  1
  La3+  La3  1  -0.00817328  0.13938097  0.58204941  1
  La3+  La4  1  0.48332631  0.88509463  0.08894749  1
  La3+  La5  1  0.49017555  0.61720068  0.09627368  1
  Ce3+  Ce6  1  0.50285699  0.88144822  0.55853006  1
  Ce3+  Ce7  1  0.12426532  0.75940534  0.44413387  1
  Ce3+  Ce8  1  0.12394942  0.25334336  0.44948468  1
  Ce3+  Ce9  1  -0.00088497  0.38003992  0.56132287  1
  Ce3+  Ce10  1  0.87910621  0.75902255  0.43737116  1
  Ce3+  Ce11  1  0.25198651  0.63274761  0.55940587  1
  Ce3+  Ce12  1  0.75472707  0.88218298  0.55462620  1
  Pr3+  Pr13  1  0.87719115  0.25806505  0.43257105  1
  Pr3+  Pr14  1  0.50020714  0.63205449  0.56099457  1
  Pr3+  Pr15  1  0.88904653  0.01298651  0.41556585  1
  Pr3+  Pr16  1  0.87356911  0.50180465  0.92416567  1
  Pr3+  Pr17  1  0.37413236  0.50918453  0.43463136  1
  Pr3+  Pr18  1  0.00058560  0.87541230  0.05604937  1
  Pr3+  Pr19  1  0.25213506  0.12461700  0.05599205  1
  Pr3+  Pr20  1  0.75269451  0.12591878  0.06361711  1
  Pr3+  Pr21  1  0.12490685  0.01028748  0.44762910  1
  Pr3+  Pr22  1  0.37785447  -0.00093035  0.92630904  1
  Pr3+  Pr23  1  0.12469263  0.50030795  0.93994808  1
  Pr3+  Pr24  1  0.86924133  0.75067657  0.93646254  1
  Pr3+  Pr25  1  0.62512115  0.50864007  0.43503328  1
  Nd3+  Nd26  1  0.00029508  0.88096172  0.56854004  1
  Nd3+  Nd27  1  0.00044870  0.63199436  0.56215047  1
  Nd3+  Nd28  1  0.87667618  0.50669207  0.44368721  1
  Nd3+  Nd29  1  0.75277285  0.37754913  0.05566001  1
  Nd3+  Nd30  1  0.37666275  0.50061536  0.93664984  1
  Nd3+  Nd31  1  0.12234415  0.75096400  0.93250834  1
  Nd3+  Nd32  1  0.25134338  0.88203024  0.56153754  1
  Nd3+  Nd33  1  0.62797979  0.24730154  0.94479212  1
  Nd3+  Nd34  1  0.75191698  0.13181197  0.55643781  1
  Nd3+  Nd35  1  0.12296704  0.24652441  0.93657131  1
  Nd3+  Nd36  1  0.38002138  0.74952297  0.93734735  1
  Nd3+  Nd37  1  0.62872234  0.75855091  0.43856360  1
  Nd3+  Nd38  1  0.37701409  0.75953825  0.43577547  1
  Nd3+  Nd39  1  0.62880821  0.00472609  0.43776001  1
  Nd3+  Nd40  1  0.25362321  0.13144556  0.56773218  1
  Nd3+  Nd41  1  0.25328885  0.38163208  0.55773199  1
  Nd3+  Nd42  1  0.12572687  0.50721479  0.44541198  1
  Nd3+  Nd43  1  0.00234857  0.12174726  0.06008571  1
  Nd3+  Nd44  1  0.62412950  0.50158535  0.94453382  1
  Sm3+  Sm45  1  0.24942294  0.37521152  0.05165016  1
  Sm3+  Sm46  1  0.13065914  0.00103733  0.92894237  1
  Sm3+  Sm47  1  0.49990100  0.37804000  0.05898573  1
  Sm3+  Sm48  1  0.75216962  0.63265392  0.55528270  1
  Sm3+  Sm49  1  0.25137223  0.87323315  0.04863337  1
  Sm3+  Sm50  1  0.61931125  0.75098608  0.95704827  1
  Sm3+  Sm51  1  0.37726064  0.24944392  0.94645120  1
  Sm3+  Sm52  1  -0.00066635  0.37722905  0.05081817  1
  Sm3+  Sm53  1  0.50251987  0.13215750  0.55175284  1
  Sm3+  Sm54  1  0.62920231  -0.00423450  0.94630153  1
  Sm3+  Sm55  1  0.74936993  0.38260472  0.55449900  1
  Sm3+  Sm56  1  0.50197934  0.38260678  0.54927921  1
  Sm3+  Sm57  1  -0.00057689  0.62417809  0.05448931  1
  Sm3+  Sm58  1  0.74880959  0.62516355  0.06202007  1
  Sm3+  Sm59  1  0.37754016  0.00570091  0.44584368  1
  Sm3+  Sm60  1  0.62916968  0.25377882  0.44195271  1
  Sm3+  Sm61  1  0.50036026  0.12552072  0.05682809  1
  Sm3+  Sm62  1  0.87453026  0.24493543  0.93989936  1
  Sm3+  Sm63  1  0.25245062  0.62522392  0.05426724  1
  Bi2+  Bi64  1  0.01653821  0.12770781  0.29056671  1
  Bi2+  Bi65  1  0.00217110  0.13050410  0.78274070  1
  Bi2+  Bi66  1  -0.00561404  0.38305779  0.29098713  1
  Bi2+  Bi67  1  -0.03908533  0.39996147  0.79791667  1
  Bi2+  Bi68  1  0.01947608  0.58095338  0.30714886  1
  Bi2+  Bi69  1  -0.01253983  0.60096905  0.79972525  1
  Bi2+  Bi70  1  -0.01220715  0.85876104  0.30874012  1
  Bi2+  Bi71  1  -0.00140979  0.85951749  0.78265951  1
  Bi2+  Bi72  1  0.23592601  0.10409711  0.30320564  1
  Bi2+  Bi73  1  0.25536947  0.13860264  0.79007850  1
  Bi2+  Bi74  1  0.19383492  0.38974914  0.28372085  1
  Bi2+  Bi75  1  0.28344211  0.33786147  0.78093253  1
  Bi2+  Bi76  1  0.24028118  0.60127896  0.26343389  1
  Bi2+  Bi77  1  0.24579572  0.60297881  0.78680688  1
  Bi2+  Bi78  1  0.23738699  0.91363924  0.25493775  1
  Bi2+  Bi79  1  0.32208350  0.87674870  0.78822872  1
  Bi2+  Bi80  1  0.47794965  0.13399886  0.29128964  1
  Bi2+  Bi81  1  0.49360634  0.12181749  0.79691071  1
  Bi2+  Bi82  1  0.49320359  0.36303433  0.28725722  1
  Bi2+  Bi83  1  0.48478212  0.35268640  0.77661827  1
  Bi2+  Bi84  1  0.50278164  0.62376328  0.30471528  1
  Bi2+  Bi85  1  0.49034601  0.62418195  0.81040252  1
  Bi2+  Bi86  1  0.48553953  0.87895342  0.30287585  1
  Bi2+  Bi87  1  0.50105334  0.92449727  0.82182958  1
  Bi2+  Bi88  1  0.74593738  0.18070486  0.28082432  1
  Bi2+  Bi89  1  0.69704223  0.12997490  0.78607237  1
  Bi2+  Bi90  1  0.79656703  0.36244616  0.30630009  1
  Bi2+  Bi91  1  0.76889042  0.37941659  0.80457726  1
  Bi2+  Bi92  1  0.76288878  0.55881976  0.25929407  1
  Bi2+  Bi93  1  0.73689735  0.57101246  0.78034944  1
  Bi2+  Bi94  1  0.73003582  0.86185239  0.29575095  1
  Bi2+  Bi95  1  0.72616480  0.85912341  0.79744285  1
  Bi2+  Bi96  1  0.09095097  -0.00014321  0.19944512  1
  Bi2+  Bi97  1  0.14937209  -0.01409485  0.69894077  1
  Bi2+  Bi98  1  0.16749427  0.23065380  0.22231148  1
  Bi2+  Bi99  1  0.12876140  0.31893920  0.71226101  1
  Bi2+  Bi100  1  0.09413625  0.50556274  0.20537643  1
  Bi2+  Bi101  1  0.09059029  0.50413686  0.71902639  1
  Bi2+  Bi102  1  0.12533496  0.75173332  0.23865376  1
  Bi2+  Bi103  1  0.15703939  0.72108676  0.71136004  1
  Bi2+  Bi104  1  0.35377592  0.05620469  0.21102203  1
  Bi2+  Bi105  1  0.41883207  -0.00642223  0.71545271  1
  Bi2+  Bi106  1  0.36678013  0.27633710  0.20936024  1
  Bi2+  Bi107  1  0.37955283  0.22227659  0.70362535  1
  Bi2+  Bi108  1  0.36460626  0.48383226  0.20693448  1
  Bi2+  Bi109  1  0.40002149  0.48062614  0.69961253  1
  Bi2+  Bi110  1  0.38020224  0.76353973  0.20462367  1
  Bi2+  Bi111  1  0.40248918  0.72967381  0.70565369  1
  Bi2+  Bi112  1  0.61934177  0.05809838  0.22404501  1
  Bi2+  Bi113  1  0.61770040  -0.02141075  0.72737251  1
  Bi2+  Bi114  1  0.56583573  0.24251156  0.20164065  1
  Bi2+  Bi115  1  0.59635612  0.23148574  0.70963257  1
  Bi2+  Bi116  1  0.63807676  0.42506213  0.21905588  1
  Bi2+  Bi117  1  0.63693082  0.43363844  0.71968284  1
  Bi2+  Bi118  1  0.65207479  0.74523008  0.20996139  1
  Bi2+  Bi119  1  0.58418634  0.75717581  0.75095737  1
  Bi2+  Bi120  1  0.87402388  -0.01379760  0.19899085  1
  Bi2+  Bi121  1  0.86827886  -0.00818256  0.68179247  1
  Bi2+  Bi122  1  0.88447703  0.28024491  0.21244415  1
  Bi2+  Bi123  1  0.85720828  0.28069092  0.71087676  1
  Bi2+  Bi124  1  0.89491237  0.47658065  0.18025169  1
  Bi2+  Bi125  1  0.88584582  0.50907879  0.70896350  1
  Bi2+  Bi126  1  0.92578845  0.71136541  0.24278626  1
  Bi2+  Bi127  1  0.85228556  0.72702783  0.69713733  1
  S2-  S128  1  -0.02685537  0.11385294  0.15881219  1
  S2-  S129  1  0.01706673  0.08874643  0.67909380  1
  S2-  S130  1  0.01249051  0.36155392  0.14798117  1
  S2-  S131  1  -0.00760409  0.29134218  0.64583603  1
  S2-  S132  1  -0.02285180  0.62753335  0.15186508  1
  S2-  S133  1  0.00868805  0.68041590  0.65759813  1
  S2-  S134  1  -0.00393271  0.88183636  0.15737390  1
  S2-  S135  1  0.00894399  0.88996439  0.66986811  1
  S2-  S136  1  0.20808809  0.11403025  0.15243854  1
  S2-  S137  1  0.23636699  0.11660413  0.66672267  1
  S2-  S138  1  0.26446022  0.38246469  0.14877109  1
  S2-  S139  1  0.26508584  0.38719630  0.65657072  1
  S2-  S140  1  0.32719305  0.62733516  0.14266573  1
  S2-  S141  1  0.26624042  0.63264379  0.65775140  1
  S2-  S142  1  0.31681348  0.86969902  0.13938080  1
  S2-  S143  1  0.23275095  0.85770727  0.66013584  1
  S2-  S144  1  0.48048368  0.04645977  0.14228492  1
  S2-  S145  1  0.49637364  0.12929353  0.64936176  1
  S2-  S146  1  0.50076370  0.46057179  0.14534822  1
  S2-  S147  1  0.50582082  0.39435244  0.64644897  1
  S2-  S148  1  0.51904090  0.65136501  0.19911174  1
  S2-  S149  1  0.49673443  0.61020086  0.66150988  1
  S2-  S150  1  0.52554923  0.85342850  0.18874947  1
  S2-  S151  1  0.47648259  0.85542208  0.65362354  1
  S2-  S152  1  0.74830258  0.08415517  0.16186032  1
  S2-  S153  1  0.80851745  0.14214987  0.65005233  1
  S2-  S154  1  0.75849857  0.35422958  0.15393440  1
  S2-  S155  1  0.76480634  0.37936380  0.65245378  1
  S2-  S156  1  0.73119149  0.61799499  0.15934875  1
  S2-  S157  1  0.75531723  0.62311363  0.65336655  1
  S2-  S158  1  0.77450111  0.86155026  0.17296235  1
  S2-  S159  1  0.76694306  0.85492855  0.65225727  1
  S2-  S160  1  0.04299434  -0.00058440  0.35872764  1
  S2-  S161  1  0.04629945  -0.00592267  0.84241619  1
  S2-  S162  1  0.12531181  0.21358361  0.35530953  1
  S2-  S163  1  0.12373885  0.21746447  0.83813064  1
  S2-  S164  1  0.17906012  0.52291972  0.35117975  1
  S2-  S165  1  0.14116062  0.51810082  0.84057384  1
  S2-  S166  1  0.12521305  0.77207910  0.34714302  1
  S2-  S167  1  0.09639238  0.76150375  0.83215969  1
  S2-  S168  1  0.38698036  -0.02203054  0.34924962  1
  S2-  S169  1  0.25626073  0.00895157  0.85265515  1
  S2-  S170  1  0.35658331  0.22130525  0.33796922  1
  S2-  S171  1  0.37776929  0.23562039  0.84926270  1
  S2-  S172  1  0.41315992  0.48931347  0.33692290  1
  S2-  S173  1  0.37112573  0.51091331  0.83724009  1
  S2-  S174  1  0.38543033  0.74753354  0.33590668  1
  S2-  S175  1  0.34471730  0.72916458  0.83888770  1
  S2-  S176  1  0.62106435  -0.02518726  0.33921327  1
  S2-  S177  1  0.70899808  0.00066468  0.85906849  1
  S2-  S178  1  0.63287676  0.24434948  0.34437449  1
  S2-  S179  1  0.65720495  0.26007791  0.84745811  1
  S2-  S180  1  0.63277014  0.54468217  0.33643094  1
  S2-  S181  1  0.60411241  0.51932885  0.84596086  1
  S2-  S182  1  0.60350035  0.75831792  0.33916737  1
  S2-  S183  1  0.61584248  0.75237317  0.85765047  1
  S2-  S184  1  0.84207279  -0.03488499  0.31830715  1
  S2-  S185  1  0.88313922  0.00177265  0.77692198  1
  S2-  S186  1  0.89035361  0.15679084  0.35112617  1
  S2-  S187  1  0.88788768  0.17474636  0.85071506  1
  S2-  S188  1  0.86391287  0.51960303  0.34493117  1
  S2-  S189  1  0.84909240  0.62785398  0.85549445  1
  S2-  S190  1  0.84753070  0.75128639  0.33977337  1
  S2-  S191  1  0.86803974  0.83913825  0.84982532  1
  S2-  S192  1  -0.00094172  0.13325954  0.46592687  1
  S2-  S193  1  0.00156630  0.12116151  0.95286313  1
  S2-  S194  1  0.00171191  0.38275650  0.45229591  1
  S2-  S195  1  -0.00257444  0.37288488  0.94517845  1
  S2-  S196  1  0.00142567  0.63082881  0.45420127  1
  S2-  S197  1  0.00039646  0.62613241  0.94968439  1
  S2-  S198  1  -0.00067110  0.88295137  0.46037577  1
  S2-  S199  1  0.00290242  0.87748279  0.94968200  1
  S2-  S200  1  0.25468497  0.12898901  0.45988592  1
  S2-  S201  1  0.25221160  0.12877615  0.95092294  1
  S2-  S202  1  0.25040501  0.38092506  0.45030498  1
  S2-  S203  1  0.25125580  0.37226947  0.94584582  1
  S2-  S204  1  0.25167121  0.63503865  0.45233961  1
  S2-  S205  1  0.25055014  0.62667909  0.94950683  1
  S2-  S206  1  0.25213688  0.88414607  0.45356624  1
  S2-  S207  1  0.25015529  0.87087639  0.94537053  1
  S2-  S208  1  0.50382859  0.12909149  0.44722807  1
  S2-  S209  1  0.50242176  0.12432788  0.95150054  1
  S2-  S210  1  0.50435670  0.37889794  0.44487394  1
  S2-  S211  1  0.50077844  0.37328957  0.95220109  1
  S2-  S212  1  0.50068831  0.63411799  0.45230230  1
  S2-  S213  1  0.49897075  0.62349735  0.95527525  1
  S2-  S214  1  0.50226647  0.88208123  0.45259509  1
  S2-  S215  1  0.49982249  0.87674536  0.95939264  1
  S2-  S216  1  0.75189069  0.12922777  0.44899770  1
  S2-  S217  1  0.75135792  0.12497759  0.95762612  1
  S2-  S218  1  0.74912243  0.38179925  0.44920517  1
  S2-  S219  1  0.75252621  0.37492727  0.94985633  1
  S2-  S220  1  0.75240994  0.63253375  0.44984862  1
  S2-  S221  1  0.74347946  0.62644587  0.95771355  1
  S2-  S222  1  0.75569183  0.88430535  0.44767437  1
  S2-  S223  1  0.74282982  0.86909427  0.96427212  1
  S2-  S224  1  0.12883747  -0.00226269  0.03978780  1
  S2-  S225  1  0.12505893  0.00842067  0.55529036  1
  S2-  S226  1  0.12446814  0.25238160  0.04425739  1
  S2-  S227  1  0.13022175  0.25570022  0.55404222  1
  S2-  S228  1  0.12624525  0.50120209  0.04702926  1
  S2-  S229  1  0.12579986  0.50558455  0.55327172  1
  S2-  S230  1  0.12737637  0.74703403  0.04393961  1
  S2-  S231  1  0.12580750  0.75738292  0.55076668  1
  S2-  S232  1  0.37217744  0.00084491  0.03547910  1
  S2-  S233  1  0.37794581  0.00732767  0.55146556  1
  S2-  S234  1  0.37792046  0.25235136  0.05129214  1
  S2-  S235  1  0.37935390  0.25685742  0.54569987  1
  S2-  S236  1  0.37259414  0.49740846  0.04191186  1
  S2-  S237  1  0.37732416  0.50568957  0.54288727  1
  S2-  S238  1  0.37654601  0.74855461  0.04285699  1
  S2-  S239  1  0.37543304  0.75812310  0.54458866  1
  S2-  S240  1  0.62309606  0.00085517  0.05133125  1
  S2-  S241  1  0.62639987  0.00810104  0.54683513  1
  S2-  S242  1  0.62317398  0.25235333  0.05146354  1
  S2-  S243  1  0.62570086  0.25757467  0.54730400  1
  S2-  S244  1  0.62622561  0.50168564  0.05021936  1
  S2-  S245  1  0.62723274  0.50727001  0.54418972  1
  S2-  S246  1  0.61721854  0.74703628  0.06301757  1
  S2-  S247  1  0.62841291  0.75473935  0.54706386  1
  S2-  S248  1  0.87587516  -0.00048973  0.05393266  1
  S2-  S249  1  0.87728295  0.00710237  0.54931149  1
  S2-  S250  1  0.87882780  0.25101812  0.04580000  1
  S2-  S251  1  0.87013235  0.26139912  0.54018209  1
  S2-  S252  1  0.87554724  0.50214238  0.03737570  1
  S2-  S253  1  0.87466085  0.50648400  0.55005084  1
  S2-  S254  1  0.87485826  0.74655868  0.04840662  1
  S2-  S255  1  0.87739183  0.75483955  0.54534944  1
