# generated using pymatgen
data_La6Ce7Pr13Nd19Sm19(BiS2)64
_symmetry_space_group_name_H-M   'P 1'
_cell_length_a   16.13662435
_cell_length_b   16.12963816
_cell_length_c   27.25775656
_cell_angle_alpha   90.06583987
_cell_angle_beta   89.94610268
_cell_angle_gamma   89.92550628
_symmetry_Int_Tables_number   1
_chemical_formula_structural   La6Ce7Pr13Nd19Sm19(BiS2)64
_chemical_formula_sum   'La6 Ce7 Pr13 Nd19 Sm19 Bi64 S128'
_cell_volume   7094.57813462
_cell_formula_units_Z   1
loop_
 _symmetry_equiv_pos_site_id
 _symmetry_equiv_pos_as_xyz
  1  'x, y, z'
loop_
 _atom_type_symbol
 _atom_type_oxidation_number
  La3+  3.0
  Ce3+  3.0
  Pr3+  3.0
  Nd3+  3.0
  Sm3+  3.0
  Bi2+  2.0
  S2-  -2.0
loop_
 _atom_site_type_symbol
 _atom_site_label
 _atom_site_symmetry_multiplicity
 _atom_site_fract_x
 _atom_site_fract_y
 _atom_site_fract_z
 _atom_site_occupancy
  La3+  La0  1  0.23870819  0.36223263  0.08957089  1
  La3+  La1  1  0.23998910  0.61994021  0.08145481  1
  La3+  La2  1  0.50071826  0.62857961  0.61323271  1
  La3+  La3  1  0.49612343  0.88112214  0.10644102  1
  La3+  La4  1  0.76012986  0.86295875  0.56695077  1
  La3+  La5  1  0.50071618  0.36931815  0.07339845  1
  Ce3+  Ce6  1  -0.00833127  0.61814921  0.06313339  1
  Ce3+  Ce7  1  -0.00282863  0.86546844  0.06298297  1
  Ce3+  Ce8  1  -0.00970822  0.36853647  0.06581354  1
  Ce3+  Ce9  1  0.86812939  0.49024298  0.94188537  1
  Ce3+  Ce10  1  0.74349983  0.11395215  0.05460961  1
  Ce3+  Ce11  1  0.26062739  0.37107405  0.55682056  1
  Ce3+  Ce12  1  0.63160191  0.24225468  0.44030523  1
  Pr3+  Pr13  1  0.24640834  0.11542012  0.05480404  1
  Pr3+  Pr14  1  0.12215064  0.48633447  0.94146340  1
  Pr3+  Pr15  1  0.50222715  0.62251810  0.07515280  1
  Pr3+  Pr16  1  0.25746365  0.86195305  0.56261987  1
  Pr3+  Pr17  1  0.86833027  -0.01183514  0.93641518  1
  Pr3+  Pr18  1  0.36859207  0.73190599  0.93916744  1
  Pr3+  Pr19  1  0.50679337  0.87038667  0.56705549  1
  Pr3+  Pr20  1  0.12268122  0.73165195  0.93265447  1
  Pr3+  Pr21  1  0.50807184  0.37295518  0.56510962  1
  Pr3+  Pr22  1  0.25087405  0.60886234  0.56817796  1
  Pr3+  Pr23  1  0.36814446  0.24829001  0.93676524  1
  Pr3+  Pr24  1  0.00630796  0.36656054  0.55811177  1
  Pr3+  Pr25  1  0.38855006  0.49433735  0.43437218  1
  Nd3+  Nd26  1  0.36789081  -0.01208708  0.93786900  1
  Nd3+  Nd27  1  0.61919320  0.24314697  0.94163450  1
  Nd3+  Nd28  1  -0.00678498  0.11623275  0.05152756  1
  Nd3+  Nd29  1  0.61674728  0.49252127  0.94021796  1
  Nd3+  Nd30  1  0.88173135  0.74076371  0.43215845  1
  Nd3+  Nd31  1  0.13830220  0.73933298  0.43308477  1
  Nd3+  Nd32  1  0.86861295  0.24141642  0.93701318  1
  Nd3+  Nd33  1  0.63401637  -0.00960347  0.44066292  1
  Nd3+  Nd34  1  0.50700592  0.11615266  0.56524664  1
  Nd3+  Nd35  1  0.63813630  0.74172582  0.43657241  1
  Nd3+  Nd36  1  0.61484274  -0.01097293  0.93778437  1
  Nd3+  Nd37  1  0.75754425  0.11777519  0.55468020  1
  Nd3+  Nd38  1  0.00979755  0.11691879  0.55337513  1
  Nd3+  Nd39  1  0.74525782  0.36706307  0.06576402  1
  Nd3+  Nd40  1  0.38452249  -0.01047459  0.43780824  1
  Nd3+  Nd41  1  0.24431829  0.86520494  0.06070630  1
  Nd3+  Nd42  1  0.86807515  0.74114416  0.94074199  1
  Nd3+  Nd43  1  0.75503997  0.61683598  0.56501860  1
  Nd3+  Nd44  1  0.13645416  -0.00899443  0.43804712  1
  Sm3+  Sm45  1  0.88396298  0.49120357  0.44212987  1
  Sm3+  Sm46  1  0.36729272  0.48810963  0.95315465  1
  Sm3+  Sm47  1  0.25849100  0.11761192  0.55036637  1
  Sm3+  Sm48  1  0.75592460  0.36732680  0.55168976  1
  Sm3+  Sm49  1  0.00816260  0.61593417  0.55502065  1
  Sm3+  Sm50  1  0.88441356  0.24236001  0.44145706  1
  Sm3+  Sm51  1  0.12152071  -0.01382386  0.93675783  1
  Sm3+  Sm52  1  0.38622910  0.24430984  0.44058181  1
  Sm3+  Sm53  1  0.11913343  0.24594062  0.94291275  1
  Sm3+  Sm54  1  0.88481357  -0.00690235  0.44376867  1
  Sm3+  Sm55  1  0.13490093  0.24391087  0.44151099  1
  Sm3+  Sm56  1  0.74226368  0.87016125  0.05925988  1
  Sm3+  Sm57  1  0.74241492  0.62189072  0.05781382  1
  Sm3+  Sm58  1  0.39148180  0.74009193  0.44035723  1
  Sm3+  Sm59  1  0.00972540  0.86470954  0.54677696  1
  Sm3+  Sm60  1  0.63359736  0.49337584  0.44034112  1
  Sm3+  Sm61  1  0.61430130  0.74282152  0.94484679  1
  Sm3+  Sm62  1  0.13605342  0.49149043  0.43473841  1
  Sm3+  Sm63  1  0.49253365  0.11679547  0.05375576  1
  Bi2+  Bi64  1  -0.05023016  0.09520174  0.28104595  1
  Bi2+  Bi65  1  0.03818627  0.23337539  0.80915567  1
  Bi2+  Bi66  1  -0.04263477  0.38082631  0.28579518  1
  Bi2+  Bi67  1  -0.00257228  0.42324736  0.80682914  1
  Bi2+  Bi68  1  -0.04058311  0.66218108  0.27835384  1
  Bi2+  Bi69  1  -0.01186326  0.67321913  0.76711682  1
  Bi2+  Bi70  1  -0.04813789  0.85902460  0.28071326  1
  Bi2+  Bi71  1  -0.02251749  0.87330211  0.74669735  1
  Bi2+  Bi72  1  0.14698672  0.12914997  0.28074116  1
  Bi2+  Bi73  1  0.30790734  0.17929669  0.80328198  1
  Bi2+  Bi74  1  0.23609275  0.37819035  0.30153697  1
  Bi2+  Bi75  1  0.29060927  0.36551450  0.77269567  1
  Bi2+  Bi76  1  0.23194553  0.62335176  0.29096886  1
  Bi2+  Bi77  1  0.24606789  0.66810689  0.80803873  1
  Bi2+  Bi78  1  0.25456530  0.87480642  0.30600553  1
  Bi2+  Bi79  1  0.23094824  0.92432368  0.79119119  1
  Bi2+  Bi80  1  0.51749328  0.10321737  0.23924595  1
  Bi2+  Bi81  1  0.49932048  0.13831444  0.79140851  1
  Bi2+  Bi82  1  0.49935164  0.35276901  0.30500084  1
  Bi2+  Bi83  1  0.49727911  0.37466369  0.79791902  1
  Bi2+  Bi84  1  0.47989846  0.62086424  0.30776444  1
  Bi2+  Bi85  1  0.51065250  0.62027746  0.82199134  1
  Bi2+  Bi86  1  0.50096015  0.89055958  0.29691242  1
  Bi2+  Bi87  1  0.50121229  0.87691846  0.80780179  1
  Bi2+  Bi88  1  0.77320390  0.17971666  0.28426458  1
  Bi2+  Bi89  1  0.76324867  0.12840695  0.78771306  1
  Bi2+  Bi90  1  0.75892210  0.38214622  0.28102685  1
  Bi2+  Bi91  1  0.81383927  0.38870369  0.77003615  1
  Bi2+  Bi92  1  0.76877617  0.61444397  0.28443101  1
  Bi2+  Bi93  1  0.78949958  0.63981437  0.77842072  1
  Bi2+  Bi94  1  0.74953204  0.87895203  0.29713240  1
  Bi2+  Bi95  1  0.77094874  0.89215034  0.79532573  1
  Bi2+  Bi96  1  0.09210825  -0.01337071  0.20860746  1
  Bi2+  Bi97  1  0.09263972  0.04811459  0.73746781  1
  Bi2+  Bi98  1  0.03228528  0.24457029  0.21154435  1
  Bi2+  Bi99  1  0.17235073  0.22993785  0.72200561  1
  Bi2+  Bi100  1  0.02826501  0.51188400  0.20975872  1
  Bi2+  Bi101  1  0.07932756  0.51911402  0.71656238  1
  Bi2+  Bi102  1  0.10121951  0.76219977  0.21292163  1
  Bi2+  Bi103  1  0.13103550  0.77367933  0.69716128  1
  Bi2+  Bi104  1  0.34653577  0.01837502  0.20871602  1
  Bi2+  Bi105  1  0.37434278  0.07037474  0.70751088  1
  Bi2+  Bi106  1  0.35156987  0.23030466  0.22106108  1
  Bi2+  Bi107  1  0.44888347  0.25515047  0.69520380  1
  Bi2+  Bi108  1  0.39223502  0.48243640  0.20755533  1
  Bi2+  Bi109  1  0.35003562  0.51368878  0.71093967  1
  Bi2+  Bi110  1  0.35741969  0.74392279  0.20903604  1
  Bi2+  Bi111  1  0.38396823  0.77707154  0.71303005  1
  Bi2+  Bi112  1  0.71277656  0.01312732  0.21670525  1
  Bi2+  Bi113  1  0.61707134  0.03933902  0.71436929  1
  Bi2+  Bi114  1  0.64011706  0.24532209  0.20953011  1
  Bi2+  Bi115  1  0.64371787  0.23451552  0.70745296  1
  Bi2+  Bi116  1  0.65811137  0.50711031  0.21374932  1
  Bi2+  Bi117  1  0.64995881  0.46823294  0.70730265  1
  Bi2+  Bi118  1  0.72445051  0.75422898  0.20538324  1
  Bi2+  Bi119  1  0.67072353  0.75525946  0.71602878  1
  Bi2+  Bi120  1  0.90039989  -0.05472138  0.17970484  1
  Bi2+  Bi121  1  0.89751331  0.05311471  0.71703096  1
  Bi2+  Bi122  1  0.86181075  0.33454353  0.17968808  1
  Bi2+  Bi123  1  0.93408024  0.27103281  0.71230917  1
  Bi2+  Bi124  1  0.85062337  0.52788893  0.16179583  1
  Bi2+  Bi125  1  0.88918228  0.56303207  0.68537317  1
  Bi2+  Bi126  1  0.90862874  0.74626804  0.16910520  1
  Bi2+  Bi127  1  0.85594039  0.75427362  0.67407736  1
  S2-  S128  1  -0.00330691  0.10355365  0.15002828  1
  S2-  S129  1  0.00145039  0.13027932  0.65138386  1
  S2-  S130  1  0.08540996  0.37427932  0.14652120  1
  S2-  S131  1  0.02182250  0.38312825  0.65755793  1
  S2-  S132  1  0.09194719  0.62963707  0.14235660  1
  S2-  S133  1  0.10701580  0.62956426  0.63537855  1
  S2-  S134  1  0.11889712  0.86718118  0.13531634  1
  S2-  S135  1  0.02791643  0.87102342  0.64318815  1
  S2-  S136  1  0.25358806  0.12886705  0.15495703  1
  S2-  S137  1  0.24927092  0.12077366  0.64768348  1
  S2-  S138  1  0.25863161  0.36834074  0.19705008  1
  S2-  S139  1  0.25535796  0.45457204  0.64059574  1
  S2-  S140  1  0.27082181  0.59031983  0.18630628  1
  S2-  S141  1  0.33423395  0.65541058  0.65239873  1
  S2-  S142  1  0.32994196  0.87827000  0.14944458  1
  S2-  S143  1  0.26348082  0.87107220  0.66428251  1
  S2-  S144  1  0.49078813  0.04911978  0.14455847  1
  S2-  S145  1  0.50296204  0.00456864  0.64211138  1
  S2-  S146  1  0.44089556  0.32611349  0.16535648  1
  S2-  S147  1  0.50171010  0.46079383  0.65238856  1
  S2-  S148  1  0.46190219  0.61771138  0.17541700  1
  S2-  S149  1  0.48006709  0.63102920  0.72974424  1
  S2-  S150  1  0.49972947  0.82472011  0.20897219  1
  S2-  S151  1  0.52005015  0.79012079  0.65645291  1
  S2-  S152  1  0.74679627  0.13971345  0.15116007  1
  S2-  S153  1  0.73847606  0.12005019  0.65279336  1
  S2-  S154  1  0.63772842  0.38051087  0.14486219  1
  S2-  S155  1  0.73171599  0.36883737  0.64922324  1
  S2-  S156  1  0.65242849  0.63385694  0.14129493  1
  S2-  S157  1  0.66440413  0.61120036  0.65064401  1
  S2-  S158  1  0.66550573  0.88845229  0.14625963  1
  S2-  S159  1  0.73981634  0.88811960  0.66626573  1
  S2-  S160  1  0.14205400  -0.02275784  0.33953727  1
  S2-  S161  1  0.12910777  0.02491951  0.84130815  1
  S2-  S162  1  0.13937010  0.27202510  0.34518044  1
  S2-  S163  1  0.12941185  0.35710677  0.86787482  1
  S2-  S164  1  0.13504779  0.50699254  0.33679855  1
  S2-  S165  1  0.13560106  0.59812827  0.86117542  1
  S2-  S166  1  0.14224600  0.74257328  0.33370881  1
  S2-  S167  1  0.15366398  0.80899000  0.83928662  1
  S2-  S168  1  0.36611060  -0.01409876  0.33867648  1
  S2-  S169  1  0.37801231  -0.01416267  0.83817921  1
  S2-  S170  1  0.37394666  0.26671682  0.34266330  1
  S2-  S171  1  0.37113827  0.37893578  0.87021333  1
  S2-  S172  1  0.35562256  0.50045674  0.33349492  1
  S2-  S173  1  0.35939543  0.59059493  0.87117881  1
  S2-  S174  1  0.34829350  0.72738118  0.34251077  1
  S2-  S175  1  0.37911297  0.77986891  0.83623779  1
  S2-  S176  1  0.62306031  -0.01843056  0.34224664  1
  S2-  S177  1  0.63383568  -0.02191206  0.83918857  1
  S2-  S178  1  0.59809656  0.24565022  0.34464603  1
  S2-  S179  1  0.58510284  0.25720666  0.84467962  1
  S2-  S180  1  0.57613026  0.49788770  0.34690213  1
  S2-  S181  1  0.61036647  0.48464370  0.83996701  1
  S2-  S182  1  0.54709396  0.74951845  0.34919538  1
  S2-  S183  1  0.60812313  0.75475822  0.84524238  1
  S2-  S184  1  0.87246052  -0.01934502  0.34715886  1
  S2-  S185  1  0.86941713  0.01242438  0.83740534  1
  S2-  S186  1  0.90270306  0.23592650  0.34467019  1
  S2-  S187  1  0.81214948  0.25693627  0.84300858  1
  S2-  S188  1  0.85859466  0.49348235  0.34574363  1
  S2-  S189  1  0.85186152  0.51057255  0.84528997  1
  S2-  S190  1  0.76185201  0.73838235  0.36137432  1
  S2-  S191  1  0.84369467  0.77177316  0.84348606  1
  S2-  S192  1  0.01055536  0.11787619  0.44705577  1
  S2-  S193  1  -0.00326188  0.11670980  0.94550694  1
  S2-  S194  1  0.00831234  0.36733616  0.44956040  1
  S2-  S195  1  -0.01105586  0.36399258  0.95889776  1
  S2-  S196  1  0.00808324  0.61536153  0.44696169  1
  S2-  S197  1  -0.01057524  0.61498034  0.95450498  1
  S2-  S198  1  0.00839014  0.86581797  0.44220544  1
  S2-  S199  1  -0.00346358  0.86534321  0.94919041  1
  S2-  S200  1  0.25981878  0.12021108  0.44493002  1
  S2-  S201  1  0.24315559  0.11876712  0.94812175  1
  S2-  S202  1  0.25975859  0.36752772  0.45055013  1
  S2-  S203  1  0.24540465  0.36427408  0.97382326  1
  S2-  S204  1  0.25796684  0.61546177  0.45323424  1
  S2-  S205  1  0.24532785  0.61189360  0.97210231  1
  S2-  S206  1  0.26014430  0.86424748  0.45290397  1
  S2-  S207  1  0.24530354  0.86475597  0.95293364  1
  S2-  S208  1  0.50628110  0.11645580  0.45520483  1
  S2-  S209  1  0.49112913  0.11813953  0.94869200  1
  S2-  S210  1  0.50899598  0.36768462  0.45614024  1
  S2-  S211  1  0.49839265  0.36757589  0.96490845  1
  S2-  S212  1  0.51224940  0.61758290  0.45003606  1
  S2-  S213  1  0.49739718  0.61462195  0.96605765  1
  S2-  S214  1  0.50838396  0.86819147  0.45685510  1
  S2-  S215  1  0.49146424  0.86506126  0.94730250  1
  S2-  S216  1  0.76063250  0.11746524  0.44800324  1
  S2-  S217  1  0.74211897  0.11498345  0.94777395  1
  S2-  S218  1  0.75946987  0.36695330  0.44688156  1
  S2-  S219  1  0.74231021  0.36645441  0.95639299  1
  S2-  S220  1  0.76010726  0.61086694  0.45756188  1
  S2-  S221  1  0.74090619  0.62026007  0.95221057  1
  S2-  S222  1  0.76267492  0.87120510  0.45816771  1
  S2-  S223  1  0.74053449  0.86572498  0.95341027  1
  S2-  S224  1  0.11937010  -0.00594795  0.04024494  1
  S2-  S225  1  0.13418963  -0.00838313  0.54414391  1
  S2-  S226  1  0.11829907  0.23902837  0.04745215  1
  S2-  S227  1  0.13469934  0.24266745  0.54659781  1
  S2-  S228  1  0.11640382  0.49136080  0.04850069  1
  S2-  S229  1  0.12700582  0.48904092  0.53799415  1
  S2-  S230  1  0.11633485  0.74192926  0.03880496  1
  S2-  S231  1  0.13064194  0.74268844  0.53775435  1
  S2-  S232  1  0.37228468  -0.00973330  0.04286216  1
  S2-  S233  1  0.37723865  -0.00646316  0.54368264  1
  S2-  S234  1  0.37086051  0.24111421  0.04822211  1
  S2-  S235  1  0.38344673  0.24156307  0.54655214  1
  S2-  S236  1  0.36791072  0.49135903  0.06236209  1
  S2-  S237  1  0.38502894  0.49556568  0.54203926  1
  S2-  S238  1  0.37234941  0.74186292  0.05355737  1
  S2-  S239  1  0.38539405  0.74210606  0.54484714  1
  S2-  S240  1  0.61595953  -0.00735666  0.04270798  1
  S2-  S241  1  0.63600756  -0.00670629  0.54634575  1
  S2-  S242  1  0.61920545  0.23705024  0.04763231  1
  S2-  S243  1  0.63102626  0.24213054  0.54716755  1
  S2-  S244  1  0.62472345  0.49614499  0.04515712  1
  S2-  S245  1  0.63659656  0.48995894  0.54350106  1
  S2-  S246  1  0.61581695  0.75395261  0.04710410  1
  S2-  S247  1  0.63380805  0.74222024  0.54578961  1
  S2-  S248  1  0.86917064  -0.01001629  0.04289670  1
  S2-  S249  1  0.88580774  -0.00812162  0.54900783  1
  S2-  S250  1  0.86762674  0.24020086  0.04418730  1
  S2-  S251  1  0.88123309  0.24193039  0.54643947  1
  S2-  S252  1  0.86479031  0.49456900  0.04581331  1
  S2-  S253  1  0.88117593  0.49203646  0.54674481  1
  S2-  S254  1  0.86552908  0.74568310  0.04591950  1
  S2-  S255  1  0.88689114  0.73879695  0.53883005  1
