# generated using pymatgen
data_La6Ce7Pr13Nd19Sm19(BiS2)64
_symmetry_space_group_name_H-M   'P 1'
_cell_length_a   16.09497560
_cell_length_b   16.10437725
_cell_length_c   27.28843173
_cell_angle_alpha   90.06303187
_cell_angle_beta   90.14040836
_cell_angle_gamma   90.01518936
_symmetry_Int_Tables_number   1
_chemical_formula_structural   La6Ce7Pr13Nd19Sm19(BiS2)64
_chemical_formula_sum   'La6 Ce7 Pr13 Nd19 Sm19 Bi64 S128'
_cell_volume   7073.12369617
_cell_formula_units_Z   1
loop_
 _symmetry_equiv_pos_site_id
 _symmetry_equiv_pos_as_xyz
  1  'x, y, z'
loop_
 _atom_type_symbol
 _atom_type_oxidation_number
  La3+  3.0
  Ce3+  3.0
  Pr3+  3.0
  Nd3+  3.0
  Sm3+  3.0
  Bi2+  2.0
  S2-  -2.0
loop_
 _atom_site_type_symbol
 _atom_site_label
 _atom_site_symmetry_multiplicity
 _atom_site_fract_x
 _atom_site_fract_y
 _atom_site_fract_z
 _atom_site_occupancy
  La3+  La0  1  0.00362378  0.37560307  0.07983479  1
  La3+  La1  1  0.00504008  0.89054819  0.58375421  1
  La3+  La2  1  0.00492434  0.11922472  0.08186599  1
  La3+  La3  1  0.87222661  0.00191869  0.41018311  1
  La3+  La4  1  -0.00651413  0.87971036  0.05858930  1
  La3+  La5  1  0.12196666  0.73734318  0.89025127  1
  Ce3+  Ce6  1  0.37997555  0.00511494  0.43898715  1
  Ce3+  Ce7  1  0.62438298  0.00555410  0.94623581  1
  Ce3+  Ce8  1  0.12366342  0.00681854  0.44399149  1
  Ce3+  Ce9  1  0.50016908  0.88644751  0.57275377  1
  Ce3+  Ce10  1  0.87498378  0.24691993  0.94890566  1
  Ce3+  Ce11  1  0.49457332  0.37933887  0.06676842  1
  Ce3+  Ce12  1  0.24683939  0.12680267  0.05970627  1
  Pr3+  Pr13  1  0.12677644  0.50559697  0.44083148  1
  Pr3+  Pr14  1  0.49916183  0.62808089  0.05864315  1
  Pr3+  Pr15  1  0.12065372  0.25011897  0.93774739  1
  Pr3+  Pr16  1  0.75475790  0.63183432  0.55960709  1
  Pr3+  Pr17  1  0.73747514  0.14057131  0.08309063  1
  Pr3+  Pr18  1  0.36937075  0.75140046  0.93671373  1
  Pr3+  Pr19  1  0.25127650  0.63038468  0.56000740  1
  Pr3+  Pr20  1  -0.00180002  0.63183554  0.06348200  1
  Pr3+  Pr21  1  0.88200031  0.26684135  0.40776872  1
  Pr3+  Pr22  1  0.49913572  0.87519449  0.05831756  1
  Pr3+  Pr23  1  0.24255773  0.64065557  0.08069655  1
  Pr3+  Pr24  1  0.37020826  0.25734833  0.93924947  1
  Pr3+  Pr25  1  0.25330873  0.13434113  0.55789948  1
  Nd3+  Nd26  1  0.50253715  0.63209890  0.55668775  1
  Nd3+  Nd27  1  0.87880040  0.76078493  0.44029428  1
  Nd3+  Nd28  1  0.25531259  0.88308373  0.56758730  1
  Nd3+  Nd29  1  0.87049860  0.01097092  0.93456430  1
  Nd3+  Nd30  1  0.25102944  0.38043454  0.07088625  1
  Nd3+  Nd31  1  0.37786932  0.75870210  0.43898609  1
  Nd3+  Nd32  1  0.00001939  0.63161825  0.55847466  1
  Nd3+  Nd33  1  0.75299962  0.62923818  0.07187551  1
  Nd3+  Nd34  1  0.49617758  0.12836988  0.05894798  1
  Nd3+  Nd35  1  0.75424663  0.13295900  0.54898502  1
  Nd3+  Nd36  1  0.12946554  0.25475862  0.42838501  1
  Nd3+  Nd37  1  0.74788109  0.88183180  0.06182067  1
  Nd3+  Nd38  1  0.75384283  0.88746063  0.56041251  1
  Nd3+  Nd39  1  -0.00081640  0.13621450  0.55946166  1
  Nd3+  Nd40  1  0.37781657  0.25652497  0.42769491  1
  Nd3+  Nd41  1  0.62158464  0.00400136  0.43360582  1
  Nd3+  Nd42  1  0.62371832  0.25484187  0.94025802  1
  Nd3+  Nd43  1  0.25293751  0.37888453  0.55928654  1
  Nd3+  Nd44  1  0.87021033  0.75711011  0.92984823  1
  Sm3+  Sm45  1  0.37714060  0.50756274  0.44411876  1
  Sm3+  Sm46  1  0.50380474  0.13556320  0.55573658  1
  Sm3+  Sm47  1  0.87587592  0.50554282  0.94973787  1
  Sm3+  Sm48  1  0.12584060  0.76044779  0.44625510  1
  Sm3+  Sm49  1  0.12191477  0.50459968  0.94749565  1
  Sm3+  Sm50  1  0.63060502  0.25606714  0.43213617  1
  Sm3+  Sm51  1  0.62686387  0.50773155  0.44244401  1
  Sm3+  Sm52  1  0.74943923  0.37626573  0.05608894  1
  Sm3+  Sm53  1  0.75177598  0.37896802  0.54925569  1
  Sm3+  Sm54  1  0.87793203  0.50511499  0.44140438  1
  Sm3+  Sm55  1  0.50354127  0.38003593  0.55164417  1
  Sm3+  Sm56  1  0.62740522  0.75680691  0.45135035  1
  Sm3+  Sm57  1  0.62506975  0.50439440  0.94828370  1
  Sm3+  Sm58  1  0.00086274  0.37453657  0.55933751  1
  Sm3+  Sm59  1  0.12157713  0.00136908  0.93326123  1
  Sm3+  Sm60  1  0.62798078  0.75175364  0.94013993  1
  Sm3+  Sm61  1  0.37241784  0.00110222  0.94439379  1
  Sm3+  Sm62  1  0.24614928  0.87633457  0.05566740  1
  Sm3+  Sm63  1  0.36873243  0.50578744  0.94726271  1
  Bi2+  Bi64  1  0.04334295  0.13756592  0.26943627  1
  Bi2+  Bi65  1  -0.00178605  0.14856626  0.78881931  1
  Bi2+  Bi66  1  0.00229888  0.39022864  0.29059013  1
  Bi2+  Bi67  1  0.05905535  0.33410635  0.81807171  1
  Bi2+  Bi68  1  0.03225577  0.64174489  0.28052027  1
  Bi2+  Bi69  1  -0.01963158  0.58587091  0.79143579  1
  Bi2+  Bi70  1  0.01855713  0.88647520  0.30690348  1
  Bi2+  Bi71  1  -0.02016846  0.86379571  0.78286419  1
  Bi2+  Bi72  1  0.24713056  0.11151407  0.29976994  1
  Bi2+  Bi73  1  0.25688048  0.12909140  0.79451303  1
  Bi2+  Bi74  1  0.25651539  0.39541490  0.28860121  1
  Bi2+  Bi75  1  0.25760021  0.34979887  0.80665415  1
  Bi2+  Bi76  1  0.35169262  0.62997860  0.27642399  1
  Bi2+  Bi77  1  0.26061686  0.59058056  0.79220477  1
  Bi2+  Bi78  1  0.29290213  0.89608678  0.27524626  1
  Bi2+  Bi79  1  0.23925308  0.87245369  0.78822572  1
  Bi2+  Bi80  1  0.44061083  0.11999724  0.30453515  1
  Bi2+  Bi81  1  0.53571019  0.11565166  0.75688295  1
  Bi2+  Bi82  1  0.48521452  0.36709981  0.28974723  1
  Bi2+  Bi83  1  0.51903982  0.38016862  0.74630024  1
  Bi2+  Bi84  1  0.56771107  0.64433962  0.28950182  1
  Bi2+  Bi85  1  0.53637847  0.64920437  0.80962447  1
  Bi2+  Bi86  1  0.48266967  0.84050634  0.30277983  1
  Bi2+  Bi87  1  0.49976499  0.84149625  0.79596494  1
  Bi2+  Bi88  1  0.68250593  0.14196318  0.28182208  1
  Bi2+  Bi89  1  0.72834021  0.13228858  0.80181841  1
  Bi2+  Bi90  1  0.68147666  0.41987806  0.27109041  1
  Bi2+  Bi91  1  0.77603578  0.32582852  0.79148948  1
  Bi2+  Bi92  1  0.76922971  0.63802874  0.28918411  1
  Bi2+  Bi93  1  0.72854809  0.59597989  0.79940498  1
  Bi2+  Bi94  1  0.67806170  0.89787803  0.27978794  1
  Bi2+  Bi95  1  0.72552206  0.87082070  0.79417723  1
  Bi2+  Bi96  1  0.16091510  -0.03547256  0.19431250  1
  Bi2+  Bi97  1  0.11982079  0.03128800  0.70701753  1
  Bi2+  Bi98  1  0.17842747  0.25623643  0.21774136  1
  Bi2+  Bi99  1  0.13232115  0.23595000  0.70707849  1
  Bi2+  Bi100  1  0.15421422  0.52170258  0.21300010  1
  Bi2+  Bi101  1  0.12723422  0.44402763  0.72834599  1
  Bi2+  Bi102  1  0.14154586  0.76848701  0.21664184  1
  Bi2+  Bi103  1  0.11330249  0.72413176  0.68216449  1
  Bi2+  Bi104  1  0.35658764  0.03578623  0.19878381  1
  Bi2+  Bi105  1  0.38669740  -0.01320183  0.74590729  1
  Bi2+  Bi106  1  0.37934559  0.23657539  0.21344946  1
  Bi2+  Bi107  1  0.35350864  0.29545539  0.70953492  1
  Bi2+  Bi108  1  0.44619368  0.49651604  0.20443398  1
  Bi2+  Bi109  1  0.42303834  0.54826889  0.73389559  1
  Bi2+  Bi110  1  0.41077628  0.77418835  0.20114338  1
  Bi2+  Bi111  1  0.38473882  0.74408998  0.70049486  1
  Bi2+  Bi112  1  0.55357833  0.01076535  0.21763302  1
  Bi2+  Bi113  1  0.57904038  -0.05153708  0.70071904  1
  Bi2+  Bi114  1  0.58140635  0.29748349  0.19738712  1
  Bi2+  Bi115  1  0.62680268  0.22709779  0.68157023  1
  Bi2+  Bi116  1  0.66752028  0.55906660  0.19220413  1
  Bi2+  Bi117  1  0.69106920  0.46176622  0.71850199  1
  Bi2+  Bi118  1  0.69411119  0.75854289  0.20022801  1
  Bi2+  Bi119  1  0.60730061  0.75258493  0.71451368  1
  Bi2+  Bi120  1  0.87933571  -0.00254070  0.21327177  1
  Bi2+  Bi121  1  0.84057818  0.00466720  0.70209243  1
  Bi2+  Bi122  1  0.84300359  0.25779908  0.21700040  1
  Bi2+  Bi123  1  0.88064869  0.23071300  0.71061198  1
  Bi2+  Bi124  1  0.89183620  0.52961338  0.22224605  1
  Bi2+  Bi125  1  0.92824491  0.41858316  0.73575332  1
  Bi2+  Bi126  1  0.89482790  0.74861795  0.22323136  1
  Bi2+  Bi127  1  0.85231186  0.70409499  0.69869240  1
  S2-  S128  1  -0.03401776  0.17888414  0.17656729  1
  S2-  S129  1  -0.01508022  0.03752219  0.64528457  1
  S2-  S130  1  -0.07129011  0.39043387  0.17389487  1
  S2-  S131  1  0.00031911  0.26242237  0.63392893  1
  S2-  S132  1  0.10167997  0.64099887  0.14840021  1
  S2-  S133  1  -0.02082987  0.61364970  0.65686158  1
  S2-  S134  1  0.00838861  0.96446061  0.14781933  1
  S2-  S135  1  -0.03384826  0.82589310  0.67810375  1
  S2-  S136  1  0.16430945  0.12038897  0.14447425  1
  S2-  S137  1  0.24549683  0.13123941  0.65834084  1
  S2-  S138  1  0.14037878  0.37795064  0.14877502  1
  S2-  S139  1  0.25591657  0.39968351  0.65734611  1
  S2-  S140  1  0.29430245  0.56401568  0.16939581  1
  S2-  S141  1  0.25325531  0.63930459  0.65997883  1
  S2-  S142  1  0.26654149  0.79246409  0.14272457  1
  S2-  S143  1  0.15657581  0.88933437  0.65095014  1
  S2-  S144  1  0.57603155  0.14344099  0.14629874  1
  S2-  S145  1  0.50488562  0.09672832  0.65073945  1
  S2-  S146  1  0.38209466  0.36995100  0.14206105  1
  S2-  S147  1  0.49264963  0.32949135  0.64438984  1
  S2-  S148  1  0.50339001  0.64277038  0.15779935  1
  S2-  S149  1  0.50753392  0.63543510  0.65506088  1
  S2-  S150  1  0.53585556  0.87205779  0.15602035  1
  S2-  S151  1  0.37822193  0.87582758  0.64283318  1
  S2-  S152  1  0.77230045  0.10270616  0.18215450  1
  S2-  S153  1  0.74980678  0.10704511  0.64905288  1
  S2-  S154  1  0.73029860  0.30969623  0.14536297  1
  S2-  S155  1  0.73742017  0.34596953  0.64450743  1
  S2-  S156  1  0.88026015  0.64600126  0.14103728  1
  S2-  S157  1  0.74779840  0.60286682  0.65801528  1
  S2-  S158  1  0.80513858  0.87733130  0.15591820  1
  S2-  S159  1  0.76930032  0.87503713  0.66013083  1
  S2-  S160  1  0.14010291  -0.00403349  0.34690265  1
  S2-  S161  1  0.11232397  -0.09543468  0.84920458  1
  S2-  S162  1  0.02510548  0.25030659  0.34684337  1
  S2-  S163  1  0.12463529  0.12826206  0.86133235  1
  S2-  S164  1  0.12191950  0.47084432  0.34240434  1
  S2-  S165  1  0.12231380  0.56844199  0.85465018  1
  S2-  S166  1  0.09608651  0.75697602  0.34999602  1
  S2-  S167  1  0.12530978  0.74740860  0.77625249  1
  S2-  S168  1  0.49015682  -0.01441612  0.36354008  1
  S2-  S169  1  0.33418518  -0.00622108  0.84861819  1
  S2-  S170  1  0.25663350  0.26740442  0.35585862  1
  S2-  S171  1  0.37102930  0.22837493  0.84032838  1
  S2-  S172  1  0.35106918  0.51073349  0.34774066  1
  S2-  S173  1  0.35126567  0.48788159  0.84990580  1
  S2-  S174  1  0.32684223  0.76015108  0.34397879  1
  S2-  S175  1  0.29139708  0.73943668  0.84742780  1
  S2-  S176  1  0.71914795  0.01247938  0.34978691  1
  S2-  S177  1  0.64510763  -0.00037818  0.84985216  1
  S2-  S178  1  0.56772916  0.23404894  0.34183611  1
  S2-  S179  1  0.63381117  0.25677370  0.84143248  1
  S2-  S180  1  0.59527569  0.49600084  0.34634296  1
  S2-  S181  1  0.61611426  0.50413165  0.85083295  1
  S2-  S182  1  0.62873862  0.77359890  0.35437624  1
  S2-  S183  1  0.73383832  0.74621572  0.86181170  1
  S2-  S184  1  0.92751524  0.04900801  0.31215194  1
  S2-  S185  1  0.86746767  -0.07365729  0.84088817  1
  S2-  S186  1  0.78710129  0.24255611  0.32018039  1
  S2-  S187  1  0.87145296  0.14821884  0.86717674  1
  S2-  S188  1  0.88621178  0.43076357  0.35379642  1
  S2-  S189  1  0.86613722  0.52502787  0.85164669  1
  S2-  S190  1  0.88229674  0.84823118  0.35503233  1
  S2-  S191  1  0.96030714  0.73076576  0.84488093  1
  S2-  S192  1  -0.00240838  0.13017850  0.44932335  1
  S2-  S193  1  0.00024971  0.12511852  0.96639349  1
  S2-  S194  1  0.00284810  0.38104636  0.45595163  1
  S2-  S195  1  -0.00230193  0.37946831  0.96035251  1
  S2-  S196  1  0.00059555  0.63117255  0.45143714  1
  S2-  S197  1  -0.00217750  0.62874108  0.95644844  1
  S2-  S198  1  0.00346395  0.88134897  0.46049217  1
  S2-  S199  1  -0.00870314  0.88493844  0.95244749  1
  S2-  S200  1  0.25598196  0.12914401  0.45133011  1
  S2-  S201  1  0.25275872  0.12614303  0.95541507  1
  S2-  S202  1  0.25519172  0.38474344  0.45455224  1
  S2-  S203  1  0.24490897  0.38039013  0.95839849  1
  S2-  S204  1  0.25109293  0.63260360  0.45265403  1
  S2-  S205  1  0.24615160  0.62737712  0.95870092  1
  S2-  S206  1  0.25208136  0.88081480  0.45698205  1
  S2-  S207  1  0.24863811  0.87951378  0.95300997  1
  S2-  S208  1  0.50259444  0.13691370  0.45228116  1
  S2-  S209  1  0.49562044  0.12864733  0.95143383  1
  S2-  S210  1  0.50161221  0.38199033  0.44782227  1
  S2-  S211  1  0.49745365  0.38274188  0.95588408  1
  S2-  S212  1  0.50212764  0.63147293  0.45035828  1
  S2-  S213  1  0.49954639  0.62788067  0.95233835  1
  S2-  S214  1  0.50289692  0.87640634  0.46518374  1
  S2-  S215  1  0.49955344  0.87556659  0.95047526  1
  S2-  S216  1  0.75324520  0.13646418  0.44436855  1
  S2-  S217  1  0.74268979  0.13200358  0.96664731  1
  S2-  S218  1  0.74854523  0.38369539  0.44496977  1
  S2-  S219  1  0.75008360  0.37955094  0.95150588  1
  S2-  S220  1  0.75308152  0.63062361  0.45128106  1
  S2-  S221  1  0.74776788  0.62424453  0.96397409  1
  S2-  S222  1  0.74845381  0.88057359  0.45545743  1
  S2-  S223  1  0.74659598  0.88175953  0.95669891  1
  S2-  S224  1  0.12806058  -0.00034099  0.03888313  1
  S2-  S225  1  0.12958733  0.01112263  0.54743768  1
  S2-  S226  1  0.12535293  0.25242840  0.04512560  1
  S2-  S227  1  0.12959670  0.25816685  0.53660349  1
  S2-  S228  1  0.12510032  0.50518437  0.04916354  1
  S2-  S229  1  0.12351621  0.50195927  0.54941123  1
  S2-  S230  1  0.12051780  0.76063523  0.04663517  1
  S2-  S231  1  0.12551984  0.75607989  0.54987070  1
  S2-  S232  1  0.37342008  0.00018099  0.04985880  1
  S2-  S233  1  0.37965486  0.01187748  0.54489229  1
  S2-  S234  1  0.37204036  0.25053234  0.04540334  1
  S2-  S235  1  0.37911204  0.25776420  0.53803946  1
  S2-  S236  1  0.37094126  0.50884534  0.04929962  1
  S2-  S237  1  0.37968279  0.50422210  0.54941733  1
  S2-  S238  1  0.37448311  0.75223781  0.04284401  1
  S2-  S239  1  0.37730368  0.75331968  0.54491004  1
  S2-  S240  1  0.62252155  0.00408504  0.05177556  1
  S2-  S241  1  0.62573706  0.00951509  0.54322060  1
  S2-  S242  1  0.61698674  0.25897454  0.04407622  1
  S2-  S243  1  0.62645479  0.25764693  0.53686466  1
  S2-  S244  1  0.62644795  0.50126364  0.05322412  1
  S2-  S245  1  0.62715078  0.50403039  0.54739905  1
  S2-  S246  1  0.62775360  0.75137714  0.04572309  1
  S2-  S247  1  0.62790337  0.75813956  0.55578606  1
  S2-  S248  1  0.86491448  0.01155972  0.04911275  1
  S2-  S249  1  0.87545809  0.00774878  0.54094853  1
  S2-  S250  1  0.87454093  0.25225931  0.05398640  1
  S2-  S251  1  0.87353470  0.26024167  0.53441110  1
  S2-  S252  1  0.87294147  0.49746919  0.05290825  1
  S2-  S253  1  0.87795244  0.50056908  0.54644117  1
  S2-  S254  1  0.86829039  0.75619117  0.03908405  1
  S2-  S255  1  0.87815135  0.75935993  0.54748373  1
