# generated using pymatgen
data_La6Ce7Pr13Nd19Sm19(BiS2)64
_symmetry_space_group_name_H-M   'P 1'
_cell_length_a   16.00648733
_cell_length_b   16.01681608
_cell_length_c   27.50565856
_cell_angle_alpha   89.87149987
_cell_angle_beta   89.97915901
_cell_angle_gamma   90.11182397
_symmetry_Int_Tables_number   1
_chemical_formula_structural   La6Ce7Pr13Nd19Sm19(BiS2)64
_chemical_formula_sum   'La6 Ce7 Pr13 Nd19 Sm19 Bi64 S128'
_cell_volume   7051.67555785
_cell_formula_units_Z   1
loop_
 _symmetry_equiv_pos_site_id
 _symmetry_equiv_pos_as_xyz
  1  'x, y, z'
loop_
 _atom_type_symbol
 _atom_type_oxidation_number
  La3+  3.0
  Ce3+  3.0
  Pr3+  3.0
  Nd3+  3.0
  Sm3+  3.0
  Bi2+  2.0
  S2-  -2.0
loop_
 _atom_site_type_symbol
 _atom_site_label
 _atom_site_symmetry_multiplicity
 _atom_site_fract_x
 _atom_site_fract_y
 _atom_site_fract_z
 _atom_site_occupancy
  La3+  La0  1  0.00262098  0.63614632  0.59522539  1
  La3+  La1  1  0.26464451  0.37499267  0.11633227  1
  La3+  La2  1  0.33260216  0.26250921  0.86974746  1
  La3+  La3  1  0.50306659  0.12885814  0.60005994  1
  La3+  La4  1  0.74895963  0.61933976  0.57732951  1
  La3+  La5  1  0.25139370  0.38077190  0.55912831  1
  Ce3+  Ce6  1  0.87333069  0.75676840  0.43538901  1
  Ce3+  Ce7  1  0.12539239  0.00415837  0.43820910  1
  Ce3+  Ce8  1  0.62476776  0.50879162  0.43713118  1
  Ce3+  Ce9  1  -0.00147783  0.12835169  0.55134601  1
  Ce3+  Ce10  1  0.86451218  0.26571964  0.93225445  1
  Ce3+  Ce11  1  0.24862718  0.87913058  0.55728640  1
  Ce3+  Ce12  1  0.12501818  0.25300119  0.43658306  1
  Pr3+  Pr13  1  0.37015061  0.51236156  0.93670155  1
  Pr3+  Pr14  1  0.24435172  0.88620088  0.07176324  1
  Pr3+  Pr15  1  0.74742840  0.12759327  0.55945720  1
  Pr3+  Pr16  1  0.49746229  0.87755427  0.56936064  1
  Pr3+  Pr17  1  0.74623147  0.89084825  0.07008860  1
  Pr3+  Pr18  1  0.24571019  0.14090719  0.05935531  1
  Pr3+  Pr19  1  0.11571463  0.50223038  0.42828648  1
  Pr3+  Pr20  1  0.62288863  0.25389463  0.43854282  1
  Pr3+  Pr21  1  0.74895294  0.64544391  0.07101332  1
  Pr3+  Pr22  1  0.23862426  0.63242522  0.06852081  1
  Pr3+  Pr23  1  0.12329167  0.75657601  0.43362909  1
  Pr3+  Pr24  1  0.86549033  0.00349977  0.41197394  1
  Pr3+  Pr25  1  0.11907671  0.52007636  0.92821177  1
  Nd3+  Nd26  1  0.49137667  0.63671303  0.06527130  1
  Nd3+  Nd27  1  0.12390533  0.76685011  0.93592517  1
  Nd3+  Nd28  1  0.74540911  0.37867340  0.55697814  1
  Nd3+  Nd29  1  0.87413839  0.25652566  0.44162345  1
  Nd3+  Nd30  1  0.36315375  0.01476827  0.92847603  1
  Nd3+  Nd31  1  0.49454412  0.38751178  0.06014000  1
  Nd3+  Nd32  1  0.36931597  0.76177823  0.93879647  1
  Nd3+  Nd33  1  0.61930693  0.76700579  0.94359479  1
  Nd3+  Nd34  1  0.24887054  0.12667295  0.55970186  1
  Nd3+  Nd35  1  0.86072633  0.77139139  0.91592184  1
  Nd3+  Nd36  1  0.49658672  0.62508950  0.56710340  1
  Nd3+  Nd37  1  0.49261449  0.38336385  0.56372156  1
  Nd3+  Nd38  1  0.61383562  0.26466475  0.93262897  1
  Nd3+  Nd39  1  0.86606804  0.51722786  0.94401983  1
  Nd3+  Nd40  1  0.87223604  0.51396517  0.43807943  1
  Nd3+  Nd41  1  0.49204553  0.89043961  0.06218132  1
  Nd3+  Nd42  1  0.75059997  0.87874569  0.55852112  1
  Nd3+  Nd43  1  0.11700796  0.26947583  0.93982754  1
  Nd3+  Nd44  1  0.62363340  0.51536531  0.95136516  1
  Sm3+  Sm45  1  -0.00667443  0.64179091  0.05255115  1
  Sm3+  Sm46  1  0.37596561  0.75250140  0.44361438  1
  Sm3+  Sm47  1  0.37752436  0.25480221  0.44335686  1
  Sm3+  Sm48  1  0.00040102  0.39170008  0.06137916  1
  Sm3+  Sm49  1  0.61820444  0.01442882  0.95111418  1
  Sm3+  Sm50  1  -0.00154909  0.87606208  0.55951400  1
  Sm3+  Sm51  1  -0.00566407  0.88879051  0.05330744  1
  Sm3+  Sm52  1  0.86795540  0.01298203  0.94301703  1
  Sm3+  Sm53  1  0.74708596  0.14298864  0.05892421  1
  Sm3+  Sm54  1  0.61608782  0.00252390  0.43369967  1
  Sm3+  Sm55  1  0.38252521  0.50539479  0.42175674  1
  Sm3+  Sm56  1  0.38033528  0.00339292  0.44204591  1
  Sm3+  Sm57  1  0.00504248  0.38325466  0.56533691  1
  Sm3+  Sm58  1  -0.00267570  0.14291225  0.05298238  1
  Sm3+  Sm59  1  0.12431950  0.01866990  0.94088135  1
  Sm3+  Sm60  1  0.75172312  0.38205352  0.07273282  1
  Sm3+  Sm61  1  0.24509207  0.62592505  0.55020307  1
  Sm3+  Sm62  1  0.62602638  0.75442683  0.45104797  1
  Sm3+  Sm63  1  0.49188403  0.14372253  0.05472357  1
  Bi2+  Bi64  1  0.04272167  0.06748979  0.26060559  1
  Bi2+  Bi65  1  -0.03139444  0.16802410  0.81615666  1
  Bi2+  Bi66  1  -0.02320145  0.33685750  0.28602341  1
  Bi2+  Bi67  1  -0.00265024  0.33891073  0.76547495  1
  Bi2+  Bi68  1  -0.01633451  0.61255627  0.30702884  1
  Bi2+  Bi69  1  0.01545036  0.58278888  0.80222144  1
  Bi2+  Bi70  1  -0.07431107  0.87646862  0.24733398  1
  Bi2+  Bi71  1  -0.01104354  0.96570683  0.79589613  1
  Bi2+  Bi72  1  0.23177665  0.09318372  0.29428441  1
  Bi2+  Bi73  1  0.15957460  0.07547849  0.78779061  1
  Bi2+  Bi74  1  0.23480062  0.38065121  0.31815671  1
  Bi2+  Bi75  1  0.25338151  0.46163615  0.78387292  1
  Bi2+  Bi76  1  0.23635328  0.65596078  0.29563788  1
  Bi2+  Bi77  1  0.24852944  0.67658756  0.72978095  1
  Bi2+  Bi78  1  0.25801339  0.89601091  0.28353307  1
  Bi2+  Bi79  1  0.26866391  0.82154977  0.81149326  1
  Bi2+  Bi80  1  0.42315031  0.05983824  0.27714664  1
  Bi2+  Bi81  1  0.51870847  0.11609823  0.79102844  1
  Bi2+  Bi82  1  0.50431354  0.35356768  0.30799146  1
  Bi2+  Bi83  1  0.53213986  0.40087647  0.79260629  1
  Bi2+  Bi84  1  0.57976318  0.58291526  0.25930490  1
  Bi2+  Bi85  1  0.49584449  0.64754228  0.80150740  1
  Bi2+  Bi86  1  0.48853004  0.83557412  0.30041012  1
  Bi2+  Bi87  1  0.46566866  0.84461548  0.81811269  1
  Bi2+  Bi88  1  0.84724941  0.07856207  0.28361775  1
  Bi2+  Bi89  1  0.77402713  0.13740567  0.79204556  1
  Bi2+  Bi90  1  0.72199710  0.32174038  0.31280790  1
  Bi2+  Bi91  1  0.79060636  0.36400419  0.77996615  1
  Bi2+  Bi92  1  0.73421945  0.52073982  0.31704267  1
  Bi2+  Bi93  1  0.75255316  0.61722951  0.80778169  1
  Bi2+  Bi94  1  0.75773199  0.81006799  0.29734198  1
  Bi2+  Bi95  1  0.70973790  0.89936516  0.80000173  1
  Bi2+  Bi96  1  0.19047827  -0.00878958  0.18671852  1
  Bi2+  Bi97  1  0.09402170  -0.01567663  0.69394154  1
  Bi2+  Bi98  1  0.09549747  0.24035623  0.20864320  1
  Bi2+  Bi99  1  0.15208631  0.23479741  0.70437624  1
  Bi2+  Bi100  1  0.10175771  0.51618331  0.20958909  1
  Bi2+  Bi101  1  0.12579160  0.49232016  0.70349209  1
  Bi2+  Bi102  1  0.12723153  0.80684972  0.21200484  1
  Bi2+  Bi103  1  0.09795680  0.81126796  0.74609359  1
  Bi2+  Bi104  1  0.38643298  -0.04482201  0.18079681  1
  Bi2+  Bi105  1  0.36882950  -0.08455940  0.72591745  1
  Bi2+  Bi106  1  0.39461986  0.22278628  0.21054268  1
  Bi2+  Bi107  1  0.39254341  0.29979642  0.69099413  1
  Bi2+  Bi108  1  0.37945654  0.50444530  0.21967477  1
  Bi2+  Bi109  1  0.40554094  0.54759825  0.71134303  1
  Bi2+  Bi110  1  0.39134086  0.76374307  0.20425025  1
  Bi2+  Bi111  1  0.41931949  0.74012533  0.67615473  1
  Bi2+  Bi112  1  0.65042432  0.01164898  0.25902200  1
  Bi2+  Bi113  1  0.63614269  -0.04206324  0.70022531  1
  Bi2+  Bi114  1  0.62898287  0.19668807  0.22151056  1
  Bi2+  Bi115  1  0.69089893  0.24853214  0.70681378  1
  Bi2+  Bi116  1  0.62933289  0.40114393  0.22008781  1
  Bi2+  Bi117  1  0.61271463  0.48989515  0.70350759  1
  Bi2+  Bi118  1  0.62949516  0.76003449  0.22075010  1
  Bi2+  Bi119  1  0.59419884  0.76811303  0.73142505  1
  Bi2+  Bi120  1  0.79445075  -0.01334327  0.18622622  1
  Bi2+  Bi121  1  0.84937940  0.00739374  0.71323598  1
  Bi2+  Bi122  1  0.86606432  0.24496621  0.19881651  1
  Bi2+  Bi123  1  0.88915399  0.20820718  0.69810322  1
  Bi2+  Bi124  1  0.84870128  0.46274937  0.22845713  1
  Bi2+  Bi125  1  0.86098077  0.51222161  0.71708609  1
  Bi2+  Bi126  1  0.87864834  0.69487178  0.19229004  1
  Bi2+  Bi127  1  0.88884114  0.77548073  0.72033424  1
  S2-  S128  1  -0.00883670  0.14390358  0.15054839  1
  S2-  S129  1  0.03752715  0.13566718  0.64657905  1
  S2-  S130  1  0.09350455  0.38413635  0.14746883  1
  S2-  S131  1  0.13859478  0.35969862  0.63752885  1
  S2-  S132  1  0.02022846  0.61112923  0.14917349  1
  S2-  S133  1  -0.02003437  0.48293426  0.64696918  1
  S2-  S134  1  -0.00978327  0.84781215  0.14846788  1
  S2-  S135  1  0.01126104  0.79625519  0.64832916  1
  S2-  S136  1  0.24691495  0.20290280  0.15404126  1
  S2-  S137  1  0.28019384  0.17769196  0.65254539  1
  S2-  S138  1  0.26979518  0.36962421  0.22726743  1
  S2-  S139  1  0.36473698  0.44441107  0.63201775  1
  S2-  S140  1  0.24707464  0.54116031  0.15681823  1
  S2-  S141  1  0.16779492  0.62242925  0.63933326  1
  S2-  S142  1  0.24547866  0.75869874  0.14379120  1
  S2-  S143  1  0.24164383  0.92427065  0.65087670  1
  S2-  S144  1  0.50183150  0.14899947  0.15434495  1
  S2-  S145  1  0.47165336  0.15987278  0.70342772  1
  S2-  S146  1  0.43560674  0.38437242  0.15532825  1
  S2-  S147  1  0.55867029  0.33731618  0.65368492  1
  S2-  S148  1  0.47328111  0.62373075  0.16363231  1
  S2-  S149  1  0.60851253  0.62119753  0.64664954  1
  S2-  S150  1  0.53409826  0.87016686  0.15776218  1
  S2-  S151  1  0.48630177  0.97384267  0.65180619  1
  S2-  S152  1  0.72854815  0.24186619  0.13866538  1
  S2-  S153  1  0.66352053  0.11144377  0.64687244  1
  S2-  S154  1  0.88388218  0.38240138  0.13894539  1
  S2-  S155  1  0.75199509  0.46059284  0.64398282  1
  S2-  S156  1  0.76996169  0.57351411  0.16445895  1
  S2-  S157  1  0.85388155  0.65610835  0.65835831  1
  S2-  S158  1  0.75268963  0.77453075  0.14509675  1
  S2-  S159  1  0.77998175  0.87001954  0.65719047  1
  S2-  S160  1  0.12494540  -0.02701654  0.34317501  1
  S2-  S161  1  0.21544935  -0.03162952  0.86320436  1
  S2-  S162  1  0.10870591  0.26172297  0.34001999  1
  S2-  S163  1  0.15859930  0.20531625  0.85096620  1
  S2-  S164  1  0.13853330  0.53017735  0.32651891  1
  S2-  S165  1  0.09633393  0.43722568  0.83669987  1
  S2-  S166  1  0.09415161  0.73443870  0.33572839  1
  S2-  S167  1  0.12451090  0.65781622  0.85787093  1
  S2-  S168  1  0.48532475  -0.01583739  0.36370206  1
  S2-  S169  1  0.38084887  0.09892980  0.84024818  1
  S2-  S170  1  0.36925116  0.27738236  0.34612131  1
  S2-  S171  1  0.28761963  0.29672671  0.76772711  1
  S2-  S172  1  0.33342304  0.52692700  0.32411977  1
  S2-  S173  1  0.38917890  0.43140324  0.84457927  1
  S2-  S174  1  0.36515990  0.74771103  0.34641705  1
  S2-  S175  1  0.36909345  0.64609982  0.86343337  1
  S2-  S176  1  0.71877198  0.01341737  0.35319695  1
  S2-  S177  1  0.62706880  0.01762100  0.85351507  1
  S2-  S178  1  0.59080674  0.21659978  0.34215672  1
  S2-  S179  1  0.51677255  0.26329445  0.84647662  1
  S2-  S180  1  0.52501279  0.51287968  0.35814264  1
  S2-  S181  1  0.62856310  0.51654437  0.85128224  1
  S2-  S182  1  0.61458098  0.76275997  0.35331557  1
  S2-  S183  1  0.70995405  0.74884413  0.85946341  1
  S2-  S184  1  0.89154539  -0.13839296  0.35356904  1
  S2-  S185  1  0.85091162  -0.07652706  0.86033639  1
  S2-  S186  1  0.86695815  0.22878590  0.34421513  1
  S2-  S187  1  0.74417184  0.27171107  0.86181483  1
  S2-  S188  1  0.96192249  0.46062604  0.35765222  1
  S2-  S189  1  0.86438385  0.49814541  0.84529570  1
  S2-  S190  1  0.84719396  0.64532152  0.35829818  1
  S2-  S191  1  0.90390680  0.71183603  0.82077897  1
  S2-  S192  1  -0.00596365  0.12419129  0.44448220  1
  S2-  S193  1  -0.00643753  0.13625407  0.94982278  1
  S2-  S194  1  0.00098521  0.37342007  0.46020929  1
  S2-  S195  1  -0.01035832  0.39036679  0.95267771  1
  S2-  S196  1  0.00101945  0.63314516  0.45008261  1
  S2-  S197  1  -0.01479649  0.64875917  0.94969025  1
  S2-  S198  1  -0.00125792  0.88433031  0.45578944  1
  S2-  S199  1  -0.00049996  0.89290959  0.94950271  1
  S2-  S200  1  0.25421867  0.12729706  0.45059700  1
  S2-  S201  1  0.24767033  0.14208262  0.95393162  1
  S2-  S202  1  0.25201651  0.38156979  0.44825104  1
  S2-  S203  1  0.24235268  0.38783826  0.93442889  1
  S2-  S204  1  0.24977498  0.62803301  0.44605430  1
  S2-  S205  1  0.24453944  0.64105315  0.96219905  1
  S2-  S206  1  0.25446888  0.87987945  0.45002640  1
  S2-  S207  1  0.24720069  0.88662394  0.96519013  1
  S2-  S208  1  0.49766432  0.13038530  0.45341187  1
  S2-  S209  1  0.49464660  0.13324400  0.95457202  1
  S2-  S210  1  0.49768951  0.37948993  0.45581005  1
  S2-  S211  1  0.50002384  0.39351805  0.95701304  1
  S2-  S212  1  0.49942337  0.63385528  0.45882529  1
  S2-  S213  1  0.49914013  0.63978078  0.96049753  1
  S2-  S214  1  0.49823519  0.87308710  0.46336624  1
  S2-  S215  1  0.49192027  0.89123274  0.95609747  1
  S2-  S216  1  0.75029103  0.12787317  0.45402936  1
  S2-  S217  1  0.74440488  0.13518773  0.95647987  1
  S2-  S218  1  0.74958719  0.38156125  0.45155188  1
  S2-  S219  1  0.74553414  0.39019042  0.96522456  1
  S2-  S220  1  0.74482695  0.63111427  0.46447711  1
  S2-  S221  1  0.74571246  0.64457023  0.96261701  1
  S2-  S222  1  0.74670963  0.88176039  0.45429640  1
  S2-  S223  1  0.74285408  0.89161004  0.96431168  1
  S2-  S224  1  0.11817714  0.01374240  0.04498057  1
  S2-  S225  1  0.12258681  0.00198851  0.54354819  1
  S2-  S226  1  0.12015452  0.26543758  0.04367046  1
  S2-  S227  1  0.12509965  0.24997716  0.53864014  1
  S2-  S228  1  0.11195843  0.51805765  0.03551770  1
  S2-  S229  1  0.12322650  0.50550687  0.53627344  1
  S2-  S230  1  0.11583196  0.76552974  0.04154970  1
  S2-  S231  1  0.12497127  0.75451706  0.54008318  1
  S2-  S232  1  0.36943929  0.01492639  0.04499711  1
  S2-  S233  1  0.37602043  0.00680860  0.54562913  1
  S2-  S234  1  0.36999789  0.26579987  0.05272706  1
  S2-  S235  1  0.37921544  0.24777207  0.54722029  1
  S2-  S236  1  0.36797154  0.51000223  0.04761681  1
  S2-  S237  1  0.37356551  0.51172059  0.52752572  1
  S2-  S238  1  0.37187538  0.76283463  0.04557952  1
  S2-  S239  1  0.37015392  0.75067346  0.54741736  1
  S2-  S240  1  0.62042149  0.01871533  0.05540568  1
  S2-  S241  1  0.62163506  0.00204535  0.54148096  1
  S2-  S242  1  0.61953447  0.26352169  0.04085480  1
  S2-  S243  1  0.62055355  0.25182028  0.54508781  1
  S2-  S244  1  0.62451104  0.51258242  0.05906777  1
  S2-  S245  1  0.61853048  0.50160678  0.54156569  1
  S2-  S246  1  0.61539307  0.76470524  0.04845392  1
  S2-  S247  1  0.62354139  0.75423100  0.55397284  1
  S2-  S248  1  0.87190070  0.01719856  0.04724687  1
  S2-  S249  1  0.87583564  0.00237855  0.55164007  1
  S2-  S250  1  0.87337127  0.26195242  0.03790414  1
  S2-  S251  1  0.87485966  0.25749368  0.54849516  1
  S2-  S252  1  0.87044874  0.51691906  0.04727475  1
  S2-  S253  1  0.87714110  0.50173940  0.54213039  1
  S2-  S254  1  0.87301547  0.76876569  0.03897668  1
  S2-  S255  1  0.87559679  0.75358590  0.54452347  1
