# generated using pymatgen
data_La6Ce7Pr13Nd19Sm19(BiS2)64
_symmetry_space_group_name_H-M   'P 1'
_cell_length_a   16.02576260
_cell_length_b   16.05398312
_cell_length_c   27.51984563
_cell_angle_alpha   89.79665342
_cell_angle_beta   90.25400004
_cell_angle_gamma   90.06799112
_symmetry_Int_Tables_number   1
_chemical_formula_structural   La6Ce7Pr13Nd19Sm19(BiS2)64
_chemical_formula_sum   'La6 Ce7 Pr13 Nd19 Sm19 Bi64 S128'
_cell_volume   7080.11317482
_cell_formula_units_Z   1
loop_
 _symmetry_equiv_pos_site_id
 _symmetry_equiv_pos_as_xyz
  1  'x, y, z'
loop_
 _atom_type_symbol
 _atom_type_oxidation_number
  La3+  3.0
  Ce3+  3.0
  Pr3+  3.0
  Nd3+  3.0
  Sm3+  3.0
  Bi2+  2.0
  S2-  -2.0
loop_
 _atom_site_type_symbol
 _atom_site_label
 _atom_site_symmetry_multiplicity
 _atom_site_fract_x
 _atom_site_fract_y
 _atom_site_fract_z
 _atom_site_occupancy
  La3+  La0  1  0.88577605  -0.01206783  0.41749962  1
  La3+  La1  1  0.62332315  -0.00337752  0.39403504  1
  La3+  La2  1  0.14747494  0.00958567  0.91459344  1
  La3+  La3  1  0.76199276  0.36058858  0.57423760  1
  La3+  La4  1  0.76080826  0.86456785  0.54945075  1
  La3+  La5  1  0.40114747  0.01123971  0.91413612  1
  Ce3+  Ce6  1  0.02126070  0.88012184  0.05377757  1
  Ce3+  Ce7  1  0.01298805  0.34654278  0.58804597  1
  Ce3+  Ce8  1  0.38495070  0.73820721  0.44030793  1
  Ce3+  Ce9  1  0.38139690  -0.01318756  0.43440019  1
  Ce3+  Ce10  1  0.51999038  0.37591418  0.05853412  1
  Ce3+  Ce11  1  0.63356384  0.48151979  0.44275168  1
  Ce3+  Ce12  1  0.39320672  0.50396796  0.94008191  1
  Pr3+  Pr13  1  0.14514183  0.75448962  0.92863083  1
  Pr3+  Pr14  1  0.89522733  0.73362394  0.41903812  1
  Pr3+  Pr15  1  0.89541867  0.75744423  0.93107350  1
  Pr3+  Pr16  1  0.88409922  0.25262488  0.93181991  1
  Pr3+  Pr17  1  0.88417325  0.23768651  0.43742936  1
  Pr3+  Pr18  1  0.77087591  0.13183060  0.10768181  1
  Pr3+  Pr19  1  0.27065087  0.87936754  0.04905395  1
  Pr3+  Pr20  1  0.02529381  0.63080000  0.06615741  1
  Pr3+  Pr21  1  0.63208280  0.24298645  0.43451145  1
  Pr3+  Pr22  1  0.01856177  0.12729586  0.06553782  1
  Pr3+  Pr23  1  0.13414232  0.48587051  0.45354151  1
  Pr3+  Pr24  1  0.77608512  0.63326485  0.07298149  1
  Pr3+  Pr25  1  0.39365617  0.25372378  0.94047406  1
  Nd3+  Nd26  1  0.25895628  0.35865952  0.57607888  1
  Nd3+  Nd27  1  0.26051514  0.61458584  0.57098954  1
  Nd3+  Nd28  1  0.00847512  0.86082235  0.56125033  1
  Nd3+  Nd29  1  0.39284833  0.74410861  0.91396846  1
  Nd3+  Nd30  1  0.50872622  0.35990295  0.57507650  1
  Nd3+  Nd31  1  0.64346987  -0.00030467  0.94215801  1
  Nd3+  Nd32  1  0.26597605  0.12291064  0.06418859  1
  Nd3+  Nd33  1  0.25846364  0.10084877  0.56965112  1
  Nd3+  Nd34  1  0.27223050  0.62897798  0.06661989  1
  Nd3+  Nd35  1  0.63595691  0.73893627  0.43560400  1
  Nd3+  Nd36  1  0.13461466  -0.01551552  0.43558172  1
  Nd3+  Nd37  1  0.26549020  0.85618885  0.57077678  1
  Nd3+  Nd38  1  0.88905212  0.48217681  0.43849742  1
  Nd3+  Nd39  1  0.51363006  0.61107510  0.55767677  1
  Nd3+  Nd40  1  0.77250729  0.37821176  0.06777094  1
  Nd3+  Nd41  1  0.89337411  0.50569821  0.93996233  1
  Nd3+  Nd42  1  0.64577080  0.74971801  0.93486351  1
  Nd3+  Nd43  1  0.13295777  0.23628631  0.44815445  1
  Nd3+  Nd44  1  0.38371416  0.23689222  0.44755402  1
  Sm3+  Sm45  1  0.51099763  0.86316416  0.55242379  1
  Sm3+  Sm46  1  0.51833470  0.87738986  0.05373576  1
  Sm3+  Sm47  1  0.52016378  0.12619116  0.06326650  1
  Sm3+  Sm48  1  0.13898594  0.25136462  0.93645914  1
  Sm3+  Sm49  1  0.14286210  0.50512911  0.94317214  1
  Sm3+  Sm50  1  0.01736862  0.37432363  0.05222264  1
  Sm3+  Sm51  1  0.64788091  0.25238235  0.95039965  1
  Sm3+  Sm52  1  0.38216899  0.48704728  0.45000210  1
  Sm3+  Sm53  1  0.89195950  0.00392750  0.94852544  1
  Sm3+  Sm54  1  0.00631485  0.61584485  0.56619795  1
  Sm3+  Sm55  1  0.76265608  0.61156572  0.54762179  1
  Sm3+  Sm56  1  0.13572238  0.73499391  0.44312363  1
  Sm3+  Sm57  1  0.50867897  0.10984527  0.55703289  1
  Sm3+  Sm58  1  0.51720809  0.63067289  0.06340943  1
  Sm3+  Sm59  1  0.75831722  0.11166778  0.54979662  1
  Sm3+  Sm60  1  0.64578795  0.50616135  0.94917340  1
  Sm3+  Sm61  1  0.76844561  0.87696299  0.06654196  1
  Sm3+  Sm62  1  0.00724003  0.10375975  0.56421770  1
  Sm3+  Sm63  1  0.26901765  0.37550198  0.05218035  1
  Bi2+  Bi64  1  0.01568767  0.15148783  0.29959188  1
  Bi2+  Bi65  1  -0.07159161  0.16708951  0.75062266  1
  Bi2+  Bi66  1  0.05359461  0.40370512  0.25289782  1
  Bi2+  Bi67  1  -0.00313841  0.39484558  0.79234341  1
  Bi2+  Bi68  1  0.03306352  0.60958533  0.29570548  1
  Bi2+  Bi69  1  -0.04867015  0.62854308  0.71355137  1
  Bi2+  Bi70  1  -0.02527977  0.91345100  0.27192026  1
  Bi2+  Bi71  1  -0.04076487  0.85157001  0.79424186  1
  Bi2+  Bi72  1  0.20825837  0.09900524  0.29494156  1
  Bi2+  Bi73  1  0.28421676  0.13740021  0.78855832  1
  Bi2+  Bi74  1  0.31960080  0.34924475  0.28251901  1
  Bi2+  Bi75  1  0.30877061  0.43083873  0.81162224  1
  Bi2+  Bi76  1  0.27613657  0.58812034  0.30575374  1
  Bi2+  Bi77  1  0.18991772  0.61230120  0.78912324  1
  Bi2+  Bi78  1  0.25723027  0.91499959  0.32621789  1
  Bi2+  Bi79  1  0.19538723  0.88566430  0.77726965  1
  Bi2+  Bi80  1  0.46896742  0.13355787  0.28909967  1
  Bi2+  Bi81  1  0.52462286  0.06660540  0.75484627  1
  Bi2+  Bi82  1  0.51402555  0.39885671  0.28872442  1
  Bi2+  Bi83  1  0.48068388  0.33695366  0.80250323  1
  Bi2+  Bi84  1  0.56234900  0.60266422  0.28340418  1
  Bi2+  Bi85  1  0.44229065  0.58899378  0.75964554  1
  Bi2+  Bi86  1  0.40719808  0.82330067  0.26466969  1
  Bi2+  Bi87  1  0.47824081  0.88017851  0.79584902  1
  Bi2+  Bi88  1  0.75418143  0.21154844  0.29372397  1
  Bi2+  Bi89  1  0.76828757  0.05929642  0.78746808  1
  Bi2+  Bi90  1  0.78328154  0.40495725  0.30101110  1
  Bi2+  Bi91  1  0.74770442  0.41527022  0.80668929  1
  Bi2+  Bi92  1  0.78003890  0.60506927  0.27905680  1
  Bi2+  Bi93  1  0.64679902  0.66200541  0.79034649  1
  Bi2+  Bi94  1  0.73649825  0.81208780  0.28118631  1
  Bi2+  Bi95  1  0.71359065  0.87070365  0.81323529  1
  Bi2+  Bi96  1  0.11170561  -0.01968061  0.19320338  1
  Bi2+  Bi97  1  0.11670490  0.07962711  0.69115672  1
  Bi2+  Bi98  1  0.19452949  0.23980729  0.21248663  1
  Bi2+  Bi99  1  0.16974082  0.29943934  0.79072012  1
  Bi2+  Bi100  1  0.20385745  0.50820431  0.20617979  1
  Bi2+  Bi101  1  0.08946708  0.49132279  0.70244586  1
  Bi2+  Bi102  1  0.13716919  0.79502281  0.26636746  1
  Bi2+  Bi103  1  0.12898267  0.74052051  0.70805963  1
  Bi2+  Bi104  1  0.33344080  -0.00643903  0.22725993  1
  Bi2+  Bi105  1  0.37898723  0.00186579  0.68647570  1
  Bi2+  Bi106  1  0.39245458  0.23619808  0.19688053  1
  Bi2+  Bi107  1  0.40005538  0.24910526  0.71051596  1
  Bi2+  Bi108  1  0.40841417  0.53176336  0.21874881  1
  Bi2+  Bi109  1  0.28676119  0.50595259  0.70300349  1
  Bi2+  Bi110  1  0.27955556  0.71993654  0.20184249  1
  Bi2+  Bi111  1  0.33959759  0.76448357  0.75021601  1
  Bi2+  Bi112  1  0.60443608  -0.00620088  0.20604913  1
  Bi2+  Bi113  1  0.63459728  -0.08686647  0.71224467  1
  Bi2+  Bi114  1  0.65149584  0.37211247  0.20704758  1
  Bi2+  Bi115  1  0.64270547  0.22290332  0.78335220  1
  Bi2+  Bi116  1  0.66794987  0.56412362  0.18407849  1
  Bi2+  Bi117  1  0.56921245  0.44908359  0.72063247  1
  Bi2+  Bi118  1  0.58822936  0.74179156  0.19934930  1
  Bi2+  Bi119  1  0.55522782  0.73758560  0.69289031  1
  Bi2+  Bi120  1  0.84022438  0.03382951  0.22750948  1
  Bi2+  Bi121  1  0.86779672  0.00001906  0.69684879  1
  Bi2+  Bi122  1  0.92557343  0.26376870  0.21504658  1
  Bi2+  Bi123  1  0.77488130  0.25961612  0.70125915  1
  Bi2+  Bi124  1  0.89415981  0.48331503  0.20743042  1
  Bi2+  Bi125  1  0.80114145  0.50123721  0.71021518  1
  Bi2+  Bi126  1  0.88930323  0.75114275  0.20444367  1
  Bi2+  Bi127  1  0.78250853  0.73842579  0.71784460  1
  S2-  S128  1  -0.07236864  0.12022797  0.15484533  1
  S2-  S129  1  0.01141555  0.19125962  0.65227837  1
  S2-  S130  1  0.01298764  0.37803488  0.14946828  1
  S2-  S131  1  -0.11869427  0.37833076  0.65048511  1
  S2-  S132  1  -0.08649082  0.61861154  0.14360035  1
  S2-  S133  1  -0.00439459  0.73901647  0.63567373  1
  S2-  S134  1  0.00306933  0.85731766  0.14977422  1
  S2-  S135  1  0.00732171  0.97730861  0.63808444  1
  S2-  S136  1  0.14812528  0.12871604  0.13865732  1
  S2-  S137  1  0.25967190  0.16450517  0.66463517  1
  S2-  S138  1  0.26253117  0.36872012  0.14889287  1
  S2-  S139  1  0.14565043  0.35790510  0.65210007  1
  S2-  S140  1  0.15289446  0.63509266  0.14090545  1
  S2-  S141  1  0.26401278  0.72976262  0.64542865  1
  S2-  S142  1  0.25200958  0.92795766  0.14668331  1
  S2-  S143  1  0.23293417  0.96712287  0.64593049  1
  S2-  S144  1  0.49178236  0.11004216  0.15952730  1
  S2-  S145  1  0.49962122  0.12981102  0.65433842  1
  S2-  S146  1  0.50264762  0.35631474  0.15366013  1
  S2-  S147  1  0.38484182  0.37213768  0.64834648  1
  S2-  S148  1  0.40262843  0.63497459  0.13925469  1
  S2-  S149  1  0.50984859  0.58259747  0.65532688  1
  S2-  S150  1  0.51202860  0.86706692  0.15213056  1
  S2-  S151  1  0.45005771  0.86827987  0.64393930  1
  S2-  S152  1  0.69574733  0.13202468  0.20486124  1
  S2-  S153  1  0.76279900  0.11874204  0.64896346  1
  S2-  S154  1  0.78478135  0.29397235  0.15296458  1
  S2-  S155  1  0.63165123  0.35548320  0.64898239  1
  S2-  S156  1  0.75586102  0.76214124  0.14397731  1
  S2-  S157  1  0.74527240  0.61633911  0.64498445  1
  S2-  S158  1  0.75263689  0.96981691  0.15114379  1
  S2-  S159  1  0.78390429  0.86661652  0.64932560  1
  S2-  S160  1  0.03293477  -0.00249880  0.35442071  1
  S2-  S161  1  0.06552354  -0.03597588  0.82279227  1
  S2-  S162  1  0.12670296  0.24150362  0.34858895  1
  S2-  S163  1  0.15134699  0.16207107  0.85423902  1
  S2-  S164  1  0.13900398  0.51449203  0.35428535  1
  S2-  S165  1  0.10556202  0.50718643  0.84789048  1
  S2-  S166  1  0.05471666  0.73825676  0.35625574  1
  S2-  S167  1  0.01586988  0.74426882  0.85493607  1
  S2-  S168  1  0.46354738  -0.00596511  0.34844149  1
  S2-  S169  1  0.28086617  -0.01122629  0.84059394  1
  S2-  S170  1  0.37807892  0.22303926  0.34819255  1
  S2-  S171  1  0.39944106  0.16805176  0.85436846  1
  S2-  S172  1  0.38313784  0.46891965  0.35333604  1
  S2-  S173  1  0.39596785  0.58880271  0.85791468  1
  S2-  S174  1  0.37021389  0.72153441  0.34417794  1
  S2-  S175  1  0.25596721  0.75608796  0.84745576  1
  S2-  S176  1  0.67463900  -0.03904725  0.29716929  1
  S2-  S177  1  0.55221631  0.00636584  0.85609899  1
  S2-  S178  1  0.61912507  0.15783382  0.34474741  1
  S2-  S179  1  0.73650754  0.26746645  0.86679095  1
  S2-  S180  1  0.62928340  0.37988116  0.36476927  1
  S2-  S181  1  0.63686298  0.51717337  0.85133953  1
  S2-  S182  1  0.60923679  0.74669357  0.33843373  1
  S2-  S183  1  0.53640321  0.75130360  0.85405579  1
  S2-  S184  1  0.86299049  0.13314174  0.35284174  1
  S2-  S185  1  0.85956853  -0.04556903  0.85579928  1
  S2-  S186  1  0.90343537  0.36204275  0.36472188  1
  S2-  S187  1  0.95264453  0.25069758  0.83743062  1
  S2-  S188  1  0.90039067  0.59140134  0.35655106  1
  S2-  S189  1  0.88065105  0.50172297  0.84102525  1
  S2-  S190  1  0.86356018  0.85379450  0.34675971  1
  S2-  S191  1  0.76951841  0.73004332  0.86031424  1
  S2-  S192  1  0.01113045  0.11234091  0.45818574  1
  S2-  S193  1  0.01331130  0.12917827  0.95325890  1
  S2-  S194  1  0.01354869  0.35998804  0.47041624  1
  S2-  S195  1  0.01813681  0.37723483  0.94886299  1
  S2-  S196  1  0.01295538  0.61234270  0.46314961  1
  S2-  S197  1  0.01959762  0.62594907  0.95834626  1
  S2-  S198  1  0.01174553  0.85973777  0.45560913  1
  S2-  S199  1  0.02188678  0.88549399  0.94998963  1
  S2-  S200  1  0.25880335  0.11024957  0.45552616  1
  S2-  S201  1  0.26963930  0.12907573  0.95838972  1
  S2-  S202  1  0.26054367  0.36176223  0.46291180  1
  S2-  S203  1  0.26388128  0.37682516  0.94801455  1
  S2-  S204  1  0.26092920  0.61313462  0.46246939  1
  S2-  S205  1  0.26703215  0.62591503  0.95763168  1
  S2-  S206  1  0.25884977  0.85857558  0.45893755  1
  S2-  S207  1  0.27660719  0.88054205  0.94599000  1
  S2-  S208  1  0.50835247  0.11091377  0.45386614  1
  S2-  S209  1  0.52337363  0.13173083  0.95939985  1
  S2-  S210  1  0.50335026  0.36359345  0.46608654  1
  S2-  S211  1  0.52363186  0.37800182  0.95237035  1
  S2-  S212  1  0.50919498  0.60988938  0.45066224  1
  S2-  S213  1  0.51978168  0.62607546  0.96082752  1
  S2-  S214  1  0.51172114  0.86473346  0.44868520  1
  S2-  S215  1  0.51448317  0.87507392  0.95223432  1
  S2-  S216  1  0.74774757  0.10753058  0.44884957  1
  S2-  S217  1  0.76595967  0.12249571  0.95324618  1
  S2-  S218  1  0.76031758  0.36245665  0.46479617  1
  S2-  S219  1  0.76764959  0.38330438  0.96328287  1
  S2-  S220  1  0.75696943  0.60985374  0.44494837  1
  S2-  S221  1  0.76998677  0.62518280  0.96442210  1
  S2-  S222  1  0.74602710  0.87324711  0.44340221  1
  S2-  S223  1  0.76687957  0.87793358  0.96209420  1
  S2-  S224  1  0.14304730  0.00421095  0.03478071  1
  S2-  S225  1  0.13575146  -0.01784604  0.53909682  1
  S2-  S226  1  0.14392443  0.25483283  0.03996957  1
  S2-  S227  1  0.13893796  0.22823485  0.55111519  1
  S2-  S228  1  0.14455473  0.49631513  0.04588499  1
  S2-  S229  1  0.13342337  0.49351241  0.55789245  1
  S2-  S230  1  0.14652672  0.75562389  0.03773485  1
  S2-  S231  1  0.13618884  0.73631979  0.54449697  1
  S2-  S232  1  0.39740661  0.00556881  0.04699564  1
  S2-  S233  1  0.38578213  -0.01548903  0.54057629  1
  S2-  S234  1  0.39278315  0.24932600  0.04679289  1
  S2-  S235  1  0.38196342  0.23197618  0.55087068  1
  S2-  S236  1  0.39423776  0.49870625  0.04522893  1
  S2-  S237  1  0.38340557  0.49022936  0.55169222  1
  S2-  S238  1  0.39603429  0.75409626  0.04009499  1
  S2-  S239  1  0.39016173  0.73459365  0.54442873  1
  S2-  S240  1  0.64090621  0.00309523  0.04760674  1
  S2-  S241  1  0.63145285  -0.01179859  0.55488017  1
  S2-  S242  1  0.64731494  0.24811475  0.05417231  1
  S2-  S243  1  0.63113049  0.23331182  0.54446131  1
  S2-  S244  1  0.64372004  0.50456196  0.05331886  1
  S2-  S245  1  0.63612562  0.48744733  0.54690040  1
  S2-  S246  1  0.63910164  0.75168950  0.04287639  1
  S2-  S247  1  0.63475532  0.73664580  0.54198630  1
  S2-  S248  1  0.88985637  0.00275385  0.05024015  1
  S2-  S249  1  0.88301721  -0.01041805  0.53406190  1
  S2-  S250  1  0.89272968  0.25242507  0.04326647  1
  S2-  S251  1  0.88488602  0.23071185  0.54568101  1
  S2-  S252  1  0.89688178  0.49970014  0.04579310  1
  S2-  S253  1  0.88721350  0.49288497  0.54664141  1
  S2-  S254  1  0.89631055  0.75755900  0.03980631  1
  S2-  S255  1  0.88156789  0.73537203  0.53203059  1
