# generated using pymatgen
data_La6Ce7Pr13Nd19Sm19(BiS2)64
_symmetry_space_group_name_H-M   'P 1'
_cell_length_a   16.04205407
_cell_length_b   16.04716287
_cell_length_c   27.24470710
_cell_angle_alpha   89.98474613
_cell_angle_beta   89.93219668
_cell_angle_gamma   89.94197614
_symmetry_Int_Tables_number   1
_chemical_formula_structural   La6Ce7Pr13Nd19Sm19(BiS2)64
_chemical_formula_sum   'La6 Ce7 Pr13 Nd19 Sm19 Bi64 S128'
_cell_volume   7013.58133329
_cell_formula_units_Z   1
loop_
 _symmetry_equiv_pos_site_id
 _symmetry_equiv_pos_as_xyz
  1  'x, y, z'
loop_
 _atom_type_symbol
 _atom_type_oxidation_number
  La3+  3.0
  Ce3+  3.0
  Pr3+  3.0
  Nd3+  3.0
  Sm3+  3.0
  Bi2+  2.0
  S2-  -2.0
loop_
 _atom_site_type_symbol
 _atom_site_label
 _atom_site_symmetry_multiplicity
 _atom_site_fract_x
 _atom_site_fract_y
 _atom_site_fract_z
 _atom_site_occupancy
  La3+  La0  1  0.01981422  0.38314698  0.08386430  1
  La3+  La1  1  0.39693145  0.01976091  0.91998708  1
  La3+  La2  1  0.86977580  0.74352906  0.39459415  1
  La3+  La3  1  0.12184266  -0.01142018  0.40531517  1
  La3+  La4  1  0.50996346  0.61549871  0.61994812  1
  La3+  La5  1  0.27086261  0.38485463  0.06562017  1
  Ce3+  Ce6  1  0.64713377  0.51384873  0.94929948  1
  Ce3+  Ce7  1  0.89544413  0.51429971  0.95364215  1
  Ce3+  Ce8  1  0.64920831  0.26750580  0.93553064  1
  Ce3+  Ce9  1  0.89440527  0.76072173  0.93804168  1
  Ce3+  Ce10  1  0.74244736  0.86936569  0.55331031  1
  Ce3+  Ce11  1  -0.00883625  0.62173115  0.55678015  1
  Ce3+  Ce12  1  0.65042798  0.01502484  0.93289631  1
  Pr3+  Pr13  1  0.89743679  0.01207689  0.93526215  1
  Pr3+  Pr14  1  0.64738567  0.76354966  0.93299884  1
  Pr3+  Pr15  1  0.61979186  -0.00211428  0.42832329  1
  Pr3+  Pr16  1  0.86693620  0.48991105  0.43189756  1
  Pr3+  Pr17  1  0.27498157  0.89857832  0.07611308  1
  Pr3+  Pr18  1  0.12363551  0.74277927  0.43275996  1
  Pr3+  Pr19  1  0.62199283  0.74269518  0.43874483  1
  Pr3+  Pr20  1  0.74089430  0.37212374  0.56434058  1
  Pr3+  Pr21  1  0.40456780  0.27920499  0.91243640  1
  Pr3+  Pr22  1  0.76975997  0.64780973  0.07611557  1
  Pr3+  Pr23  1  0.27448146  0.64275123  0.06129447  1
  Pr3+  Pr24  1  0.39195256  0.76993120  0.91176131  1
  Pr3+  Pr25  1  -0.00759770  0.86959073  0.55316842  1
  Nd3+  Nd26  1  0.14373929  0.51041560  0.94106282  1
  Nd3+  Nd27  1  0.37009429  0.74513098  0.44497975  1
  Nd3+  Nd28  1  0.51802467  0.38607844  0.06773720  1
  Nd3+  Nd29  1  0.24481776  0.36967073  0.56747090  1
  Nd3+  Nd30  1  -0.00793577  0.36970651  0.56032407  1
  Nd3+  Nd31  1  0.61702802  0.49681744  0.44774138  1
  Nd3+  Nd32  1  -0.00746669  0.11740549  0.55148411  1
  Nd3+  Nd33  1  0.24440765  0.11575263  0.55182611  1
  Nd3+  Nd34  1  0.24834778  0.62173402  0.57086184  1
  Nd3+  Nd35  1  0.49270477  0.87026712  0.56767331  1
  Nd3+  Nd36  1  0.89402042  0.26724240  0.93726644  1
  Nd3+  Nd37  1  0.76980089  0.13694552  0.06566334  1
  Nd3+  Nd38  1  0.36834510  0.24814232  0.43767364  1
  Nd3+  Nd39  1  0.13799862  0.26736599  0.92868860  1
  Nd3+  Nd40  1  0.48651764  0.36695742  0.57945399  1
  Nd3+  Nd41  1  0.49299328  0.11467196  0.56317762  1
  Nd3+  Nd42  1  0.37370028  -0.00650434  0.42781551  1
  Nd3+  Nd43  1  0.01781206  0.88446373  0.07637745  1
  Nd3+  Nd44  1  0.51861923  0.13961706  0.05369090  1
  Sm3+  Sm45  1  0.02238925  0.13531731  0.05832684  1
  Sm3+  Sm46  1  0.11935651  0.49486518  0.44265286  1
  Sm3+  Sm47  1  0.14658155  0.76477372  0.95211476  1
  Sm3+  Sm48  1  0.75072499  0.62391366  0.56327213  1
  Sm3+  Sm49  1  0.24454808  0.87140075  0.55839786  1
  Sm3+  Sm50  1  0.13978934  0.00392470  0.93575897  1
  Sm3+  Sm51  1  0.51993255  0.64287684  0.05446262  1
  Sm3+  Sm52  1  0.51612788  0.89083942  0.05139100  1
  Sm3+  Sm53  1  0.74541049  0.11948896  0.55623623  1
  Sm3+  Sm54  1  0.76999488  0.89230091  0.06379130  1
  Sm3+  Sm55  1  0.61552659  0.24683900  0.44899350  1
  Sm3+  Sm56  1  0.77075020  0.38870179  0.07118497  1
  Sm3+  Sm57  1  0.87091896  -0.00664305  0.43024030  1
  Sm3+  Sm58  1  0.11945767  0.24581824  0.44425185  1
  Sm3+  Sm59  1  0.26982506  0.13611143  0.04703201  1
  Sm3+  Sm60  1  0.02204677  0.63660317  0.06978628  1
  Sm3+  Sm61  1  0.39344618  0.51509045  0.94212144  1
  Sm3+  Sm62  1  0.36918643  0.49655726  0.45174556  1
  Sm3+  Sm63  1  0.86783393  0.24629474  0.43426362  1
  Bi2+  Bi64  1  -0.06591063  0.15958079  0.28675596  1
  Bi2+  Bi65  1  0.01760677  0.13551709  0.78162378  1
  Bi2+  Bi66  1  -0.00069578  0.35193189  0.29251860  1
  Bi2+  Bi67  1  0.02357602  0.39954316  0.79625634  1
  Bi2+  Bi68  1  0.00908250  0.56598321  0.29568666  1
  Bi2+  Bi69  1  0.00957738  0.68925497  0.82273800  1
  Bi2+  Bi70  1  -0.00008075  0.89876545  0.27755006  1
  Bi2+  Bi71  1  -0.03004737  0.88178784  0.79997194  1
  Bi2+  Bi72  1  0.29481069  0.12598184  0.27197138  1
  Bi2+  Bi73  1  0.21628269  0.15385999  0.78191836  1
  Bi2+  Bi74  1  0.24871775  0.40240128  0.31234837  1
  Bi2+  Bi75  1  0.28454526  0.33668056  0.79562539  1
  Bi2+  Bi76  1  0.32946091  0.62133310  0.28179599  1
  Bi2+  Bi77  1  0.16066052  0.58137013  0.78133005  1
  Bi2+  Bi78  1  0.24935937  0.87098235  0.28353979  1
  Bi2+  Bi79  1  0.19253822  0.89731592  0.77929146  1
  Bi2+  Bi80  1  0.57944834  0.11330829  0.28738392  1
  Bi2+  Bi81  1  0.50320745  0.14639237  0.78959342  1
  Bi2+  Bi82  1  0.49061074  0.33033292  0.28230684  1
  Bi2+  Bi83  1  0.53641810  0.35509232  0.75370671  1
  Bi2+  Bi84  1  0.52381990  0.62706900  0.30237276  1
  Bi2+  Bi85  1  0.48890741  0.59054394  0.82076667  1
  Bi2+  Bi86  1  0.48092296  0.85519905  0.29027510  1
  Bi2+  Bi87  1  0.47143037  0.87431654  0.78623411  1
  Bi2+  Bi88  1  0.76251939  0.08929602  0.32926918  1
  Bi2+  Bi89  1  0.77764220  0.13638609  0.78387440  1
  Bi2+  Bi90  1  0.73046992  0.34198477  0.28518646  1
  Bi2+  Bi91  1  0.76672303  0.40561887  0.80609697  1
  Bi2+  Bi92  1  0.71836882  0.59821240  0.28699738  1
  Bi2+  Bi93  1  0.82940184  0.63838451  0.78484796  1
  Bi2+  Bi94  1  0.67803491  0.86033861  0.27403116  1
  Bi2+  Bi95  1  0.77319452  0.88086478  0.78789466  1
  Bi2+  Bi96  1  0.12839077  0.04790564  0.19911689  1
  Bi2+  Bi97  1  0.10695213  0.01718164  0.70494832  1
  Bi2+  Bi98  1  0.13272730  0.25384170  0.22518578  1
  Bi2+  Bi99  1  0.14080449  0.30193232  0.71771630  1
  Bi2+  Bi100  1  0.14901504  0.48791770  0.21662348  1
  Bi2+  Bi101  1  0.10773404  0.56128672  0.66832831  1
  Bi2+  Bi102  1  0.13602070  0.71112477  0.21017011  1
  Bi2+  Bi103  1  0.13809963  0.74188561  0.71246337  1
  Bi2+  Bi104  1  0.42347439  0.00924742  0.21679386  1
  Bi2+  Bi105  1  0.35737656  0.01020296  0.69472971  1
  Bi2+  Bi106  1  0.35773189  0.26270520  0.20600836  1
  Bi2+  Bi107  1  0.45785408  0.21302076  0.68469149  1
  Bi2+  Bi108  1  0.44927159  0.49505622  0.22021717  1
  Bi2+  Bi109  1  0.27233376  0.46816061  0.70785465  1
  Bi2+  Bi110  1  0.38211335  0.76522857  0.19840800  1
  Bi2+  Bi111  1  0.36930766  0.74386795  0.72367227  1
  Bi2+  Bi112  1  0.61827260  -0.00904025  0.19325182  1
  Bi2+  Bi113  1  0.61879863  -0.01068308  0.75572139  1
  Bi2+  Bi114  1  0.61530211  0.19229487  0.17582903  1
  Bi2+  Bi115  1  0.65907079  0.22021113  0.70525137  1
  Bi2+  Bi116  1  0.61642752  0.39086044  0.19366939  1
  Bi2+  Bi117  1  0.67614394  0.48272582  0.71865734  1
  Bi2+  Bi118  1  0.58101833  0.72985634  0.20813411  1
  Bi2+  Bi119  1  0.64371297  0.75570124  0.71256640  1
  Bi2+  Bi120  1  0.82053531  -0.00629608  0.23499871  1
  Bi2+  Bi121  1  0.85068940  -0.00842084  0.68391778  1
  Bi2+  Bi122  1  0.80375467  0.21786896  0.20665829  1
  Bi2+  Bi123  1  0.88242394  0.25076456  0.71108591  1
  Bi2+  Bi124  1  0.89584710  0.47213159  0.21792478  1
  Bi2+  Bi125  1  0.93222038  0.52021631  0.71474108  1
  Bi2+  Bi126  1  0.86336583  0.71608752  0.20811221  1
  Bi2+  Bi127  1  0.93489575  0.75144151  0.70943125  1
  S2-  S128  1  0.03745722  0.17837696  0.15463928  1
  S2-  S129  1  -0.06133451  0.12430234  0.64635480  1
  S2-  S130  1  0.02243210  0.52599099  0.15090660  1
  S2-  S131  1  -0.00192428  0.34466093  0.65887616  1
  S2-  S132  1  0.00377849  0.74518620  0.14824133  1
  S2-  S133  1  -0.11274901  0.62348867  0.63661618  1
  S2-  S134  1  0.00427433  0.95428966  0.17098066  1
  S2-  S135  1  -0.00216837  0.90188249  0.65325189  1
  S2-  S136  1  0.24902619  0.05142425  0.13366138  1
  S2-  S137  1  0.23003555  0.10360604  0.65105816  1
  S2-  S138  1  0.16355188  0.36335810  0.14712040  1
  S2-  S139  1  0.34644901  0.34373547  0.64643962  1
  S2-  S140  1  0.23580905  0.60607078  0.15840281  1
  S2-  S141  1  0.34087445  0.62294568  0.65751360  1
  S2-  S142  1  0.21861097  0.83693523  0.17345786  1
  S2-  S143  1  0.30128225  0.87198634  0.65316419  1
  S2-  S144  1  0.44815571  0.14871828  0.14698521  1
  S2-  S145  1  0.49220320  0.00126719  0.63906196  1
  S2-  S146  1  0.39496013  0.38950959  0.14097601  1
  S2-  S147  1  0.53303268  0.45157176  0.66361303  1
  S2-  S148  1  0.47199889  0.63194146  0.14858823  1
  S2-  S149  1  0.51340695  0.63636773  0.73168388  1
  S2-  S150  1  0.42462493  0.89705983  0.13619834  1
  S2-  S151  1  0.51439281  0.78488318  0.65549307  1
  S2-  S152  1  0.77115681  0.01461285  0.13937317  1
  S2-  S153  1  0.72255864  0.08081816  0.65069327  1
  S2-  S154  1  0.87581913  0.35317143  0.14821690  1
  S2-  S155  1  0.76894956  0.36195851  0.66316837  1
  S2-  S156  1  0.77745836  0.57795146  0.17242986  1
  S2-  S157  1  0.67909689  0.62022329  0.65474547  1
  S2-  S158  1  0.77097976  0.78749099  0.14377247  1
  S2-  S159  1  0.75014009  0.85483437  0.65143853  1
  S2-  S160  1  0.05183187  0.04931980  0.31675261  1
  S2-  S161  1  0.02291659  0.01060141  0.85917799  1
  S2-  S162  1  0.12978576  0.28429102  0.34934629  1
  S2-  S163  1  0.00330969  0.25832983  0.85638155  1
  S2-  S164  1  0.15154106  0.54202027  0.34990226  1
  S2-  S165  1  0.15450168  0.40250871  0.86098917  1
  S2-  S166  1  0.12051331  0.83695669  0.34588981  1
  S2-  S167  1  0.13400339  0.80536966  0.85575803  1
  S2-  S168  1  0.27003793  -0.00357838  0.34534759  1
  S2-  S169  1  0.34121489  -0.09501076  0.84688769  1
  S2-  S170  1  0.36076276  0.24953228  0.33839755  1
  S2-  S171  1  0.36461132  0.14763062  0.84622178  1
  S2-  S172  1  0.36791134  0.48463425  0.35269888  1
  S2-  S173  1  0.39656108  0.43921583  0.85349497  1
  S2-  S174  1  0.31650300  0.74791369  0.34892163  1
  S2-  S175  1  0.34991271  0.67500557  0.82491321  1
  S2-  S176  1  0.49909213  -0.00346998  0.35411337  1
  S2-  S177  1  0.54738719  0.00230046  0.85197015  1
  S2-  S178  1  0.61089763  0.25928121  0.35062172  1
  S2-  S179  1  0.55144232  0.27949896  0.85203643  1
  S2-  S180  1  0.62418581  0.49989102  0.34663023  1
  S2-  S181  1  0.64693606  0.51220706  0.85017711  1
  S2-  S182  1  0.70931279  0.74269225  0.34934512  1
  S2-  S183  1  0.54042988  0.75406285  0.84990905  1
  S2-  S184  1  0.87936218  -0.09598728  0.34568047  1
  S2-  S185  1  0.77664609  0.01579888  0.85892880  1
  S2-  S186  1  0.85226945  0.35584227  0.35822154  1
  S2-  S187  1  0.77300762  0.26574210  0.86014757  1
  S2-  S188  1  0.85127511  0.58036862  0.34618631  1
  S2-  S189  1  0.89898156  0.48405579  0.85667731  1
  S2-  S190  1  0.95689490  0.73226950  0.29972846  1
  S2-  S191  1  0.77786751  0.74964488  0.86028934  1
  S2-  S192  1  -0.00620264  0.12186020  0.44446494  1
  S2-  S193  1  0.02066265  0.13749404  0.95613922  1
  S2-  S194  1  -0.00282595  0.36880511  0.45436597  1
  S2-  S195  1  0.01844290  0.39018626  0.96689749  1
  S2-  S196  1  -0.00482819  0.62082414  0.44819654  1
  S2-  S197  1  0.02311623  0.63796333  0.96123606  1
  S2-  S198  1  -0.00486130  0.86944480  0.44698644  1
  S2-  S199  1  0.01794448  0.88199909  0.96285164  1
  S2-  S200  1  0.24196096  0.12180231  0.44609750  1
  S2-  S201  1  0.25461182  0.13450712  0.94524793  1
  S2-  S202  1  0.24276265  0.37140877  0.46035585  1
  S2-  S203  1  0.27335813  0.38696249  0.95752286  1
  S2-  S204  1  0.24459553  0.61815764  0.46143036  1
  S2-  S205  1  0.26840412  0.63810319  0.95070147  1
  S2-  S206  1  0.24461092  0.87131029  0.45427746  1
  S2-  S207  1  0.26555742  0.88907535  0.95971109  1
  S2-  S208  1  0.49306981  0.12419255  0.45502873  1
  S2-  S209  1  0.52482203  0.14422941  0.94945512  1
  S2-  S210  1  0.49205313  0.37043335  0.46096618  1
  S2-  S211  1  0.52097256  0.39399824  0.96186504  1
  S2-  S212  1  0.49148459  0.61946370  0.44851048  1
  S2-  S213  1  0.51764383  0.63767882  0.95179129  1
  S2-  S214  1  0.49621801  0.86803208  0.45550019  1
  S2-  S215  1  0.52016670  0.88751919  0.95046659  1
  S2-  S216  1  0.74393667  0.12469677  0.45138394  1
  S2-  S217  1  0.77264435  0.13928223  0.96148803  1
  S2-  S218  1  0.73865720  0.36730988  0.45834794  1
  S2-  S219  1  0.77095605  0.39142470  0.96668111  1
  S2-  S220  1  0.74538593  0.61733131  0.45681122  1
  S2-  S221  1  0.76950870  0.63739717  0.96612702  1
  S2-  S222  1  0.74541541  0.87402761  0.44698094  1
  S2-  S223  1  0.77169875  0.88675463  0.96000693  1
  S2-  S224  1  0.13807410  0.00852425  0.03984570  1
  S2-  S225  1  0.11924057  -0.00579307  0.54222877  1
  S2-  S226  1  0.14468658  0.25670123  0.03932146  1
  S2-  S227  1  0.11918218  0.24384708  0.54988374  1
  S2-  S228  1  0.14725345  0.51620941  0.04568037  1
  S2-  S229  1  0.12019302  0.49350920  0.54762627  1
  S2-  S230  1  0.14745470  0.76534520  0.05397844  1
  S2-  S231  1  0.12180682  0.74535365  0.54576960  1
  S2-  S232  1  0.39682334  0.01777416  0.03145674  1
  S2-  S233  1  0.36713076  -0.00715161  0.53584597  1
  S2-  S234  1  0.39355328  0.25948908  0.03531150  1
  S2-  S235  1  0.36846203  0.24069516  0.54292454  1
  S2-  S236  1  0.39795612  0.51687796  0.04444408  1
  S2-  S237  1  0.37061533  0.49553569  0.55428503  1
  S2-  S238  1  0.39675518  0.76402076  0.03868036  1
  S2-  S239  1  0.36773680  0.74729875  0.54886819  1
  S2-  S240  1  0.64183130  0.01274588  0.04081407  1
  S2-  S241  1  0.62138407  -0.00243788  0.53656063  1
  S2-  S242  1  0.64778640  0.26602770  0.04775900  1
  S2-  S243  1  0.61675084  0.24321979  0.55414518  1
  S2-  S244  1  0.64349583  0.51415742  0.05799595  1
  S2-  S245  1  0.61660700  0.49799836  0.55246889  1
  S2-  S246  1  0.63971549  0.76789740  0.04500187  1
  S2-  S247  1  0.62006358  0.74216658  0.54547749  1
  S2-  S248  1  0.89929364  0.01259316  0.04499801  1
  S2-  S249  1  0.86677933  -0.00354163  0.53609872  1
  S2-  S250  1  0.89451565  0.25749123  0.04543388  1
  S2-  S251  1  0.86730089  0.24543551  0.54036314  1
  S2-  S252  1  0.89065344  0.51613422  0.05647666  1
  S2-  S253  1  0.86895729  0.49089190  0.54139736  1
  S2-  S254  1  0.89619160  0.76435834  0.04329606  1
  S2-  S255  1  0.86821332  0.74776324  0.53912409  1
