# generated using pymatgen
data_La6Ce7Pr13Nd19Sm19(BiS2)64
_symmetry_space_group_name_H-M   'P 1'
_cell_length_a   16.01266365
_cell_length_b   15.96470261
_cell_length_c   27.61223597
_cell_angle_alpha   90.30417632
_cell_angle_beta   89.89901646
_cell_angle_gamma   90.07722255
_symmetry_Int_Tables_number   1
_chemical_formula_structural   La6Ce7Pr13Nd19Sm19(BiS2)64
_chemical_formula_sum   'La6 Ce7 Pr13 Nd19 Sm19 Bi64 S128'
_cell_volume   7058.60381432
_cell_formula_units_Z   1
loop_
 _symmetry_equiv_pos_site_id
 _symmetry_equiv_pos_as_xyz
  1  'x, y, z'
loop_
 _atom_type_symbol
 _atom_type_oxidation_number
  La3+  3.0
  Ce3+  3.0
  Pr3+  3.0
  Nd3+  3.0
  Sm3+  3.0
  Bi2+  2.0
  S2-  -2.0
loop_
 _atom_site_type_symbol
 _atom_site_label
 _atom_site_symmetry_multiplicity
 _atom_site_fract_x
 _atom_site_fract_y
 _atom_site_fract_z
 _atom_site_occupancy
  La3+  La0  1  0.59944902  0.01195109  0.89378893  1
  La3+  La1  1  0.75276635  0.13474230  0.61582808  1
  La3+  La2  1  0.14878487  -0.00491292  0.39450794  1
  La3+  La3  1  0.23782126  0.64412095  0.07124810  1
  La3+  La4  1  0.38988036  0.24154435  0.42565683  1
  La3+  La5  1  0.01594887  0.11017018  0.56874467  1
  Ce3+  Ce6  1  0.64223514  0.74016017  0.44781809  1
  Ce3+  Ce7  1  0.77241674  0.87496824  0.56384269  1
  Ce3+  Ce8  1  0.10913451  0.77002847  0.94694795  1
  Ce3+  Ce9  1  0.60944047  0.51343771  0.93464783  1
  Ce3+  Ce10  1  0.51802479  0.86844247  0.55840067  1
  Ce3+  Ce11  1  0.61418823  0.26407464  0.94504372  1
  Ce3+  Ce12  1  0.73374515  0.39857952  0.07224574  1
  Pr3+  Pr13  1  0.89373392  0.23063517  0.43635502  1
  Pr3+  Pr14  1  0.51543537  0.11746744  0.56160444  1
  Pr3+  Pr15  1  0.23781501  0.89352890  0.07981912  1
  Pr3+  Pr16  1  0.48755388  0.39917404  0.07165687  1
  Pr3+  Pr17  1  0.73665649  0.64072389  0.05750503  1
  Pr3+  Pr18  1  -0.01721588  0.89280493  0.08157425  1
  Pr3+  Pr19  1  0.11498321  0.51452063  0.93625394  1
  Pr3+  Pr20  1  -0.01584497  0.39051347  0.07822102  1
  Pr3+  Pr21  1  0.89600141  -0.01357214  0.43200261  1
  Pr3+  Pr22  1  0.36173369  0.51552416  0.93059813  1
  Pr3+  Pr23  1  0.24838644  0.14583895  0.10124703  1
  Pr3+  Pr24  1  0.86636062  0.26666561  0.93841680  1
  Pr3+  Pr25  1  -0.01758942  0.14031332  0.08072614  1
  Nd3+  Nd26  1  0.85786989  0.50993613  0.93242794  1
  Nd3+  Nd27  1  0.51928950  0.36617981  0.55114182  1
  Nd3+  Nd28  1  0.01291838  0.36483410  0.55769241  1
  Nd3+  Nd29  1  0.61468860  0.77158204  0.93915446  1
  Nd3+  Nd30  1  0.51883236  0.61334023  0.56046003  1
  Nd3+  Nd31  1  0.02775053  0.86357842  0.56114661  1
  Nd3+  Nd32  1  0.77022917  0.37413793  0.56366327  1
  Nd3+  Nd33  1  0.14046713  0.24607897  0.43142779  1
  Nd3+  Nd34  1  0.74181762  0.14184448  0.05582097  1
  Nd3+  Nd35  1  0.87375617  0.01540454  0.92084790  1
  Nd3+  Nd36  1  0.88996484  0.47851668  0.41921639  1
  Nd3+  Nd37  1  0.36373174  0.26313014  0.94508434  1
  Nd3+  Nd38  1  0.64593058  0.23661964  0.44246077  1
  Nd3+  Nd39  1  0.26784140  0.36541219  0.55720796  1
  Nd3+  Nd40  1  0.36024883  0.77101099  0.94038687  1
  Nd3+  Nd41  1  0.26682933  0.61245092  0.55677238  1
  Nd3+  Nd42  1  0.64549125  0.49087691  0.42508184  1
  Nd3+  Nd43  1  0.73885784  0.89544906  0.06020182  1
  Nd3+  Nd44  1  0.64319696  -0.01048957  0.44200686  1
  Sm3+  Sm45  1  0.23730312  0.39509444  0.06754483  1
  Sm3+  Sm46  1  0.48612043  0.64372087  0.05521427  1
  Sm3+  Sm47  1  0.38766133  -0.00899855  0.44118513  1
  Sm3+  Sm48  1  0.11197555  0.26433570  0.95633202  1
  Sm3+  Sm49  1  0.48806137  0.14332718  0.06193077  1
  Sm3+  Sm50  1  0.10943585  0.01843286  0.95687156  1
  Sm3+  Sm51  1  0.01663608  0.61457627  0.54205927  1
  Sm3+  Sm52  1  0.39848896  0.49066408  0.42465601  1
  Sm3+  Sm53  1  0.39091714  0.73993989  0.44691277  1
  Sm3+  Sm54  1  0.36044592  0.01824629  0.94901357  1
  Sm3+  Sm55  1  0.77104526  0.61479463  0.55410395  1
  Sm3+  Sm56  1  0.86347569  0.77066022  0.94559752  1
  Sm3+  Sm57  1  -0.01272343  0.64120688  0.06395249  1
  Sm3+  Sm58  1  0.14501451  0.73890913  0.43006422  1
  Sm3+  Sm59  1  0.48853745  0.89531077  0.05822634  1
  Sm3+  Sm60  1  0.26520878  0.86649617  0.55642206  1
  Sm3+  Sm61  1  0.89397371  0.74616593  0.43782077  1
  Sm3+  Sm62  1  0.26131056  0.11779218  0.55646261  1
  Sm3+  Sm63  1  0.14316063  0.48889453  0.43387523  1
  Bi2+  Bi64  1  0.01013667  0.16754726  0.30211345  1
  Bi2+  Bi65  1  0.02926725  0.14815736  0.79892484  1
  Bi2+  Bi66  1  -0.00238774  0.42693084  0.29513940  1
  Bi2+  Bi67  1  0.02297294  0.47405415  0.80434632  1
  Bi2+  Bi68  1  -0.00002446  0.62986525  0.29039600  1
  Bi2+  Bi69  1  -0.06250135  0.64634575  0.79858575  1
  Bi2+  Bi70  1  -0.00060115  0.83384682  0.28522970  1
  Bi2+  Bi71  1  0.02839395  0.88070999  0.80089913  1
  Bi2+  Bi72  1  0.30245998  0.12364909  0.28186187  1
  Bi2+  Bi73  1  0.24935630  0.14618175  0.78809311  1
  Bi2+  Bi74  1  0.24706754  0.38832604  0.28148270  1
  Bi2+  Bi75  1  0.28816265  0.41470902  0.78787635  1
  Bi2+  Bi76  1  0.19127447  0.59928273  0.32114743  1
  Bi2+  Bi77  1  0.23700831  0.71550884  0.77843779  1
  Bi2+  Bi78  1  0.26355585  0.78678653  0.27930045  1
  Bi2+  Bi79  1  0.22035259  0.94447661  0.79375832  1
  Bi2+  Bi80  1  0.52370092  0.07650565  0.22057916  1
  Bi2+  Bi81  1  0.46216325  0.16171239  0.79919841  1
  Bi2+  Bi82  1  0.50623357  0.30470976  0.30163077  1
  Bi2+  Bi83  1  0.49428470  0.42009583  0.77149224  1
  Bi2+  Bi84  1  0.39035929  0.60022778  0.29667226  1
  Bi2+  Bi85  1  0.46973380  0.62143789  0.78005735  1
  Bi2+  Bi86  1  0.52911003  0.81584452  0.28648582  1
  Bi2+  Bi87  1  0.40929987  0.88975800  0.78741468  1
  Bi2+  Bi88  1  0.74018902  0.12042310  0.29299312  1
  Bi2+  Bi89  1  0.73135182  0.17167546  0.81222541  1
  Bi2+  Bi90  1  0.70832395  0.38951655  0.27417757  1
  Bi2+  Bi91  1  0.79016330  0.40619783  0.78360556  1
  Bi2+  Bi92  1  0.75182206  0.64318149  0.28653408  1
  Bi2+  Bi93  1  0.73867983  0.62448490  0.79050877  1
  Bi2+  Bi94  1  0.73589125  0.89055241  0.29943572  1
  Bi2+  Bi95  1  0.76489413  0.86634948  0.78971902  1
  Bi2+  Bi96  1  0.12405145  -0.07025361  0.21315375  1
  Bi2+  Bi97  1  0.14891738  -0.00635009  0.69023646  1
  Bi2+  Bi98  1  0.15495457  0.24084609  0.22428538  1
  Bi2+  Bi99  1  0.11855625  0.31627360  0.75969374  1
  Bi2+  Bi100  1  0.10407380  0.45931061  0.20210694  1
  Bi2+  Bi101  1  0.11998505  0.58967169  0.72537522  1
  Bi2+  Bi102  1  0.15384923  0.67085278  0.21190339  1
  Bi2+  Bi103  1  0.00244568  0.75733383  0.71103290  1
  Bi2+  Bi104  1  0.38467384  -0.05187870  0.26134154  1
  Bi2+  Bi105  1  0.35267930  0.03180432  0.70113486  1
  Bi2+  Bi106  1  0.46443681  0.29760545  0.19468328  1
  Bi2+  Bi107  1  0.29692558  0.22225983  0.68737142  1
  Bi2+  Bi108  1  0.37264622  0.47586567  0.20752814  1
  Bi2+  Bi109  1  0.36272198  0.48960504  0.67727499  1
  Bi2+  Bi110  1  0.48330548  0.70431777  0.19374008  1
  Bi2+  Bi111  1  0.31302086  0.82747440  0.69482876  1
  Bi2+  Bi112  1  0.62974231  -0.08853969  0.20141056  1
  Bi2+  Bi113  1  0.60463876  -0.02125342  0.70020508  1
  Bi2+  Bi114  1  0.65549103  0.22564646  0.20715311  1
  Bi2+  Bi115  1  0.59414129  0.28835657  0.70820125  1
  Bi2+  Bi116  1  0.58561737  0.53892482  0.25961349  1
  Bi2+  Bi117  1  0.61784176  0.53668292  0.70899217  1
  Bi2+  Bi118  1  0.68242299  0.70464543  0.18258164  1
  Bi2+  Bi119  1  0.60436825  0.76172590  0.75602129  1
  Bi2+  Bi120  1  0.86619117  0.01542120  0.21264293  1
  Bi2+  Bi121  1  0.89609064  0.01524367  0.71049915  1
  Bi2+  Bi122  1  0.88600131  0.25685868  0.21571294  1
  Bi2+  Bi123  1  0.88165305  0.28722661  0.71394396  1
  Bi2+  Bi124  1  0.85158499  0.50748072  0.20786134  1
  Bi2+  Bi125  1  0.88691736  0.53291159  0.69191412  1
  Bi2+  Bi126  1  0.87346037  0.75367888  0.20867922  1
  Bi2+  Bi127  1  0.80562684  0.74268376  0.70070253  1
  S2-  S128  1  0.01072775  0.01665876  0.15815111  1
  S2-  S129  1  -0.07685550  0.15665587  0.65153460  1
  S2-  S130  1  0.01494931  0.26170114  0.15638836  1
  S2-  S131  1  -0.04060308  0.39114949  0.65202866  1
  S2-  S132  1  -0.01433898  0.53160245  0.14264160  1
  S2-  S133  1  0.01674367  0.61956608  0.63924877  1
  S2-  S134  1  -0.00051512  0.75142888  0.14509393  1
  S2-  S135  1  -0.00271420  0.96503814  0.64232061  1
  S2-  S136  1  0.23924339  0.00105739  0.16205335  1
  S2-  S137  1  0.16039523  0.13909589  0.63791941  1
  S2-  S138  1  0.24897533  0.29755495  0.15245448  1
  S2-  S139  1  0.23348339  0.37778635  0.65368043  1
  S2-  S140  1  0.23865564  0.51657680  0.14314212  1
  S2-  S141  1  0.25740184  0.60854235  0.65545780  1
  S2-  S142  1  0.24449103  0.76191214  0.14998727  1
  S2-  S143  1  0.16873006  0.84017117  0.63616554  1
  S2-  S144  1  0.41244367  0.14029840  0.15037040  1
  S2-  S145  1  0.58004595  0.13297137  0.65410530  1
  S2-  S146  1  0.60903003  0.36455732  0.14515229  1
  S2-  S147  1  0.48520231  0.36209192  0.64773906  1
  S2-  S148  1  0.47529915  0.54920479  0.13704003  1
  S2-  S149  1  0.49246059  0.61219807  0.65748951  1
  S2-  S150  1  0.47454091  0.86624546  0.15384386  1
  S2-  S151  1  0.51515902  0.86992793  0.65473859  1
  S2-  S152  1  0.82603517  0.13283767  0.14519014  1
  S2-  S153  1  0.76938234  0.12957969  0.72434792  1
  S2-  S154  1  0.84351692  0.36988812  0.14735531  1
  S2-  S155  1  0.73518026  0.30299130  0.65332995  1
  S2-  S156  1  0.73072509  0.54600576  0.14126036  1
  S2-  S157  1  0.75233786  0.51656858  0.63345016  1
  S2-  S158  1  0.82989102  0.89986633  0.14649376  1
  S2-  S159  1  0.76150526  0.96099533  0.64963379  1
  S2-  S160  1  0.05853792  0.00763391  0.30108089  1
  S2-  S161  1  0.03486214  0.01479983  0.86713676  1
  S2-  S162  1  0.17265643  0.15874516  0.34636835  1
  S2-  S163  1  0.09734288  0.26688182  0.85722760  1
  S2-  S164  1  0.13397944  0.37783749  0.35846481  1
  S2-  S165  1  0.23406245  0.51206421  0.85865019  1
  S2-  S166  1  0.14681226  0.83142263  0.34838590  1
  S2-  S167  1  0.12460595  0.75480931  0.85017840  1
  S2-  S168  1  0.31339209  -0.01344902  0.35256816  1
  S2-  S169  1  0.42473819  0.01955082  0.85811199  1
  S2-  S170  1  0.43754839  0.16240144  0.33832557  1
  S2-  S171  1  0.34320794  0.27525540  0.84673591  1
  S2-  S172  1  0.37127294  0.36930078  0.35219405  1
  S2-  S173  1  0.49172250  0.51495772  0.85917249  1
  S2-  S174  1  0.39679272  0.75287080  0.35020848  1
  S2-  S175  1  0.37850079  0.73807178  0.84345363  1
  S2-  S176  1  0.63907306  0.00918391  0.34290413  1
  S2-  S177  1  0.58672093  0.05889128  0.79025763  1
  S2-  S178  1  0.66735004  0.26310278  0.34509023  1
  S2-  S179  1  0.58469304  0.25452858  0.84936030  1
  S2-  S180  1  0.52490952  0.52264358  0.35348887  1
  S2-  S181  1  0.72064651  0.49677493  0.86031632  1
  S2-  S182  1  0.65625031  0.75171713  0.35113172  1
  S2-  S183  1  0.61030687  0.84419584  0.84990067  1
  S2-  S184  1  0.88169382  0.10530752  0.35303074  1
  S2-  S185  1  0.75652316  0.01157697  0.84625389  1
  S2-  S186  1  0.90686107  0.33048838  0.35251488  1
  S2-  S187  1  0.88578606  0.16422951  0.85468277  1
  S2-  S188  1  0.76401608  0.50018883  0.34978637  1
  S2-  S189  1  0.89661539  0.38801567  0.86096277  1
  S2-  S190  1  0.88267528  0.85409290  0.35919676  1
  S2-  S191  1  0.88576874  0.84835505  0.85926443  1
  S2-  S192  1  0.02730483  0.11009284  0.44928660  1
  S2-  S193  1  -0.01075540  0.14258785  0.96848873  1
  S2-  S194  1  0.01578020  0.36822404  0.45559106  1
  S2-  S195  1  -0.00630156  0.39194431  0.96542111  1
  S2-  S196  1  0.01437459  0.61438167  0.43851841  1
  S2-  S197  1  -0.01526717  0.64037018  0.95230427  1
  S2-  S198  1  0.02541277  0.86117936  0.45335559  1
  S2-  S199  1  -0.01233731  0.89171271  0.96878302  1
  S2-  S200  1  0.26713351  0.11517735  0.45396381  1
  S2-  S201  1  0.23589983  0.13883187  0.94972272  1
  S2-  S202  1  0.26889883  0.37170172  0.45413801  1
  S2-  S203  1  0.23809940  0.38681779  0.96153518  1
  S2-  S204  1  0.27077841  0.61177142  0.45023812  1
  S2-  S205  1  0.23746194  0.64652432  0.95908760  1
  S2-  S206  1  0.26721207  0.86333226  0.45400833  1
  S2-  S207  1  0.23653794  0.89584801  0.95832925  1
  S2-  S208  1  0.51517886  0.11261058  0.45499038  1
  S2-  S209  1  0.49070259  0.13601090  0.95860894  1
  S2-  S210  1  0.52096518  0.36548165  0.44773881  1
  S2-  S211  1  0.48629348  0.38750525  0.96016805  1
  S2-  S212  1  0.51565494  0.61822397  0.45614663  1
  S2-  S213  1  0.48723698  0.64847468  0.95363533  1
  S2-  S214  1  0.51309205  0.86614097  0.45230314  1
  S2-  S215  1  0.48903333  0.89617189  0.95562612  1
  S2-  S216  1  0.76487921  0.11060831  0.45156344  1
  S2-  S217  1  0.73358384  0.13487415  0.95240347  1
  S2-  S218  1  0.76652287  0.36465084  0.45508477  1
  S2-  S219  1  0.73585565  0.38786193  0.96264507  1
  S2-  S220  1  0.77195024  0.61930373  0.45130242  1
  S2-  S221  1  0.73882358  0.64635016  0.95111913  1
  S2-  S222  1  0.76553306  0.86382421  0.45960914  1
  S2-  S223  1  0.73782985  0.89419475  0.95695227  1
  S2-  S224  1  0.12105341  0.02512775  0.05624137  1
  S2-  S225  1  0.14778262  -0.01006711  0.54186999  1
  S2-  S226  1  0.12096987  0.26251922  0.05544282  1
  S2-  S227  1  0.14049635  0.24558238  0.53780291  1
  S2-  S228  1  0.11239767  0.51815779  0.04198730  1
  S2-  S229  1  0.13989467  0.49060924  0.53930483  1
  S2-  S230  1  0.11254522  0.77080433  0.04820962  1
  S2-  S231  1  0.14472901  0.73325591  0.53355616  1
  S2-  S232  1  0.36239136  0.01818939  0.05082739  1
  S2-  S233  1  0.38758992  -0.00824812  0.54685138  1
  S2-  S234  1  0.36384612  0.26724713  0.04911753  1
  S2-  S235  1  0.39033232  0.24085655  0.54011237  1
  S2-  S236  1  0.36166227  0.51866061  0.03707246  1
  S2-  S237  1  0.39375196  0.49079121  0.53735863  1
  S2-  S238  1  0.36571666  0.77160755  0.04536613  1
  S2-  S239  1  0.39142456  0.74024901  0.55067896  1
  S2-  S240  1  0.61200236  0.01954273  0.06311630  1
  S2-  S241  1  0.64156175  -0.00624287  0.54694556  1
  S2-  S242  1  0.61157924  0.26298179  0.04742950  1
  S2-  S243  1  0.64412359  0.24072243  0.54622058  1
  S2-  S244  1  0.60856690  0.52017093  0.03822230  1
  S2-  S245  1  0.64128371  0.49325300  0.53385057  1
  S2-  S246  1  0.61064895  0.76980871  0.04580643  1
  S2-  S247  1  0.64620384  0.74006348  0.55474985  1
  S2-  S248  1  0.86396889  0.01592943  0.04194896  1
  S2-  S249  1  0.89872288  -0.01556686  0.53746202  1
  S2-  S250  1  0.86201553  0.26774085  0.04397716  1
  S2-  S251  1  0.88792159  0.24259448  0.54317292  1
  S2-  S252  1  0.86372020  0.51958873  0.03844525  1
  S2-  S253  1  0.89366192  0.49350851  0.53150075  1
  S2-  S254  1  0.86124383  0.76514093  0.04650210  1
  S2-  S255  1  0.89403802  0.74106987  0.54266935  1
