# generated using pymatgen
data_La6Ce7Pr13Nd19Sm19(BiS2)64
_symmetry_space_group_name_H-M   'P 1'
_cell_length_a   16.14512279
_cell_length_b   16.10241044
_cell_length_c   27.04387172
_cell_angle_alpha   89.96897610
_cell_angle_beta   90.01596659
_cell_angle_gamma   89.97158956
_symmetry_Int_Tables_number   1
_chemical_formula_structural   La6Ce7Pr13Nd19Sm19(BiS2)64
_chemical_formula_sum   'La6 Ce7 Pr13 Nd19 Sm19 Bi64 S128'
_cell_volume   7030.73902918
_cell_formula_units_Z   1
loop_
 _symmetry_equiv_pos_site_id
 _symmetry_equiv_pos_as_xyz
  1  'x, y, z'
loop_
 _atom_type_symbol
 _atom_type_oxidation_number
  La3+  3.0
  Ce3+  3.0
  Pr3+  3.0
  Nd3+  3.0
  Sm3+  3.0
  Bi2+  2.0
  S2-  -2.0
loop_
 _atom_site_type_symbol
 _atom_site_label
 _atom_site_symmetry_multiplicity
 _atom_site_fract_x
 _atom_site_fract_y
 _atom_site_fract_z
 _atom_site_occupancy
  La3+  La0  1  0.61842880  0.23148963  0.40373078  1
  La3+  La1  1  0.87824614  0.76096849  0.92146923  1
  La3+  La2  1  0.12908519  0.00874940  0.89980978  1
  La3+  La3  1  0.62793630  0.01001574  0.91848300  1
  La3+  La4  1  0.38162573  0.01742967  0.91527116  1
  La3+  La5  1  0.88561586  0.23532721  0.40114713  1
  Ce3+  Ce6  1  0.37638279  0.50651708  0.95045471  1
  Ce3+  Ce7  1  0.74833984  0.13360890  0.06273802  1
  Ce3+  Ce8  1  0.37401042  0.74249069  0.45039992  1
  Ce3+  Ce9  1  0.74912874  0.86994157  0.56421065  1
  Ce3+  Ce10  1  0.74990217  0.11920896  0.55902929  1
  Ce3+  Ce11  1  0.49979495  0.87057084  0.56714150  1
  Ce3+  Ce12  1  -0.00098631  0.11861965  0.56451655  1
  Pr3+  Pr13  1  0.50174221  0.61469574  0.56060359  1
  Pr3+  Pr14  1  0.73948053  0.39595081  0.08632418  1
  Pr3+  Pr15  1  0.37341020  0.23463115  0.43241470  1
  Pr3+  Pr16  1  0.50218768  0.36714006  0.55605295  1
  Pr3+  Pr17  1  0.87472966  0.49086408  0.43462276  1
  Pr3+  Pr18  1  0.00251230  0.13241576  0.06441740  1
  Pr3+  Pr19  1  0.00304778  0.38243144  0.07345113  1
  Pr3+  Pr20  1  0.49859594  0.12734480  0.06413369  1
  Pr3+  Pr21  1  0.12531650  0.74323485  0.44429274  1
  Pr3+  Pr22  1  0.25241833  0.63657887  0.06349792  1
  Pr3+  Pr23  1  0.37554591  0.26150778  0.93360441  1
  Pr3+  Pr24  1  0.87798614  0.01407406  0.94065257  1
  Pr3+  Pr25  1  0.75021495  0.88084689  0.05752824  1
  Nd3+  Nd26  1  0.12066231  0.26095480  0.92901208  1
  Nd3+  Nd27  1  0.87577832  0.74542172  0.44204917  1
  Nd3+  Nd28  1  0.37451294  -0.00422804  0.45237056  1
  Nd3+  Nd29  1  0.62713250  0.50483901  0.93409760  1
  Nd3+  Nd30  1  0.74971306  0.36335851  0.54613664  1
  Nd3+  Nd31  1  0.24979124  0.13072290  0.58163535  1
  Nd3+  Nd32  1  0.12577049  -0.00603735  0.45451034  1
  Nd3+  Nd33  1  -0.00028469  0.86660761  0.56779637  1
  Nd3+  Nd34  1  0.00307960  0.63849890  0.06142422  1
  Nd3+  Nd35  1  0.37427824  0.75809752  0.93538714  1
  Nd3+  Nd36  1  0.62478885  0.75548045  0.93203665  1
  Nd3+  Nd37  1  0.62400635  0.74553249  0.44485066  1
  Nd3+  Nd38  1  0.50107908  0.63369901  0.05550095  1
  Nd3+  Nd39  1  0.62556671  0.49116092  0.43303134  1
  Nd3+  Nd40  1  0.24819560  0.61535249  0.56849957  1
  Nd3+  Nd41  1  -0.00370282  0.36705535  0.55758230  1
  Nd3+  Nd42  1  0.24828940  0.12960262  0.05034788  1
  Nd3+  Nd43  1  0.25003446  0.86169074  0.58041200  1
  Nd3+  Nd44  1  0.12548233  0.23833643  0.43845766  1
  Sm3+  Sm45  1  0.62674096  0.25905365  0.94252673  1
  Sm3+  Sm46  1  -0.00165186  0.61656697  0.55816182  1
  Sm3+  Sm47  1  0.37584624  0.49117191  0.44441577  1
  Sm3+  Sm48  1  0.49896640  0.12092665  0.56890136  1
  Sm3+  Sm49  1  0.87425665  0.26156747  0.95211664  1
  Sm3+  Sm50  1  0.49844241  0.37352495  0.07054338  1
  Sm3+  Sm51  1  0.87354784  0.50658129  0.95179561  1
  Sm3+  Sm52  1  0.75095409  0.61899539  0.55489917  1
  Sm3+  Sm53  1  0.25017208  0.88666076  0.04560003  1
  Sm3+  Sm54  1  0.00221237  0.88288357  0.04853887  1
  Sm3+  Sm55  1  0.62623733  -0.00362761  0.44765830  1
  Sm3+  Sm56  1  0.12308477  0.50969665  0.94797515  1
  Sm3+  Sm57  1  0.12655817  0.75706638  0.93628928  1
  Sm3+  Sm58  1  0.24851606  0.38009715  0.05467317  1
  Sm3+  Sm59  1  0.87456349  -0.00246225  0.44462396  1
  Sm3+  Sm60  1  0.49963737  0.88818251  0.05147739  1
  Sm3+  Sm61  1  0.12403627  0.49138758  0.44246709  1
  Sm3+  Sm62  1  0.75082128  0.63926712  0.06055018  1
  Sm3+  Sm63  1  0.24853739  0.36748346  0.55455808  1
  Bi2+  Bi64  1  0.02052577  0.10005537  0.29164331  1
  Bi2+  Bi65  1  -0.01081695  0.19733433  0.77316872  1
  Bi2+  Bi66  1  0.00241705  0.38439749  0.29025309  1
  Bi2+  Bi67  1  0.04584285  0.37538621  0.81185698  1
  Bi2+  Bi68  1  0.02907139  0.64757930  0.29730353  1
  Bi2+  Bi69  1  0.04222910  0.57647361  0.75597778  1
  Bi2+  Bi70  1  -0.00561718  0.85256834  0.29572511  1
  Bi2+  Bi71  1  -0.02075200  0.83884873  0.78746026  1
  Bi2+  Bi72  1  0.23801964  0.09723379  0.28837995  1
  Bi2+  Bi73  1  0.25739706  0.14577153  0.78762434  1
  Bi2+  Bi74  1  0.25569749  0.35686243  0.27700247  1
  Bi2+  Bi75  1  0.23863032  0.33553327  0.80697156  1
  Bi2+  Bi76  1  0.26051200  0.67635444  0.29173616  1
  Bi2+  Bi77  1  0.25759458  0.56363244  0.79136965  1
  Bi2+  Bi78  1  0.27194677  0.90333158  0.28445939  1
  Bi2+  Bi79  1  0.23730487  0.84452811  0.79462352  1
  Bi2+  Bi80  1  0.46416351  0.11173347  0.28962250  1
  Bi2+  Bi81  1  0.51426493  0.12168247  0.77905305  1
  Bi2+  Bi82  1  0.47137659  0.39600305  0.28657614  1
  Bi2+  Bi83  1  0.50290192  0.38849265  0.79550026  1
  Bi2+  Bi84  1  0.47585525  0.64510024  0.29797565  1
  Bi2+  Bi85  1  0.53110076  0.59042030  0.80570082  1
  Bi2+  Bi86  1  0.46695310  0.88734994  0.27596552  1
  Bi2+  Bi87  1  0.52639967  0.85040188  0.78106591  1
  Bi2+  Bi88  1  0.73032639  0.07975758  0.29194031  1
  Bi2+  Bi89  1  0.75241939  0.13597884  0.79087120  1
  Bi2+  Bi90  1  0.74549109  0.39994426  0.28560507  1
  Bi2+  Bi91  1  0.78361974  0.35745385  0.81897090  1
  Bi2+  Bi92  1  0.74031622  0.67431172  0.27768310  1
  Bi2+  Bi93  1  0.71790802  0.56008828  0.79896315  1
  Bi2+  Bi94  1  0.71385927  0.87257997  0.30138224  1
  Bi2+  Bi95  1  0.76302836  0.94117753  0.79238792  1
  Bi2+  Bi96  1  0.13367453  -0.04450973  0.20804772  1
  Bi2+  Bi97  1  0.12029574  -0.00283748  0.70213088  1
  Bi2+  Bi98  1  0.13322826  0.25209873  0.19099835  1
  Bi2+  Bi99  1  0.12579407  0.33201451  0.70509642  1
  Bi2+  Bi100  1  0.16085273  0.51713202  0.23786206  1
  Bi2+  Bi101  1  0.18640132  0.51520005  0.68183698  1
  Bi2+  Bi102  1  0.12015357  0.76239930  0.20370855  1
  Bi2+  Bi103  1  0.11088704  0.72871002  0.69883599  1
  Bi2+  Bi104  1  0.36622343  0.00525098  0.19700298  1
  Bi2+  Bi105  1  0.39080524  -0.00144398  0.70408449  1
  Bi2+  Bi106  1  0.36481608  0.23120386  0.21911094  1
  Bi2+  Bi107  1  0.37339081  0.31606746  0.72088680  1
  Bi2+  Bi108  1  0.35862427  0.51529748  0.22334757  1
  Bi2+  Bi109  1  0.38124729  0.51627916  0.69887726  1
  Bi2+  Bi110  1  0.38258662  0.72568350  0.20663068  1
  Bi2+  Bi111  1  0.36064094  0.70179271  0.73819634  1
  Bi2+  Bi112  1  0.61512019  -0.01782157  0.21431103  1
  Bi2+  Bi113  1  0.65155072  -0.04295283  0.69874285  1
  Bi2+  Bi114  1  0.62329863  0.25746068  0.20042405  1
  Bi2+  Bi115  1  0.66638002  0.28694529  0.72989321  1
  Bi2+  Bi116  1  0.62081646  0.54669180  0.20952796  1
  Bi2+  Bi117  1  0.60727893  0.46827453  0.69916852  1
  Bi2+  Bi118  1  0.62676424  0.78928541  0.20479762  1
  Bi2+  Bi119  1  0.63712365  0.69015870  0.72350345  1
  Bi2+  Bi120  1  0.85809838  -0.04295835  0.23724960  1
  Bi2+  Bi121  1  0.87868682  0.05732709  0.71380130  1
  Bi2+  Bi122  1  0.88188432  0.22395597  0.20038091  1
  Bi2+  Bi123  1  0.85942824  0.28229264  0.69728208  1
  Bi2+  Bi124  1  0.87173526  0.55535468  0.22669272  1
  Bi2+  Bi125  1  0.88353026  0.46591858  0.74118329  1
  Bi2+  Bi126  1  0.88619333  0.77240297  0.19951264  1
  Bi2+  Bi127  1  0.84470755  0.71696582  0.71255884  1
  S2-  S128  1  0.01181737  0.12265146  0.16580302  1
  S2-  S129  1  0.01944900  0.12505874  0.66198384  1
  S2-  S130  1  -0.00728971  0.35644281  0.17489418  1
  S2-  S131  1  -0.02390621  0.39512617  0.65565671  1
  S2-  S132  1  -0.03762130  0.62891792  0.15856759  1
  S2-  S133  1  -0.02188521  0.64573369  0.65477339  1
  S2-  S134  1  0.00993849  0.87213172  0.14677819  1
  S2-  S135  1  0.01898050  0.86594215  0.66771873  1
  S2-  S136  1  0.25430699  0.14213264  0.15051511  1
  S2-  S137  1  0.25513686  0.09910153  0.68273683  1
  S2-  S138  1  0.22056420  0.36900489  0.15080783  1
  S2-  S139  1  0.25656768  0.28583783  0.64035516  1
  S2-  S140  1  0.18046822  0.63420280  0.15500221  1
  S2-  S141  1  0.26109351  0.71851723  0.64888722  1
  S2-  S142  1  0.26143984  0.89194057  0.14416474  1
  S2-  S143  1  0.24984204  0.90492012  0.67989615  1
  S2-  S144  1  0.48837359  0.23886225  0.14432396  1
  S2-  S145  1  0.48869332  0.11527727  0.66951907  1
  S2-  S146  1  0.58945805  0.41159797  0.15217772  1
  S2-  S147  1  0.50122079  0.34600063  0.65587832  1
  S2-  S148  1  0.51932621  0.66167646  0.15359952  1
  S2-  S149  1  0.51422339  0.62084348  0.66061069  1
  S2-  S150  1  0.50035095  0.99081614  0.13203845  1
  S2-  S151  1  0.49736765  0.87273331  0.66701060  1
  S2-  S152  1  0.73907280  0.14186686  0.16152030  1
  S2-  S153  1  0.73363611  0.08987548  0.65649883  1
  S2-  S154  1  0.77500540  0.34302068  0.18288422  1
  S2-  S155  1  0.73620274  0.38067061  0.64583286  1
  S2-  S156  1  0.74782345  0.54992245  0.14686596  1
  S2-  S157  1  0.75735392  0.61979828  0.65412735  1
  S2-  S158  1  0.75392020  0.76486297  0.13318825  1
  S2-  S159  1  0.77929568  0.85440860  0.66085286  1
  S2-  S160  1  0.11707540  0.03305464  0.35646391  1
  S2-  S161  1  0.10378546  -0.04551405  0.80105779  1
  S2-  S162  1  0.04838982  0.24628321  0.34832509  1
  S2-  S163  1  0.10840683  0.15704625  0.84707412  1
  S2-  S164  1  0.10507136  0.50143723  0.34489964  1
  S2-  S165  1  0.11182362  0.52859826  0.85060133  1
  S2-  S166  1  0.13229655  0.77129381  0.34538795  1
  S2-  S167  1  0.10754883  0.75639151  0.83825283  1
  S2-  S168  1  0.35214449  0.08895781  0.36819223  1
  S2-  S169  1  0.28236099  -0.01055158  0.83249099  1
  S2-  S170  1  0.47143868  0.25971069  0.34825977  1
  S2-  S171  1  0.39628784  0.17309021  0.84609419  1
  S2-  S172  1  0.38390690  0.50796076  0.34684191  1
  S2-  S173  1  0.39385715  0.49787139  0.85312698  1
  S2-  S174  1  0.38323607  0.75863500  0.35363394  1
  S2-  S175  1  0.38890343  0.77299962  0.83566411  1
  S2-  S176  1  0.60176215  0.06510604  0.35824282  1
  S2-  S177  1  0.50716449  -0.01225725  0.84018559  1
  S2-  S178  1  0.67512782  0.25167279  0.30498629  1
  S2-  S179  1  0.62488448  0.15475977  0.85931140  1
  S2-  S180  1  0.61561884  0.47147193  0.33384966  1
  S2-  S181  1  0.62408355  0.37350412  0.86683306  1
  S2-  S182  1  0.61479508  0.71926556  0.34636694  1
  S2-  S183  1  0.65005988  0.82297574  0.84097732  1
  S2-  S184  1  0.88017927  0.07563639  0.35530508  1
  S2-  S185  1  0.90706424  -0.03284156  0.84486577  1
  S2-  S186  1  0.87402908  0.28413280  0.29972280  1
  S2-  S187  1  0.87522741  0.21694595  0.85628393  1
  S2-  S188  1  0.87856941  0.48465412  0.33357408  1
  S2-  S189  1  0.86345955  0.50469701  0.85345771  1
  S2-  S190  1  0.89738360  0.72772998  0.34365690  1
  S2-  S191  1  0.87047164  0.73082264  0.82147819  1
  S2-  S192  1  -0.00147362  0.11935873  0.45877292  1
  S2-  S193  1  0.00095605  0.13715310  0.95630587  1
  S2-  S194  1  -0.00067432  0.36617127  0.45018769  1
  S2-  S195  1  -0.00064613  0.38555333  0.96131065  1
  S2-  S196  1  -0.00024932  0.61674209  0.45245977  1
  S2-  S197  1  -0.00052819  0.63326971  0.95201023  1
  S2-  S198  1  -0.00198130  0.87153228  0.45786820  1
  S2-  S199  1  0.00798884  0.88544881  0.94439856  1
  S2-  S200  1  0.24573420  0.11920116  0.47086007  1
  S2-  S201  1  0.24543879  0.13663880  0.94453606  1
  S2-  S202  1  0.24954973  0.36748659  0.44797705  1
  S2-  S203  1  0.24628452  0.38554954  0.94950916  1
  S2-  S204  1  0.24922600  0.61377819  0.45736702  1
  S2-  S205  1  0.24959518  0.63291548  0.95400357  1
  S2-  S206  1  0.25037889  0.86961155  0.46414074  1
  S2-  S207  1  0.24811717  0.88230617  0.94051232  1
  S2-  S208  1  0.50193417  0.11868509  0.46330388  1
  S2-  S209  1  0.50096792  0.13720095  0.95716738  1
  S2-  S210  1  0.50172046  0.36791532  0.44974659  1
  S2-  S211  1  0.49928192  0.38238129  0.96426825  1
  S2-  S212  1  0.50107736  0.61566129  0.45337199  1
  S2-  S213  1  0.50044956  0.63243277  0.94870013  1
  S2-  S214  1  0.50154619  0.87288597  0.45713879  1
  S2-  S215  1  0.50095183  0.88003741  0.94800174  1
  S2-  S216  1  0.74989606  0.12225584  0.45227773  1
  S2-  S217  1  0.75288714  0.13607601  0.95724233  1
  S2-  S218  1  0.75058201  0.35861608  0.43792828  1
  S2-  S219  1  0.75305448  0.38404031  0.96700054  1
  S2-  S220  1  0.75006783  0.61985980  0.44821200  1
  S2-  S221  1  0.75081681  0.63328764  0.95087491  1
  S2-  S222  1  0.75062409  0.87202041  0.45424476  1
  S2-  S223  1  0.75297342  0.88326668  0.94988496  1
  S2-  S224  1  0.12451849  0.00546999  0.04299653  1
  S2-  S225  1  0.12808861  -0.00788331  0.56069499  1
  S2-  S226  1  0.12480934  0.25888331  0.04125634  1
  S2-  S227  1  0.12169912  0.24572296  0.54611231  1
  S2-  S228  1  0.12615144  0.50852330  0.05260789  1
  S2-  S229  1  0.12269669  0.49167437  0.54748608  1
  S2-  S230  1  0.12777859  0.76136828  0.04206166  1
  S2-  S231  1  0.12199639  0.74054862  0.55093618  1
  S2-  S232  1  0.37202571  0.00628169  0.03012317  1
  S2-  S233  1  0.37190723  -0.00384772  0.55934375  1
  S2-  S234  1  0.36963162  0.25870907  0.04157971  1
  S2-  S235  1  0.37715356  0.24325011  0.54288423  1
  S2-  S236  1  0.37499838  0.50499624  0.05843735  1
  S2-  S237  1  0.37220202  0.49072716  0.55020895  1
  S2-  S238  1  0.37679820  0.76224646  0.04318966  1
  S2-  S239  1  0.37854972  0.74192668  0.55428129  1
  S2-  S240  1  0.62942200  0.00590737  0.03518565  1
  S2-  S241  1  0.62194060  -0.00434043  0.55235082  1
  S2-  S242  1  0.62786714  0.25979246  0.04853513  1
  S2-  S243  1  0.62390770  0.24049982  0.55209621  1
  S2-  S244  1  0.62420861  0.51423378  0.04132963  1
  S2-  S245  1  0.62948195  0.49368936  0.54113339  1
  S2-  S246  1  0.61987233  0.76086439  0.03859111  1
  S2-  S247  1  0.62568000  0.74290064  0.55238027  1
  S2-  S248  1  0.87709736  0.00581529  0.04992082  1
  S2-  S249  1  0.87617189  -0.00790955  0.55087532  1
  S2-  S250  1  0.87468809  0.26063927  0.05756044  1
  S2-  S251  1  0.87503411  0.24209946  0.55026231  1
  S2-  S252  1  0.87986857  0.51055895  0.05439078  1
  S2-  S253  1  0.87288778  0.49493110  0.54339497  1
  S2-  S254  1  0.87992927  0.75855291  0.03356683  1
  S2-  S255  1  0.87519127  0.74256093  0.54829579  1
