# generated using pymatgen
data_La6Ce7Pr13Nd19Sm19(BiS2)64
_symmetry_space_group_name_H-M   'P 1'
_cell_length_a   16.11126600
_cell_length_b   16.08916988
_cell_length_c   27.37147702
_cell_angle_alpha   90.24155483
_cell_angle_beta   89.80234223
_cell_angle_gamma   89.89842645
_symmetry_Int_Tables_number   1
_chemical_formula_structural   La6Ce7Pr13Nd19Sm19(BiS2)64
_chemical_formula_sum   'La6 Ce7 Pr13 Nd19 Sm19 Bi64 S128'
_cell_volume   7095.03269580
_cell_formula_units_Z   1
loop_
 _symmetry_equiv_pos_site_id
 _symmetry_equiv_pos_as_xyz
  1  'x, y, z'
loop_
 _atom_type_symbol
 _atom_type_oxidation_number
  La3+  3.0
  Ce3+  3.0
  Pr3+  3.0
  Nd3+  3.0
  Sm3+  3.0
  Bi2+  2.0
  S2-  -2.0
loop_
 _atom_site_type_symbol
 _atom_site_label
 _atom_site_symmetry_multiplicity
 _atom_site_fract_x
 _atom_site_fract_y
 _atom_site_fract_z
 _atom_site_occupancy
  La3+  La0  1  0.75422086  0.60619466  0.59537275  1
  La3+  La1  1  -0.00612790  0.89215288  0.09456787  1
  La3+  La2  1  0.85598705  0.48083437  0.40952013  1
  La3+  La3  1  0.12309252  0.48324127  0.40904269  1
  La3+  La4  1  0.26014249  0.88837908  0.09544781  1
  La3+  La5  1  0.87563906  -0.00700824  0.92158449  1
  Ce3+  Ce6  1  0.86305189  0.23890024  0.43034497  1
  Ce3+  Ce7  1  0.62783697  0.75149364  0.93573377  1
  Ce3+  Ce8  1  0.23940396  0.11397260  0.55469248  1
  Ce3+  Ce9  1  0.87701007  0.50594868  0.93687134  1
  Ce3+  Ce10  1  0.36753318  0.73808487  0.44050095  1
  Ce3+  Ce11  1  0.38015020  0.25764595  0.93806953  1
  Ce3+  Ce12  1  0.86362069  0.73503055  0.43765013  1
  Pr3+  Pr13  1  -0.00221158  0.61800664  0.09487496  1
  Pr3+  Pr14  1  0.63874049  0.51130719  0.90294779  1
  Pr3+  Pr15  1  0.22833482  0.36928891  0.56855621  1
  Pr3+  Pr16  1  0.61354530  0.23857535  0.44239098  1
  Pr3+  Pr17  1  0.23761123  0.86352813  0.55729698  1
  Pr3+  Pr18  1  0.47887399  0.37148976  0.58518298  1
  Pr3+  Pr19  1  0.49239307  0.61202834  0.56169245  1
  Pr3+  Pr20  1  0.12890009  0.25216645  0.93709029  1
  Pr3+  Pr21  1  0.25249018  0.13093033  0.06111317  1
  Pr3+  Pr22  1  0.75363919  0.12614551  0.06318690  1
  Pr3+  Pr23  1  0.12784719  0.50639170  0.94070820  1
  Pr3+  Pr24  1  0.63316346  0.25583499  0.93403985  1
  Pr3+  Pr25  1  0.37665849  -0.00143350  0.94164723  1
  Nd3+  Nd26  1  0.36626865  0.24117115  0.44826353  1
  Nd3+  Nd27  1  0.24976766  0.63086071  0.06530690  1
  Nd3+  Nd28  1  0.62942038  0.00004159  0.93655358  1
  Nd3+  Nd29  1  0.11562397  -0.01273091  0.43917707  1
  Nd3+  Nd30  1  -0.01361775  0.60960722  0.54644196  1
  Nd3+  Nd31  1  -0.01454298  0.86392759  0.55706719  1
  Nd3+  Nd32  1  0.61937725  0.73517182  0.44697941  1
  Nd3+  Nd33  1  0.61658966  -0.01102347  0.44239569  1
  Nd3+  Nd34  1  0.74010909  0.35834680  0.56597870  1
  Nd3+  Nd35  1  0.50560114  0.13117354  0.05071491  1
  Nd3+  Nd36  1  -0.01096272  0.36681288  0.54996015  1
  Nd3+  Nd37  1  0.50657356  0.87758673  0.06612681  1
  Nd3+  Nd38  1  0.36908458  0.48635765  0.43810078  1
  Nd3+  Nd39  1  0.75444208  0.62952835  0.06409271  1
  Nd3+  Nd40  1  0.86509477  -0.01129537  0.43778130  1
  Nd3+  Nd41  1  0.11267135  0.73840707  0.43132179  1
  Nd3+  Nd42  1  0.49171612  0.86334455  0.55728271  1
  Nd3+  Nd43  1  0.50558942  0.38200953  0.05033547  1
  Nd3+  Nd44  1  0.11771357  0.23821065  0.43414731  1
  Sm3+  Sm45  1  0.87711942  0.25321447  0.94630391  1
  Sm3+  Sm46  1  0.36551503  -0.01418197  0.44050894  1
  Sm3+  Sm47  1  0.12595849  0.75647432  0.96158196  1
  Sm3+  Sm48  1  0.75193284  0.87605949  0.06024657  1
  Sm3+  Sm49  1  0.00153283  0.12570358  0.05229299  1
  Sm3+  Sm50  1  0.88116502  0.75508825  0.95125522  1
  Sm3+  Sm51  1  0.74032084  0.86499539  0.55435928  1
  Sm3+  Sm52  1  0.73913754  0.11871375  0.56143577  1
  Sm3+  Sm53  1  0.25072007  0.38115132  0.05831003  1
  Sm3+  Sm54  1  0.75451110  0.38193721  0.05845437  1
  Sm3+  Sm55  1  0.23682103  0.61328598  0.54824497  1
  Sm3+  Sm56  1  0.12808414  -0.00301235  0.94729918  1
  Sm3+  Sm57  1  0.37791681  0.75284846  0.95200247  1
  Sm3+  Sm58  1  -0.01077718  0.11486244  0.55158970  1
  Sm3+  Sm59  1  0.48912136  0.11491060  0.55717630  1
  Sm3+  Sm60  1  0.00283122  0.38114189  0.05666069  1
  Sm3+  Sm61  1  0.50399964  0.62586269  0.05687900  1
  Sm3+  Sm62  1  0.61736572  0.48701352  0.44565913  1
  Sm3+  Sm63  1  0.37748160  0.50496271  0.94080392  1
  Bi2+  Bi64  1  0.02703571  0.14204266  0.28628009  1
  Bi2+  Bi65  1  0.05325566  0.12980830  0.77243386  1
  Bi2+  Bi66  1  0.01514842  0.34164576  0.27567133  1
  Bi2+  Bi67  1  0.01987685  0.39594327  0.78286425  1
  Bi2+  Bi68  1  -0.00707485  0.65112933  0.28504940  1
  Bi2+  Bi69  1  -0.05488909  0.64232485  0.75437352  1
  Bi2+  Bi70  1  0.00403624  0.88035556  0.30698023  1
  Bi2+  Bi71  1  0.02053238  0.88739901  0.81515186  1
  Bi2+  Bi72  1  0.22472170  0.14842415  0.29390689  1
  Bi2+  Bi73  1  0.26433712  0.13049858  0.75041808  1
  Bi2+  Bi74  1  0.26768363  0.34331288  0.28753701  1
  Bi2+  Bi75  1  0.24028050  0.37521091  0.81149199  1
  Bi2+  Bi76  1  0.34445256  0.60417128  0.29424238  1
  Bi2+  Bi77  1  0.20431404  0.62958860  0.77786213  1
  Bi2+  Bi78  1  0.28595142  0.89161890  0.29792820  1
  Bi2+  Bi79  1  0.25615863  0.86913032  0.82424051  1
  Bi2+  Bi80  1  0.50325159  0.18363348  0.29347790  1
  Bi2+  Bi81  1  0.52089830  0.06724823  0.75474944  1
  Bi2+  Bi82  1  0.48892542  0.45848168  0.31949331  1
  Bi2+  Bi83  1  0.48165544  0.32786089  0.80577554  1
  Bi2+  Bi84  1  0.53804557  0.65305484  0.29819043  1
  Bi2+  Bi85  1  0.47636745  0.66057584  0.78923491  1
  Bi2+  Bi86  1  0.51208145  0.92062953  0.23716032  1
  Bi2+  Bi87  1  0.52112423  0.90839496  0.82384094  1
  Bi2+  Bi88  1  0.74878776  0.10992462  0.31358028  1
  Bi2+  Bi89  1  0.80424704  0.07815168  0.76469093  1
  Bi2+  Bi90  1  0.65096989  0.41875342  0.26145093  1
  Bi2+  Bi91  1  0.74142882  0.35244718  0.80114631  1
  Bi2+  Bi92  1  0.74320200  0.63343320  0.31263281  1
  Bi2+  Bi93  1  0.75393057  0.63402404  0.77580165  1
  Bi2+  Bi94  1  0.69556929  0.88384817  0.27656950  1
  Bi2+  Bi95  1  0.70676978  0.85993188  0.80773705  1
  Bi2+  Bi96  1  0.12634549  -0.00327767  0.20921109  1
  Bi2+  Bi97  1  0.16318765  -0.02347063  0.70400962  1
  Bi2+  Bi98  1  0.13584100  0.23740921  0.20439258  1
  Bi2+  Bi99  1  0.16471534  0.28055332  0.70187062  1
  Bi2+  Bi100  1  0.13734557  0.49987956  0.20576324  1
  Bi2+  Bi101  1  0.10522980  0.51511387  0.70153310  1
  Bi2+  Bi102  1  0.20230091  0.70529087  0.23773150  1
  Bi2+  Bi103  1  0.10277660  0.77862179  0.72738915  1
  Bi2+  Bi104  1  0.37167669  0.08450971  0.22548602  1
  Bi2+  Bi105  1  0.36204984  -0.03184752  0.70891768  1
  Bi2+  Bi106  1  0.39973902  0.27470277  0.20437525  1
  Bi2+  Bi107  1  0.40683615  0.25862924  0.71102787  1
  Bi2+  Bi108  1  0.41154743  0.47150715  0.21316128  1
  Bi2+  Bi109  1  0.35392932  0.55233169  0.71946218  1
  Bi2+  Bi110  1  0.44470534  0.74397597  0.20799056  1
  Bi2+  Bi111  1  0.34200931  0.74921447  0.72369108  1
  Bi2+  Bi112  1  0.65117591  0.05536599  0.20201782  1
  Bi2+  Bi113  1  0.67650141  -0.00872686  0.69628892  1
  Bi2+  Bi114  1  0.60886322  0.25148741  0.20599691  1
  Bi2+  Bi115  1  0.64538508  0.19709124  0.70382210  1
  Bi2+  Bi116  1  0.64937714  0.59455729  0.20476650  1
  Bi2+  Bi117  1  0.60899261  0.49295929  0.70802440  1
  Bi2+  Bi118  1  0.63169438  0.80203373  0.16641873  1
  Bi2+  Bi119  1  0.56539086  0.79972896  0.72842944  1
  Bi2+  Bi120  1  0.88102703  0.00940610  0.20891623  1
  Bi2+  Bi121  1  0.94111903  -0.00184139  0.69376434  1
  Bi2+  Bi122  1  0.85726132  0.23946753  0.25878095  1
  Bi2+  Bi123  1  0.89150337  0.26012021  0.74649571  1
  Bi2+  Bi124  1  0.86230927  0.48050931  0.20825255  1
  Bi2+  Bi125  1  0.89651020  0.46896561  0.70156405  1
  Bi2+  Bi126  1  0.79530327  0.74530126  0.21845783  1
  Bi2+  Bi127  1  0.84171873  0.80281946  0.73112828  1
  S2-  S128  1  0.00589327  0.06078230  0.14240345  1
  S2-  S129  1  -0.01514874  0.13336807  0.64875834  1
  S2-  S130  1  -0.00143308  0.45653936  0.14546275  1
  S2-  S131  1  0.08601367  0.37384396  0.63399578  1
  S2-  S132  1  0.05985681  0.65595429  0.18714727  1
  S2-  S133  1  -0.08147572  0.60607499  0.63930146  1
  S2-  S134  1  0.01124606  0.87694978  0.20259462  1
  S2-  S135  1  -0.00001044  0.83937155  0.65379425  1
  S2-  S136  1  0.25966407  0.04887479  0.14863885  1
  S2-  S137  1  0.21665230  0.12785391  0.64964663  1
  S2-  S138  1  0.21165138  0.36919924  0.15295992  1
  S2-  S139  1  0.32195610  0.35631692  0.65332408  1
  S2-  S140  1  0.25735410  0.59486869  0.16164217  1
  S2-  S141  1  0.22682563  0.58174732  0.64382510  1
  S2-  S142  1  0.22131651  0.84992198  0.19487822  1
  S2-  S143  1  0.23227774  0.83652899  0.65532088  1
  S2-  S144  1  0.51745764  0.11109170  0.14787903  1
  S2-  S145  1  0.48805843  0.12582512  0.65442008  1
  S2-  S146  1  0.51557653  0.36986527  0.14848771  1
  S2-  S147  1  0.56356845  0.33758420  0.67153776  1
  S2-  S148  1  0.49195359  0.59885860  0.15351191  1
  S2-  S149  1  0.47661295  0.52219957  0.64641297  1
  S2-  S150  1  0.41366370  0.88289373  0.14975326  1
  S2-  S151  1  0.47912036  0.88266346  0.65474335  1
  S2-  S152  1  0.79714707  0.13312693  0.16031453  1
  S2-  S153  1  0.75844445  0.22729420  0.63643472  1
  S2-  S154  1  0.77024369  0.38518385  0.15604065  1
  S2-  S155  1  0.74617466  0.45579161  0.65048844  1
  S2-  S156  1  0.84700994  0.62422482  0.14978251  1
  S2-  S157  1  0.67122909  0.64560975  0.68408494  1
  S2-  S158  1  0.83497896  0.90143532  0.14409204  1
  S2-  S159  1  0.75635457  0.85796002  0.65102610  1
  S2-  S160  1  0.14097518  -0.03502704  0.34209389  1
  S2-  S161  1  0.15614118  -0.00692980  0.85004669  1
  S2-  S162  1  0.12593366  0.33200015  0.35164771  1
  S2-  S163  1  0.10268485  0.26257202  0.83899764  1
  S2-  S164  1  0.09590813  0.53664614  0.30809266  1
  S2-  S165  1  0.12721539  0.50640660  0.84082283  1
  S2-  S166  1  0.11940326  0.75139214  0.33197983  1
  S2-  S167  1  0.12956257  0.77271434  0.86385071  1
  S2-  S168  1  0.38230092  -0.00793960  0.34375480  1
  S2-  S169  1  0.37198116  -0.00611341  0.84216474  1
  S2-  S170  1  0.36866124  0.24543316  0.34967158  1
  S2-  S171  1  0.33688621  0.24191830  0.84511909  1
  S2-  S172  1  0.27962189  0.47845955  0.35352106  1
  S2-  S173  1  0.36126673  0.46682367  0.84554384  1
  S2-  S174  1  0.35836315  0.76843296  0.34412760  1
  S2-  S175  1  0.37176289  0.74045993  0.85474389  1
  S2-  S176  1  0.62899435  0.00380559  0.34463569  1
  S2-  S177  1  0.73182511  0.01388958  0.85642108  1
  S2-  S178  1  0.64893808  0.23687983  0.34459527  1
  S2-  S179  1  0.61645456  0.23909431  0.83429514  1
  S2-  S180  1  0.69550242  0.48124193  0.35631648  1
  S2-  S181  1  0.58445359  0.45332813  0.81062799  1
  S2-  S182  1  0.63320364  0.76710585  0.34965122  1
  S2-  S183  1  0.63079079  0.66269632  0.85087081  1
  S2-  S184  1  0.88414284  -0.00724943  0.33894573  1
  S2-  S185  1  0.94819592  0.04862509  0.82916740  1
  S2-  S186  1  0.86916644  0.32904305  0.34792627  1
  S2-  S187  1  0.84377142  0.25844509  0.85104073  1
  S2-  S188  1  0.88413188  0.53342917  0.31007090  1
  S2-  S189  1  0.79386909  0.50224292  0.85140860  1
  S2-  S190  1  0.88782273  0.76418943  0.34225430  1
  S2-  S191  1  0.88936759  0.83480686  0.86360521  1
  S2-  S192  1  -0.00836492  0.11379427  0.44567641  1
  S2-  S193  1  0.00263488  0.12698380  0.94921720  1
  S2-  S194  1  -0.00948734  0.36437925  0.44685057  1
  S2-  S195  1  0.00085561  0.37850067  0.95152416  1
  S2-  S196  1  -0.00998539  0.60824257  0.43919821  1
  S2-  S197  1  0.00272135  0.63262584  0.94917774  1
  S2-  S198  1  -0.01039530  0.86437331  0.45119174  1
  S2-  S199  1  0.00544486  0.87878210  0.96613957  1
  S2-  S200  1  0.24254470  0.11155854  0.44846122  1
  S2-  S201  1  0.25205173  0.12623457  0.95426761  1
  S2-  S202  1  0.24190804  0.36165070  0.45913020  1
  S2-  S203  1  0.25281349  0.38061022  0.95470367  1
  S2-  S204  1  0.24008639  0.61732873  0.44473394  1
  S2-  S205  1  0.25325570  0.62983882  0.95781659  1
  S2-  S206  1  0.24004415  0.86269528  0.45138144  1
  S2-  S207  1  0.25357291  0.87561933  0.96710957  1
  S2-  S208  1  0.48806068  0.11055642  0.45208160  1
  S2-  S209  1  0.50496082  0.12749019  0.94479336  1
  S2-  S210  1  0.49169019  0.36513172  0.45955868  1
  S2-  S211  1  0.50895065  0.38675315  0.94504962  1
  S2-  S212  1  0.49264867  0.61212637  0.45381559  1
  S2-  S213  1  0.50225729  0.62436868  0.95263697  1
  S2-  S214  1  0.49268919  0.86408147  0.45178504  1
  S2-  S215  1  0.50402156  0.87501678  0.95929396  1
  S2-  S216  1  0.74074312  0.11357520  0.45686370  1
  S2-  S217  1  0.75471473  0.13059164  0.95656696  1
  S2-  S218  1  0.73845979  0.36053676  0.45803812  1
  S2-  S219  1  0.75341986  0.38168617  0.95410152  1
  S2-  S220  1  0.74165940  0.61100844  0.45210624  1
  S2-  S221  1  0.75548038  0.63101605  0.95728688  1
  S2-  S222  1  0.74104884  0.86502072  0.45034039  1
  S2-  S223  1  0.74988882  0.87343410  0.95847710  1
  S2-  S224  1  0.12881848  0.00229167  0.05005237  1
  S2-  S225  1  0.11136341  -0.01107969  0.54587073  1
  S2-  S226  1  0.12440443  0.25464818  0.04500035  1
  S2-  S227  1  0.11305569  0.23580401  0.53890451  1
  S2-  S228  1  0.12608895  0.50606606  0.04680604  1
  S2-  S229  1  0.11395167  0.49354861  0.52961913  1
  S2-  S230  1  0.12444305  0.75770339  0.06705962  1
  S2-  S231  1  0.11127497  0.73755228  0.54012634  1
  S2-  S232  1  0.38255450  0.00633501  0.04696849  1
  S2-  S233  1  0.36630027  -0.01173679  0.54659448  1
  S2-  S234  1  0.37761859  0.25766155  0.04589761  1
  S2-  S235  1  0.36581227  0.23869980  0.55215653  1
  S2-  S236  1  0.37561126  0.50365482  0.04677013  1
  S2-  S237  1  0.36053401  0.49164389  0.54262447  1
  S2-  S238  1  0.37893428  0.74993466  0.05531316  1
  S2-  S239  1  0.36461202  0.73726727  0.54853112  1
  S2-  S240  1  0.62936988  0.00175186  0.04432217  1
  S2-  S241  1  0.61629742  -0.00843844  0.54862649  1
  S2-  S242  1  0.63179896  0.25654304  0.04319703  1
  S2-  S243  1  0.60798436  0.23847929  0.54786020  1
  S2-  S244  1  0.63110048  0.50466901  0.05179189  1
  S2-  S245  1  0.61934355  0.49007485  0.54883433  1
  S2-  S246  1  0.62776105  0.74934351  0.04288533  1
  S2-  S247  1  0.61967299  0.73744750  0.55390600  1
  S2-  S248  1  0.87678405  0.00517301  0.03852876  1
  S2-  S249  1  0.86184648  -0.00759705  0.54562694  1
  S2-  S250  1  0.88079929  0.25578502  0.05074582  1
  S2-  S251  1  0.87039239  0.23766347  0.53632126  1
  S2-  S252  1  0.87866212  0.50356223  0.04226042  1
  S2-  S253  1  0.86343853  0.48487432  0.53860469  1
  S2-  S254  1  0.88225571  0.75423079  0.05351944  1
  S2-  S255  1  0.86091927  0.73914676  0.54426262  1
