# generated using pymatgen
data_La6Ce7Pr13Nd19Sm19(BiS2)64
_symmetry_space_group_name_H-M   'P 1'
_cell_length_a   16.02161670
_cell_length_b   15.99485015
_cell_length_c   27.50128179
_cell_angle_alpha   89.98495627
_cell_angle_beta   90.19879316
_cell_angle_gamma   90.03463589
_symmetry_Int_Tables_number   1
_chemical_formula_structural   La6Ce7Pr13Nd19Sm19(BiS2)64
_chemical_formula_sum   'La6 Ce7 Pr13 Nd19 Sm19 Bi64 S128'
_cell_volume   7047.52688522
_cell_formula_units_Z   1
loop_
 _symmetry_equiv_pos_site_id
 _symmetry_equiv_pos_as_xyz
  1  'x, y, z'
loop_
 _atom_type_symbol
 _atom_type_oxidation_number
  La3+  3.0
  Ce3+  3.0
  Pr3+  3.0
  Nd3+  3.0
  Sm3+  3.0
  Bi2+  2.0
  S2-  -2.0
loop_
 _atom_site_type_symbol
 _atom_site_label
 _atom_site_symmetry_multiplicity
 _atom_site_fract_x
 _atom_site_fract_y
 _atom_site_fract_z
 _atom_site_occupancy
  La3+  La0  1  0.36230697  0.21708270  0.91694671  1
  La3+  La1  1  0.76036356  0.35148088  0.10862119  1
  La3+  La2  1  0.51028175  0.13344489  0.59929138  1
  La3+  La3  1  0.24597055  0.39684909  0.57424083  1
  La3+  La4  1  0.12039238  0.24528494  0.38583370  1
  La3+  La5  1  0.61896950  0.01811087  0.42823352  1
  Ce3+  Ce6  1  0.49792759  0.64122272  0.56073541  1
  Ce3+  Ce7  1  0.12492806  0.01713199  0.44390426  1
  Ce3+  Ce8  1  0.12554663  0.50859581  0.43686913  1
  Ce3+  Ce9  1  0.24919696  0.88742787  0.55546901  1
  Ce3+  Ce10  1  0.86094760  0.47067315  0.94247125  1
  Ce3+  Ce11  1  0.23436277  0.34321247  0.04552349  1
  Ce3+  Ce12  1  0.36367578  -0.03077405  0.93480366  1
  Pr3+  Pr13  1  0.23251599  0.84399463  0.06009518  1
  Pr3+  Pr14  1  -0.00592647  0.64171195  0.56312677  1
  Pr3+  Pr15  1  0.36941910  0.52112741  0.43744323  1
  Pr3+  Pr16  1  0.10616547  0.48036512  0.90805479  1
  Pr3+  Pr17  1  0.49717097  0.39071578  0.56523568  1
  Pr3+  Pr18  1  0.10871186  0.21265600  0.91993880  1
  Pr3+  Pr19  1  0.48022603  0.58767988  0.07629522  1
  Pr3+  Pr20  1  0.59503967  0.71531823  0.91859532  1
  Pr3+  Pr21  1  0.48679673  0.33634043  0.06539346  1
  Pr3+  Pr22  1  -0.01214201  0.09699083  0.06629006  1
  Pr3+  Pr23  1  0.23710417  0.09504695  0.05895343  1
  Pr3+  Pr24  1  0.12027989  0.76001233  0.42941319  1
  Pr3+  Pr25  1  0.85555473  0.71948474  0.94286209  1
  Nd3+  Nd26  1  0.62213999  0.51507209  0.44127633  1
  Nd3+  Nd27  1  -0.01206190  0.59286410  0.06474379  1
  Nd3+  Nd28  1  -0.00075407  0.38957179  0.55866501  1
  Nd3+  Nd29  1  0.24064638  0.64801489  0.57640809  1
  Nd3+  Nd30  1  0.23264736  0.59158608  0.06685658  1
  Nd3+  Nd31  1  0.73435268  0.09415252  0.06898832  1
  Nd3+  Nd32  1  0.61495706  0.22469370  0.93792030  1
  Nd3+  Nd33  1  0.00182854  0.14319301  0.55813008  1
  Nd3+  Nd34  1  0.36896105  0.27362504  0.43396817  1
  Nd3+  Nd35  1  0.50072504  0.89078425  0.55808590  1
  Nd3+  Nd36  1  -0.00868300  0.34684520  0.05285684  1
  Nd3+  Nd37  1  0.10189431  0.72159296  0.92928805  1
  Nd3+  Nd38  1  0.74657852  0.89308983  0.55300702  1
  Nd3+  Nd39  1  0.48809726  0.84785867  0.06395164  1
  Nd3+  Nd40  1  0.61401930  -0.02581971  0.93174384  1
  Nd3+  Nd41  1  0.48773642  0.09419831  0.06108894  1
  Nd3+  Nd42  1  0.87462820  0.76582847  0.42744435  1
  Nd3+  Nd43  1  0.74787567  0.14329150  0.55494329  1
  Nd3+  Nd44  1  -0.00117545  0.89020853  0.55827288  1
  Sm3+  Sm45  1  0.37255441  0.76165846  0.43658735  1
  Sm3+  Sm46  1  0.61151410  0.46525012  0.94805685  1
  Sm3+  Sm47  1  0.61713987  0.26530150  0.44197229  1
  Sm3+  Sm48  1  0.72751724  0.59411407  0.06769411  1
  Sm3+  Sm49  1  0.86144576  0.22148238  0.94931579  1
  Sm3+  Sm50  1  0.87555314  0.02219039  0.44496565  1
  Sm3+  Sm51  1  0.87452215  0.51361987  0.43569666  1
  Sm3+  Sm52  1  0.11076549  -0.02968287  0.93832737  1
  Sm3+  Sm53  1  0.35784805  0.71742861  0.94793237  1
  Sm3+  Sm54  1  0.25145544  0.14546406  0.56265686  1
  Sm3+  Sm55  1  0.73401842  0.84548588  0.06445951  1
  Sm3+  Sm56  1  0.87577720  0.27203475  0.42928008  1
  Sm3+  Sm57  1  0.62439999  0.76691121  0.44168963  1
  Sm3+  Sm58  1  0.74696938  0.38645495  0.55252032  1
  Sm3+  Sm59  1  0.36085616  0.47235042  0.94107207  1
  Sm3+  Sm60  1  -0.01379034  0.84177137  0.05696625  1
  Sm3+  Sm61  1  0.75232784  0.64146381  0.55636291  1
  Sm3+  Sm62  1  0.37070073  0.01936698  0.44792887  1
  Sm3+  Sm63  1  0.85747727  -0.02887321  0.94962389  1
  Bi2+  Bi64  1  -0.01894767  0.10318238  0.28981068  1
  Bi2+  Bi65  1  0.00699080  0.17578751  0.79456472  1
  Bi2+  Bi66  1  -0.01888466  0.44116658  0.27931474  1
  Bi2+  Bi67  1  -0.01899780  0.36912931  0.78072546  1
  Bi2+  Bi68  1  0.01187496  0.63459785  0.29831149  1
  Bi2+  Bi69  1  -0.00228705  0.62268887  0.79523662  1
  Bi2+  Bi70  1  0.02406908  0.88259968  0.27323128  1
  Bi2+  Bi71  1  0.06602414  0.89324083  0.80124378  1
  Bi2+  Bi72  1  0.25055173  0.11160254  0.28287719  1
  Bi2+  Bi73  1  0.22249239  0.11751713  0.76220470  1
  Bi2+  Bi74  1  0.25711632  0.37909504  0.28987303  1
  Bi2+  Bi75  1  0.28523431  0.36242299  0.79174032  1
  Bi2+  Bi76  1  0.25999403  0.64163612  0.28459769  1
  Bi2+  Bi77  1  0.28213150  0.70417338  0.79609448  1
  Bi2+  Bi78  1  0.22012541  0.84343212  0.28915897  1
  Bi2+  Bi79  1  0.25387713  0.89080433  0.82805172  1
  Bi2+  Bi80  1  0.49626657  0.14727856  0.29644292  1
  Bi2+  Bi81  1  0.50163138  0.12170152  0.79222356  1
  Bi2+  Bi82  1  0.51309897  0.40627800  0.29195163  1
  Bi2+  Bi83  1  0.52774544  0.42866856  0.81138509  1
  Bi2+  Bi84  1  0.49268144  0.69273520  0.28357129  1
  Bi2+  Bi85  1  0.54765584  0.67044943  0.78639387  1
  Bi2+  Bi86  1  0.42738925  0.87708374  0.30814320  1
  Bi2+  Bi87  1  0.51245692  0.88928679  0.77337480  1
  Bi2+  Bi88  1  0.76402829  0.11937526  0.28314248  1
  Bi2+  Bi89  1  0.76632348  0.12332869  0.79643234  1
  Bi2+  Bi90  1  0.74256972  0.39200204  0.27173568  1
  Bi2+  Bi91  1  0.77205063  0.40526636  0.76374990  1
  Bi2+  Bi92  1  0.81407367  0.66119175  0.31175013  1
  Bi2+  Bi93  1  0.79018897  0.67516847  0.81920154  1
  Bi2+  Bi94  1  0.73945420  0.84140214  0.29413959  1
  Bi2+  Bi95  1  0.74974587  0.85819751  0.78747563  1
  Bi2+  Bi96  1  0.13232860  -0.01809442  0.19636735  1
  Bi2+  Bi97  1  0.07972527  -0.01308859  0.69981869  1
  Bi2+  Bi98  1  0.09853620  0.24478147  0.17674015  1
  Bi2+  Bi99  1  0.13120747  0.24089155  0.68822580  1
  Bi2+  Bi100  1  0.18440502  0.49708346  0.21392443  1
  Bi2+  Bi101  1  0.14579953  0.51853707  0.70650965  1
  Bi2+  Bi102  1  0.10724117  0.73612283  0.20794154  1
  Bi2+  Bi103  1  0.12252115  0.78220540  0.70889813  1
  Bi2+  Bi104  1  0.41281518  0.01931939  0.22470024  1
  Bi2+  Bi105  1  0.33666874  -0.03534312  0.73552985  1
  Bi2+  Bi106  1  0.35721830  0.28239847  0.18886861  1
  Bi2+  Bi107  1  0.41841967  0.31737655  0.71702358  1
  Bi2+  Bi108  1  0.41569200  0.53733096  0.22232263  1
  Bi2+  Bi109  1  0.38832427  0.58273065  0.72854074  1
  Bi2+  Bi110  1  0.36268656  0.79749582  0.21037518  1
  Bi2+  Bi111  1  0.39423730  0.78033616  0.70236652  1
  Bi2+  Bi112  1  0.60313530  -0.04531931  0.21394037  1
  Bi2+  Bi113  1  0.64387649  -0.01581135  0.70461593  1
  Bi2+  Bi114  1  0.61414082  0.20241241  0.21275096  1
  Bi2+  Bi115  1  0.66225069  0.27230820  0.70815233  1
  Bi2+  Bi116  1  0.68682864  0.57556670  0.23997651  1
  Bi2+  Bi117  1  0.70187031  0.58054307  0.72496140  1
  Bi2+  Bi118  1  0.61943569  0.76652593  0.18793048  1
  Bi2+  Bi119  1  0.60728926  0.74643554  0.68646108  1
  Bi2+  Bi120  1  0.83138634  -0.03832446  0.22244004  1
  Bi2+  Bi121  1  0.90012846  -0.00885822  0.75857507  1
  Bi2+  Bi122  1  0.86299573  0.26709485  0.22601118  1
  Bi2+  Bi123  1  0.87872321  0.24605736  0.70903434  1
  Bi2+  Bi124  1  0.91286072  0.57468104  0.20432117  1
  Bi2+  Bi125  1  0.89817853  0.52735144  0.70873199  1
  Bi2+  Bi126  1  0.81889544  0.75624062  0.19818284  1
  Bi2+  Bi127  1  0.87269717  0.73354169  0.72117649  1
  S2-  S128  1  0.00380500  0.10046146  0.16576177  1
  S2-  S129  1  -0.01770736  0.14247559  0.65658294  1
  S2-  S130  1  -0.05507618  0.34349356  0.14942924  1
  S2-  S131  1  0.07082156  0.39753398  0.65043018  1
  S2-  S132  1  0.10685556  0.59675538  0.13957407  1
  S2-  S133  1  0.09952580  0.64218185  0.64729768  1
  S2-  S134  1  0.02974908  0.85628606  0.15061082  1
  S2-  S135  1  -0.01455811  0.85879801  0.65466863  1
  S2-  S136  1  0.24331166  0.15555292  0.15357647  1
  S2-  S137  1  0.22027688  0.09621566  0.65614183  1
  S2-  S138  1  0.20694322  0.37391489  0.14191578  1
  S2-  S139  1  0.27276823  0.30821548  0.66210512  1
  S2-  S140  1  0.34704842  0.61200621  0.14544551  1
  S2-  S141  1  0.27657579  0.52784534  0.65050667  1
  S2-  S142  1  0.25705262  0.90867927  0.15186128  1
  S2-  S143  1  0.24988670  0.79690948  0.63900031  1
  S2-  S144  1  0.47625229  0.20511451  0.14137382  1
  S2-  S145  1  0.45157465  0.16283108  0.69298049  1
  S2-  S146  1  0.43893352  0.41343204  0.15415287  1
  S2-  S147  1  0.54973211  0.37058937  0.66083809  1
  S2-  S148  1  0.59660498  0.60766157  0.15286803  1
  S2-  S149  1  0.50508123  0.60459715  0.65514489  1
  S2-  S150  1  0.48721462  0.97082228  0.13698686  1
  S2-  S151  1  0.51203885  0.97122034  0.64478832  1
  S2-  S152  1  0.75147467  0.18941671  0.15323236  1
  S2-  S153  1  0.67611372  0.13037355  0.64487487  1
  S2-  S154  1  0.64410503  0.36105679  0.19033816  1
  S2-  S155  1  0.77961718  0.35349932  0.64552727  1
  S2-  S156  1  0.78254987  0.51666965  0.15045119  1
  S2-  S157  1  0.86096295  0.64768913  0.63271415  1
  S2-  S158  1  0.72944470  0.96296920  0.14038368  1
  S2-  S159  1  0.72786978  0.86543684  0.64988093  1
  S2-  S160  1  0.12305168  0.06957014  0.35115073  1
  S2-  S161  1  0.07964774  0.06672248  0.85852786  1
  S2-  S162  1  0.13268753  0.23587939  0.26917935  1
  S2-  S163  1  0.22973649  0.22258220  0.84355320  1
  S2-  S164  1  0.12319426  0.41147048  0.35110745  1
  S2-  S165  1  0.14061341  0.43070238  0.80815804  1
  S2-  S166  1  0.14859888  0.62589061  0.36337318  1
  S2-  S167  1  0.14812076  0.62842418  0.84978102  1
  S2-  S168  1  0.37183834  0.02677389  0.35000609  1
  S2-  S169  1  0.39318727  0.06558861  0.85543783  1
  S2-  S170  1  0.28736596  0.23216275  0.34731487  1
  S2-  S171  1  0.44456535  0.27504699  0.82880794  1
  S2-  S172  1  0.38351128  0.41068284  0.35733826  1
  S2-  S173  1  0.36649511  0.48534273  0.84276974  1
  S2-  S174  1  0.37915640  0.64831043  0.36108788  1
  S2-  S175  1  0.43005704  0.71871863  0.86002023  1
  S2-  S176  1  0.62307857  0.04621035  0.32999338  1
  S2-  S177  1  0.62565700  0.10549605  0.85919487  1
  S2-  S178  1  0.57910405  0.27401911  0.34579283  1
  S2-  S179  1  0.63274878  0.35506075  0.86656527  1
  S2-  S180  1  0.60370566  0.51477177  0.34270908  1
  S2-  S181  1  0.59360048  0.56352403  0.86438425  1
  S2-  S182  1  0.60040225  0.78808671  0.34656453  1
  S2-  S183  1  0.61624837  0.85747636  0.85610909  1
  S2-  S184  1  0.86958437  0.02152857  0.34776665  1
  S2-  S185  1  0.83007858  -0.02122752  0.85331693  1
  S2-  S186  1  0.95535370  0.23323216  0.34542011  1
  S2-  S187  1  0.85822022  0.22516803  0.85054348  1
  S2-  S188  1  0.86062935  0.42802712  0.35059269  1
  S2-  S189  1  0.94438526  0.48379006  0.85692263  1
  S2-  S190  1  0.99423267  0.79197829  0.35591321  1
  S2-  S191  1  0.96082637  0.73823246  0.86150441  1
  S2-  S192  1  0.00011121  0.14435690  0.45385211  1
  S2-  S193  1  -0.01842854  0.09302099  0.96002860  1
  S2-  S194  1  -0.00461496  0.38889997  0.45380023  1
  S2-  S195  1  -0.00978533  0.34336882  0.94750926  1
  S2-  S196  1  -0.00840049  0.63714738  0.45462096  1
  S2-  S197  1  -0.01464427  0.59596204  0.95977973  1
  S2-  S198  1  -0.00415775  0.89758957  0.45395479  1
  S2-  S199  1  -0.01668217  0.85211571  0.95595380  1
  S2-  S200  1  0.24750030  0.14301737  0.45818101  1
  S2-  S201  1  0.23508942  0.09080841  0.95171755  1
  S2-  S202  1  0.25065572  0.39151577  0.46280467  1
  S2-  S203  1  0.23092320  0.35279109  0.94057824  1
  S2-  S204  1  0.24906731  0.64479196  0.46617743  1
  S2-  S205  1  0.23567340  0.59537317  0.95687800  1
  S2-  S206  1  0.24973184  0.88842211  0.44805504  1
  S2-  S207  1  0.23249757  0.84259464  0.95294699  1
  S2-  S208  1  0.49296154  0.14272378  0.44729752  1
  S2-  S209  1  0.48954996  0.09651170  0.95766122  1
  S2-  S210  1  0.50015803  0.39158365  0.45944839  1
  S2-  S211  1  0.48120015  0.34634513  0.95731195  1
  S2-  S212  1  0.50400029  0.64397917  0.45589703  1
  S2-  S213  1  0.48201455  0.59416550  0.96717511  1
  S2-  S214  1  0.49530311  0.88953595  0.45214747  1
  S2-  S215  1  0.48457010  0.84468022  0.95896216  1
  S2-  S216  1  0.74881779  0.14592958  0.44761502  1
  S2-  S217  1  0.74063647  0.09736113  0.96235699  1
  S2-  S218  1  0.74412005  0.38730403  0.44963187  1
  S2-  S219  1  0.74433430  0.34645468  0.96078454  1
  S2-  S220  1  0.74906761  0.64033842  0.45188751  1
  S2-  S221  1  0.73282283  0.59509720  0.96122049  1
  S2-  S222  1  0.75049296  0.89359299  0.44680385  1
  S2-  S223  1  0.73540614  0.84447956  0.96059189  1
  S2-  S224  1  0.10830312  -0.03053165  0.04248144  1
  S2-  S225  1  0.12509345  0.01513815  0.54842309  1
  S2-  S226  1  0.11003838  0.21762447  0.03480450  1
  S2-  S227  1  0.12541801  0.26429263  0.55308057  1
  S2-  S228  1  0.11036899  0.47145056  0.03650817  1
  S2-  S229  1  0.11929289  0.51811335  0.54336630  1
  S2-  S230  1  0.10902160  0.72127761  0.03901009  1
  S2-  S231  1  0.11863704  0.76819139  0.53737855  1
  S2-  S232  1  0.35814546  -0.03139233  0.03970476  1
  S2-  S233  1  0.37378235  0.01757257  0.55162241  1
  S2-  S234  1  0.35732540  0.21841826  0.03333086  1
  S2-  S235  1  0.38189549  0.25788601  0.55250911  1
  S2-  S236  1  0.35753113  0.46718037  0.04363048  1
  S2-  S237  1  0.37619056  0.51847461  0.54502373  1
  S2-  S238  1  0.36181569  0.72403169  0.04951990  1
  S2-  S239  1  0.37713306  0.76587102  0.54132752  1
  S2-  S240  1  0.61387710  -0.03188060  0.03774258  1
  S2-  S241  1  0.62251115  0.01869061  0.53619938  1
  S2-  S242  1  0.61577020  0.21812854  0.04528326  1
  S2-  S243  1  0.62062196  0.26338821  0.54532498  1
  S2-  S244  1  0.61558203  0.46267360  0.05396542  1
  S2-  S245  1  0.62930542  0.51574904  0.54834250  1
  S2-  S246  1  0.61101216  0.72325980  0.04895517  1
  S2-  S247  1  0.62607788  0.76403196  0.54475214  1
  S2-  S248  1  0.86556475  -0.03277898  0.05222351  1
  S2-  S249  1  0.87297691  0.01749880  0.54957681  1
  S2-  S250  1  0.86311131  0.22275648  0.05149481  1
  S2-  S251  1  0.87375420  0.26537622  0.53760570  1
  S2-  S252  1  0.86354505  0.47034744  0.04607475  1
  S2-  S253  1  0.86914830  0.50957938  0.53967456  1
  S2-  S254  1  0.85958747  0.71893268  0.05201920  1
  S2-  S255  1  0.87054059  0.77019031  0.53410602  1
