# generated using pymatgen
data_La6Ce7Pr13Nd19Sm19(BiS2)64
_symmetry_space_group_name_H-M   'P 1'
_cell_length_a   16.02640454
_cell_length_b   16.04334947
_cell_length_c   27.43129508
_cell_angle_alpha   89.84953517
_cell_angle_beta   89.90201217
_cell_angle_gamma   89.90666613
_symmetry_Int_Tables_number   1
_chemical_formula_structural   La6Ce7Pr13Nd19Sm19(BiS2)64
_chemical_formula_sum   'La6 Ce7 Pr13 Nd19 Sm19 Bi64 S128'
_cell_volume   7053.01408220
_cell_formula_units_Z   1
loop_
 _symmetry_equiv_pos_site_id
 _symmetry_equiv_pos_as_xyz
  1  'x, y, z'
loop_
 _atom_type_symbol
 _atom_type_oxidation_number
  La3+  3.0
  Ce3+  3.0
  Pr3+  3.0
  Nd3+  3.0
  Sm3+  3.0
  Bi2+  2.0
  S2-  -2.0
loop_
 _atom_site_type_symbol
 _atom_site_label
 _atom_site_symmetry_multiplicity
 _atom_site_fract_x
 _atom_site_fract_y
 _atom_site_fract_z
 _atom_site_occupancy
  La3+  La0  1  0.78175620  0.61146552  0.08247197  1
  La3+  La1  1  0.87675013  -0.00983617  0.42725647  1
  La3+  La2  1  0.25067634  0.61360324  0.60540075  1
  La3+  La3  1  0.38209207  0.23355567  0.42899977  1
  La3+  La4  1  0.02679767  0.12739755  0.10133983  1
  La3+  La5  1  0.61767424  0.48860000  0.38498043  1
  Ce3+  Ce6  1  0.14559688  0.23656752  0.93196537  1
  Ce3+  Ce7  1  0.66021005  -0.00161386  0.92952140  1
  Ce3+  Ce8  1  0.63417207  0.24066678  0.43938589  1
  Ce3+  Ce9  1  0.25939690  0.36805254  0.55694347  1
  Ce3+  Ce10  1  0.27862794  0.86615792  0.05752709  1
  Ce3+  Ce11  1  0.13036794  0.49197323  0.43134427  1
  Ce3+  Ce12  1  0.38267444  0.49064566  0.43795345  1
  Pr3+  Pr13  1  0.02942820  0.86767612  0.06995279  1
  Pr3+  Pr14  1  0.51761487  0.60618447  0.06904810  1
  Pr3+  Pr15  1  0.90676032  -0.00843580  0.93314101  1
  Pr3+  Pr16  1  0.50881299  0.61356771  0.56237422  1
  Pr3+  Pr17  1  0.77906886  0.36677860  0.05951320  1
  Pr3+  Pr18  1  0.15092339  0.49390440  0.92675722  1
  Pr3+  Pr19  1  0.50882600  0.11641463  0.56656473  1
  Pr3+  Pr20  1  0.88221151  0.23805730  0.44065182  1
  Pr3+  Pr21  1  0.41337551  0.74119557  0.93179666  1
  Pr3+  Pr22  1  0.88671090  0.73875895  0.43447020  1
  Pr3+  Pr23  1  0.00587017  0.10984584  0.56746660  1
  Pr3+  Pr24  1  0.77948499  0.11452980  0.05936243  1
  Pr3+  Pr25  1  0.13402458  0.23633595  0.44787655  1
  Nd3+  Nd26  1  0.65234609  0.48808318  0.92707462  1
  Nd3+  Nd27  1  0.50810308  0.86083985  0.55787680  1
  Nd3+  Nd28  1  0.03008895  0.61216544  0.06450477  1
  Nd3+  Nd29  1  0.50808305  0.36725758  0.55388873  1
  Nd3+  Nd30  1  0.00906099  0.61116840  0.56167858  1
  Nd3+  Nd31  1  0.40568362  -0.00699122  0.94270040  1
  Nd3+  Nd32  1  0.88123637  0.49074370  0.43196642  1
  Nd3+  Nd33  1  0.75992990  0.10959886  0.57817975  1
  Nd3+  Nd34  1  0.53068836  0.85821634  0.06373324  1
  Nd3+  Nd35  1  0.65630584  0.24121065  0.93033605  1
  Nd3+  Nd36  1  0.65745388  0.73727926  0.94374121  1
  Nd3+  Nd37  1  0.40095865  0.48748022  0.92890251  1
  Nd3+  Nd38  1  0.00823891  0.86073783  0.55652066  1
  Nd3+  Nd39  1  0.75824729  0.36518583  0.55563782  1
  Nd3+  Nd40  1  0.52866692  0.11503753  0.06945667  1
  Nd3+  Nd41  1  0.27656817  0.61093857  0.05593896  1
  Nd3+  Nd42  1  0.78211083  0.86723538  0.05940445  1
  Nd3+  Nd43  1  0.91140115  0.74085861  0.93701872  1
  Nd3+  Nd44  1  0.52666984  0.36283244  0.06165407  1
  Sm3+  Sm45  1  0.02805439  0.36492411  0.05352466  1
  Sm3+  Sm46  1  0.38510763  -0.01307296  0.43765373  1
  Sm3+  Sm47  1  0.01054174  0.36639430  0.55724396  1
  Sm3+  Sm48  1  0.90216227  0.49549327  0.93394309  1
  Sm3+  Sm49  1  0.64162704  0.73670412  0.43132595  1
  Sm3+  Sm50  1  0.27214789  0.36007190  0.04893813  1
  Sm3+  Sm51  1  0.90877683  0.23993125  0.93512265  1
  Sm3+  Sm52  1  0.63590035  -0.01169656  0.44322133  1
  Sm3+  Sm53  1  0.13329411  0.74071945  0.43762163  1
  Sm3+  Sm54  1  0.14643148  -0.00789581  0.94026513  1
  Sm3+  Sm55  1  0.38481679  0.73746881  0.44551594  1
  Sm3+  Sm56  1  0.25935753  0.86562735  0.56880195  1
  Sm3+  Sm57  1  0.75287286  0.61227512  0.55992271  1
  Sm3+  Sm58  1  0.26523572  0.10940006  0.57075936  1
  Sm3+  Sm59  1  0.27136279  0.11351739  0.05638419  1
  Sm3+  Sm60  1  0.15693210  0.74226030  0.94494841  1
  Sm3+  Sm61  1  0.13463377  -0.01130512  0.44396451  1
  Sm3+  Sm62  1  0.40343258  0.23785273  0.94222368  1
  Sm3+  Sm63  1  0.76017403  0.86328355  0.56402852  1
  Bi2+  Bi64  1  0.03220833  0.10073526  0.31247566  1
  Bi2+  Bi65  1  -0.06305817  0.11537494  0.81006641  1
  Bi2+  Bi66  1  0.00971058  0.36058073  0.28496631  1
  Bi2+  Bi67  1  -0.02842485  0.34744929  0.74508590  1
  Bi2+  Bi68  1  0.00087571  0.61596150  0.28655084  1
  Bi2+  Bi69  1  -0.07954073  0.59555247  0.80043140  1
  Bi2+  Bi70  1  0.07292706  0.86045746  0.29364437  1
  Bi2+  Bi71  1  -0.03571577  0.85519797  0.80527275  1
  Bi2+  Bi72  1  0.27028558  0.18561518  0.29633780  1
  Bi2+  Bi73  1  0.20221969  0.17541647  0.80789775  1
  Bi2+  Bi74  1  0.19941057  0.44076621  0.27736186  1
  Bi2+  Bi75  1  0.23492481  0.36724319  0.78631676  1
  Bi2+  Bi76  1  0.19744204  0.62548888  0.31860206  1
  Bi2+  Bi77  1  0.18662086  0.63895950  0.81393137  1
  Bi2+  Bi78  1  0.27251455  0.87643604  0.29136845  1
  Bi2+  Bi79  1  0.13699992  0.86847898  0.75049908  1
  Bi2+  Bi80  1  0.52885088  0.12711433  0.28422640  1
  Bi2+  Bi81  1  0.45779787  0.13400326  0.80809274  1
  Bi2+  Bi82  1  0.47324298  0.36912491  0.28530987  1
  Bi2+  Bi83  1  0.51781536  0.39206502  0.78771722  1
  Bi2+  Bi84  1  0.38679655  0.63915109  0.28352268  1
  Bi2+  Bi85  1  0.45870071  0.65726347  0.80288671  1
  Bi2+  Bi86  1  0.46400658  0.94006156  0.30977222  1
  Bi2+  Bi87  1  0.52526329  0.89375763  0.75551833  1
  Bi2+  Bi88  1  0.75430280  0.13473839  0.28805338  1
  Bi2+  Bi89  1  0.73680913  0.11361838  0.78854009  1
  Bi2+  Bi90  1  0.74630479  0.36658761  0.28639592  1
  Bi2+  Bi91  1  0.77163845  0.39910615  0.78957516  1
  Bi2+  Bi92  1  0.74839450  0.64968359  0.29462759  1
  Bi2+  Bi93  1  0.71256558  0.69921823  0.78411832  1
  Bi2+  Bi94  1  0.64982543  0.88230472  0.30786689  1
  Bi2+  Bi95  1  0.72243325  0.91332518  0.74148418  1
  Bi2+  Bi96  1  0.24553884  0.03236085  0.21851321  1
  Bi2+  Bi97  1  0.11001222  0.04531000  0.69627723  1
  Bi2+  Bi98  1  0.16221486  0.29229398  0.20246726  1
  Bi2+  Bi99  1  0.12521791  0.24278631  0.70517521  1
  Bi2+  Bi100  1  0.10646851  0.51547807  0.17957357  1
  Bi2+  Bi101  1  0.10540175  0.47765754  0.70918482  1
  Bi2+  Bi102  1  0.14010171  0.69869458  0.21435233  1
  Bi2+  Bi103  1  0.00018037  0.73142676  0.71536524  1
  Bi2+  Bi104  1  0.43459508  0.03780160  0.19063162  1
  Bi2+  Bi105  1  0.27560026  0.00517331  0.75725951  1
  Bi2+  Bi106  1  0.39899574  0.23094201  0.21302095  1
  Bi2+  Bi107  1  0.32489273  0.23003596  0.72026336  1
  Bi2+  Bi108  1  0.34761265  0.49695534  0.20589543  1
  Bi2+  Bi109  1  0.37696150  0.48002478  0.70923495  1
  Bi2+  Bi110  1  0.32637607  0.77568324  0.19586355  1
  Bi2+  Bi111  1  0.36554965  0.74746021  0.71235871  1
  Bi2+  Bi112  1  0.64587444  0.04631979  0.20213454  1
  Bi2+  Bi113  1  0.51409027  0.06827323  0.70714371  1
  Bi2+  Bi114  1  0.65797238  0.24157722  0.20772901  1
  Bi2+  Bi115  1  0.59747395  0.28356836  0.70558823  1
  Bi2+  Bi116  1  0.63265390  0.54545943  0.18625339  1
  Bi2+  Bi117  1  0.63094128  0.54527604  0.73403035  1
  Bi2+  Bi118  1  0.53713825  0.78905302  0.23262165  1
  Bi2+  Bi119  1  0.60417243  0.76177481  0.68487971  1
  Bi2+  Bi120  1  0.89080925  -0.01372442  0.21100914  1
  Bi2+  Bi121  1  0.89682302  -0.00512395  0.70659015  1
  Bi2+  Bi122  1  0.90419621  0.24008674  0.21690108  1
  Bi2+  Bi123  1  0.81432287  0.24904890  0.70996576  1
  Bi2+  Bi124  1  0.91585830  0.48797512  0.21115235  1
  Bi2+  Bi125  1  0.82444177  0.55605687  0.70389084  1
  Bi2+  Bi126  1  0.89484076  0.76364696  0.20041086  1
  Bi2+  Bi127  1  0.80767767  0.74792610  0.67953868  1
  S2-  S128  1  0.02109510  0.10529848  0.21791961  1
  S2-  S129  1  -0.10257549  0.13239355  0.64594463  1
  S2-  S130  1  0.01490151  0.29160122  0.14276595  1
  S2-  S131  1  -0.01661726  0.41994817  0.64875539  1
  S2-  S132  1  -0.06964167  0.62893416  0.14503193  1
  S2-  S133  1  0.08663300  0.61912477  0.64999421  1
  S2-  S134  1  0.00656311  0.89666946  0.16902166  1
  S2-  S135  1  0.00147396  0.87969184  0.65456399  1
  S2-  S136  1  0.19256701  0.13484788  0.14295278  1
  S2-  S137  1  0.24693504  -0.00978942  0.64365992  1
  S2-  S138  1  0.28235767  0.35973744  0.14701664  1
  S2-  S139  1  0.24701643  0.44316741  0.64497380  1
  S2-  S140  1  0.35647392  0.62128686  0.14241122  1
  S2-  S141  1  0.26235430  0.61025456  0.73128787  1
  S2-  S142  1  0.23026926  0.89595938  0.14885263  1
  S2-  S143  1  0.24412521  0.77355253  0.65081236  1
  S2-  S144  1  0.52569857  0.24337821  0.13898530  1
  S2-  S145  1  0.38997056  0.14055428  0.64235722  1
  S2-  S146  1  0.51285323  0.46951496  0.14084493  1
  S2-  S147  1  0.48434750  0.37300923  0.65354062  1
  S2-  S148  1  0.55486593  0.69872450  0.15451935  1
  S2-  S149  1  0.41263399  0.61422783  0.65036402  1
  S2-  S150  1  0.55082792  0.91545038  0.15663990  1
  S2-  S151  1  0.46610746  0.87379929  0.65475295  1
  S2-  S152  1  0.86458206  0.12210658  0.14655168  1
  S2-  S153  1  0.62657909  0.13701987  0.64435774  1
  S2-  S154  1  0.77847938  0.46114042  0.14550895  1
  S2-  S155  1  0.72748936  0.36399360  0.65484071  1
  S2-  S156  1  0.75516877  0.68135237  0.18907593  1
  S2-  S157  1  0.63409020  0.60879083  0.63701012  1
  S2-  S158  1  0.78992221  0.88838491  0.15917614  1
  S2-  S159  1  0.75860637  0.96610016  0.64411596  1
  S2-  S160  1  0.15956087  -0.00926372  0.34686131  1
  S2-  S161  1  0.03785426  -0.01147544  0.86008528  1
  S2-  S162  1  0.12006995  0.24216697  0.34827852  1
  S2-  S163  1  0.03569665  0.23228315  0.85589966  1
  S2-  S164  1  0.00851535  0.48429708  0.35813835  1
  S2-  S165  1  0.01834779  0.50289747  0.85603326  1
  S2-  S166  1  0.01941794  0.74879663  0.35868829  1
  S2-  S167  1  0.06438343  0.74023624  0.86256733  1
  S2-  S168  1  0.37281772  0.09576658  0.36123620  1
  S2-  S169  1  0.38074882  -0.00915038  0.84451925  1
  S2-  S170  1  0.35306594  0.32199211  0.34186530  1
  S2-  S171  1  0.41795743  0.28468207  0.84789749  1
  S2-  S172  1  0.44870806  0.50773736  0.34787208  1
  S2-  S173  1  0.27633022  0.49987329  0.85136459  1
  S2-  S174  1  0.38582607  0.77135339  0.34837081  1
  S2-  S175  1  0.31169098  0.73530157  0.84578524  1
  S2-  S176  1  0.73208923  0.00511153  0.36173085  1
  S2-  S177  1  0.61331294  0.11829649  0.85960803  1
  S2-  S178  1  0.62039668  0.31401331  0.34994632  1
  S2-  S179  1  0.64417344  0.35318092  0.85264345  1
  S2-  S180  1  0.62013892  0.47715029  0.27324740  1
  S2-  S181  1  0.51877876  0.52178996  0.85685315  1
  S2-  S182  1  0.61178747  0.65589115  0.34578329  1
  S2-  S183  1  0.55128525  0.74702181  0.86115139  1
  S2-  S184  1  0.94422711  -0.03480062  0.33155054  1
  S2-  S185  1  0.78409059  -0.00839802  0.85626300  1
  S2-  S186  1  0.86452799  0.22977486  0.34067689  1
  S2-  S187  1  0.82464698  0.23259411  0.84828449  1
  S2-  S188  1  0.78654947  0.50008778  0.34660567  1
  S2-  S189  1  0.78393163  0.51373128  0.85859785  1
  S2-  S190  1  0.78040029  0.76995083  0.35472692  1
  S2-  S191  1  0.83486106  0.74850315  0.84568734  1
  S2-  S192  1  0.00800154  0.11054787  0.45765189  1
  S2-  S193  1  0.02784574  0.11511073  0.95865092  1
  S2-  S194  1  0.00778359  0.36215899  0.45518667  1
  S2-  S195  1  0.02755005  0.36854930  0.95203093  1
  S2-  S196  1  0.01100628  0.61551594  0.45677896  1
  S2-  S197  1  0.03176413  0.61726332  0.96134503  1
  S2-  S198  1  0.00987299  0.86879674  0.45345541  1
  S2-  S199  1  0.03187930  0.86519508  0.96330845  1
  S2-  S200  1  0.25702450  0.10854916  0.46402932  1
  S2-  S201  1  0.27541248  0.11374998  0.95064261  1
  S2-  S202  1  0.25484031  0.36615128  0.45172663  1
  S2-  S203  1  0.27403229  0.35827882  0.94610820  1
  S2-  S204  1  0.25762319  0.61820663  0.44366309  1
  S2-  S205  1  0.27974551  0.61963877  0.95316353  1
  S2-  S206  1  0.25924817  0.86427150  0.45438768  1
  S2-  S207  1  0.27606013  0.87028252  0.95117233  1
  S2-  S208  1  0.51248876  0.10974671  0.45600190  1
  S2-  S209  1  0.52633543  0.11762648  0.96424822  1
  S2-  S210  1  0.50715105  0.36571367  0.44970032  1
  S2-  S211  1  0.52440977  0.36134346  0.95624656  1
  S2-  S212  1  0.50865786  0.61712402  0.45457172  1
  S2-  S213  1  0.52928887  0.61335958  0.96242663  1
  S2-  S214  1  0.51160234  0.86284370  0.45134802  1
  S2-  S215  1  0.53432907  0.87344650  0.95718170  1
  S2-  S216  1  0.75638297  0.11651367  0.46366890  1
  S2-  S217  1  0.78228887  0.11924257  0.95598655  1
  S2-  S218  1  0.75948335  0.36450754  0.45048848  1
  S2-  S219  1  0.78410211  0.36632409  0.95459924  1
  S2-  S220  1  0.76112815  0.61596512  0.45659930  1
  S2-  S221  1  0.78316011  0.62015356  0.96215003  1
  S2-  S222  1  0.75833578  0.86403852  0.46135890  1
  S2-  S223  1  0.77946758  0.86512807  0.95527729  1
  S2-  S224  1  0.14987727  -0.00782318  0.04394576  1
  S2-  S225  1  0.13135985  -0.01333181  0.54638103  1
  S2-  S226  1  0.14789470  0.23827342  0.03846882  1
  S2-  S227  1  0.13378151  0.23644619  0.55532051  1
  S2-  S228  1  0.15258033  0.48756951  0.03809899  1
  S2-  S229  1  0.13227435  0.48959857  0.53968312  1
  S2-  S230  1  0.15361299  0.73894407  0.05070438  1
  S2-  S231  1  0.13535526  0.73866564  0.54138021  1
  S2-  S232  1  0.40256580  -0.00811108  0.04935181  1
  S2-  S233  1  0.38442135  -0.01408659  0.54152644  1
  S2-  S234  1  0.39454722  0.23550739  0.04536194  1
  S2-  S235  1  0.38163678  0.24159660  0.53835356  1
  S2-  S236  1  0.39367666  0.48198779  0.03537014  1
  S2-  S237  1  0.38060496  0.49252968  0.54272460  1
  S2-  S238  1  0.40222583  0.74284684  0.04032671  1
  S2-  S239  1  0.37983102  0.74004411  0.54706869  1
  S2-  S240  1  0.65253004  -0.00908226  0.04521103  1
  S2-  S241  1  0.63117116  -0.01460939  0.54580048  1
  S2-  S242  1  0.65583673  0.24027718  0.04216058  1
  S2-  S243  1  0.63435174  0.24230051  0.54318598  1
  S2-  S244  1  0.65279127  0.48970770  0.04068654  1
  S2-  S245  1  0.63523361  0.48672466  0.54351546  1
  S2-  S246  1  0.65900852  0.73924235  0.04859189  1
  S2-  S247  1  0.63753369  0.74247414  0.53935877  1
  S2-  S248  1  0.90850339  -0.00765398  0.04659722  1
  S2-  S249  1  0.88334346  -0.01341836  0.54135027  1
  S2-  S250  1  0.90490428  0.24124697  0.04130472  1
  S2-  S251  1  0.88659918  0.24297436  0.54636635  1
  S2-  S252  1  0.90785100  0.48942067  0.04203905  1
  S2-  S253  1  0.88186658  0.49128492  0.54238384  1
  S2-  S254  1  0.90564529  0.74316610  0.04567049  1
  S2-  S255  1  0.88217513  0.73632745  0.54564691  1
