# generated using pymatgen
data_La6Ce7Pr13Nd19Sm19(BiS2)64
_symmetry_space_group_name_H-M   'P 1'
_cell_length_a   16.07194610
_cell_length_b   16.07128900
_cell_length_c   27.36190229
_cell_angle_alpha   89.82852584
_cell_angle_beta   90.36891315
_cell_angle_gamma   89.96458556
_symmetry_Int_Tables_number   1
_chemical_formula_structural   La6Ce7Pr13Nd19Sm19(BiS2)64
_chemical_formula_sum   'La6 Ce7 Pr13 Nd19 Sm19 Bi64 S128'
_cell_volume   7067.31469645
_cell_formula_units_Z   1
loop_
 _symmetry_equiv_pos_site_id
 _symmetry_equiv_pos_as_xyz
  1  'x, y, z'
loop_
 _atom_type_symbol
 _atom_type_oxidation_number
  La3+  3.0
  Ce3+  3.0
  Pr3+  3.0
  Nd3+  3.0
  Sm3+  3.0
  Bi2+  2.0
  S2-  -2.0
loop_
 _atom_site_type_symbol
 _atom_site_label
 _atom_site_symmetry_multiplicity
 _atom_site_fract_x
 _atom_site_fract_y
 _atom_site_fract_z
 _atom_site_occupancy
  La3+  La0  1  0.01308308  0.38427470  0.07233866  1
  La3+  La1  1  0.87734892  0.75499851  0.88485130  1
  La3+  La2  1  0.61723568  0.47671610  0.42093049  1
  La3+  La3  1  0.01484219  0.87358513  0.06603820  1
  La3+  La4  1  0.74832073  0.11611446  0.11796447  1
  La3+  La5  1  0.00736922  0.13068985  0.07118315  1
  Ce3+  Ce6  1  0.11523862  0.48397215  0.42936075  1
  Ce3+  Ce7  1  0.49049344  0.10724161  0.56031028  1
  Ce3+  Ce8  1  -0.00812970  0.60563364  0.56001149  1
  Ce3+  Ce9  1  0.38153917  0.75504820  0.93546515  1
  Ce3+  Ce10  1  0.64280801  0.75232548  0.94810997  1
  Ce3+  Ce11  1  0.51348772  0.87682096  0.05684936  1
  Ce3+  Ce12  1  0.13931536  0.49989791  0.93706845  1
  Pr3+  Pr13  1  0.88738162  0.25210365  0.94051814  1
  Pr3+  Pr14  1  0.51665059  0.37494410  0.06191903  1
  Pr3+  Pr15  1  0.74072671  0.10414092  0.57173533  1
  Pr3+  Pr16  1  0.36417993  -0.01897974  0.43711511  1
  Pr3+  Pr17  1  0.60933128  0.23574790  0.43814482  1
  Pr3+  Pr18  1  0.77040224  0.87213776  0.07466795  1
  Pr3+  Pr19  1  0.38603064  0.00457787  0.94617646  1
  Pr3+  Pr20  1  0.63937629  0.50267637  0.93432060  1
  Pr3+  Pr21  1  -0.01080910  0.09973377  0.57302449  1
  Pr3+  Pr22  1  0.26328877  0.37726812  0.07338136  1
  Pr3+  Pr23  1  0.88702071  0.00124448  0.94685148  1
  Pr3+  Pr24  1  0.49222005  0.36553975  0.56745546  1
  Pr3+  Pr25  1  0.76548435  0.62193293  0.06475086  1
  Nd3+  Nd26  1  0.64320344  0.00021114  0.94419864  1
  Nd3+  Nd27  1  0.61945776  0.73423890  0.44005797  1
  Nd3+  Nd28  1  0.49188529  0.85630906  0.55983341  1
  Nd3+  Nd29  1  0.73778900  0.35947471  0.56868356  1
  Nd3+  Nd30  1  0.86729846  0.73871437  0.43487125  1
  Nd3+  Nd31  1  0.13697636  0.76021521  0.92625979  1
  Nd3+  Nd32  1  0.51513530  0.12546044  0.06173276  1
  Nd3+  Nd33  1  0.86673268  -0.01538837  0.43950439  1
  Nd3+  Nd34  1  0.86672681  0.48409071  0.42883007  1
  Nd3+  Nd35  1  0.74144657  0.85409855  0.56955942  1
  Nd3+  Nd36  1  0.38699310  0.25080601  0.94685755  1
  Nd3+  Nd37  1  0.61823255  -0.01476416  0.44051503  1
  Nd3+  Nd38  1  -0.00012322  0.84988705  0.57419544  1
  Nd3+  Nd39  1  0.11418469  0.73807643  0.43850417  1
  Nd3+  Nd40  1  -0.01104443  0.35614976  0.55897275  1
  Nd3+  Nd41  1  0.24487932  0.85077536  0.56873237  1
  Nd3+  Nd42  1  0.86373998  0.23152567  0.43178000  1
  Nd3+  Nd43  1  0.11353469  0.23389029  0.44533371  1
  Nd3+  Nd44  1  0.76900925  0.37599054  0.09071175  1
  Sm3+  Sm45  1  0.24188355  0.60472624  0.55129730  1
  Sm3+  Sm46  1  0.49386458  0.60405323  0.54938308  1
  Sm3+  Sm47  1  0.13626371  0.00589755  0.94223215  1
  Sm3+  Sm48  1  0.88896066  0.50465534  0.93648359  1
  Sm3+  Sm49  1  0.51412469  0.62453733  0.05057139  1
  Sm3+  Sm50  1  0.25829189  0.12494634  0.07213003  1
  Sm3+  Sm51  1  0.64317799  0.25253942  0.94925764  1
  Sm3+  Sm52  1  0.24456121  0.10928406  0.55453564  1
  Sm3+  Sm53  1  0.01399592  0.62513614  0.04753568  1
  Sm3+  Sm54  1  0.36555231  0.48419624  0.42760837  1
  Sm3+  Sm55  1  0.38749694  0.49865875  0.94386753  1
  Sm3+  Sm56  1  0.74420390  0.60629992  0.56166498  1
  Sm3+  Sm57  1  0.36667849  0.23486217  0.43714926  1
  Sm3+  Sm58  1  0.11384589  -0.01472503  0.44990273  1
  Sm3+  Sm59  1  0.13692156  0.25426502  0.94677448  1
  Sm3+  Sm60  1  0.36537238  0.73685745  0.44138982  1
  Sm3+  Sm61  1  0.25991840  0.87402009  0.06564728  1
  Sm3+  Sm62  1  0.24524127  0.35968384  0.55846374  1
  Sm3+  Sm63  1  0.26387646  0.62715186  0.05190514  1
  Bi2+  Bi64  1  0.01379788  0.09360659  0.30241099  1
  Bi2+  Bi65  1  0.06047268  0.16392979  0.75577227  1
  Bi2+  Bi66  1  0.06959905  0.38496312  0.29467515  1
  Bi2+  Bi67  1  -0.06006662  0.32674450  0.80361827  1
  Bi2+  Bi68  1  -0.01545288  0.66770137  0.26329006  1
  Bi2+  Bi69  1  0.07936382  0.58871214  0.78013484  1
  Bi2+  Bi70  1  -0.00538651  0.86205885  0.29415397  1
  Bi2+  Bi71  1  0.01778926  0.89353508  0.79232037  1
  Bi2+  Bi72  1  0.25354820  0.12062738  0.28449104  1
  Bi2+  Bi73  1  0.26411525  0.13840799  0.81306809  1
  Bi2+  Bi74  1  0.26164750  0.32545306  0.29905720  1
  Bi2+  Bi75  1  0.22579811  0.38740300  0.79805463  1
  Bi2+  Bi76  1  0.26594022  0.58897207  0.27634841  1
  Bi2+  Bi77  1  0.27311092  0.63099436  0.78882225  1
  Bi2+  Bi78  1  0.24219241  0.85676541  0.29040704  1
  Bi2+  Bi79  1  0.29168659  0.88549408  0.78336157  1
  Bi2+  Bi80  1  0.45789127  0.14947393  0.27356270  1
  Bi2+  Bi81  1  0.45527858  0.12552567  0.78291736  1
  Bi2+  Bi82  1  0.46087039  0.37611748  0.29015848  1
  Bi2+  Bi83  1  0.47641027  0.39892719  0.80372261  1
  Bi2+  Bi84  1  0.43326649  0.64528955  0.23255140  1
  Bi2+  Bi85  1  0.45173899  0.65793246  0.74750356  1
  Bi2+  Bi86  1  0.43778351  0.89539243  0.28687840  1
  Bi2+  Bi87  1  0.49125649  0.83817359  0.78643900  1
  Bi2+  Bi88  1  0.71342518  0.15771080  0.32315905  1
  Bi2+  Bi89  1  0.72712716  0.15984327  0.79569276  1
  Bi2+  Bi90  1  0.75243233  0.39234659  0.28502677  1
  Bi2+  Bi91  1  0.75216130  0.38403149  0.78389680  1
  Bi2+  Bi92  1  0.80538682  0.66555528  0.30858475  1
  Bi2+  Bi93  1  0.71020873  0.61876835  0.79264229  1
  Bi2+  Bi94  1  0.71899069  0.85604885  0.30492408  1
  Bi2+  Bi95  1  0.74413399  0.90449238  0.79562800  1
  Bi2+  Bi96  1  0.14459442  -0.00872492  0.21508298  1
  Bi2+  Bi97  1  0.18384770  0.01863713  0.72332550  1
  Bi2+  Bi98  1  0.13581710  0.24413114  0.21761338  1
  Bi2+  Bi99  1  0.11796052  0.33633660  0.70504982  1
  Bi2+  Bi100  1  0.13596629  0.51200659  0.20361415  1
  Bi2+  Bi101  1  0.19188804  0.51960637  0.68941333  1
  Bi2+  Bi102  1  0.17528372  0.73695938  0.20847665  1
  Bi2+  Bi103  1  0.12943518  0.73284006  0.70407784  1
  Bi2+  Bi104  1  0.33713774  0.03218709  0.18821870  1
  Bi2+  Bi105  1  0.37639628  0.03587659  0.67949642  1
  Bi2+  Bi106  1  0.33938152  0.23251152  0.18089775  1
  Bi2+  Bi107  1  0.31070220  0.26853060  0.72083080  1
  Bi2+  Bi108  1  0.33961050  0.42658701  0.20371624  1
  Bi2+  Bi109  1  0.39048143  0.46935087  0.70971730  1
  Bi2+  Bi110  1  0.35906286  0.82581472  0.18801770  1
  Bi2+  Bi111  1  0.38382308  0.83695692  0.68399243  1
  Bi2+  Bi112  1  0.58464032  -0.02136858  0.21829072  1
  Bi2+  Bi113  1  0.56114281  -0.00658193  0.72157800  1
  Bi2+  Bi114  1  0.58697988  0.26059441  0.21779365  1
  Bi2+  Bi115  1  0.59026749  0.28027354  0.74295510  1
  Bi2+  Bi116  1  0.61832044  0.52362947  0.21582118  1
  Bi2+  Bi117  1  0.63922124  0.48678219  0.69620623  1
  Bi2+  Bi118  1  0.62276716  0.71921725  0.23546682  1
  Bi2+  Bi119  1  0.62640799  0.73627828  0.71612301  1
  Bi2+  Bi120  1  0.87545123  -0.02688803  0.21447384  1
  Bi2+  Bi121  1  0.86176317  0.05885022  0.70026428  1
  Bi2+  Bi122  1  0.88046882  0.24208985  0.22629857  1
  Bi2+  Bi123  1  0.86570733  0.31531963  0.69350304  1
  Bi2+  Bi124  1  0.89215340  0.50914928  0.21087730  1
  Bi2+  Bi125  1  0.90107534  0.50867023  0.75830275  1
  Bi2+  Bi126  1  0.81010301  0.73521584  0.20220612  1
  Bi2+  Bi127  1  0.87084094  0.81877865  0.68431032  1
  S2-  S128  1  -0.08590001  0.12196419  0.15901201  1
  S2-  S129  1  -0.01384787  0.17614792  0.66509551  1
  S2-  S130  1  -0.08627012  0.36730814  0.15746926  1
  S2-  S131  1  -0.00468722  0.42422580  0.65021038  1
  S2-  S132  1  0.00286109  0.57167408  0.14143490  1
  S2-  S133  1  -0.01295514  0.70379460  0.64270812  1
  S2-  S134  1  -0.08784008  0.85677006  0.15093428  1
  S2-  S135  1  -0.03378185  0.96441413  0.65017517  1
  S2-  S136  1  0.13583567  0.11937141  0.14483136  1
  S2-  S137  1  0.23230068  0.13063343  0.65161329  1
  S2-  S138  1  0.13961866  0.37281512  0.14570250  1
  S2-  S139  1  0.35725473  0.35140182  0.63519902  1
  S2-  S140  1  0.25097876  0.61915901  0.14896427  1
  S2-  S141  1  0.25533209  0.65970796  0.64422627  1
  S2-  S142  1  0.14231627  0.86842748  0.13987008  1
  S2-  S143  1  0.14685115  0.86320117  0.64940811  1
  S2-  S144  1  0.57703691  0.11742335  0.15469717  1
  S2-  S145  1  0.53596622  0.11556851  0.65394831  1
  S2-  S146  1  0.55496125  0.39000023  0.15976793  1
  S2-  S147  1  0.60786277  0.34941344  0.64440467  1
  S2-  S148  1  0.51732905  0.61312529  0.14770385  1
  S2-  S149  1  0.49821378  0.55232729  0.64217646  1
  S2-  S150  1  0.52435611  0.87471228  0.15467529  1
  S2-  S151  1  0.56333457  0.85386788  0.65034919  1
  S2-  S152  1  0.76808116  0.10926386  0.24073976  1
  S2-  S153  1  0.76813466  0.19369676  0.66210484  1
  S2-  S154  1  0.73936335  0.27125620  0.16919086  1
  S2-  S155  1  0.76593462  0.49135346  0.63661956  1
  S2-  S156  1  0.75239637  0.52145230  0.14886101  1
  S2-  S157  1  0.75222182  0.72267752  0.64036775  1
  S2-  S158  1  0.72800544  0.95486133  0.16176106  1
  S2-  S159  1  0.75348339  0.97442931  0.64684675  1
  S2-  S160  1  0.09980632  -0.02489348  0.35256736  1
  S2-  S161  1  0.12980090  -0.04554056  0.84847170  1
  S2-  S162  1  0.07372966  0.22572560  0.34849859  1
  S2-  S163  1  0.12913854  0.19436128  0.85458356  1
  S2-  S164  1  0.23941161  0.48258581  0.35576597  1
  S2-  S165  1  0.09335136  0.45147542  0.84709772  1
  S2-  S166  1  0.07846214  0.73453902  0.34137944  1
  S2-  S167  1  0.04011224  0.75379750  0.84245063  1
  S2-  S168  1  0.37901860  0.02827548  0.34163778  1
  S2-  S169  1  0.37895408  0.00484009  0.84614108  1
  S2-  S170  1  0.47106467  0.23718701  0.35957427  1
  S2-  S171  1  0.39635330  0.25658985  0.84852733  1
  S2-  S172  1  0.48164365  0.49594433  0.35293253  1
  S2-  S173  1  0.34700351  0.49586686  0.84830703  1
  S2-  S174  1  0.35366570  0.76876813  0.34588782  1
  S2-  S175  1  0.27348323  0.76277645  0.85741492  1
  S2-  S176  1  0.63961680  0.00727360  0.34201271  1
  S2-  S177  1  0.65749726  0.01378366  0.84394948  1
  S2-  S178  1  0.65281558  0.32353920  0.35196170  1
  S2-  S179  1  0.63252606  0.25564217  0.85017193  1
  S2-  S180  1  0.74690774  0.51845030  0.35447971  1
  S2-  S181  1  0.59915745  0.52029182  0.83606778  1
  S2-  S182  1  0.60600241  0.75045686  0.34126862  1
  S2-  S183  1  0.70153550  0.76642618  0.85671782  1
  S2-  S184  1  0.86739360  0.09820889  0.36205704  1
  S2-  S185  1  0.88176286  -0.06810715  0.85405187  1
  S2-  S186  1  0.86102889  0.30278048  0.33278079  1
  S2-  S187  1  0.87489457  0.18078491  0.84639661  1
  S2-  S188  1  0.99755068  0.48940037  0.35575384  1
  S2-  S189  1  0.86169221  0.58525324  0.84962173  1
  S2-  S190  1  0.86981040  0.86629675  0.36273143  1
  S2-  S191  1  0.87028074  0.77726732  0.77403221  1
  S2-  S192  1  -0.00653905  0.10872547  0.46440506  1
  S2-  S193  1  0.01464365  0.12761899  0.96043779  1
  S2-  S194  1  -0.01097634  0.35496432  0.45341807  1
  S2-  S195  1  0.01284089  0.37761630  0.95808498  1
  S2-  S196  1  -0.00952030  0.61422497  0.45356410  1
  S2-  S197  1  0.01412095  0.62638798  0.94534424  1
  S2-  S198  1  -0.00443363  0.86104647  0.46330251  1
  S2-  S199  1  0.01670686  0.87967042  0.95791377  1
  S2-  S200  1  0.24095213  0.10999551  0.44930181  1
  S2-  S201  1  0.26063148  0.12892081  0.96340259  1
  S2-  S202  1  0.24236604  0.35486428  0.45483525  1
  S2-  S203  1  0.26401777  0.37522252  0.95943574  1
  S2-  S204  1  0.24221539  0.61532737  0.44808389  1
  S2-  S205  1  0.26397765  0.62361680  0.94934762  1
  S2-  S206  1  0.23940636  0.85946062  0.45766514  1
  S2-  S207  1  0.26102364  0.88162272  0.96092464  1
  S2-  S208  1  0.48783105  0.10480374  0.45507067  1
  S2-  S209  1  0.51645647  0.12813762  0.95493531  1
  S2-  S210  1  0.48450689  0.36174382  0.45895150  1
  S2-  S211  1  0.51343128  0.37576782  0.95480676  1
  S2-  S212  1  0.48877734  0.61487593  0.44721128  1
  S2-  S213  1  0.50861732  0.62799702  0.94605633  1
  S2-  S214  1  0.49177357  0.85872011  0.45190492  1
  S2-  S215  1  0.51236504  0.87700896  0.94944230  1
  S2-  S216  1  0.73751637  0.11049174  0.46125578  1
  S2-  S217  1  0.76059077  0.12772866  0.95325200  1
  S2-  S218  1  0.74540918  0.35646745  0.45976265  1
  S2-  S219  1  0.76397680  0.37928714  0.94162139  1
  S2-  S220  1  0.74420015  0.61502191  0.45674719  1
  S2-  S221  1  0.76351505  0.62564812  0.95704782  1
  S2-  S222  1  0.73847370  0.85934899  0.46069303  1
  S2-  S223  1  0.76470229  0.87446283  0.96379879  1
  S2-  S224  1  0.14189632  0.00267889  0.04523264  1
  S2-  S225  1  0.12384956  -0.01462341  0.55157025  1
  S2-  S226  1  0.14116802  0.25194342  0.04799363  1
  S2-  S227  1  0.12087935  0.23457488  0.55107817  1
  S2-  S228  1  0.14330169  0.50313262  0.04192809  1
  S2-  S229  1  0.11994488  0.48092019  0.54026196  1
  S2-  S230  1  0.14081600  0.74593390  0.03790667  1
  S2-  S231  1  0.12174718  0.72923850  0.54261618  1
  S2-  S232  1  0.38488531  0.00118118  0.05271502  1
  S2-  S233  1  0.36400793  -0.01946350  0.54479275  1
  S2-  S234  1  0.38728701  0.24929271  0.05237343  1
  S2-  S235  1  0.36651018  0.23131343  0.54046262  1
  S2-  S236  1  0.38889306  0.50104177  0.04871516  1
  S2-  S237  1  0.36385353  0.48620206  0.53481727  1
  S2-  S238  1  0.38845262  0.75004983  0.04351236  1
  S2-  S239  1  0.36947626  0.72898392  0.54459482  1
  S2-  S240  1  0.63934480  0.00129952  0.04937569  1
  S2-  S241  1  0.61385781  -0.01875803  0.54564842  1
  S2-  S242  1  0.64295220  0.25021679  0.05277208  1
  S2-  S243  1  0.61477072  0.23040591  0.54454170  1
  S2-  S244  1  0.63787127  0.49864947  0.04157936  1
  S2-  S245  1  0.61842736  0.48637464  0.53412655  1
  S2-  S246  1  0.63827729  0.74856419  0.05456384  1
  S2-  S247  1  0.61317266  0.72900942  0.54460363  1
  S2-  S248  1  0.88416861  0.00392938  0.05291774  1
  S2-  S249  1  0.86724390  -0.02200071  0.54344291  1
  S2-  S250  1  0.88432859  0.25861826  0.04795786  1
  S2-  S251  1  0.86678961  0.23146303  0.54681729  1
  S2-  S252  1  0.88609599  0.50005222  0.03997314  1
  S2-  S253  1  0.87141818  0.48396716  0.53586749  1
  S2-  S254  1  0.89107615  0.74226483  0.05087578  1
  S2-  S255  1  0.86969561  0.73244310  0.53921578  1
