# generated using pymatgen
data_La6Ce7Pr13Nd19Sm19(BiS2)64
_symmetry_space_group_name_H-M   'P 1'
_cell_length_a   16.11182913
_cell_length_b   16.06392910
_cell_length_c   27.35434700
_cell_angle_alpha   90.25096845
_cell_angle_beta   89.82018413
_cell_angle_gamma   90.11049263
_symmetry_Int_Tables_number   1
_chemical_formula_structural   La6Ce7Pr13Nd19Sm19(BiS2)64
_chemical_formula_sum   'La6 Ce7 Pr13 Nd19 Sm19 Bi64 S128'
_cell_volume   7079.71665325
_cell_formula_units_Z   1
loop_
 _symmetry_equiv_pos_site_id
 _symmetry_equiv_pos_as_xyz
  1  'x, y, z'
loop_
 _atom_type_symbol
 _atom_type_oxidation_number
  La3+  3.0
  Ce3+  3.0
  Pr3+  3.0
  Nd3+  3.0
  Sm3+  3.0
  Bi2+  2.0
  S2-  -2.0
loop_
 _atom_site_type_symbol
 _atom_site_label
 _atom_site_symmetry_multiplicity
 _atom_site_fract_x
 _atom_site_fract_y
 _atom_site_fract_z
 _atom_site_occupancy
  La3+  La0  1  0.24451751  0.61187724  0.57509829  1
  La3+  La1  1  0.87933842  0.75457831  0.89348828  1
  La3+  La2  1  0.73351015  0.60354856  0.57773443  1
  La3+  La3  1  0.36177202  0.74212975  0.39196960  1
  La3+  La4  1  0.25859447  0.12771000  0.09417081  1
  La3+  La5  1  -0.00835912  0.12029819  0.11070701  1
  Ce3+  Ce6  1  0.73854636  0.85885092  0.56027631  1
  Ce3+  Ce7  1  0.61745267  0.23893049  0.42914210  1
  Ce3+  Ce8  1  0.25399243  0.87241909  0.05938235  1
  Ce3+  Ce9  1  -0.01263818  0.61199004  0.56823243  1
  Ce3+  Ce10  1  0.11537793  -0.01253942  0.43932471  1
  Ce3+  Ce11  1  0.63245750  0.50046919  0.93285920  1
  Ce3+  Ce12  1  0.87716056  -0.00791390  0.94488940  1
  Pr3+  Pr13  1  0.60811253  -0.01870593  0.44040412  1
  Pr3+  Pr14  1  0.48702482  0.61291658  0.56315640  1
  Pr3+  Pr15  1  0.12038483  0.73434299  0.44708465  1
  Pr3+  Pr16  1  0.75612124  0.62397424  0.04486851  1
  Pr3+  Pr17  1  0.61211534  0.72970822  0.43353270  1
  Pr3+  Pr18  1  0.86003665  0.22858387  0.42153613  1
  Pr3+  Pr19  1  0.12686762  -0.00331191  0.95280349  1
  Pr3+  Pr20  1  0.37829066  0.24462285  0.94000291  1
  Pr3+  Pr21  1  0.50358452  0.62211066  0.05982205  1
  Pr3+  Pr22  1  0.86393276  0.73251019  0.43793223  1
  Pr3+  Pr23  1  -0.01126948  0.35225938  0.57169447  1
  Pr3+  Pr24  1  0.12692594  0.24304914  0.94915118  1
  Pr3+  Pr25  1  0.75491782  0.12278176  0.06422245  1
  Nd3+  Nd26  1  0.88019992  0.24580788  0.93657909  1
  Nd3+  Nd27  1  0.73923875  0.11141727  0.55400695  1
  Nd3+  Nd28  1  0.86783666  0.48913431  0.44041398  1
  Nd3+  Nd29  1  0.49025957  0.11530902  0.55260464  1
  Nd3+  Nd30  1  0.63042588  0.24605039  0.94328940  1
  Nd3+  Nd31  1  0.89155649  0.48829608  0.89953285  1
  Nd3+  Nd32  1  0.37671730  0.49567647  0.94264357  1
  Nd3+  Nd33  1  0.48543816  0.85976940  0.55652941  1
  Nd3+  Nd34  1  0.24965350  0.37091531  0.06523621  1
  Nd3+  Nd35  1  0.49040263  0.36136897  0.55263320  1
  Nd3+  Nd36  1  0.50388722  0.37332023  0.05363807  1
  Nd3+  Nd37  1  0.75491889  0.86844887  0.06207999  1
  Nd3+  Nd38  1  0.00442834  0.86639091  0.06676348  1
  Nd3+  Nd39  1  0.12727212  0.74627369  0.93481928  1
  Nd3+  Nd40  1  0.36278205  -0.00914983  0.43495750  1
  Nd3+  Nd41  1  0.62479658  0.74800382  0.93186496  1
  Nd3+  Nd42  1  0.00171624  0.37117490  0.06424382  1
  Nd3+  Nd43  1  0.23709617  0.11454082  0.55232901  1
  Nd3+  Nd44  1  0.50386017  0.12492722  0.06805278  1
  Sm3+  Sm45  1  0.12417797  0.49634258  0.94422675  1
  Sm3+  Sm46  1  0.37749258  -0.00158619  0.94891559  1
  Sm3+  Sm47  1  -0.01039803  0.86117492  0.55670965  1
  Sm3+  Sm48  1  0.00182777  0.62663494  0.05487212  1
  Sm3+  Sm49  1  -0.01337621  0.11134967  0.55390740  1
  Sm3+  Sm50  1  0.38092796  0.74586468  0.93428110  1
  Sm3+  Sm51  1  0.74170018  0.36110984  0.55395040  1
  Sm3+  Sm52  1  0.86124219  -0.02024887  0.43392673  1
  Sm3+  Sm53  1  0.50184958  0.87058720  0.06302229  1
  Sm3+  Sm54  1  0.36262896  0.23859281  0.43866818  1
  Sm3+  Sm55  1  0.62733377  -0.00382693  0.95152779  1
  Sm3+  Sm56  1  0.61461852  0.49036467  0.43586727  1
  Sm3+  Sm57  1  0.10485263  0.24500032  0.42859904  1
  Sm3+  Sm58  1  0.23891817  0.35989395  0.55241204  1
  Sm3+  Sm59  1  0.11675123  0.48798508  0.45238933  1
  Sm3+  Sm60  1  0.25357273  0.62356462  0.05491805  1
  Sm3+  Sm61  1  0.36465772  0.49122236  0.43856107  1
  Sm3+  Sm62  1  0.75822920  0.37443317  0.04940003  1
  Sm3+  Sm63  1  0.24085871  0.86425293  0.55483284  1
  Bi2+  Bi64  1  0.01912441  0.12979298  0.31148689  1
  Bi2+  Bi65  1  -0.00531035  0.15231197  0.74598437  1
  Bi2+  Bi66  1  0.00179680  0.43336787  0.29308142  1
  Bi2+  Bi67  1  0.02275107  0.36218477  0.78864287  1
  Bi2+  Bi68  1  -0.01364124  0.65527951  0.28829254  1
  Bi2+  Bi69  1  0.03143918  0.63630602  0.78664269  1
  Bi2+  Bi70  1  -0.03278817  0.85092214  0.28504514  1
  Bi2+  Bi71  1  0.00737882  0.96530485  0.78890156  1
  Bi2+  Bi72  1  0.26854607  0.10222275  0.30043530  1
  Bi2+  Bi73  1  0.20406561  0.15008674  0.80590912  1
  Bi2+  Bi74  1  0.24177132  0.39338957  0.28464387  1
  Bi2+  Bi75  1  0.25885648  0.42145490  0.80200929  1
  Bi2+  Bi76  1  0.23706728  0.58803294  0.28666754  1
  Bi2+  Bi77  1  0.27707623  0.68656960  0.81988076  1
  Bi2+  Bi78  1  0.18774900  0.84098762  0.28612987  1
  Bi2+  Bi79  1  0.25473037  0.87591245  0.79906706  1
  Bi2+  Bi80  1  0.52393426  0.21491701  0.29402673  1
  Bi2+  Bi81  1  0.47914643  0.17783028  0.81407372  1
  Bi2+  Bi82  1  0.52762327  0.41647291  0.31862082  1
  Bi2+  Bi83  1  0.49510842  0.34401398  0.75141311  1
  Bi2+  Bi84  1  0.51694124  0.61574893  0.29351955  1
  Bi2+  Bi85  1  0.45893314  0.62740505  0.78875906  1
  Bi2+  Bi86  1  0.52307241  0.91328543  0.28918757  1
  Bi2+  Bi87  1  0.47061773  0.87888440  0.79064373  1
  Bi2+  Bi88  1  0.74132372  0.09808458  0.28766752  1
  Bi2+  Bi89  1  0.75543600  0.11870727  0.80221272  1
  Bi2+  Bi90  1  0.72722640  0.39384824  0.29780676  1
  Bi2+  Bi91  1  0.75914253  0.30696656  0.77318017  1
  Bi2+  Bi92  1  0.76542863  0.59756809  0.28475330  1
  Bi2+  Bi93  1  0.72592305  0.62578864  0.78511958  1
  Bi2+  Bi94  1  0.75273998  0.81309530  0.28018236  1
  Bi2+  Bi95  1  0.74092089  0.90021834  0.78919658  1
  Bi2+  Bi96  1  0.09704379  -0.04281592  0.21671357  1
  Bi2+  Bi97  1  0.14655476  0.02548900  0.71109913  1
  Bi2+  Bi98  1  0.11467391  0.28849223  0.21940527  1
  Bi2+  Bi99  1  0.20128749  0.29027287  0.72345261  1
  Bi2+  Bi100  1  0.11263733  0.47681097  0.19746553  1
  Bi2+  Bi101  1  0.19416364  0.57166937  0.73722752  1
  Bi2+  Bi102  1  0.12732425  0.67384500  0.20348466  1
  Bi2+  Bi103  1  0.12973599  0.82833888  0.71376354  1
  Bi2+  Bi104  1  0.36190350  -0.01385769  0.20538058  1
  Bi2+  Bi105  1  0.36121061  0.02999333  0.75152014  1
  Bi2+  Bi106  1  0.38384937  0.26865916  0.21504394  1
  Bi2+  Bi107  1  0.37780424  0.21019879  0.69781591  1
  Bi2+  Bi108  1  0.39058449  0.46654105  0.22251952  1
  Bi2+  Bi109  1  0.36908420  0.48803403  0.70959627  1
  Bi2+  Bi110  1  0.37409827  0.74824026  0.19419103  1
  Bi2+  Bi111  1  0.38118596  0.75931858  0.71156635  1
  Bi2+  Bi112  1  0.58861346  0.07946748  0.21671866  1
  Bi2+  Bi113  1  0.59355789  0.02405668  0.75176886  1
  Bi2+  Bi114  1  0.64729363  0.26499507  0.20553403  1
  Bi2+  Bi115  1  0.63723504  0.20039601  0.70260045  1
  Bi2+  Bi116  1  0.58969962  0.48183172  0.21635626  1
  Bi2+  Bi117  1  0.62237301  0.47485072  0.70673595  1
  Bi2+  Bi118  1  0.62890757  0.75300559  0.19290663  1
  Bi2+  Bi119  1  0.62287389  0.76176008  0.69635573  1
  Bi2+  Bi120  1  0.82728251  -0.03187451  0.21590607  1
  Bi2+  Bi121  1  0.85513548  0.01885825  0.71975855  1
  Bi2+  Bi122  1  0.84672150  0.26254765  0.21619066  1
  Bi2+  Bi123  1  0.87299495  0.27086281  0.68347528  1
  Bi2+  Bi124  1  0.85934805  0.46157483  0.21727552  1
  Bi2+  Bi125  1  0.88492131  0.51331800  0.70012158  1
  Bi2+  Bi126  1  0.86835174  0.72216536  0.20190490  1
  Bi2+  Bi127  1  0.89131365  0.77436638  0.69163241  1
  S2-  S128  1  0.03192818  0.11889564  0.21673399  1
  S2-  S129  1  0.00521713  0.20276651  0.63421247  1
  S2-  S130  1  -0.01221458  0.28784686  0.15072495  1
  S2-  S131  1  -0.00703794  0.40405978  0.67161327  1
  S2-  S132  1  0.00809875  0.72862688  0.13594047  1
  S2-  S133  1  -0.00218739  0.63667165  0.66558006  1
  S2-  S134  1  -0.02732593  0.95313930  0.15175673  1
  S2-  S135  1  0.00202132  0.89804728  0.65160613  1
  S2-  S136  1  0.22571094  0.06951102  0.19100276  1
  S2-  S137  1  0.24373286  0.12078291  0.65045327  1
  S2-  S138  1  0.24993518  0.28225436  0.15063555  1
  S2-  S139  1  0.25967675  0.38731258  0.64770295  1
  S2-  S140  1  0.28217356  0.62727951  0.15077045  1
  S2-  S141  1  0.37121581  0.61835549  0.64413723  1
  S2-  S142  1  0.25966306  0.86432778  0.15697909  1
  S2-  S143  1  0.26130286  0.84948267  0.65200454  1
  S2-  S144  1  0.41421276  0.12584851  0.15275012  1
  S2-  S145  1  0.50214324  0.12042837  0.65061546  1
  S2-  S146  1  0.49028958  0.37088252  0.15206683  1
  S2-  S147  1  0.53288253  0.37505300  0.64822079  1
  S2-  S148  1  0.50979633  0.65518714  0.15831006  1
  S2-  S149  1  0.59095611  0.61259266  0.64580830  1
  S2-  S150  1  0.48434073  0.87572499  0.16086842  1
  S2-  S151  1  0.50632820  0.85149514  0.65623933  1
  S2-  S152  1  0.82968880  0.12645834  0.15420751  1
  S2-  S153  1  0.77060062  0.12654418  0.65070920  1
  S2-  S154  1  0.75594031  0.36937737  0.14657376  1
  S2-  S155  1  0.75144704  0.44275069  0.64230820  1
  S2-  S156  1  0.73712102  0.65539769  0.14470895  1
  S2-  S157  1  0.78495301  0.65299597  0.67230401  1
  S2-  S158  1  0.71546924  0.89743012  0.15802332  1
  S2-  S159  1  0.74221023  0.86407941  0.65844782  1
  S2-  S160  1  0.13888583  -0.00619155  0.34193980  1
  S2-  S161  1  0.14996557  -0.00461849  0.85225459  1
  S2-  S162  1  0.16806331  0.21644385  0.33505335  1
  S2-  S163  1  0.09479234  0.26347418  0.85018590  1
  S2-  S164  1  0.12960478  0.48788333  0.35412341  1
  S2-  S165  1  0.05172511  0.49830869  0.85454912  1
  S2-  S166  1  0.19042900  0.71874917  0.35609932  1
  S2-  S167  1  0.04217667  0.75575773  0.85034937  1
  S2-  S168  1  0.40021038  -0.00431925  0.33731994  1
  S2-  S169  1  0.40927645  0.02775370  0.85467036  1
  S2-  S170  1  0.36922492  0.21854860  0.34187677  1
  S2-  S171  1  0.33043987  0.25622998  0.84429600  1
  S2-  S172  1  0.36953936  0.57873827  0.35332208  1
  S2-  S173  1  0.39789057  0.49320992  0.84451700  1
  S2-  S174  1  0.34499843  0.80058725  0.28920517  1
  S2-  S175  1  0.49676146  0.75547299  0.85973576  1
  S2-  S176  1  0.63964669  -0.02023183  0.34184466  1
  S2-  S177  1  0.64501302  -0.00064514  0.85462223  1
  S2-  S178  1  0.72631899  0.24016336  0.35204343  1
  S2-  S179  1  0.63742129  0.25277102  0.84527711  1
  S2-  S180  1  0.64402166  0.60118518  0.36148070  1
  S2-  S181  1  0.62647794  0.52923342  0.83654066  1
  S2-  S182  1  0.52309189  0.76528443  0.34630947  1
  S2-  S183  1  0.71704110  0.76342431  0.84852165  1
  S2-  S184  1  0.87330160  0.08037685  0.35378790  1
  S2-  S185  1  0.88088586  -0.07835964  0.85528059  1
  S2-  S186  1  0.98079008  0.28274587  0.35577597  1
  S2-  S187  1  0.88723959  0.33070613  0.84962406  1
  S2-  S188  1  0.87590860  0.60580526  0.36439119  1
  S2-  S189  1  0.84509343  0.52138116  0.80296346  1
  S2-  S190  1  0.85201405  0.85321345  0.36194051  1
  S2-  S191  1  0.88319962  0.72250584  0.78378832  1
  S2-  S192  1  -0.00845478  0.11061381  0.45171198  1
  S2-  S193  1  -0.00002623  0.11916529  0.94406467  1
  S2-  S194  1  -0.00831629  0.36864182  0.46297834  1
  S2-  S195  1  0.00164733  0.37365547  0.95901017  1
  S2-  S196  1  -0.00380958  0.61139607  0.46239767  1
  S2-  S197  1  0.00107764  0.62045444  0.95224650  1
  S2-  S198  1  -0.00613742  0.86043955  0.45265415  1
  S2-  S199  1  0.00384925  0.86914493  0.95927600  1
  S2-  S200  1  0.23730380  0.11737280  0.44749935  1
  S2-  S201  1  0.25523028  0.12073410  0.96058695  1
  S2-  S202  1  0.24013117  0.36258242  0.44739068  1
  S2-  S203  1  0.24954176  0.37303392  0.95848486  1
  S2-  S204  1  0.24184295  0.60764307  0.46430445  1
  S2-  S205  1  0.25200242  0.61938222  0.95060709  1
  S2-  S206  1  0.24447582  0.86283235  0.44926742  1
  S2-  S207  1  0.25750879  0.86972009  0.95216308  1
  S2-  S208  1  0.48893277  0.11598806  0.44681901  1
  S2-  S209  1  0.50502472  0.12179707  0.96185263  1
  S2-  S210  1  0.48785943  0.36269657  0.44725649  1
  S2-  S211  1  0.50522398  0.37223889  0.94769693  1
  S2-  S212  1  0.48745736  0.60890921  0.45626118  1
  S2-  S213  1  0.50201650  0.61906277  0.95369480  1
  S2-  S214  1  0.47863921  0.85933506  0.45070160  1
  S2-  S215  1  0.50100460  0.87635610  0.95848463  1
  S2-  S216  1  0.73533940  0.10368344  0.45055017  1
  S2-  S217  1  0.75304672  0.12134293  0.95662711  1
  S2-  S218  1  0.74082164  0.36767744  0.45067195  1
  S2-  S219  1  0.75616930  0.37512620  0.94579125  1
  S2-  S220  1  0.74127951  0.60793013  0.46677225  1
  S2-  S221  1  0.76785783  0.61687217  0.93928956  1
  S2-  S222  1  0.73372574  0.85878565  0.45606932  1
  S2-  S223  1  0.74843045  0.87133535  0.95658121  1
  S2-  S224  1  0.12904155  0.00206252  0.06005889  1
  S2-  S225  1  0.11337392  -0.01167444  0.54645803  1
  S2-  S226  1  0.12309987  0.24038425  0.05398314  1
  S2-  S227  1  0.11656027  0.23723684  0.53479362  1
  S2-  S228  1  0.12704857  0.50008127  0.04931630  1
  S2-  S229  1  0.11605361  0.48525894  0.55713731  1
  S2-  S230  1  0.13322127  0.74475754  0.04105650  1
  S2-  S231  1  0.11693149  0.73940569  0.55416078  1
  S2-  S232  1  0.37943220  -0.00262416  0.05264746  1
  S2-  S233  1  0.36356888  -0.00931857  0.54369117  1
  S2-  S234  1  0.37798379  0.24952477  0.04659192  1
  S2-  S235  1  0.36333596  0.23833976  0.54339779  1
  S2-  S236  1  0.37506207  0.49549864  0.04919823  1
  S2-  S237  1  0.36413977  0.48172669  0.54246075  1
  S2-  S238  1  0.37881124  0.74702215  0.04097742  1
  S2-  S239  1  0.36034719  0.74138705  0.54693256  1
  S2-  S240  1  0.62526085  -0.00299645  0.05561381  1
  S2-  S241  1  0.61229394  -0.01276453  0.54802836  1
  S2-  S242  1  0.63031924  0.25008357  0.04933725  1
  S2-  S243  1  0.61784100  0.23828337  0.53887891  1
  S2-  S244  1  0.63062858  0.49586563  0.04221336  1
  S2-  S245  1  0.61449798  0.48136985  0.53887474  1
  S2-  S246  1  0.62497652  0.74973899  0.04021897  1
  S2-  S247  1  0.61253508  0.73886624  0.54259813  1
  S2-  S248  1  0.87780571  -0.00256554  0.04855833  1
  S2-  S249  1  0.86562464  -0.01434960  0.54255178  1
  S2-  S250  1  0.87808424  0.24715168  0.04260732  1
  S2-  S251  1  0.86180446  0.23420642  0.53464009  1
  S2-  S252  1  0.88116463  0.49898983  0.05386449  1
  S2-  S253  1  0.86972799  0.48404386  0.54593748  1
  S2-  S254  1  0.87770003  0.74852716  0.04269272  1
  S2-  S255  1  0.86627125  0.73738526  0.54769041  1
