# generated using pymatgen
data_La6Ce7Pr13Nd19Sm19(BiS2)64
_symmetry_space_group_name_H-M   'P 1'
_cell_length_a   16.09131094
_cell_length_b   16.04803634
_cell_length_c   27.22978718
_cell_angle_alpha   90.11192948
_cell_angle_beta   89.93263092
_cell_angle_gamma   90.00852520
_symmetry_Int_Tables_number   1
_chemical_formula_structural   La6Ce7Pr13Nd19Sm19(BiS2)64
_chemical_formula_sum   'La6 Ce7 Pr13 Nd19 Sm19 Bi64 S128'
_cell_volume   7031.63694858
_cell_formula_units_Z   1
loop_
 _symmetry_equiv_pos_site_id
 _symmetry_equiv_pos_as_xyz
  1  'x, y, z'
loop_
 _atom_type_symbol
 _atom_type_oxidation_number
  La3+  3.0
  Ce3+  3.0
  Pr3+  3.0
  Nd3+  3.0
  Sm3+  3.0
  Bi2+  2.0
  S2-  -2.0
loop_
 _atom_site_type_symbol
 _atom_site_label
 _atom_site_symmetry_multiplicity
 _atom_site_fract_x
 _atom_site_fract_y
 _atom_site_fract_z
 _atom_site_occupancy
  La3+  La0  1  0.75010381  0.88012060  0.58787787  1
  La3+  La1  1  0.11543200  0.74693256  0.43462960  1
  La3+  La2  1  -0.01174656  0.38055170  0.09006522  1
  La3+  La3  1  0.36292564  0.73771608  0.89278451  1
  La3+  La4  1  0.14330983  0.50643588  0.38953354  1
  La3+  La5  1  -0.00517848  0.10934180  0.08360374  1
  Ce3+  Ce6  1  0.00171053  0.12175722  0.56060769  1
  Ce3+  Ce7  1  0.25371993  0.86973642  0.06096094  1
  Ce3+  Ce8  1  0.74922167  0.36953091  0.05789357  1
  Ce3+  Ce9  1  0.62307987  0.49190719  0.93442647  1
  Ce3+  Ce10  1  0.37604658  0.49789851  0.44941800  1
  Ce3+  Ce11  1  0.62632024  0.49821140  0.44768871  1
  Ce3+  Ce12  1  0.50299460  0.36561106  0.05646206  1
  Pr3+  Pr13  1  0.50176732  0.10401724  0.06113014  1
  Pr3+  Pr14  1  0.37589982  -0.01404067  0.42564520  1
  Pr3+  Pr15  1  0.62336887  0.73401404  0.92246881  1
  Pr3+  Pr16  1  0.25199532  0.11225861  0.06812867  1
  Pr3+  Pr17  1  0.62554352  -0.00805779  0.43476457  1
  Pr3+  Pr18  1  0.87556111  0.73844474  0.92469563  1
  Pr3+  Pr19  1  0.12287149  -0.00243173  0.42881484  1
  Pr3+  Pr20  1  0.74738101  0.86406622  0.05698283  1
  Pr3+  Pr21  1  0.62660127  0.24252977  0.42740483  1
  Pr3+  Pr22  1  0.50338904  0.63305468  0.57424461  1
  Pr3+  Pr23  1  0.37890913  -0.00322317  0.92168271  1
  Pr3+  Pr24  1  0.26674959  0.35527735  0.08693825  1
  Pr3+  Pr25  1  0.37210524  0.74244824  0.43997236  1
  Nd3+  Nd26  1  0.36563282  0.24169802  0.93358915  1
  Nd3+  Nd27  1  0.24846770  0.87618839  0.56169290  1
  Nd3+  Nd28  1  0.25054508  0.37222318  0.55973257  1
  Nd3+  Nd29  1  0.37441262  0.24691840  0.43353511  1
  Nd3+  Nd30  1  0.37069965  0.48943617  0.94176217  1
  Nd3+  Nd31  1  0.87217695  -0.00934655  0.92376577  1
  Nd3+  Nd32  1  0.87624247  -0.00420303  0.44486436  1
  Nd3+  Nd33  1  -0.00485150  0.86578841  0.05344979  1
  Nd3+  Nd34  1  0.62751184  0.24131156  0.94135661  1
  Nd3+  Nd35  1  0.24877673  0.12404655  0.55414263  1
  Nd3+  Nd36  1  0.87914027  0.24950147  0.44481032  1
  Nd3+  Nd37  1  0.00071920  0.61662026  0.56913553  1
  Nd3+  Nd38  1  0.75288059  0.11135782  0.06513283  1
  Nd3+  Nd39  1  0.49121003  0.88356388  0.57372773  1
  Nd3+  Nd40  1  0.12577143  -0.00545231  0.94240258  1
  Nd3+  Nd41  1  0.12304784  0.24817709  0.43011290  1
  Nd3+  Nd42  1  0.87919811  0.49012814  0.92828895  1
  Nd3+  Nd43  1  0.00205606  0.86797025  0.57551096  1
  Nd3+  Nd44  1  0.74725457  0.37048124  0.56010505  1
  Sm3+  Sm45  1  0.49736960  0.61861780  0.05388364  1
  Sm3+  Sm46  1  0.12878059  0.74211804  0.94292126  1
  Sm3+  Sm47  1  0.12375549  0.24353276  0.96375901  1
  Sm3+  Sm48  1  0.74858467  0.12401384  0.56154699  1
  Sm3+  Sm49  1  0.50093890  0.37058394  0.55656125  1
  Sm3+  Sm50  1  0.74949263  0.62551320  0.55833135  1
  Sm3+  Sm51  1  0.62529699  -0.01340751  0.92598647  1
  Sm3+  Sm52  1  0.74989860  0.62004847  0.05679398  1
  Sm3+  Sm53  1  0.87759253  0.74884558  0.44904023  1
  Sm3+  Sm54  1  0.88052184  0.23691946  0.94230412  1
  Sm3+  Sm55  1  0.49738656  0.86098881  0.04195163  1
  Sm3+  Sm56  1  0.24988671  0.61649022  0.06067364  1
  Sm3+  Sm57  1  0.49990106  0.12018910  0.55485041  1
  Sm3+  Sm58  1  0.62609954  0.75197623  0.44344564  1
  Sm3+  Sm59  1  0.12794675  0.48705205  0.94825390  1
  Sm3+  Sm60  1  0.24961261  0.62238841  0.56124495  1
  Sm3+  Sm61  1  0.88104674  0.49816874  0.44048677  1
  Sm3+  Sm62  1  -0.00062406  0.61738806  0.05268882  1
  Sm3+  Sm63  1  0.00172367  0.37734257  0.56318809  1
  Bi2+  Bi64  1  -0.01558548  0.13247677  0.29718250  1
  Bi2+  Bi65  1  0.03621674  0.08683842  0.78851372  1
  Bi2+  Bi66  1  -0.00128958  0.39195166  0.29057394  1
  Bi2+  Bi67  1  -0.09696057  0.35420217  0.81961533  1
  Bi2+  Bi68  1  -0.05531717  0.65850698  0.28290300  1
  Bi2+  Bi69  1  0.01223974  0.60657240  0.78529459  1
  Bi2+  Bi70  1  0.00205495  0.91502028  0.31148189  1
  Bi2+  Bi71  1  0.01006697  0.88393339  0.77870286  1
  Bi2+  Bi72  1  0.24787617  0.02810370  0.29201513  1
  Bi2+  Bi73  1  0.24520297  0.18572926  0.78146694  1
  Bi2+  Bi74  1  0.27454433  0.39531070  0.28686157  1
  Bi2+  Bi75  1  0.28833370  0.36489533  0.82650167  1
  Bi2+  Bi76  1  0.33782298  0.68143195  0.31077477  1
  Bi2+  Bi77  1  0.21084497  0.60485363  0.79125373  1
  Bi2+  Bi78  1  0.18175419  0.84725728  0.31452784  1
  Bi2+  Bi79  1  0.22899362  0.88845722  0.77411317  1
  Bi2+  Bi80  1  0.50292731  0.17622204  0.30574441  1
  Bi2+  Bi81  1  0.49403818  0.16363727  0.79016866  1
  Bi2+  Bi82  1  0.51693265  0.43071132  0.26817884  1
  Bi2+  Bi83  1  0.48247008  0.36195354  0.81779013  1
  Bi2+  Bi84  1  0.53124693  0.62072478  0.30410741  1
  Bi2+  Bi85  1  0.47661992  0.55947366  0.78484375  1
  Bi2+  Bi86  1  0.51207785  0.82117746  0.28605960  1
  Bi2+  Bi87  1  0.49951996  0.89360735  0.78306942  1
  Bi2+  Bi88  1  0.71442409  0.10000580  0.26435888  1
  Bi2+  Bi89  1  0.78749374  0.14474925  0.79612226  1
  Bi2+  Bi90  1  0.73772690  0.41393128  0.28276834  1
  Bi2+  Bi91  1  0.70633195  0.38012526  0.82690406  1
  Bi2+  Bi92  1  0.74622175  0.65628584  0.29865228  1
  Bi2+  Bi93  1  0.73967686  0.56586484  0.78766282  1
  Bi2+  Bi94  1  0.74094488  0.84988585  0.28178869  1
  Bi2+  Bi95  1  0.75042417  0.88976108  0.78066015  1
  Bi2+  Bi96  1  0.11940650  -0.02790031  0.20846603  1
  Bi2+  Bi97  1  0.11689652  -0.03318514  0.68993486  1
  Bi2+  Bi98  1  0.15155702  0.25024414  0.22190909  1
  Bi2+  Bi99  1  0.05523355  0.27664433  0.75313583  1
  Bi2+  Bi100  1  0.12375771  0.52929704  0.18753428  1
  Bi2+  Bi101  1  0.10909138  0.45411724  0.71788419  1
  Bi2+  Bi102  1  0.07080949  0.77775107  0.22067818  1
  Bi2+  Bi103  1  0.12932058  0.75275188  0.71481632  1
  Bi2+  Bi104  1  0.37890182  -0.04395658  0.21160458  1
  Bi2+  Bi105  1  0.36414004  0.01020681  0.70378948  1
  Bi2+  Bi106  1  0.40619572  0.24384852  0.21187525  1
  Bi2+  Bi107  1  0.38162268  0.25291382  0.70626049  1
  Bi2+  Bi108  1  0.41010051  0.57212441  0.21302556  1
  Bi2+  Bi109  1  0.30412571  0.43681330  0.71756542  1
  Bi2+  Bi110  1  0.35144147  0.76322149  0.20536933  1
  Bi2+  Bi111  1  0.37576730  0.71606898  0.69469477  1
  Bi2+  Bi112  1  0.61146289  -0.05687225  0.21385252  1
  Bi2+  Bi113  1  0.61605609  0.07689407  0.71576583  1
  Bi2+  Bi114  1  0.63295533  0.23538773  0.19557513  1
  Bi2+  Bi115  1  0.67663133  0.25003959  0.67890106  1
  Bi2+  Bi116  1  0.64307328  0.43629013  0.17726403  1
  Bi2+  Bi117  1  0.60486192  0.41224245  0.72971539  1
  Bi2+  Bi118  1  0.65636870  0.63345409  0.19280290  1
  Bi2+  Bi119  1  0.62370782  0.68028348  0.70640048  1
  Bi2+  Bi120  1  0.85253681  0.00156185  0.20319782  1
  Bi2+  Bi121  1  0.87865945  0.03094780  0.71299387  1
  Bi2+  Bi122  1  0.81937165  0.26259406  0.22250480  1
  Bi2+  Bi123  1  0.86681736  0.26574313  0.71254693  1
  Bi2+  Bi124  1  0.83670447  0.53569140  0.21032342  1
  Bi2+  Bi125  1  0.88995933  0.48620175  0.72708396  1
  Bi2+  Bi126  1  0.87633578  0.78924604  0.20236549  1
  Bi2+  Bi127  1  0.86392341  0.74729421  0.70382535  1
  S2-  S128  1  0.06913063  0.13017415  0.18200950  1
  S2-  S129  1  0.01005197  0.09957839  0.65692776  1
  S2-  S130  1  0.03336545  0.34803590  0.18961720  1
  S2-  S131  1  -0.00227342  0.48649042  0.64272258  1
  S2-  S132  1  -0.03218937  0.55253924  0.14151779  1
  S2-  S133  1  0.00370713  0.72652837  0.64694185  1
  S2-  S134  1  -0.01833661  0.94938043  0.14052998  1
  S2-  S135  1  -0.10753756  0.88851096  0.65415854  1
  S2-  S136  1  0.27508070  0.21010289  0.15158699  1
  S2-  S137  1  0.24512433  0.07663037  0.65071549  1
  S2-  S138  1  0.23642845  0.41393277  0.18258915  1
  S2-  S139  1  0.23649383  0.31966934  0.65461375  1
  S2-  S140  1  0.23392794  0.65454159  0.15722733  1
  S2-  S141  1  0.23645133  0.63724937  0.65966341  1
  S2-  S142  1  0.26074102  0.97801104  0.14014003  1
  S2-  S143  1  0.34066339  0.86853994  0.64712876  1
  S2-  S144  1  0.50390098  0.13754957  0.16192091  1
  S2-  S145  1  0.49784223  0.02756002  0.63965987  1
  S2-  S146  1  0.43009022  0.36400043  0.14343370  1
  S2-  S147  1  0.51041507  0.32587161  0.65083051  1
  S2-  S148  1  0.49937710  0.67223606  0.14894903  1
  S2-  S149  1  0.48432747  0.57900513  0.67267341  1
  S2-  S150  1  0.49272417  0.92455660  0.13495617  1
  S2-  S151  1  0.51881524  0.76877733  0.64722342  1
  S2-  S152  1  0.85736697  0.14538608  0.14709899  1
  S2-  S153  1  0.73917672  0.03717204  0.64712426  1
  S2-  S154  1  0.83121432  0.37763920  0.14354871  1
  S2-  S155  1  0.77919844  0.39418156  0.65692039  1
  S2-  S156  1  0.75359736  0.73912844  0.13173929  1
  S2-  S157  1  0.76446440  0.62681159  0.65624102  1
  S2-  S158  1  0.72562409  0.98088916  0.13500283  1
  S2-  S159  1  0.70600484  0.82131142  0.68470109  1
  S2-  S160  1  0.11783985  0.12048652  0.35207714  1
  S2-  S161  1  0.14681864  -0.00109738  0.84320668  1
  S2-  S162  1  0.13474404  0.34160949  0.34549628  1
  S2-  S163  1  0.17239573  0.25708359  0.86799520  1
  S2-  S164  1  0.13344257  0.50738542  0.28085612  1
  S2-  S165  1  0.10759243  0.50297718  0.84988514  1
  S2-  S166  1  0.17614945  0.67481888  0.34917710  1
  S2-  S167  1  0.19577621  0.73908963  0.85210881  1
  S2-  S168  1  0.40797594  0.04755646  0.33099590  1
  S2-  S169  1  0.35421992  -0.10870893  0.84045850  1
  S2-  S170  1  0.35622373  0.26074603  0.33369804  1
  S2-  S171  1  0.35303561  0.13424854  0.85326553  1
  S2-  S172  1  0.32041086  0.49477552  0.35694058  1
  S2-  S173  1  0.35452712  0.56880418  0.85248234  1
  S2-  S174  1  0.38660773  0.84348106  0.35815147  1
  S2-  S175  1  0.43471498  0.72837346  0.79147463  1
  S2-  S176  1  0.64051856  0.10637858  0.35702151  1
  S2-  S177  1  0.51825685  0.01060396  0.84842612  1
  S2-  S178  1  0.59293151  0.31802633  0.33537665  1
  S2-  S179  1  0.64627365  0.21049656  0.84291205  1
  S2-  S180  1  0.66914858  0.52150623  0.35375239  1
  S2-  S181  1  0.60984020  0.59498294  0.85424863  1
  S2-  S182  1  0.62559763  0.86020973  0.36374249  1
  S2-  S183  1  0.63198658  0.81581597  0.82884546  1
  S2-  S184  1  0.87942344  0.02524928  0.34549910  1
  S2-  S185  1  0.74243441  0.00403682  0.85256300  1
  S2-  S186  1  0.91444475  0.26315959  0.34699716  1
  S2-  S187  1  0.91640644  0.12971972  0.86421984  1
  S2-  S188  1  0.96829853  0.51263627  0.35616297  1
  S2-  S189  1  0.87297201  0.60896771  0.85275841  1
  S2-  S190  1  0.96680311  0.76249524  0.36447494  1
  S2-  S191  1  0.88469564  0.84827023  0.84330863  1
  S2-  S192  1  -0.00004163  0.12262653  0.45584696  1
  S2-  S193  1  0.00573497  0.11904179  0.96959713  1
  S2-  S194  1  0.00135386  0.37408764  0.45972924  1
  S2-  S195  1  0.00160842  0.36673382  0.95632383  1
  S2-  S196  1  -0.00307516  0.62148110  0.46376475  1
  S2-  S197  1  0.00801256  0.61570027  0.95054088  1
  S2-  S198  1  -0.00039896  0.87673289  0.46650271  1
  S2-  S199  1  0.00351755  0.86545341  0.94786130  1
  S2-  S200  1  0.25224075  0.12122941  0.44814995  1
  S2-  S201  1  0.24645454  0.11824471  0.96162180  1
  S2-  S202  1  0.25058846  0.37133818  0.45416393  1
  S2-  S203  1  0.25015508  0.36668716  0.97240660  1
  S2-  S204  1  0.24673336  0.61730599  0.45783601  1
  S2-  S205  1  0.24651442  0.61533551  0.95713537  1
  S2-  S206  1  0.24447066  0.87147145  0.45489424  1
  S2-  S207  1  0.24870659  0.86692516  0.95430610  1
  S2-  S208  1  0.49617734  0.11961783  0.45166969  1
  S2-  S209  1  0.50238834  0.12200297  0.95342888  1
  S2-  S210  1  0.50082155  0.37192792  0.45160464  1
  S2-  S211  1  0.49793354  0.36552811  0.95084535  1
  S2-  S212  1  0.50375985  0.62495681  0.45894531  1
  S2-  S213  1  0.48922452  0.61876556  0.95082551  1
  S2-  S214  1  0.49943417  0.86894916  0.46529546  1
  S2-  S215  1  0.49513098  0.85583163  0.93959369  1
  S2-  S216  1  0.75542512  0.12363537  0.45782958  1
  S2-  S217  1  0.75178364  0.11988563  0.95774352  1
  S2-  S218  1  0.75247509  0.37276227  0.45219584  1
  S2-  S219  1  0.75484445  0.36645095  0.95242245  1
  S2-  S220  1  0.75347126  0.62626404  0.45368782  1
  S2-  S221  1  0.75018893  0.61271135  0.95306997  1
  S2-  S222  1  0.75579836  0.87064729  0.45970828  1
  S2-  S223  1  0.74817515  0.86064958  0.94853266  1
  S2-  S224  1  0.12311822  -0.01074137  0.04719571  1
  S2-  S225  1  0.12455308  -0.00256643  0.54157524  1
  S2-  S226  1  0.11773528  0.24712383  0.06573510  1
  S2-  S227  1  0.12262531  0.25058040  0.54414255  1
  S2-  S228  1  0.12512305  0.49155332  0.05353634  1
  S2-  S229  1  0.13044257  0.49652303  0.55253122  1
  S2-  S230  1  0.12372292  0.74200004  0.04850318  1
  S2-  S231  1  0.12889066  0.74723970  0.54689708  1
  S2-  S232  1  0.37684220  -0.01168444  0.03223042  1
  S2-  S233  1  0.37066397  0.00176650  0.53604746  1
  S2-  S234  1  0.38310829  0.23513865  0.04110977  1
  S2-  S235  1  0.37764280  0.24603918  0.54286010  1
  S2-  S236  1  0.37429492  0.49529013  0.04932295  1
  S2-  S237  1  0.37814031  0.49762074  0.55597008  1
  S2-  S238  1  0.37218566  0.74088218  0.04872907  1
  S2-  S239  1  0.37187170  0.74612071  0.54571254  1
  S2-  S240  1  0.62237609  -0.01468826  0.02989148  1
  S2-  S241  1  0.62685527  -0.00040955  0.54199144  1
  S2-  S242  1  0.62762880  0.23905278  0.04900248  1
  S2-  S243  1  0.62292472  0.24457964  0.53888287  1
  S2-  S244  1  0.62395096  0.49722134  0.04199774  1
  S2-  S245  1  0.62412432  0.49830400  0.55544783  1
  S2-  S246  1  0.62117025  0.73786422  0.03322213  1
  S2-  S247  1  0.63196368  0.75248551  0.54694947  1
  S2-  S248  1  0.87207256  -0.01259421  0.03336378  1
  S2-  S249  1  0.87566613  0.00095404  0.54936604  1
  S2-  S250  1  0.87662507  0.24742529  0.04481454  1
  S2-  S251  1  0.87638016  0.24938619  0.55292912  1
  S2-  S252  1  0.87187212  0.49717994  0.03551167  1
  S2-  S253  1  0.86938626  0.49643215  0.54476273  1
  S2-  S254  1  0.87804107  0.73738288  0.03377234  1
  S2-  S255  1  0.87106267  0.74847454  0.55104301  1
