# generated using pymatgen
data_La6Ce7Pr13Nd19Sm19(BiS2)64
_symmetry_space_group_name_H-M   'P 1'
_cell_length_a   16.08626063
_cell_length_b   16.09253277
_cell_length_c   27.29887737
_cell_angle_alpha   90.24081189
_cell_angle_beta   90.26174937
_cell_angle_gamma   89.96194881
_symmetry_Int_Tables_number   1
_chemical_formula_structural   La6Ce7Pr13Nd19Sm19(BiS2)64
_chemical_formula_sum   'La6 Ce7 Pr13 Nd19 Sm19 Bi64 S128'
_cell_volume   7066.68662159
_cell_formula_units_Z   1
loop_
 _symmetry_equiv_pos_site_id
 _symmetry_equiv_pos_as_xyz
  1  'x, y, z'
loop_
 _atom_type_symbol
 _atom_type_oxidation_number
  La3+  3.0
  Ce3+  3.0
  Pr3+  3.0
  Nd3+  3.0
  Sm3+  3.0
  Bi2+  2.0
  S2-  -2.0
loop_
 _atom_site_type_symbol
 _atom_site_label
 _atom_site_symmetry_multiplicity
 _atom_site_fract_x
 _atom_site_fract_y
 _atom_site_fract_z
 _atom_site_occupancy
  La3+  La0  1  0.25337434  0.12542719  0.08502760  1
  La3+  La1  1  0.37478069  0.74670474  0.42323217  1
  La3+  La2  1  0.37060384  0.00070733  0.92206185  1
  La3+  La3  1  0.76685391  0.12544322  0.57101576  1
  La3+  La4  1  0.86671821  0.49751410  0.89588000  1
  La3+  La5  1  -0.01178084  0.13396819  0.11580904  1
  Ce3+  Ce6  1  0.37520099  0.24661545  0.93493913  1
  Ce3+  Ce7  1  0.12477859  0.49881453  0.93469318  1
  Ce3+  Ce8  1  0.88549791  0.74736658  0.43754476  1
  Ce3+  Ce9  1  0.50321512  0.62133745  0.56168552  1
  Ce3+  Ce10  1  0.75791500  0.37412066  0.05871782  1
  Ce3+  Ce11  1  0.38179442  0.24542024  0.44177692  1
  Ce3+  Ce12  1  0.76252234  0.62229913  0.55758254  1
  Pr3+  Pr13  1  0.63181731  0.74582408  0.94280252  1
  Pr3+  Pr14  1  0.87806596  0.74699309  0.93722494  1
  Pr3+  Pr15  1  0.76637646  0.86874246  0.56815316  1
  Pr3+  Pr16  1  0.00280227  0.62983518  0.60514447  1
  Pr3+  Pr17  1  0.87187478  0.25020615  0.93075377  1
  Pr3+  Pr18  1  0.26901551  0.87693770  0.57120310  1
  Pr3+  Pr19  1  0.75503767  0.87686193  0.06314904  1
  Pr3+  Pr20  1  0.00936386  0.37206205  0.55778144  1
  Pr3+  Pr21  1  0.13738937  -0.00552350  0.42819861  1
  Pr3+  Pr22  1  0.25611209  0.87465843  0.06458162  1
  Pr3+  Pr23  1  0.01519052  0.87254694  0.56169366  1
  Pr3+  Pr24  1  0.26063584  0.62721520  0.57181191  1
  Pr3+  Pr25  1  0.26341575  0.62609531  0.06868525  1
  Nd3+  Nd26  1  0.62670730  0.25100423  0.93940022  1
  Nd3+  Nd27  1  0.12718857  0.00166446  0.94642058  1
  Nd3+  Nd28  1  0.00534516  0.87347371  0.06664681  1
  Nd3+  Nd29  1  0.37681718  0.75188788  0.92964578  1
  Nd3+  Nd30  1  0.87847711  0.00030863  0.94424974  1
  Nd3+  Nd31  1  0.51360530  0.12409429  0.56148456  1
  Nd3+  Nd32  1  0.12800336  0.74516812  0.94014347  1
  Nd3+  Nd33  1  0.63259534  0.24351432  0.44016007  1
  Nd3+  Nd34  1  0.75435521  0.62349425  0.06611820  1
  Nd3+  Nd35  1  0.50047651  0.37555485  0.05928550  1
  Nd3+  Nd36  1  0.37106772  0.50532078  0.92140489  1
  Nd3+  Nd37  1  0.25303287  0.37670839  0.05685444  1
  Nd3+  Nd38  1  0.87171315  0.23758564  0.41711089  1
  Nd3+  Nd39  1  0.38230877  -0.00616095  0.42961840  1
  Nd3+  Nd40  1  0.88698790  0.49760841  0.43947413  1
  Nd3+  Nd41  1  0.38147960  0.49908305  0.42891230  1
  Nd3+  Nd42  1  0.63316513  0.49730238  0.44152010  1
  Nd3+  Nd43  1  0.12310881  0.25000169  0.94634585  1
  Nd3+  Nd44  1  0.88105630  -0.01245770  0.43215592  1
  Sm3+  Sm45  1  0.26309500  0.12041022  0.56171019  1
  Sm3+  Sm46  1  0.50735979  0.87189839  0.55839157  1
  Sm3+  Sm47  1  0.00266493  0.37359903  0.05924865  1
  Sm3+  Sm48  1  0.63405082  -0.00552668  0.45152874  1
  Sm3+  Sm49  1  0.13612646  0.74456152  0.44652271  1
  Sm3+  Sm50  1  0.76416826  0.37439414  0.55122482  1
  Sm3+  Sm51  1  0.50894931  0.37402776  0.55440835  1
  Sm3+  Sm52  1  0.25824856  0.37527644  0.55076628  1
  Sm3+  Sm53  1  0.50112320  0.87780074  0.05472950  1
  Sm3+  Sm54  1  0.13151272  0.24499541  0.44303077  1
  Sm3+  Sm55  1  0.75475334  0.12772829  0.06182238  1
  Sm3+  Sm56  1  0.63069889  0.74660539  0.44777896  1
  Sm3+  Sm57  1  0.00777141  0.12220154  0.55440455  1
  Sm3+  Sm58  1  0.62752028  0.00017281  0.94725921  1
  Sm3+  Sm59  1  0.50625154  0.62532289  0.05427735  1
  Sm3+  Sm60  1  0.62764109  0.49872804  0.94383224  1
  Sm3+  Sm61  1  0.13159292  0.49703101  0.44102101  1
  Sm3+  Sm62  1  0.00569296  0.62545318  0.06220916  1
  Sm3+  Sm63  1  0.49824510  0.12634152  0.05891185  1
  Bi2+  Bi64  1  0.02199466  0.14190288  0.31768931  1
  Bi2+  Bi65  1  -0.03142460  0.15446056  0.77597549  1
  Bi2+  Bi66  1  0.01741348  0.41768778  0.29669709  1
  Bi2+  Bi67  1  0.03343415  0.34065259  0.78762326  1
  Bi2+  Bi68  1  0.00794686  0.63272174  0.28681108  1
  Bi2+  Bi69  1  -0.00277803  0.64369993  0.79736503  1
  Bi2+  Bi70  1  0.00389462  0.82829006  0.29329870  1
  Bi2+  Bi71  1  0.00361421  0.95589396  0.78943508  1
  Bi2+  Bi72  1  0.26576565  0.15376122  0.28823202  1
  Bi2+  Bi73  1  0.22914598  0.11875325  0.79435517  1
  Bi2+  Bi74  1  0.26954454  0.41969360  0.29000269  1
  Bi2+  Bi75  1  0.29972263  0.36323896  0.78660093  1
  Bi2+  Bi76  1  0.29199034  0.61684108  0.26693576  1
  Bi2+  Bi77  1  0.24460023  0.61141124  0.78842265  1
  Bi2+  Bi78  1  0.26384019  0.87669926  0.29849392  1
  Bi2+  Bi79  1  0.25938349  0.85701616  0.79727258  1
  Bi2+  Bi80  1  0.50277274  0.09498820  0.29095181  1
  Bi2+  Bi81  1  0.50904884  0.15902033  0.79530191  1
  Bi2+  Bi82  1  0.45604710  0.37217751  0.30733004  1
  Bi2+  Bi83  1  0.47643911  0.36080617  0.83477022  1
  Bi2+  Bi84  1  0.50823069  0.55682277  0.28332821  1
  Bi2+  Bi85  1  0.49248971  0.55302974  0.79122369  1
  Bi2+  Bi86  1  0.55910729  0.87429669  0.29775500  1
  Bi2+  Bi87  1  0.50563337  0.87879409  0.76142244  1
  Bi2+  Bi88  1  0.72498530  0.09817003  0.29310278  1
  Bi2+  Bi89  1  0.77775596  0.10192056  0.78583579  1
  Bi2+  Bi90  1  0.65040939  0.35253749  0.28142302  1
  Bi2+  Bi91  1  0.72891049  0.35897810  0.80130189  1
  Bi2+  Bi92  1  0.79753102  0.62766695  0.29089042  1
  Bi2+  Bi93  1  0.73082692  0.66049438  0.79376340  1
  Bi2+  Bi94  1  0.80120654  0.82468849  0.26538232  1
  Bi2+  Bi95  1  0.69173181  0.91833156  0.79967864  1
  Bi2+  Bi96  1  0.13377898  -0.00251190  0.21629678  1
  Bi2+  Bi97  1  0.09387157  0.03466586  0.69203653  1
  Bi2+  Bi98  1  0.13613740  0.35939459  0.20904076  1
  Bi2+  Bi99  1  0.13814233  0.22595640  0.71058400  1
  Bi2+  Bi100  1  0.13193508  0.54816260  0.17421209  1
  Bi2+  Bi101  1  0.12088841  0.45729055  0.69794787  1
  Bi2+  Bi102  1  0.12369979  0.73908693  0.21416594  1
  Bi2+  Bi103  1  0.11885121  0.84424946  0.72023047  1
  Bi2+  Bi104  1  0.39512003  -0.00086414  0.21122503  1
  Bi2+  Bi105  1  0.36273827  -0.00760727  0.71258448  1
  Bi2+  Bi106  1  0.41002677  0.27519294  0.20237993  1
  Bi2+  Bi107  1  0.33885131  0.21138424  0.71485676  1
  Bi2+  Bi108  1  0.32893171  0.49057537  0.17932536  1
  Bi2+  Bi109  1  0.37108532  0.48104422  0.70671699  1
  Bi2+  Bi110  1  0.38565051  0.75076495  0.20401328  1
  Bi2+  Bi111  1  0.37196462  0.74459249  0.70604185  1
  Bi2+  Bi112  1  0.61496578  0.00551804  0.20882508  1
  Bi2+  Bi113  1  0.58379969  0.04234119  0.71313173  1
  Bi2+  Bi114  1  0.59662144  0.20469219  0.21021522  1
  Bi2+  Bi115  1  0.57595323  0.31107236  0.73593464  1
  Bi2+  Bi116  1  0.73571414  0.49963672  0.20773369  1
  Bi2+  Bi117  1  0.61388128  0.50346978  0.70744627  1
  Bi2+  Bi118  1  0.60523319  0.70971245  0.24328501  1
  Bi2+  Bi119  1  0.57905748  0.69754165  0.71889673  1
  Bi2+  Bi120  1  0.86170950  -0.01087093  0.21357468  1
  Bi2+  Bi121  1  0.88105774  -0.00390313  0.70114867  1
  Bi2+  Bi122  1  0.86219094  0.26589725  0.21806752  1
  Bi2+  Bi123  1  0.81386876  0.24131553  0.69969544  1
  Bi2+  Bi124  1  0.93457024  0.52026136  0.19864634  1
  Bi2+  Bi125  1  0.85808467  0.48907498  0.69779710  1
  Bi2+  Bi126  1  0.85140705  0.69630988  0.18215959  1
  Bi2+  Bi127  1  0.85629677  0.78497942  0.71070704  1
  S2-  S128  1  -0.03013598  0.13265118  0.22840276  1
  S2-  S129  1  -0.09072839  0.13734147  0.63551864  1
  S2-  S130  1  -0.01639420  0.30664569  0.15161179  1
  S2-  S131  1  -0.02224270  0.37822295  0.65686109  1
  S2-  S132  1  -0.00069088  0.74423149  0.13800314  1
  S2-  S133  1  -0.00384509  0.58137557  0.70631132  1
  S2-  S134  1  -0.00265717  0.96409903  0.15412629  1
  S2-  S135  1  -0.00910236  0.79072101  0.65099937  1
  S2-  S136  1  0.14511355  0.13213445  0.16593080  1
  S2-  S137  1  0.24767495  0.01356397  0.63805908  1
  S2-  S138  1  0.26207580  0.30127940  0.14749420  1
  S2-  S139  1  0.25771621  0.38536724  0.64805432  1
  S2-  S140  1  0.25029625  0.75425933  0.14145289  1
  S2-  S141  1  0.15860205  0.58897985  0.65038638  1
  S2-  S142  1  0.25570074  0.97145584  0.15271615  1
  S2-  S143  1  0.23607920  0.77600409  0.65234647  1
  S2-  S144  1  0.40592500  0.12555927  0.14216354  1
  S2-  S145  1  0.45114351  0.11735851  0.65303006  1
  S2-  S146  1  0.48210522  0.40621221  0.15668721  1
  S2-  S147  1  0.50187912  0.39497203  0.65156476  1
  S2-  S148  1  0.41592295  0.62357493  0.13652273  1
  S2-  S149  1  0.39834879  0.61383141  0.63938017  1
  S2-  S150  1  0.46928279  0.86928681  0.15162635  1
  S2-  S151  1  0.41954532  0.87498443  0.64114855  1
  S2-  S152  1  0.81822160  0.13373409  0.15305999  1
  S2-  S153  1  0.68063252  0.14572135  0.65851831  1
  S2-  S154  1  0.74803474  0.34913823  0.15537851  1
  S2-  S155  1  0.75068024  0.36736868  0.64939079  1
  S2-  S156  1  0.66357078  0.63337582  0.15278954  1
  S2-  S157  1  0.82220950  0.64175269  0.64883220  1
  S2-  S158  1  0.73813265  0.90012235  0.16203363  1
  S2-  S159  1  0.74893372  0.88895763  0.66790477  1
  S2-  S160  1  0.05967352  -0.02453582  0.33522223  1
  S2-  S161  1  0.21199165  -0.01201216  0.85829107  1
  S2-  S162  1  0.16448952  0.23901818  0.34541660  1
  S2-  S163  1  0.13948881  0.25240958  0.84570309  1
  S2-  S164  1  0.15655995  0.50832933  0.34412425  1
  S2-  S165  1  0.02777099  0.50764175  0.85236983  1
  S2-  S166  1  0.21243035  0.76532882  0.35870014  1
  S2-  S167  1  0.14177780  0.72750405  0.83971894  1
  S2-  S168  1  0.26415587  0.02460106  0.35453649  1
  S2-  S169  1  0.39668772  -0.13021412  0.85226226  1
  S2-  S170  1  0.39913711  0.21029271  0.34626436  1
  S2-  S171  1  0.37216442  0.13822112  0.85557341  1
  S2-  S172  1  0.39158580  0.61516040  0.35383402  1
  S2-  S173  1  0.23643364  0.48882564  0.85392553  1
  S2-  S174  1  0.40571370  0.87207088  0.35168005  1
  S2-  S175  1  0.37222882  0.64184031  0.84903187  1
  S2-  S176  1  0.66154332  -0.02106706  0.35537280  1
  S2-  S177  1  0.59469413  0.02145075  0.85197327  1
  S2-  S178  1  0.71354990  0.24167196  0.35357158  1
  S2-  S179  1  0.72688458  0.22501638  0.85951462  1
  S2-  S180  1  0.63478256  0.49558784  0.34259676  1
  S2-  S181  1  0.69504219  0.50789670  0.85463900  1
  S2-  S182  1  0.61373117  0.74154923  0.35024823  1
  S2-  S183  1  0.63067987  0.76490277  0.84408508  1
  S2-  S184  1  0.86786886  0.09313338  0.35473794  1
  S2-  S185  1  0.84832867  -0.02593882  0.84688298  1
  S2-  S186  1  0.92212956  0.29002876  0.32160691  1
  S2-  S187  1  0.88588083  0.34450930  0.84449477  1
  S2-  S188  1  0.88027953  0.50055656  0.34032901  1
  S2-  S189  1  0.85715773  0.54314681  0.78988851  1
  S2-  S190  1  0.86922802  0.85494628  0.36152703  1
  S2-  S191  1  0.86986478  0.74057486  0.83630952  1
  S2-  S192  1  0.00920564  0.12112643  0.45114837  1
  S2-  S193  1  0.00012555  0.12399713  0.93789195  1
  S2-  S194  1  0.00939519  0.36992581  0.44888512  1
  S2-  S195  1  -0.00304151  0.37597149  0.95600207  1
  S2-  S196  1  0.01144915  0.62289566  0.44097124  1
  S2-  S197  1  -0.00043068  0.62414339  0.95763038  1
  S2-  S198  1  0.01425412  0.86867711  0.45547699  1
  S2-  S199  1  0.00315396  0.87295419  0.95376886  1
  S2-  S200  1  0.25764281  0.12486010  0.45888401  1
  S2-  S201  1  0.24849301  0.12763009  0.96076557  1
  S2-  S202  1  0.25710776  0.37116402  0.44599105  1
  S2-  S203  1  0.25347089  0.37103367  0.95214291  1
  S2-  S204  1  0.25573298  0.61662131  0.45856650  1
  S2-  S205  1  0.25284898  0.62515833  0.95767200  1
  S2-  S206  1  0.25832306  0.87432912  0.46225210  1
  S2-  S207  1  0.25034590  0.86971518  0.95744000  1
  S2-  S208  1  0.50973406  0.11866481  0.45356885  1
  S2-  S209  1  0.50545462  0.12489431  0.95600655  1
  S2-  S210  1  0.50881649  0.37207574  0.44936281  1
  S2-  S211  1  0.50309178  0.37647306  0.95270676  1
  S2-  S212  1  0.51009436  0.62160154  0.45599139  1
  S2-  S213  1  0.50487279  0.62194106  0.94974401  1
  S2-  S214  1  0.51077605  0.87121809  0.45624160  1
  S2-  S215  1  0.50890632  0.87432955  0.95225200  1
  S2-  S216  1  0.75468251  0.11759651  0.46172665  1
  S2-  S217  1  0.75092346  0.12087179  0.95922464  1
  S2-  S218  1  0.76017269  0.37368289  0.44765384  1
  S2-  S219  1  0.75217028  0.37831971  0.95516655  1
  S2-  S220  1  0.75800565  0.62258772  0.45060049  1
  S2-  S221  1  0.75725852  0.61876650  0.95750718  1
  S2-  S222  1  0.75329191  0.86783363  0.46260063  1
  S2-  S223  1  0.75239980  0.87583542  0.95579025  1
  S2-  S224  1  0.12692188  -0.00220048  0.04895764  1
  S2-  S225  1  0.13134606  0.00241356  0.53903719  1
  S2-  S226  1  0.12510997  0.25189922  0.05022886  1
  S2-  S227  1  0.13629914  0.24395603  0.54885754  1
  S2-  S228  1  0.12642284  0.49958780  0.04403369  1
  S2-  S229  1  0.13279844  0.49489370  0.54351006  1
  S2-  S230  1  0.12884021  0.74607244  0.04300438  1
  S2-  S231  1  0.12758404  0.74018574  0.54802797  1
  S2-  S232  1  0.38134221  -0.00045419  0.03846433  1
  S2-  S233  1  0.39041168  0.00273788  0.53777805  1
  S2-  S234  1  0.37899913  0.25214868  0.04116307  1
  S2-  S235  1  0.38376151  0.24921448  0.54844597  1
  S2-  S236  1  0.38143179  0.49959907  0.03360232  1
  S2-  S237  1  0.38392580  0.49233217  0.53672105  1
  S2-  S238  1  0.38570489  0.75140367  0.03612420  1
  S2-  S239  1  0.38682176  0.74817736  0.53749529  1
  S2-  S240  1  0.62670740  0.00421945  0.05297086  1
  S2-  S241  1  0.63419275  -0.00652173  0.55630290  1
  S2-  S242  1  0.62624137  0.24807855  0.04733929  1
  S2-  S243  1  0.63519406  0.25394652  0.54600314  1
  S2-  S244  1  0.62768139  0.49920250  0.04848428  1
  S2-  S245  1  0.63523402  0.49669013  0.54784238  1
  S2-  S246  1  0.62689727  0.75245984  0.04896427  1
  S2-  S247  1  0.63277930  0.74752722  0.55465170  1
  S2-  S248  1  0.87832253  0.00297990  0.04923826  1
  S2-  S249  1  0.88723242  -0.00635971  0.54193784  1
  S2-  S250  1  0.87911134  0.24720314  0.04197385  1
  S2-  S251  1  0.88417852  0.25099321  0.53295305  1
  S2-  S252  1  0.88061134  0.50137669  0.06063754  1
  S2-  S253  1  0.88889686  0.50088684  0.54639023  1
  S2-  S254  1  0.87458109  0.74929713  0.04297515  1
  S2-  S255  1  0.88889345  0.74418211  0.54273716  1
