# generated using pymatgen
data_La6Ce7Pr13Nd19Sm19(BiS2)64
_symmetry_space_group_name_H-M   'P 1'
_cell_length_a   16.08127331
_cell_length_b   16.04143480
_cell_length_c   27.40143287
_cell_angle_alpha   89.39494554
_cell_angle_beta   89.87151023
_cell_angle_gamma   89.89705184
_symmetry_Int_Tables_number   1
_chemical_formula_structural   La6Ce7Pr13Nd19Sm19(BiS2)64
_chemical_formula_sum   'La6 Ce7 Pr13 Nd19 Sm19 Bi64 S128'
_cell_volume   7068.23411638
_cell_formula_units_Z   1
loop_
 _symmetry_equiv_pos_site_id
 _symmetry_equiv_pos_as_xyz
  1  'x, y, z'
loop_
 _atom_type_symbol
 _atom_type_oxidation_number
  La3+  3.0
  Ce3+  3.0
  Pr3+  3.0
  Nd3+  3.0
  Sm3+  3.0
  Bi2+  2.0
  S2-  -2.0
loop_
 _atom_site_type_symbol
 _atom_site_label
 _atom_site_symmetry_multiplicity
 _atom_site_fract_x
 _atom_site_fract_y
 _atom_site_fract_z
 _atom_site_occupancy
  La3+  La0  1  0.51506478  0.35247822  0.09181658  1
  La3+  La1  1  0.88224245  0.73103707  0.92004114  1
  La3+  La2  1  0.14086772  0.00035817  0.92006109  1
  La3+  La3  1  0.87080582  -0.00357111  0.39935604  1
  La3+  La4  1  0.14149608  -0.02217656  0.39015340  1
  La3+  La5  1  0.62081189  0.75462320  0.88055859  1
  Ce3+  Ce6  1  0.73570623  0.61034040  0.55639450  1
  Ce3+  Ce7  1  0.51217363  0.86098366  0.05331248  1
  Ce3+  Ce8  1  0.13134042  0.73848388  0.93257800  1
  Ce3+  Ce9  1  0.86145119  0.49335246  0.43282058  1
  Ce3+  Ce10  1  0.61767706  -0.01303229  0.43899280  1
  Ce3+  Ce11  1  0.73182325  0.86054067  0.56538459  1
  Ce3+  Ce12  1  -0.02036645  0.85482807  0.56414431  1
  Pr3+  Pr13  1  0.76046547  0.85956690  0.05190241  1
  Pr3+  Pr14  1  0.63804267  0.24273955  0.93705630  1
  Pr3+  Pr15  1  0.01045822  0.35674354  0.06043385  1
  Pr3+  Pr16  1  0.85693437  0.74098397  0.43001407  1
  Pr3+  Pr17  1  0.76076690  0.10379468  0.06706453  1
  Pr3+  Pr18  1  0.88672012  -0.00493188  0.92460765  1
  Pr3+  Pr19  1  0.38650925  -0.00913381  0.93516186  1
  Pr3+  Pr20  1  0.48368541  0.35733732  0.57781770  1
  Pr3+  Pr21  1  0.36205851  0.73878908  0.43271236  1
  Pr3+  Pr22  1  0.10828803  0.23354976  0.43814925  1
  Pr3+  Pr23  1  0.36186727  0.23532183  0.43996709  1
  Pr3+  Pr24  1  0.60778241  0.73556578  0.43518036  1
  Pr3+  Pr25  1  0.48283956  0.60786949  0.57058408  1
  Nd3+  Nd26  1  0.14199502  0.24272834  0.93366407  1
  Nd3+  Nd27  1  0.23566455  0.85983204  0.56079970  1
  Nd3+  Nd28  1  0.63506456  0.49466073  0.94406473  1
  Nd3+  Nd29  1  0.63850553  -0.00388634  0.92988706  1
  Nd3+  Nd30  1  0.25823141  0.35873870  0.07022392  1
  Nd3+  Nd31  1  0.51020956  0.11384064  0.05552061  1
  Nd3+  Nd32  1  0.86241536  0.23700065  0.44672107  1
  Nd3+  Nd33  1  0.00911057  0.86310328  0.05397917  1
  Nd3+  Nd34  1  0.25828867  0.10928322  0.06377287  1
  Nd3+  Nd35  1  -0.01259050  0.09990216  0.56378547  1
  Nd3+  Nd36  1  0.51213725  0.61357488  0.06612515  1
  Nd3+  Nd37  1  0.76097042  0.61838355  0.06532073  1
  Nd3+  Nd38  1  0.38749161  0.24900291  0.93761901  1
  Nd3+  Nd39  1  0.11163530  0.48656650  0.42789423  1
  Nd3+  Nd40  1  0.13598083  0.49093987  0.94583922  1
  Nd3+  Nd41  1  0.01075519  0.61857232  0.06984783  1
  Nd3+  Nd42  1  -0.01436956  0.60660252  0.56496294  1
  Nd3+  Nd43  1  0.23179007  0.35991173  0.56099692  1
  Nd3+  Nd44  1  0.25778254  0.86373232  0.05232586  1
  Sm3+  Sm45  1  0.88593214  0.49154960  0.94904131  1
  Sm3+  Sm46  1  0.73820506  0.36116909  0.55773539  1
  Sm3+  Sm47  1  0.38873186  0.73658863  0.94430892  1
  Sm3+  Sm48  1  0.36448920  -0.01156498  0.45115488  1
  Sm3+  Sm49  1  0.25911589  0.61243527  0.05796709  1
  Sm3+  Sm50  1  0.73796165  0.10859084  0.55995594  1
  Sm3+  Sm51  1  -0.01458696  0.36284072  0.55900031  1
  Sm3+  Sm52  1  0.76017211  0.36063386  0.06481177  1
  Sm3+  Sm53  1  0.48704164  0.11319350  0.56651659  1
  Sm3+  Sm54  1  0.10495189  0.74269031  0.44273714  1
  Sm3+  Sm55  1  0.38937093  0.48889984  0.95884276  1
  Sm3+  Sm56  1  0.88550888  0.23876610  0.94309380  1
  Sm3+  Sm57  1  0.23414589  0.10782338  0.55976436  1
  Sm3+  Sm58  1  0.61028190  0.23856748  0.44809586  1
  Sm3+  Sm59  1  0.60567885  0.48313999  0.44359613  1
  Sm3+  Sm60  1  0.23423852  0.61005859  0.55132290  1
  Sm3+  Sm61  1  0.00996383  0.10363891  0.06124059  1
  Sm3+  Sm62  1  0.36062722  0.48630923  0.44459442  1
  Sm3+  Sm63  1  0.48776125  0.85450694  0.56770476  1
  Bi2+  Bi64  1  -0.01609129  0.17455081  0.28426359  1
  Bi2+  Bi65  1  -0.00899527  0.07691025  0.79344889  1
  Bi2+  Bi66  1  -0.00110104  0.40784509  0.29620220  1
  Bi2+  Bi67  1  -0.03175811  0.34798558  0.79369386  1
  Bi2+  Bi68  1  0.04720810  0.60049196  0.31425785  1
  Bi2+  Bi69  1  0.01106618  0.58653976  0.79205174  1
  Bi2+  Bi70  1  0.01735217  0.86412346  0.27778319  1
  Bi2+  Bi71  1  -0.01005302  0.83397370  0.77515159  1
  Bi2+  Bi72  1  0.25796567  0.12485676  0.29692320  1
  Bi2+  Bi73  1  0.24139454  0.16343636  0.78929122  1
  Bi2+  Bi74  1  0.21877733  0.38013135  0.27424924  1
  Bi2+  Bi75  1  0.26295546  0.42536159  0.80405473  1
  Bi2+  Bi76  1  0.24316107  0.55726922  0.31566638  1
  Bi2+  Bi77  1  0.26143945  0.70433001  0.79319387  1
  Bi2+  Bi78  1  0.27018510  0.74990164  0.29406739  1
  Bi2+  Bi79  1  0.25030544  0.89990040  0.78928197  1
  Bi2+  Bi80  1  0.51414675  0.16128457  0.30932768  1
  Bi2+  Bi81  1  0.49816075  0.19025718  0.80244450  1
  Bi2+  Bi82  1  0.52864105  0.40531072  0.28436952  1
  Bi2+  Bi83  1  0.53531183  0.36729755  0.84494258  1
  Bi2+  Bi84  1  0.48741803  0.59748421  0.29362689  1
  Bi2+  Bi85  1  0.48312280  0.60532252  0.79582013  1
  Bi2+  Bi86  1  0.52682495  0.84768537  0.28599888  1
  Bi2+  Bi87  1  0.46673190  0.98015871  0.78619760  1
  Bi2+  Bi88  1  0.78082697  0.23271683  0.27248683  1
  Bi2+  Bi89  1  0.75740911  0.14774148  0.78568370  1
  Bi2+  Bi90  1  0.80648170  0.41497286  0.31217223  1
  Bi2+  Bi91  1  0.74835956  0.33405608  0.82821641  1
  Bi2+  Bi92  1  0.74942971  0.61934833  0.29022979  1
  Bi2+  Bi93  1  0.75203437  0.52043127  0.79153342  1
  Bi2+  Bi94  1  0.75866407  0.86481281  0.28630532  1
  Bi2+  Bi95  1  0.73838294  0.87285327  0.77607961  1
  Bi2+  Bi96  1  0.13143347  0.03333551  0.18673148  1
  Bi2+  Bi97  1  0.15637497  -0.01311696  0.70112573  1
  Bi2+  Bi98  1  0.12731949  0.26771008  0.20034939  1
  Bi2+  Bi99  1  0.13451538  0.30489373  0.73639921  1
  Bi2+  Bi100  1  0.06646358  0.55221149  0.20479894  1
  Bi2+  Bi101  1  0.15208462  0.48609608  0.69105931  1
  Bi2+  Bi102  1  0.12205306  0.74078664  0.21226085  1
  Bi2+  Bi103  1  0.11252618  0.71232868  0.71838075  1
  Bi2+  Bi104  1  0.41583596  0.00933693  0.26292993  1
  Bi2+  Bi105  1  0.40350185  0.09294511  0.69682267  1
  Bi2+  Bi106  1  0.37400143  0.26653949  0.20620543  1
  Bi2+  Bi107  1  0.42227991  0.35184507  0.75005057  1
  Bi2+  Bi108  1  0.35837680  0.63742829  0.21080047  1
  Bi2+  Bi109  1  0.33237947  0.56007391  0.72526089  1
  Bi2+  Bi110  1  0.36778137  0.83804176  0.20212119  1
  Bi2+  Bi111  1  0.39154906  0.83004855  0.72259231  1
  Bi2+  Bi112  1  0.62469832  0.01617390  0.25942961  1
  Bi2+  Bi113  1  0.58642177  0.02351771  0.69925466  1
  Bi2+  Bi114  1  0.62372473  0.21356432  0.21049758  1
  Bi2+  Bi115  1  0.65787421  0.28516984  0.72577997  1
  Bi2+  Bi116  1  0.69978933  0.48141508  0.21438642  1
  Bi2+  Bi117  1  0.58365165  0.47043418  0.72760021  1
  Bi2+  Bi118  1  0.60838997  0.75374002  0.19813693  1
  Bi2+  Bi119  1  0.61208138  0.71604141  0.68009239  1
  Bi2+  Bi120  1  0.86483568  0.02976622  0.19391508  1
  Bi2+  Bi121  1  0.87996212  0.00968793  0.68614316  1
  Bi2+  Bi122  1  0.87043911  0.36914467  0.20024920  1
  Bi2+  Bi123  1  0.87555202  0.25614862  0.70919116  1
  Bi2+  Bi124  1  0.86741364  0.57511294  0.18388681  1
  Bi2+  Bi125  1  0.88663420  0.46245312  0.71399011  1
  Bi2+  Bi126  1  0.87830433  0.76467078  0.21080991  1
  Bi2+  Bi127  1  0.86185084  0.71722215  0.70656846  1
  S2-  S128  1  0.02265503  0.17689494  0.15291458  1
  S2-  S129  1  -0.02281120  0.14784908  0.66189037  1
  S2-  S130  1  0.03100913  0.39555006  0.15669177  1
  S2-  S131  1  -0.00202278  0.47278758  0.63443019  1
  S2-  S132  1  0.00569104  0.75196812  0.13585133  1
  S2-  S133  1  -0.01249159  0.71930975  0.64244525  1
  S2-  S134  1  0.00060401  0.97378460  0.13395126  1
  S2-  S135  1  0.01288130  0.94517863  0.64775457  1
  S2-  S136  1  0.26299662  0.14815282  0.16119813  1
  S2-  S137  1  0.23170085  0.11472007  0.65831522  1
  S2-  S138  1  0.26112350  0.38155140  0.16883272  1
  S2-  S139  1  0.25074188  0.35727483  0.65944599  1
  S2-  S140  1  0.21221539  0.62043697  0.15120757  1
  S2-  S141  1  0.23071566  0.63347566  0.64802205  1
  S2-  S142  1  0.23764998  0.91324026  0.14618742  1
  S2-  S143  1  0.26020333  0.87368242  0.65945328  1
  S2-  S144  1  0.49710200  0.18943875  0.14518506  1
  S2-  S145  1  0.48285410  0.21799644  0.64453291  1
  S2-  S146  1  0.46745287  0.39720226  0.19210136  1
  S2-  S147  1  0.48503902  0.48556403  0.64731408  1
  S2-  S148  1  0.52361833  0.62374904  0.16559323  1
  S2-  S149  1  0.45517492  0.73240235  0.64217705  1
  S2-  S150  1  0.51973307  0.88016648  0.14966734  1
  S2-  S151  1  0.60593667  0.87687990  0.64032793  1
  S2-  S152  1  0.78559292  0.16441101  0.16321772  1
  S2-  S153  1  0.72805841  0.09116683  0.65798353  1
  S2-  S154  1  0.66549709  0.35526128  0.14697325  1
  S2-  S155  1  0.76045823  0.36745982  0.65456142  1
  S2-  S156  1  0.75573365  0.74331514  0.13859350  1
  S2-  S157  1  0.75057340  0.61362923  0.65402569  1
  S2-  S158  1  0.75998698  0.96549256  0.13584206  1
  S2-  S159  1  0.81433357  0.85215654  0.65600933  1
  S2-  S160  1  0.14947665  -0.01982479  0.27721705  1
  S2-  S161  1  0.08678486  -0.06246383  0.82758327  1
  S2-  S162  1  0.10835298  0.14044179  0.35192762  1
  S2-  S163  1  0.10680344  0.14330402  0.85203514  1
  S2-  S164  1  0.12542543  0.35638757  0.35994757  1
  S2-  S165  1  0.13369581  0.51263400  0.84747697  1
  S2-  S166  1  0.12958819  0.81130534  0.35316433  1
  S2-  S167  1  0.02599339  0.72855740  0.85447073  1
  S2-  S168  1  0.31622479  -0.01113199  0.35746901  1
  S2-  S169  1  0.29104643  0.02948851  0.85373263  1
  S2-  S170  1  0.34940979  0.23626179  0.33938720  1
  S2-  S171  1  0.27255995  0.26952806  0.86153706  1
  S2-  S172  1  0.39912545  0.46932295  0.34961245  1
  S2-  S173  1  0.39865557  0.49016453  0.86110061  1
  S2-  S174  1  0.48199441  0.72800081  0.35983100  1
  S2-  S175  1  0.44528237  0.73629367  0.85239309  1
  S2-  S176  1  0.70899397  -0.00738013  0.35432136  1
  S2-  S177  1  0.61778915  -0.07995684  0.84042885  1
  S2-  S178  1  0.59806135  0.28833118  0.35464410  1
  S2-  S179  1  0.64250535  0.12939339  0.85801556  1
  S2-  S180  1  0.61546180  0.52666156  0.34814058  1
  S2-  S181  1  0.63175088  0.57947807  0.85567229  1
  S2-  S182  1  0.71146383  0.74572244  0.35298200  1
  S2-  S183  1  0.61317304  0.75236946  0.76998550  1
  S2-  S184  1  0.93299750  0.01902612  0.29342469  1
  S2-  S185  1  0.87728661  -0.05285547  0.82310059  1
  S2-  S186  1  0.86018094  0.16865934  0.35625536  1
  S2-  S187  1  0.88741934  0.14415366  0.86024461  1
  S2-  S188  1  0.88128288  0.60956801  0.35772133  1
  S2-  S189  1  0.88430938  0.56182746  0.85877831  1
  S2-  S190  1  0.89430871  0.84301787  0.34874618  1
  S2-  S191  1  0.78307832  0.75598369  0.83589080  1
  S2-  S192  1  -0.01784348  0.11003642  0.45701885  1
  S2-  S193  1  0.01310501  0.12044626  0.95838519  1
  S2-  S194  1  -0.01615297  0.36492115  0.45539904  1
  S2-  S195  1  0.01032701  0.36385055  0.95226241  1
  S2-  S196  1  -0.00797325  0.61228954  0.45831219  1
  S2-  S197  1  0.01244996  0.61099080  0.96301236  1
  S2-  S198  1  -0.00942166  0.86952339  0.45384018  1
  S2-  S199  1  0.01241110  0.86850528  0.94738475  1
  S2-  S200  1  0.23643664  0.10828010  0.45567925  1
  S2-  S201  1  0.26634667  0.12174812  0.95860084  1
  S2-  S202  1  0.23924191  0.36207205  0.45567897  1
  S2-  S203  1  0.26154245  0.37035758  0.96465851  1
  S2-  S204  1  0.23500472  0.61401428  0.44707424  1
  S2-  S205  1  0.26332194  0.61404896  0.95306426  1
  S2-  S206  1  0.23987611  0.86380380  0.45560376  1
  S2-  S207  1  0.26212760  0.86045835  0.94552751  1
  S2-  S208  1  0.48865669  0.11227483  0.45918562  1
  S2-  S209  1  0.50579949  0.11934416  0.95157351  1
  S2-  S210  1  0.48354865  0.36079320  0.46419016  1
  S2-  S211  1  0.51234869  0.36580124  0.96911938  1
  S2-  S212  1  0.48305580  0.60571044  0.46127905  1
  S2-  S213  1  0.50761497  0.61334390  0.96122483  1
  S2-  S214  1  0.48620346  0.86598357  0.45945320  1
  S2-  S215  1  0.51058522  0.86432908  0.94809137  1
  S2-  S216  1  0.73459419  0.11628111  0.45661179  1
  S2-  S217  1  0.76261579  0.11775879  0.95950529  1
  S2-  S218  1  0.73495364  0.36296406  0.45342525  1
  S2-  S219  1  0.76355743  0.36670015  0.96057635  1
  S2-  S220  1  0.73002604  0.60600155  0.45318790  1
  S2-  S221  1  0.76245719  0.60974589  0.96111828  1
  S2-  S222  1  0.73607962  0.86489472  0.45819524  1
  S2-  S223  1  0.75902628  0.86753825  0.94419668  1
  S2-  S224  1  0.13810014  -0.01036369  0.03317627  1
  S2-  S225  1  0.11654834  -0.01534079  0.54871805  1
  S2-  S226  1  0.13689801  0.23594600  0.04372025  1
  S2-  S227  1  0.10848224  0.23482329  0.54917828  1
  S2-  S228  1  0.13484421  0.48858230  0.05121397  1
  S2-  S229  1  0.11386362  0.48525293  0.53506299  1
  S2-  S230  1  0.13885965  0.73622975  0.03891812  1
  S2-  S231  1  0.11402788  0.73546526  0.54485714  1
  S2-  S232  1  0.38544333  -0.01128499  0.04327125  1
  S2-  S233  1  0.36525710  -0.01324693  0.55528816  1
  S2-  S234  1  0.38230314  0.23945028  0.04582562  1
  S2-  S235  1  0.35676816  0.23409391  0.54662569  1
  S2-  S236  1  0.38468592  0.48649228  0.06323417  1
  S2-  S237  1  0.35521885  0.48406267  0.54853314  1
  S2-  S238  1  0.38274930  0.73646346  0.05040907  1
  S2-  S239  1  0.35740642  0.73427096  0.53858790  1
  S2-  S240  1  0.63020145  -0.01098658  0.03705293  1
  S2-  S241  1  0.60770033  -0.00697871  0.54376671  1
  S2-  S242  1  0.63926748  0.23496856  0.04463889  1
  S2-  S243  1  0.61630929  0.23667452  0.55138681  1
  S2-  S244  1  0.63745763  0.48958999  0.05251823  1
  S2-  S245  1  0.61246463  0.48057620  0.54808744  1
  S2-  S246  1  0.63089869  0.73627790  0.04487801  1
  S2-  S247  1  0.60817127  0.73221129  0.54248472  1
  S2-  S248  1  0.88647224  -0.01223321  0.03157850  1
  S2-  S249  1  0.85699624  -0.01455762  0.55117380  1
  S2-  S250  1  0.88390703  0.23643115  0.04732086  1
  S2-  S251  1  0.86233463  0.23637435  0.55179287  1
  S2-  S252  1  0.88559925  0.48683568  0.05311441  1
  S2-  S253  1  0.85946746  0.48364426  0.54022000  1
  S2-  S254  1  0.88699154  0.73607548  0.03410860  1
  S2-  S255  1  0.85786119  0.73209176  0.53894830  1
