# generated using pymatgen
data_La6Ce7Pr13Nd19Sm19(BiS2)64
_symmetry_space_group_name_H-M   'P 1'
_cell_length_a   16.11320379
_cell_length_b   16.10320951
_cell_length_c   27.34614893
_cell_angle_alpha   89.96208226
_cell_angle_beta   90.08928546
_cell_angle_gamma   90.06325012
_symmetry_Int_Tables_number   1
_chemical_formula_structural   La6Ce7Pr13Nd19Sm19(BiS2)64
_chemical_formula_sum   'La6 Ce7 Pr13 Nd19 Sm19 Bi64 S128'
_cell_volume   7095.60827234
_cell_formula_units_Z   1
loop_
 _symmetry_equiv_pos_site_id
 _symmetry_equiv_pos_as_xyz
  1  'x, y, z'
loop_
 _atom_type_symbol
 _atom_type_oxidation_number
  La3+  3.0
  Ce3+  3.0
  Pr3+  3.0
  Nd3+  3.0
  Sm3+  3.0
  Bi2+  2.0
  S2-  -2.0
loop_
 _atom_site_type_symbol
 _atom_site_label
 _atom_site_symmetry_multiplicity
 _atom_site_fract_x
 _atom_site_fract_y
 _atom_site_fract_z
 _atom_site_occupancy
  La3+  La0  1  0.86261736  0.23448880  0.92240493  1
  La3+  La1  1  0.12097956  -0.00878988  0.92810471  1
  La3+  La2  1  0.61638701  0.73658304  0.90027787  1
  La3+  La3  1  0.24568763  0.62106618  0.11327382  1
  La3+  La4  1  0.12763876  0.76486773  0.40017318  1
  La3+  La5  1  0.40065939  0.48089566  0.41446675  1
  Ce3+  Ce6  1  0.26368971  0.61882470  0.54397264  1
  Ce3+  Ce7  1  0.86550276  -0.01635934  0.92867993  1
  Ce3+  Ce8  1  0.76203306  0.62034572  0.56378344  1
  Ce3+  Ce9  1  0.76142340  0.36884382  0.56231819  1
  Ce3+  Ce10  1  0.13670929  0.49747336  0.43707716  1
  Ce3+  Ce11  1  -0.00718465  0.11778512  0.05161186  1
  Ce3+  Ce12  1  0.61947441  0.49539250  0.94169674  1
  Pr3+  Pr13  1  0.36843368  0.74201280  0.93626181  1
  Pr3+  Pr14  1  0.51151232  0.86131671  0.57184024  1
  Pr3+  Pr15  1  0.11969473  0.73943447  0.94543669  1
  Pr3+  Pr16  1  0.49346529  0.37085714  0.06348053  1
  Pr3+  Pr17  1  0.36949598  0.49331584  0.94093971  1
  Pr3+  Pr18  1  0.74613017  0.36994308  0.05551568  1
  Pr3+  Pr19  1  0.02193386  0.12963132  0.59056784  1
  Pr3+  Pr20  1  0.88718824  0.74683825  0.44507477  1
  Pr3+  Pr21  1  -0.01121073  0.61441336  0.07525334  1
  Pr3+  Pr22  1  0.61844842  -0.00911042  0.94234965  1
  Pr3+  Pr23  1  0.02346829  0.85900382  0.58992462  1
  Pr3+  Pr24  1  0.76568135  0.11784721  0.57057958  1
  Pr3+  Pr25  1  0.63435301  0.74775087  0.43358801  1
  Nd3+  Nd26  1  0.50616319  0.37344014  0.57263411  1
  Nd3+  Nd27  1  0.11778505  0.24452336  0.93796452  1
  Nd3+  Nd28  1  0.74623906  0.11586588  0.05809621  1
  Nd3+  Nd29  1  0.86917941  0.49872017  0.93089045  1
  Nd3+  Nd30  1  0.63837349  0.49430168  0.44664860  1
  Nd3+  Nd31  1  0.49313625  0.86588112  0.05951534  1
  Nd3+  Nd32  1  0.26766323  0.11977424  0.57055886  1
  Nd3+  Nd33  1  0.13384113  -0.00237867  0.44549045  1
  Nd3+  Nd34  1  0.38757350  0.74605263  0.42974899  1
  Nd3+  Nd35  1  0.23873486  0.11565847  0.06298215  1
  Nd3+  Nd36  1  0.13519122  0.24283441  0.44169736  1
  Nd3+  Nd37  1  0.24350036  0.37226988  0.06324446  1
  Nd3+  Nd38  1  0.37236632  -0.00760695  0.93921015  1
  Nd3+  Nd39  1  0.24319333  0.87306502  0.06605910  1
  Nd3+  Nd40  1  0.38582583  -0.00735207  0.44440483  1
  Nd3+  Nd41  1  0.89120521  -0.00542719  0.45820747  1
  Nd3+  Nd42  1  0.88948140  0.49786130  0.44511795  1
  Nd3+  Nd43  1  0.87307870  0.74056913  0.92911468  1
  Nd3+  Nd44  1  0.76303872  0.86674654  0.56420397  1
  Sm3+  Sm45  1  -0.00696855  0.86764426  0.05692334  1
  Sm3+  Sm46  1  0.01708614  0.62211066  0.55621064  1
  Sm3+  Sm47  1  0.01465478  0.37060828  0.55797405  1
  Sm3+  Sm48  1  0.74611878  0.62100402  0.05809152  1
  Sm3+  Sm49  1  0.74320056  0.86426712  0.04973245  1
  Sm3+  Sm50  1  0.38767349  0.24180289  0.44229895  1
  Sm3+  Sm51  1  0.25858972  0.86509055  0.55753534  1
  Sm3+  Sm52  1  -0.00729594  0.37019200  0.05278185  1
  Sm3+  Sm53  1  0.49038430  0.62188899  0.05796613  1
  Sm3+  Sm54  1  0.36810234  0.24396743  0.94712158  1
  Sm3+  Sm55  1  0.26421038  0.37173573  0.54788498  1
  Sm3+  Sm56  1  0.51084926  0.11724355  0.56220965  1
  Sm3+  Sm57  1  0.11829922  0.49402040  0.94662872  1
  Sm3+  Sm58  1  0.61999830  0.24367242  0.94676822  1
  Sm3+  Sm59  1  0.63802626  0.24470466  0.45345883  1
  Sm3+  Sm60  1  0.63713814  -0.00370095  0.45080306  1
  Sm3+  Sm61  1  0.49316158  0.11728891  0.05577437  1
  Sm3+  Sm62  1  0.50702239  0.61545528  0.56175850  1
  Sm3+  Sm63  1  0.88725238  0.24345191  0.44884782  1
  Bi2+  Bi64  1  -0.00932518  0.13037486  0.30228458  1
  Bi2+  Bi65  1  -0.00244317  0.14007567  0.79777717  1
  Bi2+  Bi66  1  -0.07028287  0.37367746  0.28181215  1
  Bi2+  Bi67  1  0.03322312  0.38925680  0.79575574  1
  Bi2+  Bi68  1  -0.02319601  0.61765231  0.30129478  1
  Bi2+  Bi69  1  0.01247373  0.62405855  0.79196926  1
  Bi2+  Bi70  1  -0.02191853  0.91218556  0.29774356  1
  Bi2+  Bi71  1  0.00325395  0.87020018  0.79061093  1
  Bi2+  Bi72  1  0.28128749  0.12440821  0.29174690  1
  Bi2+  Bi73  1  0.29243139  0.15895631  0.75871438  1
  Bi2+  Bi74  1  0.20388708  0.31049669  0.27240615  1
  Bi2+  Bi75  1  0.31502712  0.37973721  0.78374014  1
  Bi2+  Bi76  1  0.23522195  0.59988573  0.31375055  1
  Bi2+  Bi77  1  0.27524436  0.64709898  0.78602259  1
  Bi2+  Bi78  1  0.27194472  0.91206397  0.29233216  1
  Bi2+  Bi79  1  0.25900452  0.84614143  0.78592766  1
  Bi2+  Bi80  1  0.50078783  0.15195452  0.25676788  1
  Bi2+  Bi81  1  0.47961142  0.16974194  0.79509990  1
  Bi2+  Bi82  1  0.53357753  0.35407290  0.29755456  1
  Bi2+  Bi83  1  0.51842177  0.36795693  0.78937254  1
  Bi2+  Bi84  1  0.52925114  0.62231846  0.28766472  1
  Bi2+  Bi85  1  0.47371014  0.62623922  0.78047489  1
  Bi2+  Bi86  1  0.54258305  0.87258722  0.28541277  1
  Bi2+  Bi87  1  0.46754354  0.89895925  0.79188383  1
  Bi2+  Bi88  1  0.69549449  0.10755238  0.29637029  1
  Bi2+  Bi89  1  0.75960916  0.19248068  0.78128634  1
  Bi2+  Bi90  1  0.72978552  0.37122351  0.29089783  1
  Bi2+  Bi91  1  0.71802748  0.39547685  0.79175797  1
  Bi2+  Bi92  1  0.72897083  0.62687484  0.30261993  1
  Bi2+  Bi93  1  0.74573001  0.58723316  0.78451790  1
  Bi2+  Bi94  1  0.73101766  0.82491922  0.30196114  1
  Bi2+  Bi95  1  0.73716994  0.92883432  0.79780669  1
  Bi2+  Bi96  1  0.14329276  0.04477656  0.21904893  1
  Bi2+  Bi97  1  0.17562279  -0.00954325  0.71797344  1
  Bi2+  Bi98  1  0.10071567  0.23070705  0.18246908  1
  Bi2+  Bi99  1  0.16592894  0.30558137  0.71873801  1
  Bi2+  Bi100  1  0.08806169  0.42855562  0.21247055  1
  Bi2+  Bi101  1  0.09922841  0.49754734  0.70438458  1
  Bi2+  Bi102  1  0.10546180  0.77755937  0.20211269  1
  Bi2+  Bi103  1  0.14859307  0.71744803  0.70502840  1
  Bi2+  Bi104  1  0.39780250  -0.00029052  0.20125282  1
  Bi2+  Bi105  1  0.36888428  -0.00821562  0.70853069  1
  Bi2+  Bi106  1  0.34751219  0.23953037  0.20571065  1
  Bi2+  Bi107  1  0.45109068  0.26767919  0.69339899  1
  Bi2+  Bi108  1  0.37969495  0.48049399  0.20977199  1
  Bi2+  Bi109  1  0.31932680  0.50047083  0.69160117  1
  Bi2+  Bi110  1  0.38215926  0.74417087  0.21572682  1
  Bi2+  Bi111  1  0.38018565  0.75469093  0.70806445  1
  Bi2+  Bi112  1  0.66830529  -0.03543608  0.21551331  1
  Bi2+  Bi113  1  0.57502072  0.05591698  0.72057992  1
  Bi2+  Bi114  1  0.66832152  0.24474246  0.21157702  1
  Bi2+  Bi115  1  0.64148188  0.31975447  0.69152152  1
  Bi2+  Bi116  1  0.63837296  0.52129234  0.20959909  1
  Bi2+  Bi117  1  0.59207110  0.51199880  0.71566729  1
  Bi2+  Bi118  1  0.64449180  0.72066056  0.20887194  1
  Bi2+  Bi119  1  0.63194085  0.77404073  0.70286611  1
  Bi2+  Bi120  1  0.85257673  0.04012611  0.23417614  1
  Bi2+  Bi121  1  0.82788047  0.01482193  0.71410908  1
  Bi2+  Bi122  1  0.90461682  0.22856760  0.20765438  1
  Bi2+  Bi123  1  0.90024278  0.28285988  0.70276107  1
  Bi2+  Bi124  1  0.83428889  0.49760014  0.20475120  1
  Bi2+  Bi125  1  0.90298153  0.49835609  0.72500666  1
  Bi2+  Bi126  1  0.84809059  0.76781703  0.20664036  1
  Bi2+  Bi127  1  0.87804545  0.75992872  0.70230902  1
  S2-  S128  1  0.02613083  0.07844920  0.14364195  1
  S2-  S129  1  -0.05815178  0.11904203  0.68351077  1
  S2-  S130  1  -0.02970639  0.44096011  0.14110446  1
  S2-  S131  1  0.03005642  0.29266754  0.64469779  1
  S2-  S132  1  0.08516479  0.63399409  0.15845530  1
  S2-  S133  1  0.00912151  0.70145642  0.64373885  1
  S2-  S134  1  -0.01826922  0.84432073  0.15511279  1
  S2-  S135  1  -0.03432031  0.89656052  0.68693584  1
  S2-  S136  1  0.24963246  0.00633774  0.14026078  1
  S2-  S137  1  0.16468606  0.11070563  0.65099689  1
  S2-  S138  1  0.24015468  0.45049865  0.15191132  1
  S2-  S139  1  0.28056892  0.34874970  0.64441978  1
  S2-  S140  1  0.26801239  0.62406835  0.22188116  1
  S2-  S141  1  0.27338973  0.64531052  0.64050315  1
  S2-  S142  1  0.25557447  0.78547225  0.15170656  1
  S2-  S143  1  0.17622475  0.86335782  0.64530432  1
  S2-  S144  1  0.50226309  0.10443114  0.15252930  1
  S2-  S145  1  0.40425095  0.12324556  0.63844614  1
  S2-  S146  1  0.45978156  0.36372034  0.16215686  1
  S2-  S147  1  0.47377656  0.50208875  0.63874853  1
  S2-  S148  1  0.42442909  0.61694144  0.14859725  1
  S2-  S149  1  0.51089703  0.72377755  0.63946324  1
  S2-  S150  1  0.46861288  0.86657086  0.15776188  1
  S2-  S151  1  0.55386260  0.92128237  0.66702720  1
  S2-  S152  1  0.77529369  0.14099266  0.15391886  1
  S2-  S153  1  0.70816011  0.11058235  0.66510260  1
  S2-  S154  1  0.71997687  0.38726882  0.15352971  1
  S2-  S155  1  0.79128044  0.40027261  0.65599355  1
  S2-  S156  1  0.84723248  0.63282798  0.13869801  1
  S2-  S157  1  0.74749202  0.66180183  0.65829245  1
  S2-  S158  1  0.76218300  0.87741692  0.14709754  1
  S2-  S159  1  0.75946338  0.87141695  0.66336517  1
  S2-  S160  1  0.12311361  -0.07264286  0.35310154  1
  S2-  S161  1  0.08893679  0.00989814  0.82927541  1
  S2-  S162  1  0.13626918  0.19818444  0.34630317  1
  S2-  S163  1  0.10836645  0.23204203  0.83970994  1
  S2-  S164  1  0.08924524  0.50446879  0.34315300  1
  S2-  S165  1  0.10441364  0.50951976  0.84869117  1
  S2-  S166  1  0.10173311  0.71887326  0.29903689  1
  S2-  S167  1  0.07246293  0.75958369  0.84791160  1
  S2-  S168  1  0.38292695  -0.00639701  0.34490304  1
  S2-  S169  1  0.33706202  -0.02747011  0.84378608  1
  S2-  S170  1  0.41462179  0.31290716  0.35696709  1
  S2-  S171  1  0.34197443  0.23898182  0.85123896  1
  S2-  S172  1  0.34928326  0.49205117  0.31475664  1
  S2-  S173  1  0.36895953  0.51897424  0.84174646  1
  S2-  S174  1  0.28864762  0.76311446  0.34662474  1
  S2-  S175  1  0.46300935  0.75478606  0.85095844  1
  S2-  S176  1  0.63427491  -0.02658484  0.35454976  1
  S2-  S177  1  0.60032004  -0.01283683  0.84278709  1
  S2-  S178  1  0.64740268  0.25313609  0.35618293  1
  S2-  S179  1  0.66466079  0.23521947  0.85272426  1
  S2-  S180  1  0.55637461  0.49268332  0.35950862  1
  S2-  S181  1  0.61726474  0.57552607  0.85525165  1
  S2-  S182  1  0.51429516  0.75142359  0.35860119  1
  S2-  S183  1  0.67774139  0.77677508  0.80460445  1
  S2-  S184  1  0.89283629  0.00462065  0.35859979  1
  S2-  S185  1  0.85321931  0.08265487  0.84810246  1
  S2-  S186  1  0.89751628  0.24563554  0.35158970  1
  S2-  S187  1  0.89778664  0.28326597  0.82793742  1
  S2-  S188  1  0.84761142  0.53222820  0.35175072  1
  S2-  S189  1  0.86754486  0.61656903  0.85659125  1
  S2-  S190  1  0.94268663  0.76546296  0.35163746  1
  S2-  S191  1  0.87365687  0.86109489  0.85334186  1
  S2-  S192  1  0.01065508  0.12241804  0.46296196  1
  S2-  S193  1  -0.00537829  0.11680900  0.94684133  1
  S2-  S194  1  0.01077203  0.36872038  0.45330404  1
  S2-  S195  1  -0.00904786  0.36953275  0.94805455  1
  S2-  S196  1  0.01487658  0.62401856  0.45228622  1
  S2-  S197  1  -0.00456890  0.61494635  0.96012962  1
  S2-  S198  1  0.01298774  0.87055710  0.46154524  1
  S2-  S199  1  -0.00333378  0.86795974  0.95365578  1
  S2-  S200  1  0.26358967  0.12022973  0.45773835  1
  S2-  S201  1  0.24520393  0.11874720  0.95427027  1
  S2-  S202  1  0.26055816  0.36680250  0.44387879  1
  S2-  S203  1  0.24296401  0.36834559  0.95476374  1
  S2-  S204  1  0.26632639  0.61467388  0.43967513  1
  S2-  S205  1  0.24315718  0.61539708  0.94534309  1
  S2-  S206  1  0.25877018  0.87184074  0.45420987  1
  S2-  S207  1  0.24568471  0.86884365  0.95333998  1
  S2-  S208  1  0.51257656  0.12009206  0.45673300  1
  S2-  S209  1  0.49374333  0.12205823  0.95094235  1
  S2-  S210  1  0.51739154  0.36462734  0.46567292  1
  S2-  S211  1  0.49507063  0.36554471  0.95422108  1
  S2-  S212  1  0.51280468  0.61915220  0.45749930  1
  S2-  S213  1  0.49478757  0.62016476  0.95536300  1
  S2-  S214  1  0.51326304  0.87443095  0.46092745  1
  S2-  S215  1  0.49638803  0.86550812  0.95373561  1
  S2-  S216  1  0.76225449  0.11998258  0.46246786  1
  S2-  S217  1  0.74064394  0.11571859  0.95375762  1
  S2-  S218  1  0.76441311  0.36939393  0.45580195  1
  S2-  S219  1  0.74546745  0.37008407  0.94845937  1
  S2-  S220  1  0.76015213  0.62177747  0.45737516  1
  S2-  S221  1  0.74010881  0.62253292  0.95573590  1
  S2-  S222  1  0.76077108  0.87265066  0.45757888  1
  S2-  S223  1  0.73423528  0.85716041  0.94687646  1
  S2-  S224  1  0.11734525  -0.00854796  0.03726311  1
  S2-  S225  1  0.13764759  -0.00563929  0.54934295  1
  S2-  S226  1  0.11850374  0.24601422  0.04409946  1
  S2-  S227  1  0.14254346  0.24684684  0.54561007  1
  S2-  S228  1  0.11798055  0.49270487  0.04812508  1
  S2-  S229  1  0.13691625  0.49311482  0.54524355  1
  S2-  S230  1  0.11802633  0.74696844  0.04973972  1
  S2-  S231  1  0.13901254  0.74187238  0.54063101  1
  S2-  S232  1  0.37242062  -0.00480415  0.04354827  1
  S2-  S233  1  0.38602157  -0.01220306  0.54898065  1
  S2-  S234  1  0.36706885  0.24115225  0.05163523  1
  S2-  S235  1  0.38803670  0.24770036  0.54371181  1
  S2-  S236  1  0.36897229  0.49415027  0.04645214  1
  S2-  S237  1  0.38496197  0.49250665  0.53051659  1
  S2-  S238  1  0.36763768  0.74402548  0.04315698  1
  S2-  S239  1  0.38436711  0.74599507  0.53759632  1
  S2-  S240  1  0.61901432  -0.00736556  0.04942934  1
  S2-  S241  1  0.63589791  -0.00464204  0.55389611  1
  S2-  S242  1  0.61848368  0.24191701  0.05072280  1
  S2-  S243  1  0.63249672  0.24312646  0.55736250  1
  S2-  S244  1  0.61786841  0.49842614  0.04887683  1
  S2-  S245  1  0.63714012  0.49498692  0.55229718  1
  S2-  S246  1  0.61894014  0.74116940  0.05620766  1
  S2-  S247  1  0.63939220  0.74375792  0.54171143  1
  S2-  S248  1  0.86729797  -0.01029940  0.04029450  1
  S2-  S249  1  0.89402935  -0.00706659  0.56362320  1
  S2-  S250  1  0.86953308  0.24471284  0.03945429  1
  S2-  S251  1  0.88902117  0.24453988  0.55303708  1
  S2-  S252  1  0.86629436  0.49409104  0.03613606  1
  S2-  S253  1  0.89258850  0.49672396  0.55170048  1
  S2-  S254  1  0.86867623  0.74687765  0.03699822  1
  S2-  S255  1  0.88842913  0.74530321  0.55018020  1
