# generated using pymatgen
data_La6Ce7Pr13Nd19Sm19(BiS2)64
_symmetry_space_group_name_H-M   'P 1'
_cell_length_a   16.04184481
_cell_length_b   16.07040370
_cell_length_c   27.45841100
_cell_angle_alpha   89.76155189
_cell_angle_beta   89.76473379
_cell_angle_gamma   89.91917982
_symmetry_Int_Tables_number   1
_chemical_formula_structural   La6Ce7Pr13Nd19Sm19(BiS2)64
_chemical_formula_sum   'La6 Ce7 Pr13 Nd19 Sm19 Bi64 S128'
_cell_volume   7078.62091541
_cell_formula_units_Z   1
loop_
 _symmetry_equiv_pos_site_id
 _symmetry_equiv_pos_as_xyz
  1  'x, y, z'
loop_
 _atom_type_symbol
 _atom_type_oxidation_number
  La3+  3.0
  Ce3+  3.0
  Pr3+  3.0
  Nd3+  3.0
  Sm3+  3.0
  Bi2+  2.0
  S2-  -2.0
loop_
 _atom_site_type_symbol
 _atom_site_label
 _atom_site_symmetry_multiplicity
 _atom_site_fract_x
 _atom_site_fract_y
 _atom_site_fract_z
 _atom_site_occupancy
  La3+  La0  1  0.13205314  0.25682793  0.91757322  1
  La3+  La1  1  0.25898536  0.61696171  0.08418640  1
  La3+  La2  1  0.50627187  0.13964302  0.10629187  1
  La3+  La3  1  0.49978721  0.36187353  0.57337943  1
  La3+  La4  1  -0.01547453  0.13012057  0.61670845  1
  La3+  La5  1  0.36431629  -0.03308418  0.38096065  1
  Ce3+  Ce6  1  0.37672291  0.24792015  0.93948792  1
  Ce3+  Ce7  1  0.50092771  0.12041234  0.55581458  1
  Ce3+  Ce8  1  0.00745606  0.12112374  0.05641851  1
  Ce3+  Ce9  1  0.24725477  0.36310972  0.06880249  1
  Ce3+  Ce10  1  0.00275241  0.37038454  0.56026579  1
  Ce3+  Ce11  1  0.00277996  0.62519575  0.56152329  1
  Ce3+  Ce12  1  0.62782801  0.24649845  0.93498802  1
  Pr3+  Pr13  1  0.49552303  0.87357806  0.07343341  1
  Pr3+  Pr14  1  0.50079301  0.37082744  0.05284859  1
  Pr3+  Pr15  1  0.88283925  -0.00773724  0.92881014  1
  Pr3+  Pr16  1  0.63461853  0.00542518  0.41058052  1
  Pr3+  Pr17  1  0.62691319  -0.00116929  0.93911410  1
  Pr3+  Pr18  1  0.75209812  0.87316892  0.55930191  1
  Pr3+  Pr19  1  0.37735757  0.49098797  0.41886370  1
  Pr3+  Pr20  1  0.62913021  0.25356616  0.43645601  1
  Pr3+  Pr21  1  0.00065671  0.37713084  0.06760775  1
  Pr3+  Pr22  1  0.00380510  0.87243421  0.06493231  1
  Pr3+  Pr23  1  0.24893390  0.87291378  0.07140034  1
  Pr3+  Pr24  1  0.75664596  0.36900098  0.56506861  1
  Pr3+  Pr25  1  0.12882469  0.50003022  0.43266609  1
  Nd3+  Nd26  1  0.37613680  0.49887253  0.93927840  1
  Nd3+  Nd27  1  0.24365174  0.12196596  0.56643250  1
  Nd3+  Nd28  1  0.00381843  0.86954497  0.57069884  1
  Nd3+  Nd29  1  0.88049328  0.24798056  0.94161038  1
  Nd3+  Nd30  1  0.74787986  0.62746665  0.06015637  1
  Nd3+  Nd31  1  0.12938613  -0.00309833  0.44634057  1
  Nd3+  Nd32  1  0.12917947  0.24348554  0.44156285  1
  Nd3+  Nd33  1  0.37284300  0.75125265  0.93532564  1
  Nd3+  Nd34  1  0.88498303  0.49853083  0.43289801  1
  Nd3+  Nd35  1  0.87386672  0.74737115  0.92949812  1
  Nd3+  Nd36  1  0.74782702  0.36789377  0.06035160  1
  Nd3+  Nd37  1  0.50098770  0.87537328  0.55630442  1
  Nd3+  Nd38  1  0.37923399  0.23916016  0.43472504  1
  Nd3+  Nd39  1  0.62097797  0.74987967  0.93019682  1
  Nd3+  Nd40  1  0.13997172  -0.00360084  0.93106641  1
  Nd3+  Nd41  1  0.75114519  0.62012927  0.55151233  1
  Nd3+  Nd42  1  -0.00053254  0.62296684  0.06600251  1
  Nd3+  Nd43  1  0.25452408  0.61950537  0.55577289  1
  Nd3+  Nd44  1  0.75167298  0.11720511  0.06044125  1
  Sm3+  Sm45  1  0.12823340  0.49893121  0.94533695  1
  Sm3+  Sm46  1  0.24947955  0.37102379  0.55385977  1
  Sm3+  Sm47  1  0.24575242  0.12874477  0.06313902  1
  Sm3+  Sm48  1  0.37819631  0.00103917  0.95466401  1
  Sm3+  Sm49  1  0.87674507  0.74903900  0.43866551  1
  Sm3+  Sm50  1  0.13275517  0.75001553  0.44135462  1
  Sm3+  Sm51  1  0.88158426  0.24613031  0.44303950  1
  Sm3+  Sm52  1  0.87768344  -0.00379848  0.44019683  1
  Sm3+  Sm53  1  0.62602093  0.74951383  0.44319140  1
  Sm3+  Sm54  1  0.87782802  0.49888952  0.94476630  1
  Sm3+  Sm55  1  0.50138484  0.61621809  0.55255962  1
  Sm3+  Sm56  1  0.75462600  0.11924407  0.55393551  1
  Sm3+  Sm57  1  0.62914867  0.49811560  0.94289928  1
  Sm3+  Sm58  1  0.62912656  0.49225518  0.44076141  1
  Sm3+  Sm59  1  0.25361038  0.87261828  0.55982937  1
  Sm3+  Sm60  1  0.75101669  0.87299325  0.05275393  1
  Sm3+  Sm61  1  0.13219653  0.74638131  0.94583837  1
  Sm3+  Sm62  1  0.38168958  0.74685467  0.44401979  1
  Sm3+  Sm63  1  0.50076521  0.62557021  0.05862932  1
  Bi2+  Bi64  1  -0.02770513  0.12502033  0.29871625  1
  Bi2+  Bi65  1  -0.02520914  0.11066910  0.81693733  1
  Bi2+  Bi66  1  -0.05112283  0.38827055  0.28520505  1
  Bi2+  Bi67  1  -0.02368615  0.39695908  0.79776047  1
  Bi2+  Bi68  1  -0.03483375  0.61762423  0.28323198  1
  Bi2+  Bi69  1  0.01742883  0.62775415  0.80452104  1
  Bi2+  Bi70  1  -0.03012214  0.92489653  0.27351084  1
  Bi2+  Bi71  1  -0.01717331  0.81100437  0.77053238  1
  Bi2+  Bi72  1  0.22283023  0.12446275  0.29528400  1
  Bi2+  Bi73  1  0.25303612  0.12194450  0.79878961  1
  Bi2+  Bi74  1  0.25587224  0.37729887  0.29272598  1
  Bi2+  Bi75  1  0.24595233  0.43517491  0.78962144  1
  Bi2+  Bi76  1  0.21962275  0.64468639  0.27987751  1
  Bi2+  Bi77  1  0.21483896  0.62530576  0.80771775  1
  Bi2+  Bi78  1  0.22926556  0.83918783  0.29076842  1
  Bi2+  Bi79  1  0.22731349  0.89250834  0.79438616  1
  Bi2+  Bi80  1  0.51348856  0.13335966  0.29987303  1
  Bi2+  Bi81  1  0.47906948  0.17989532  0.79315089  1
  Bi2+  Bi82  1  0.52415330  0.38124541  0.28719235  1
  Bi2+  Bi83  1  0.49306380  0.37818033  0.78538623  1
  Bi2+  Bi84  1  0.47800558  0.58166241  0.30927355  1
  Bi2+  Bi85  1  0.49469468  0.66185686  0.77661467  1
  Bi2+  Bi86  1  0.57971108  0.84775355  0.25988513  1
  Bi2+  Bi87  1  0.45555790  0.90142330  0.80063545  1
  Bi2+  Bi88  1  0.77653592  0.11146252  0.28291140  1
  Bi2+  Bi89  1  0.65856176  0.08978105  0.77241963  1
  Bi2+  Bi90  1  0.77907084  0.47028616  0.31856037  1
  Bi2+  Bi91  1  0.71541149  0.41827153  0.79340396  1
  Bi2+  Bi92  1  0.66797120  0.62590570  0.29383684  1
  Bi2+  Bi93  1  0.75791805  0.62191759  0.78657088  1
  Bi2+  Bi94  1  0.78968487  0.84247995  0.28900715  1
  Bi2+  Bi95  1  0.75870013  0.89352281  0.80525360  1
  Bi2+  Bi96  1  0.11774439  0.00373022  0.21063833  1
  Bi2+  Bi97  1  0.12240762  -0.02229952  0.71303832  1
  Bi2+  Bi98  1  0.07914766  0.22264749  0.21787173  1
  Bi2+  Bi99  1  0.13524848  0.26605792  0.70862943  1
  Bi2+  Bi100  1  0.11904896  0.48696315  0.19793515  1
  Bi2+  Bi101  1  0.09488739  0.50179410  0.72126452  1
  Bi2+  Bi102  1  0.04422759  0.74894048  0.20858098  1
  Bi2+  Bi103  1  0.12509902  0.73207499  0.70408982  1
  Bi2+  Bi104  1  0.35242987  -0.00431838  0.18418391  1
  Bi2+  Bi105  1  0.38793890  0.03561219  0.72805936  1
  Bi2+  Bi106  1  0.36413455  0.28874116  0.21605588  1
  Bi2+  Bi107  1  0.34171432  0.29136830  0.73072968  1
  Bi2+  Bi108  1  0.37794900  0.51402340  0.22015352  1
  Bi2+  Bi109  1  0.38871080  0.54174280  0.69586261  1
  Bi2+  Bi110  1  0.43243982  0.73678840  0.22238809  1
  Bi2+  Bi111  1  0.32520502  0.72266400  0.72989911  1
  Bi2+  Bi112  1  0.65986915  0.01204732  0.21522136  1
  Bi2+  Bi113  1  0.56907734  0.00243343  0.68470753  1
  Bi2+  Bi114  1  0.65044665  0.29231266  0.20821737  1
  Bi2+  Bi115  1  0.60785752  0.24555487  0.70955615  1
  Bi2+  Bi116  1  0.58453783  0.51155905  0.20737351  1
  Bi2+  Bi117  1  0.61383064  0.55331600  0.70610552  1
  Bi2+  Bi118  1  0.61776323  0.70344668  0.18239459  1
  Bi2+  Bi119  1  0.58650628  0.81840433  0.72848040  1
  Bi2+  Bi120  1  0.92401096  -0.00366718  0.16595872  1
  Bi2+  Bi121  1  0.83710809  -0.00837333  0.71238633  1
  Bi2+  Bi122  1  0.89109423  0.17961585  0.19400769  1
  Bi2+  Bi123  1  0.84479772  0.26286569  0.71067279  1
  Bi2+  Bi124  1  0.85161323  0.51017928  0.21301592  1
  Bi2+  Bi125  1  0.90366126  0.54592371  0.71478020  1
  Bi2+  Bi126  1  0.86728655  0.80212143  0.18065849  1
  Bi2+  Bi127  1  0.84333922  0.73546719  0.70271672  1
  S2-  S128  1  0.11677432  0.11834378  0.13467225  1
  S2-  S129  1  -0.03912289  0.12990698  0.72405457  1
  S2-  S130  1  0.10383851  0.34366890  0.14676724  1
  S2-  S131  1  -0.01270681  0.30396168  0.65145940  1
  S2-  S132  1  -0.01149845  0.51091429  0.14273579  1
  S2-  S133  1  -0.00576553  0.73306294  0.63803679  1
  S2-  S134  1  0.11981410  0.87073645  0.14322251  1
  S2-  S135  1  -0.01557648  0.96221433  0.65411327  1
  S2-  S136  1  0.29044687  0.24198280  0.13584238  1
  S2-  S137  1  0.15463652  0.12802022  0.65481699  1
  S2-  S138  1  0.26897725  0.46714557  0.14647105  1
  S2-  S139  1  0.24776674  0.34930572  0.65174808  1
  S2-  S140  1  0.17326588  0.65129036  0.17425752  1
  S2-  S141  1  0.24217131  0.62034035  0.65362775  1
  S2-  S142  1  0.36222499  0.83946852  0.14771393  1
  S2-  S143  1  0.20232815  0.87832549  0.65442639  1
  S2-  S144  1  0.44048354  0.13928811  0.20581733  1
  S2-  S145  1  0.49849207  0.21507199  0.63784989  1
  S2-  S146  1  0.51777083  0.31192572  0.14648402  1
  S2-  S147  1  0.50836412  0.43579172  0.66555774  1
  S2-  S148  1  0.40896761  0.63033956  0.14265682  1
  S2-  S149  1  0.50323435  0.64244545  0.64815651  1
  S2-  S150  1  0.52089586  0.97874998  0.15323726  1
  S2-  S151  1  0.47727329  0.86206749  0.65525030  1
  S2-  S152  1  0.67086853  0.14740095  0.14799355  1
  S2-  S153  1  0.80573819  0.12885052  0.64730109  1
  S2-  S154  1  0.77155609  0.37461851  0.15807909  1
  S2-  S155  1  0.73672766  0.35456114  0.66517077  1
  S2-  S156  1  0.79059219  0.64639324  0.15474121  1
  S2-  S157  1  0.75074724  0.60813165  0.64912333  1
  S2-  S158  1  0.74382424  0.91289707  0.14757285  1
  S2-  S159  1  0.76342704  0.87768913  0.65966601  1
  S2-  S160  1  0.18512574  -0.01601856  0.35235499  1
  S2-  S161  1  0.09152213  -0.02189643  0.83522907  1
  S2-  S162  1  0.15310063  0.26044196  0.34299518  1
  S2-  S163  1  0.10853101  0.20615706  0.81522549  1
  S2-  S164  1  0.23946878  0.51771980  0.35112751  1
  S2-  S165  1  0.11724427  0.41171165  0.86067144  1
  S2-  S166  1  0.12187925  0.72588852  0.34462861  1
  S2-  S167  1  0.23866896  0.76464520  0.86651430  1
  S2-  S168  1  0.34510600  -0.04016972  0.27372790  1
  S2-  S169  1  0.30765898  -0.00971013  0.86555074  1
  S2-  S170  1  0.35943462  0.13918511  0.35066807  1
  S2-  S171  1  0.28626600  0.24945620  0.85868031  1
  S2-  S172  1  0.39173803  0.35348036  0.35567523  1
  S2-  S173  1  0.39472363  0.48033262  0.83938290  1
  S2-  S174  1  0.35602799  0.79373254  0.35202705  1
  S2-  S175  1  0.49083978  0.75603084  0.86041622  1
  S2-  S176  1  0.52493003  -0.02049373  0.33439122  1
  S2-  S177  1  0.60292837  -0.04581035  0.84297821  1
  S2-  S178  1  0.64591984  0.15883018  0.35124477  1
  S2-  S179  1  0.65672894  0.29223505  0.84226764  1
  S2-  S180  1  0.63973585  0.38433755  0.36482411  1
  S2-  S181  1  0.62960908  0.53192700  0.84743848  1
  S2-  S182  1  0.64473426  0.77942755  0.34806914  1
  S2-  S183  1  0.74100325  0.74039477  0.85628321  1
  S2-  S184  1  0.78713652  -0.01691415  0.35561647  1
  S2-  S185  1  0.80886213  0.04843748  0.83996048  1
  S2-  S186  1  0.88169459  0.25853777  0.34522281  1
  S2-  S187  1  0.90195529  0.26499888  0.84323388  1
  S2-  S188  1  1.00681356  0.49926725  0.35855382  1
  S2-  S189  1  0.85654516  0.48843285  0.84817937  1
  S2-  S190  1  0.87973808  0.72617058  0.34151241  1
  S2-  S191  1  0.90706613  0.86249030  0.85558381  1
  S2-  S192  1  0.00168781  0.11879516  0.44388320  1
  S2-  S193  1  0.00762202  0.12211171  0.94674871  1
  S2-  S194  1  0.00405974  0.36990708  0.45529723  1
  S2-  S195  1  -0.00137069  0.37712881  0.95937143  1
  S2-  S196  1  0.00401539  0.63003229  0.45614602  1
  S2-  S197  1  0.00267777  0.62431636  0.95574527  1
  S2-  S198  1  0.00203780  0.87007316  0.45046251  1
  S2-  S199  1  0.01128294  0.86861130  0.95777642  1
  S2-  S200  1  0.24998577  0.11965636  0.46051493  1
  S2-  S201  1  0.25171745  0.12501111  0.95925010  1
  S2-  S202  1  0.25160740  0.37150464  0.45232120  1
  S2-  S203  1  0.25442152  0.37716383  0.95979970  1
  S2-  S204  1  0.25761344  0.62556522  0.45192942  1
  S2-  S205  1  0.25226932  0.61973151  0.95892626  1
  S2-  S206  1  0.25736933  0.87211516  0.45674834  1
  S2-  S207  1  0.25334242  0.87413042  0.96641284  1
  S2-  S208  1  0.50979467  0.12184732  0.45279015  1
  S2-  S209  1  0.50016362  0.12141873  0.93610922  1
  S2-  S210  1  0.50025264  0.37541136  0.46252513  1
  S2-  S211  1  0.50473249  0.37497908  0.94669893  1
  S2-  S212  1  0.50457647  0.61929683  0.44858134  1
  S2-  S213  1  0.50378659  0.62019002  0.95561803  1
  S2-  S214  1  0.50312345  0.87333605  0.45070601  1
  S2-  S215  1  0.49866681  0.87731712  0.96256184  1
  S2-  S216  1  0.75901363  0.12309799  0.45274580  1
  S2-  S217  1  0.75430306  0.12362044  0.95362762  1
  S2-  S218  1  0.76405029  0.37508520  0.45951326  1
  S2-  S219  1  0.75361129  0.37451207  0.95414539  1
  S2-  S220  1  0.75181740  0.62204249  0.44648878  1
  S2-  S221  1  0.75079840  0.62123814  0.95554254  1
  S2-  S222  1  0.75095675  0.87055050  0.45458533  1
  S2-  S223  1  0.75062099  0.87210755  0.95176884  1
  S2-  S224  1  0.12800660  -0.00260233  0.03792228  1
  S2-  S225  1  0.12615470  -0.00782679  0.54899254  1
  S2-  S226  1  0.12209250  0.24970199  0.03376827  1
  S2-  S227  1  0.12439904  0.24719156  0.54625563  1
  S2-  S228  1  0.12721502  0.50261174  0.04658846  1
  S2-  S229  1  0.12701223  0.49734784  0.54498474  1
  S2-  S230  1  0.12759354  0.74018730  0.04777497  1
  S2-  S231  1  0.13198122  0.74786138  0.54409419  1
  S2-  S232  1  0.37483156  0.00901382  0.05635274  1
  S2-  S233  1  0.37287916  -0.00202592  0.56055434  1
  S2-  S234  1  0.38965692  0.23684150  0.04032095  1
  S2-  S235  1  0.36850004  0.24434783  0.54212757  1
  S2-  S236  1  0.38148122  0.49754489  0.04326447  1
  S2-  S237  1  0.37663548  0.49309736  0.54668651  1
  S2-  S238  1  0.37679020  0.74596127  0.04062701  1
  S2-  S239  1  0.37842396  0.74563205  0.54829916  1
  S2-  S240  1  0.62600978  -0.00229474  0.04432445  1
  S2-  S241  1  0.62856338  -0.00161215  0.54822138  1
  S2-  S242  1  0.62609180  0.24252084  0.03980746  1
  S2-  S243  1  0.63491038  0.24497355  0.54380288  1
  S2-  S244  1  0.62644481  0.49945090  0.04968645  1
  S2-  S245  1  0.62729721  0.49314618  0.54559346  1
  S2-  S246  1  0.62378270  0.75181298  0.04254428  1
  S2-  S247  1  0.62413758  0.74493670  0.54760381  1
  S2-  S248  1  0.87774392  -0.00460222  0.03737550  1
  S2-  S249  1  0.87936676  -0.00429893  0.54321102  1
  S2-  S250  1  0.87679183  0.24596907  0.04822917  1
  S2-  S251  1  0.88157376  0.24166910  0.54654669  1
  S2-  S252  1  0.86873911  0.49920127  0.04673079  1
  S2-  S253  1  0.87964252  0.49817924  0.54524482  1
  S2-  S254  1  0.87650813  0.74832493  0.04036053  1
  S2-  S255  1  0.87413076  0.74734770  0.54160846  1
