# generated using pymatgen
data_La6Ce7Pr13Nd19Sm19(BiS2)64
_symmetry_space_group_name_H-M   'P 1'
_cell_length_a   16.07204690
_cell_length_b   15.98108181
_cell_length_c   27.44717370
_cell_angle_alpha   90.35368697
_cell_angle_beta   89.30148309
_cell_angle_gamma   90.04293366
_symmetry_Int_Tables_number   1
_chemical_formula_structural   La6Ce7Pr13Nd19Sm19(BiS2)64
_chemical_formula_sum   'La6 Ce7 Pr13 Nd19 Sm19 Bi64 S128'
_cell_volume   7049.11097129
_cell_formula_units_Z   1
loop_
 _symmetry_equiv_pos_site_id
 _symmetry_equiv_pos_as_xyz
  1  'x, y, z'
loop_
 _atom_type_symbol
 _atom_type_oxidation_number
  La3+  3.0
  Ce3+  3.0
  Pr3+  3.0
  Nd3+  3.0
  Sm3+  3.0
  Bi2+  2.0
  S2-  -2.0
loop_
 _atom_site_type_symbol
 _atom_site_label
 _atom_site_symmetry_multiplicity
 _atom_site_fract_x
 _atom_site_fract_y
 _atom_site_fract_z
 _atom_site_occupancy
  La3+  La0  1  0.61699877  0.49304915  0.89053898  1
  La3+  La1  1  -0.01435157  0.36499064  0.07025467  1
  La3+  La2  1  0.87254764  0.48977438  0.92427086  1
  La3+  La3  1  0.39147098  0.51107078  0.40578668  1
  La3+  La4  1  0.86398060  0.24212127  0.92992182  1
  La3+  La5  1  0.25781750  0.13688403  0.60888682  1
  Ce3+  Ce6  1  0.63803307  0.02303129  0.42949696  1
  Ce3+  Ce7  1  -0.00933197  0.11726736  0.05621967  1
  Ce3+  Ce8  1  0.61450549  -0.01012831  0.93278509  1
  Ce3+  Ce9  1  0.26151074  0.64157758  0.55881396  1
  Ce3+  Ce10  1  -0.01710690  0.61907087  0.06199730  1
  Ce3+  Ce11  1  0.11596090  0.74000811  0.93537046  1
  Ce3+  Ce12  1  0.23779496  0.11961108  0.06364464  1
  Pr3+  Pr13  1  0.63831027  0.52984505  0.42874102  1
  Pr3+  Pr14  1  0.74169530  0.36924443  0.06072864  1
  Pr3+  Pr15  1  0.23330358  0.37656835  0.09298192  1
  Pr3+  Pr16  1  0.50849338  0.90607572  0.56436244  1
  Pr3+  Pr17  1  0.88609197  0.77530677  0.43434371  1
  Pr3+  Pr18  1  0.14115674  0.77054255  0.43662841  1
  Pr3+  Pr19  1  0.76160808  0.89877382  0.56538473  1
  Pr3+  Pr20  1  0.25791365  0.40118501  0.56396459  1
  Pr3+  Pr21  1  0.36834536  0.49030487  0.94261888  1
  Pr3+  Pr22  1  0.38959265  0.77190956  0.44301030  1
  Pr3+  Pr23  1  0.13837550  0.02894852  0.43395751  1
  Pr3+  Pr24  1  0.13681429  0.27845540  0.43934125  1
  Pr3+  Pr25  1  0.01016879  0.65353557  0.56937233  1
  Nd3+  Nd26  1  0.22928909  0.62333730  0.08061893  1
  Nd3+  Nd27  1  0.36603301  0.73820239  0.94439382  1
  Nd3+  Nd28  1  0.73916807  0.86749771  0.05347550  1
  Nd3+  Nd29  1  0.12493042  -0.00392458  0.92690241  1
  Nd3+  Nd30  1  0.48889132  0.37491284  0.06878143  1
  Nd3+  Nd31  1  0.23546957  0.86710383  0.06594091  1
  Nd3+  Nd32  1  0.13573327  0.52823159  0.42758134  1
  Nd3+  Nd33  1  0.63857924  0.27484314  0.45031200  1
  Nd3+  Nd34  1  0.76315017  0.14826697  0.55823136  1
  Nd3+  Nd35  1  0.11693862  0.48452306  0.93842741  1
  Nd3+  Nd36  1  0.63589432  0.77910077  0.43823351  1
  Nd3+  Nd37  1  -0.01164985  0.86818920  0.04585504  1
  Nd3+  Nd38  1  0.86456852  0.73558118  0.92457464  1
  Nd3+  Nd39  1  0.36820072  0.24735500  0.95575489  1
  Nd3+  Nd40  1  0.12145178  0.24251804  0.93904285  1
  Nd3+  Nd41  1  0.01322748  0.90131390  0.55955474  1
  Nd3+  Nd42  1  0.61557141  0.74460989  0.93065573  1
  Nd3+  Nd43  1  0.48913543  0.11730920  0.05896671  1
  Nd3+  Nd44  1  0.88615418  0.53120277  0.43764409  1
  Sm3+  Sm45  1  0.75862418  0.65424794  0.56698153  1
  Sm3+  Sm46  1  0.89330331  0.02618088  0.42724921  1
  Sm3+  Sm47  1  0.38159271  0.02729326  0.43533676  1
  Sm3+  Sm48  1  0.61350486  0.24662319  0.94535669  1
  Sm3+  Sm49  1  0.48986630  0.86706740  0.05809998  1
  Sm3+  Sm50  1  0.76069233  0.41070868  0.56788571  1
  Sm3+  Sm51  1  0.88549627  0.28366682  0.43584841  1
  Sm3+  Sm52  1  0.36351052  -0.00965033  0.94184928  1
  Sm3+  Sm53  1  0.25998761  0.90287865  0.55562365  1
  Sm3+  Sm54  1  0.74292688  0.61820400  0.05215198  1
  Sm3+  Sm55  1  0.00870116  0.40707424  0.56402368  1
  Sm3+  Sm56  1  0.73670231  0.11652550  0.05784285  1
  Sm3+  Sm57  1  0.86504191  -0.00416427  0.93436694  1
  Sm3+  Sm58  1  0.51136883  0.40325834  0.56243247  1
  Sm3+  Sm59  1  0.48995265  0.61758953  0.05852958  1
  Sm3+  Sm60  1  0.38695748  0.27509659  0.44760415  1
  Sm3+  Sm61  1  0.00611027  0.15624402  0.56431948  1
  Sm3+  Sm62  1  0.50983980  0.64908689  0.55895454  1
  Sm3+  Sm63  1  0.50779962  0.14947539  0.55914921  1
  Bi2+  Bi64  1  0.01047245  0.08671966  0.25981283  1
  Bi2+  Bi65  1  -0.01073674  0.13409495  0.78787208  1
  Bi2+  Bi66  1  0.01069190  0.32538072  0.30827786  1
  Bi2+  Bi67  1  0.01205103  0.38724949  0.79507970  1
  Bi2+  Bi68  1  -0.04550373  0.67346441  0.26719181  1
  Bi2+  Bi69  1  -0.01648609  0.65124729  0.78960723  1
  Bi2+  Bi70  1  0.00614372  0.89519196  0.29456984  1
  Bi2+  Bi71  1  -0.02196074  0.94196081  0.76829941  1
  Bi2+  Bi72  1  0.29199181  0.10667065  0.27847647  1
  Bi2+  Bi73  1  0.28285754  0.12677462  0.81803228  1
  Bi2+  Bi74  1  0.25201876  0.36400147  0.29399152  1
  Bi2+  Bi75  1  0.24804079  0.38980038  0.78454019  1
  Bi2+  Bi76  1  0.25587179  0.67727201  0.28832411  1
  Bi2+  Bi77  1  0.26331736  0.58363820  0.79243764  1
  Bi2+  Bi78  1  0.19726006  0.86125800  0.30804196  1
  Bi2+  Bi79  1  0.25898751  0.87627448  0.77001978  1
  Bi2+  Bi80  1  0.47384420  0.09225041  0.32081015  1
  Bi2+  Bi81  1  0.49294057  0.09061112  0.79465938  1
  Bi2+  Bi82  1  0.52092012  0.36180376  0.29232146  1
  Bi2+  Bi83  1  0.47038745  0.36102449  0.79248482  1
  Bi2+  Bi84  1  0.53431690  0.68403978  0.28387968  1
  Bi2+  Bi85  1  0.46197288  0.64936932  0.78149522  1
  Bi2+  Bi86  1  0.48717000  0.89479700  0.30030926  1
  Bi2+  Bi87  1  0.47449696  0.89344873  0.80090895  1
  Bi2+  Bi88  1  0.66839108  0.10690551  0.30018336  1
  Bi2+  Bi89  1  0.68475845  0.09598062  0.82061272  1
  Bi2+  Bi90  1  0.77699484  0.32560019  0.30407404  1
  Bi2+  Bi91  1  0.73540854  0.32698786  0.78692922  1
  Bi2+  Bi92  1  0.76108076  0.59405720  0.29437344  1
  Bi2+  Bi93  1  0.74391421  0.67668486  0.78455327  1
  Bi2+  Bi94  1  0.75365857  0.86574045  0.28557629  1
  Bi2+  Bi95  1  0.76264234  0.93032610  0.78053170  1
  Bi2+  Bi96  1  0.14273923  -0.02407631  0.20381015  1
  Bi2+  Bi97  1  0.11654872  -0.09179056  0.69140095  1
  Bi2+  Bi98  1  0.13436647  0.23584596  0.20028181  1
  Bi2+  Bi99  1  0.11111692  0.25042844  0.70705300  1
  Bi2+  Bi100  1  0.12349816  0.50974309  0.21550643  1
  Bi2+  Bi101  1  0.13395933  0.50152159  0.71538858  1
  Bi2+  Bi102  1  0.10261912  0.76531908  0.20195262  1
  Bi2+  Bi103  1  0.14970136  0.71801668  0.73217627  1
  Bi2+  Bi104  1  0.33398352  -0.06913798  0.22872115  1
  Bi2+  Bi105  1  0.41849959  -0.01162978  0.70164889  1
  Bi2+  Bi106  1  0.45272900  0.20508514  0.22461496  1
  Bi2+  Bi107  1  0.37620616  0.26867789  0.71206916  1
  Bi2+  Bi108  1  0.40566931  0.50139642  0.21471279  1
  Bi2+  Bi109  1  0.39710899  0.53281110  0.69610638  1
  Bi2+  Bi110  1  0.39299496  0.74240802  0.20798104  1
  Bi2+  Bi111  1  0.34232932  0.73360392  0.70310553  1
  Bi2+  Bi112  1  0.58923451  -0.03421123  0.20527097  1
  Bi2+  Bi113  1  0.65020014  0.02228324  0.65069016  1
  Bi2+  Bi114  1  0.65083185  0.24083549  0.21094664  1
  Bi2+  Bi115  1  0.62819368  0.17483317  0.72100977  1
  Bi2+  Bi116  1  0.68532725  0.44760087  0.22719781  1
  Bi2+  Bi117  1  0.63412215  0.47149061  0.69400889  1
  Bi2+  Bi118  1  0.67832783  0.73168935  0.21411492  1
  Bi2+  Bi119  1  0.61205171  0.86364637  0.71539800  1
  Bi2+  Bi120  1  0.82147927  0.03639732  0.24248488  1
  Bi2+  Bi121  1  0.85189668  -0.01762011  0.68223323  1
  Bi2+  Bi122  1  0.85960171  0.24240765  0.20343615  1
  Bi2+  Bi123  1  0.83316143  0.18273498  0.72948342  1
  Bi2+  Bi124  1  0.87312578  0.51154660  0.21225831  1
  Bi2+  Bi125  1  0.88823017  0.44257971  0.69376369  1
  Bi2+  Bi126  1  0.86438262  0.78091294  0.18462775  1
  Bi2+  Bi127  1  0.87890263  0.73236912  0.70581970  1
  S2-  S128  1  -0.01070151  0.18040717  0.14611809  1
  S2-  S129  1  0.09247479  0.12435234  0.64757456  1
  S2-  S130  1  0.08282611  0.38735587  0.15542269  1
  S2-  S131  1  -0.01316076  0.32872126  0.65254987  1
  S2-  S132  1  0.07875245  0.62005402  0.14526465  1
  S2-  S133  1  0.00515484  0.53307668  0.64594352  1
  S2-  S134  1  -0.00649829  0.87556355  0.14515235  1
  S2-  S135  1  0.00574867  0.79055280  0.64018573  1
  S2-  S136  1  0.23493460  0.10516065  0.15989758  1
  S2-  S137  1  0.24998187  0.14669985  0.72626339  1
  S2-  S138  1  0.27022580  0.31748970  0.19191282  1
  S2-  S139  1  0.24848357  0.30438505  0.64909795  1
  S2-  S140  1  0.26025678  0.51871761  0.15942413  1
  S2-  S141  1  0.25211102  0.53488324  0.63761319  1
  S2-  S142  1  0.24579080  0.76282735  0.14558835  1
  S2-  S143  1  0.26730887  0.96785132  0.64611764  1
  S2-  S144  1  0.50152761  0.09028134  0.15606743  1
  S2-  S145  1  0.42708250  0.13797973  0.64616325  1
  S2-  S146  1  0.48067741  0.38251992  0.16781324  1
  S2-  S147  1  0.49770629  0.37675335  0.66029667  1
  S2-  S148  1  0.48172280  0.61607959  0.15726059  1
  S2-  S149  1  0.53869686  0.59960615  0.65212335  1
  S2-  S150  1  0.49156535  0.86212341  0.15542162  1
  S2-  S151  1  0.47889602  0.83427206  0.65606503  1
  S2-  S152  1  0.75185771  0.12080161  0.15531465  1
  S2-  S153  1  0.87382149  0.13889639  0.63405636  1
  S2-  S154  1  0.85054049  0.37510222  0.14001929  1
  S2-  S155  1  0.74602705  0.34717024  0.66088358  1
  S2-  S156  1  0.84871002  0.62353951  0.13166290  1
  S2-  S157  1  0.76593372  0.54226051  0.64248220  1
  S2-  S158  1  0.72115086  0.87986080  0.15155193  1
  S2-  S159  1  0.75911732  0.77401636  0.64227683  1
  S2-  S160  1  0.02450009  0.03925939  0.35704317  1
  S2-  S161  1  0.12106413  0.12903735  0.85841476  1
  S2-  S162  1  0.14723476  0.24452612  0.33835749  1
  S2-  S163  1  0.14034019  0.35554688  0.86143575  1
  S2-  S164  1  0.11269806  0.44991680  0.33413069  1
  S2-  S165  1  0.02452039  0.51844067  0.85356177  1
  S2-  S166  1  0.13582434  0.66364306  0.35683140  1
  S2-  S167  1  0.08964612  0.75299669  0.83942674  1
  S2-  S168  1  0.26361131  0.01162229  0.35825411  1
  S2-  S169  1  0.26361225  -0.03123142  0.86123267  1
  S2-  S170  1  0.38115267  0.33574248  0.35533640  1
  S2-  S171  1  0.36459304  0.26745496  0.85732085  1
  S2-  S172  1  0.32210937  0.52396983  0.31078479  1
  S2-  S173  1  0.45266071  0.49218522  0.85241959  1
  S2-  S174  1  0.40561737  0.74196696  0.34459041  1
  S2-  S175  1  0.38000700  0.75438503  0.84604209  1
  S2-  S176  1  0.63298800  -0.10329997  0.35984128  1
  S2-  S177  1  0.60792797  -0.12489420  0.85936477  1
  S2-  S178  1  0.62684941  0.26164942  0.35200753  1
  S2-  S179  1  0.60446930  0.31993672  0.85646179  1
  S2-  S180  1  0.53674839  0.49545172  0.34746258  1
  S2-  S181  1  0.68907537  0.48506562  0.79004046  1
  S2-  S182  1  0.65149496  0.67051675  0.35929677  1
  S2-  S183  1  0.60809057  0.65487402  0.84413372  1
  S2-  S184  1  0.86703437  -0.10466031  0.35894691  1
  S2-  S185  1  0.86271952  0.10738286  0.85892961  1
  S2-  S186  1  0.88516980  0.21052816  0.34507413  1
  S2-  S187  1  0.86750857  0.35673323  0.85150054  1
  S2-  S188  1  0.88742327  0.41617745  0.36056746  1
  S2-  S189  1  0.84131846  0.60788954  0.85018560  1
  S2-  S190  1  0.89343158  0.64972314  0.36030312  1
  S2-  S191  1  0.83131068  0.80639898  0.83383420  1
  S2-  S192  1  0.00695178  0.15647333  0.45837189  1
  S2-  S193  1  -0.00660314  0.11444831  0.95454633  1
  S2-  S194  1  0.01298377  0.40433636  0.45726667  1
  S2-  S195  1  -0.00805509  0.36107061  0.96034128  1
  S2-  S196  1  0.01424434  0.65028344  0.46140067  1
  S2-  S197  1  -0.00767186  0.62091675  0.95562798  1
  S2-  S198  1  0.01713641  0.89659162  0.45439500  1
  S2-  S199  1  -0.00900700  0.87461250  0.93999459  1
  S2-  S200  1  0.26505180  0.15512137  0.44901151  1
  S2-  S201  1  0.24756414  0.11770696  0.96029689  1
  S2-  S202  1  0.26292824  0.40370841  0.45374952  1
  S2-  S203  1  0.24504902  0.36839075  0.96739158  1
  S2-  S204  1  0.27092462  0.64086437  0.45257000  1
  S2-  S205  1  0.24019196  0.61507369  0.94747931  1
  S2-  S206  1  0.26431241  0.89708585  0.45441300  1
  S2-  S207  1  0.24072322  0.86371947  0.96043537  1
  S2-  S208  1  0.51018604  0.14931446  0.45477782  1
  S2-  S209  1  0.48920574  0.11643880  0.95215891  1
  S2-  S210  1  0.51359895  0.39818979  0.45810949  1
  S2-  S211  1  0.49517414  0.37128256  0.96386901  1
  S2-  S212  1  0.50907043  0.64527208  0.45497055  1
  S2-  S213  1  0.49480015  0.61724785  0.95554175  1
  S2-  S214  1  0.50531587  0.90511003  0.45693108  1
  S2-  S215  1  0.48509996  0.86751665  0.95616704  1
  S2-  S216  1  0.76471915  0.14767690  0.45179738  1
  S2-  S217  1  0.73377490  0.11791970  0.95573916  1
  S2-  S218  1  0.75717389  0.40287547  0.45997720  1
  S2-  S219  1  0.73258170  0.37211633  0.95457164  1
  S2-  S220  1  0.75893412  0.65281193  0.46237531  1
  S2-  S221  1  0.73140124  0.61327777  0.95097636  1
  S2-  S222  1  0.76042924  0.90397712  0.46012038  1
  S2-  S223  1  0.74561210  0.86974454  0.94955523  1
  S2-  S224  1  0.11607525  -0.00771593  0.04139680  1
  S2-  S225  1  0.13672040  0.02531510  0.54154528  1
  S2-  S226  1  0.11848560  0.24386565  0.04754172  1
  S2-  S227  1  0.12882644  0.27802233  0.54526063  1
  S2-  S228  1  0.11600946  0.49498276  0.04531027  1
  S2-  S229  1  0.13251003  0.52532649  0.53736581  1
  S2-  S230  1  0.11294968  0.74460470  0.04093314  1
  S2-  S231  1  0.14288158  0.77355859  0.54414164  1
  S2-  S232  1  0.36448988  -0.01002829  0.04869806  1
  S2-  S233  1  0.38217687  0.02800425  0.53928737  1
  S2-  S234  1  0.36478809  0.24697727  0.06182672  1
  S2-  S235  1  0.38968278  0.27662845  0.54865905  1
  S2-  S236  1  0.36376205  0.49740322  0.05023680  1
  S2-  S237  1  0.39185110  0.52358108  0.54535636  1
  S2-  S238  1  0.36656231  0.74105679  0.04851572  1
  S2-  S239  1  0.38311131  0.77384105  0.54820348  1
  S2-  S240  1  0.61304861  -0.00820361  0.04241779  1
  S2-  S241  1  0.63427977  0.02765273  0.53646902  1
  S2-  S242  1  0.61316912  0.24365699  0.05123438  1
  S2-  S243  1  0.63501073  0.27357211  0.55472357  1
  S2-  S244  1  0.61824770  0.49794587  0.06386460  1
  S2-  S245  1  0.63406858  0.52677057  0.54110719  1
  S2-  S246  1  0.61450915  0.74211348  0.04504697  1
  S2-  S247  1  0.62857557  0.77656676  0.54474537  1
  S2-  S248  1  0.86201785  -0.00547634  0.04056008  1
  S2-  S249  1  0.88953692  0.02052288  0.53529203  1
  S2-  S250  1  0.86020769  0.23623063  0.03929812  1
  S2-  S251  1  0.87902094  0.28401633  0.54144191  1
  S2-  S252  1  0.86390397  0.49293706  0.03422078  1
  S2-  S253  1  0.88420168  0.53042896  0.54241921  1
  S2-  S254  1  0.86257507  0.74620522  0.03134575  1
  S2-  S255  1  0.88599624  0.77521398  0.54035743  1
