# generated using pymatgen
data_La6Ce7Pr13Nd19Sm19(BiS2)64
_symmetry_space_group_name_H-M   'P 1'
_cell_length_a   16.12643629
_cell_length_b   16.07077583
_cell_length_c   27.21802379
_cell_angle_alpha   90.19537668
_cell_angle_beta   89.86751481
_cell_angle_gamma   90.05397473
_symmetry_Int_Tables_number   1
_chemical_formula_structural   La6Ce7Pr13Nd19Sm19(BiS2)64
_chemical_formula_sum   'La6 Ce7 Pr13 Nd19 Sm19 Bi64 S128'
_cell_volume   7053.87829212
_cell_formula_units_Z   1
loop_
 _symmetry_equiv_pos_site_id
 _symmetry_equiv_pos_as_xyz
  1  'x, y, z'
loop_
 _atom_type_symbol
 _atom_type_oxidation_number
  La3+  3.0
  Ce3+  3.0
  Pr3+  3.0
  Nd3+  3.0
  Sm3+  3.0
  Bi2+  2.0
  S2-  -2.0
loop_
 _atom_site_type_symbol
 _atom_site_label
 _atom_site_symmetry_multiplicity
 _atom_site_fract_x
 _atom_site_fract_y
 _atom_site_fract_z
 _atom_site_occupancy
  La3+  La0  1  0.75081157  0.61571689  0.61474040  1
  La3+  La1  1  -0.00471206  0.14888049  0.59046410  1
  La3+  La2  1  0.88729204  0.24534839  0.41838606  1
  La3+  La3  1  -0.00474508  0.63410465  0.09096929  1
  La3+  La4  1  0.12536707  0.76770073  0.40702079  1
  La3+  La5  1  0.36682522  0.75029520  0.92317238  1
  Ce3+  Ce6  1  0.12906860  0.25053827  0.44179009  1
  Ce3+  Ce7  1  0.00774894  0.88284319  0.56322742  1
  Ce3+  Ce8  1  0.87385907  0.00345129  0.94072769  1
  Ce3+  Ce9  1  0.12593300  0.74689837  0.94434552  1
  Ce3+  Ce10  1  0.13693572  0.25380722  0.93487727  1
  Ce3+  Ce11  1  0.12522498  0.50890511  0.95394477  1
  Ce3+  Ce12  1  0.63138269  0.00774837  0.43832141  1
  Pr3+  Pr13  1  0.37923370  0.00969713  0.43531101  1
  Pr3+  Pr14  1  0.49893569  0.63234739  0.06323725  1
  Pr3+  Pr15  1  0.51023091  0.38527959  0.55815417  1
  Pr3+  Pr16  1  0.39098759  0.76141849  0.40796959  1
  Pr3+  Pr17  1  0.26481728  0.87923151  0.56930380  1
  Pr3+  Pr18  1  0.38122398  0.50760444  0.43519507  1
  Pr3+  Pr19  1  0.24911329  0.12768263  0.07020484  1
  Pr3+  Pr20  1  0.13208094  0.50777820  0.43100611  1
  Pr3+  Pr21  1  0.87573927  0.75173095  0.93954175  1
  Pr3+  Pr22  1  0.26081944  0.13425078  0.57470717  1
  Pr3+  Pr23  1  0.74759870  0.63595003  0.07225599  1
  Pr3+  Pr24  1  0.62418730  0.00522795  0.93865106  1
  Pr3+  Pr25  1  0.00099660  0.38044237  0.05967018  1
  Nd3+  Nd26  1  0.49696982  0.88087255  0.05557876  1
  Nd3+  Nd27  1  0.62462290  0.75253125  0.93892398  1
  Nd3+  Nd28  1  0.87395830  0.50476950  0.94234485  1
  Nd3+  Nd29  1  0.63435050  0.24972891  0.42453155  1
  Nd3+  Nd30  1  0.87884891  0.25375865  0.93949482  1
  Nd3+  Nd31  1  0.00071737  0.12984071  0.05860488  1
  Nd3+  Nd32  1  0.49587757  0.37973406  0.06926880  1
  Nd3+  Nd33  1  0.25495190  0.38440342  0.55440080  1
  Nd3+  Nd34  1  0.25484607  0.63757733  0.54320878  1
  Nd3+  Nd35  1  0.12519824  0.00457446  0.93137849  1
  Nd3+  Nd36  1  0.25875359  0.63477671  0.08404542  1
  Nd3+  Nd37  1  0.74963124  0.37962212  0.06921605  1
  Nd3+  Nd38  1  0.63610768  0.75730123  0.43464375  1
  Nd3+  Nd39  1  0.88102920  0.75827169  0.43329109  1
  Nd3+  Nd40  1  0.25029183  0.87873255  0.06408993  1
  Nd3+  Nd41  1  0.00428044  0.63515064  0.55378374  1
  Nd3+  Nd42  1  0.50751904  0.13193186  0.56617940  1
  Nd3+  Nd43  1  0.62459091  0.25640988  0.94696411  1
  Nd3+  Nd44  1  0.63204113  0.50367896  0.43207020  1
  Sm3+  Sm45  1  0.13521845  0.00366043  0.45379712  1
  Sm3+  Sm46  1  0.49945377  0.12966455  0.05333184  1
  Sm3+  Sm47  1  0.75074271  0.12901567  0.05580908  1
  Sm3+  Sm48  1  0.00339912  0.38391234  0.55151707  1
  Sm3+  Sm49  1  0.00152019  0.87673067  0.05822753  1
  Sm3+  Sm50  1  0.62606963  0.50260008  0.94975550  1
  Sm3+  Sm51  1  0.74943823  0.87909657  0.06182375  1
  Sm3+  Sm52  1  0.75881349  0.38168733  0.54818471  1
  Sm3+  Sm53  1  0.75786888  0.87549374  0.55686243  1
  Sm3+  Sm54  1  0.88515580  0.00894332  0.44983213  1
  Sm3+  Sm55  1  0.37611142  0.50684908  0.94136654  1
  Sm3+  Sm56  1  0.88116892  0.50705096  0.43493670  1
  Sm3+  Sm57  1  0.24928072  0.38155646  0.05953866  1
  Sm3+  Sm58  1  0.37353743  0.00054890  0.93741438  1
  Sm3+  Sm59  1  0.37409903  0.25525532  0.94363612  1
  Sm3+  Sm60  1  0.51051311  0.63301024  0.55386296  1
  Sm3+  Sm61  1  0.75216492  0.13141728  0.55960004  1
  Sm3+  Sm62  1  0.50712148  0.87880041  0.55604772  1
  Sm3+  Sm63  1  0.38390123  0.25401140  0.43945156  1
  Bi2+  Bi64  1  0.01960181  0.10664917  0.29354452  1
  Bi2+  Bi65  1  -0.04084924  0.16692958  0.79236151  1
  Bi2+  Bi66  1  -0.05638864  0.33466473  0.28722668  1
  Bi2+  Bi67  1  0.01393157  0.38674951  0.74184114  1
  Bi2+  Bi68  1  0.00956056  0.60149842  0.30058196  1
  Bi2+  Bi69  1  0.01129974  0.60864418  0.79605498  1
  Bi2+  Bi70  1  0.00646527  0.90614244  0.29183309  1
  Bi2+  Bi71  1  -0.11192228  0.89744724  0.78337932  1
  Bi2+  Bi72  1  0.21908862  0.11338541  0.30178977  1
  Bi2+  Bi73  1  0.22534134  0.14110913  0.80409971  1
  Bi2+  Bi74  1  0.22862214  0.30718317  0.27891647  1
  Bi2+  Bi75  1  0.27816504  0.44217371  0.76214953  1
  Bi2+  Bi76  1  0.26382414  0.56635696  0.28929298  1
  Bi2+  Bi77  1  0.24784063  0.63633662  0.79851735  1
  Bi2+  Bi78  1  0.25918533  0.92067606  0.28126780  1
  Bi2+  Bi79  1  0.28360632  0.89770833  0.80066240  1
  Bi2+  Bi80  1  0.48274263  0.10370723  0.29148701  1
  Bi2+  Bi81  1  0.51472388  0.14167628  0.79210624  1
  Bi2+  Bi82  1  0.42661206  0.31513388  0.28331379  1
  Bi2+  Bi83  1  0.42834337  0.36876389  0.82045536  1
  Bi2+  Bi84  1  0.51169009  0.59355322  0.29549708  1
  Bi2+  Bi85  1  0.51210213  0.63172118  0.78767542  1
  Bi2+  Bi86  1  0.54792271  0.88981583  0.29989622  1
  Bi2+  Bi87  1  0.55393152  0.93632224  0.79462638  1
  Bi2+  Bi88  1  0.75279254  0.03688444  0.30271662  1
  Bi2+  Bi89  1  0.71417804  0.11553471  0.79180337  1
  Bi2+  Bi90  1  0.68566484  0.36716830  0.27590790  1
  Bi2+  Bi91  1  0.72522593  0.37144085  0.80082500  1
  Bi2+  Bi92  1  0.74099125  0.64530003  0.27685844  1
  Bi2+  Bi93  1  0.77209115  0.63812997  0.81835733  1
  Bi2+  Bi94  1  0.74515955  0.83489293  0.31270991  1
  Bi2+  Bi95  1  0.70568061  0.85330220  0.73374574  1
  Bi2+  Bi96  1  0.12094331  -0.01665204  0.20823831  1
  Bi2+  Bi97  1  0.10482928  -0.00871026  0.71733052  1
  Bi2+  Bi98  1  0.14079480  0.18139304  0.19497312  1
  Bi2+  Bi99  1  0.13793214  0.25828261  0.69742049  1
  Bi2+  Bi100  1  0.14378060  0.43903324  0.20327888  1
  Bi2+  Bi101  1  0.13303468  0.52529357  0.69938882  1
  Bi2+  Bi102  1  0.12928342  0.72574339  0.20949251  1
  Bi2+  Bi103  1  0.14245531  0.74179594  0.71824825  1
  Bi2+  Bi104  1  0.39074766  0.00163851  0.20702436  1
  Bi2+  Bi105  1  0.44236259  0.01378535  0.71046582  1
  Bi2+  Bi106  1  0.33822899  0.19982472  0.19931330  1
  Bi2+  Bi107  1  0.40989791  0.26680935  0.71991501  1
  Bi2+  Bi108  1  0.43547771  0.45765939  0.20320915  1
  Bi2+  Bi109  1  0.40901458  0.55248158  0.70035203  1
  Bi2+  Bi110  1  0.38443841  0.74989857  0.21074535  1
  Bi2+  Bi111  1  0.33962822  0.74388309  0.70151242  1
  Bi2+  Bi112  1  0.65453596  -0.04822622  0.20874403  1
  Bi2+  Bi113  1  0.62228095  0.05036703  0.66740425  1
  Bi2+  Bi114  1  0.62245807  0.14825526  0.22051544  1
  Bi2+  Bi115  1  0.60783682  0.24028355  0.70084006  1
  Bi2+  Bi116  1  0.61589404  0.54438531  0.19731382  1
  Bi2+  Bi117  1  0.56106044  0.44867392  0.74743606  1
  Bi2+  Bi118  1  0.60880954  0.74019668  0.20888926  1
  Bi2+  Bi119  1  0.53424022  0.76586519  0.70130825  1
  Bi2+  Bi120  1  0.85351291  -0.05994631  0.21865868  1
  Bi2+  Bi121  1  0.80338383  0.02122380  0.70532488  1
  Bi2+  Bi122  1  0.86578857  0.21652940  0.21009675  1
  Bi2+  Bi123  1  0.79399639  0.29771342  0.70429890  1
  Bi2+  Bi124  1  0.89099790  0.46532243  0.20885609  1
  Bi2+  Bi125  1  0.87076055  0.49827146  0.71324353  1
  Bi2+  Bi126  1  0.86585445  0.74448619  0.21008789  1
  Bi2+  Bi127  1  0.90892899  0.76190851  0.70282351  1
  S2-  S128  1  -0.02136491  0.12899785  0.15764340  1
  S2-  S129  1  0.01147960  0.11554647  0.69407950  1
  S2-  S130  1  0.01037429  0.36333851  0.15946736  1
  S2-  S131  1  -0.00159565  0.31790786  0.64198586  1
  S2-  S132  1  0.03171146  0.57626666  0.19295183  1
  S2-  S133  1  -0.07331647  0.62186301  0.64308709  1
  S2-  S134  1  0.00432605  0.79097283  0.14537942  1
  S2-  S135  1  -0.01161764  0.89320588  0.66150660  1
  S2-  S136  1  0.25176751  -0.00167882  0.13972513  1
  S2-  S137  1  0.20265856  0.11154043  0.67251082  1
  S2-  S138  1  0.29121082  0.38615221  0.15372824  1
  S2-  S139  1  0.22771814  0.38637674  0.65259774  1
  S2-  S140  1  0.22352906  0.58501430  0.18407144  1
  S2-  S141  1  0.22369623  0.64135639  0.64194625  1
  S2-  S142  1  0.24684566  0.77800001  0.14834942  1
  S2-  S143  1  0.20866422  0.87776307  0.66794951  1
  S2-  S144  1  0.48971073  0.12703757  0.15040340  1
  S2-  S145  1  0.39817462  0.14439551  0.64409544  1
  S2-  S146  1  0.55831652  0.37083837  0.16186183  1
  S2-  S147  1  0.46783154  0.40026670  0.65554447  1
  S2-  S148  1  0.40842744  0.62962455  0.14851781  1
  S2-  S149  1  0.57987751  0.63138020  0.64360628  1
  S2-  S150  1  0.46123543  0.86762862  0.15245406  1
  S2-  S151  1  0.41863505  0.87669745  0.64145511  1
  S2-  S152  1  0.75240406  0.13484541  0.15341622  1
  S2-  S153  1  0.83470413  0.16508519  0.64271095  1
  S2-  S154  1  0.78272290  0.35921997  0.16694606  1
  S2-  S155  1  0.75201298  0.44009179  0.64141120  1
  S2-  S156  1  0.84882366  0.59866106  0.15117654  1
  S2-  S157  1  0.75426302  0.61524961  0.72503372  1
  S2-  S158  1  0.73739044  0.77743615  0.14112908  1
  S2-  S159  1  0.76550635  0.79045934  0.64241645  1
  S2-  S160  1  0.13761349  -0.07206741  0.36259746  1
  S2-  S161  1  0.13962960  -0.00801596  0.82946813  1
  S2-  S162  1  0.03751568  0.25022654  0.35712561  1
  S2-  S163  1  0.08211127  0.22813999  0.84138536  1
  S2-  S164  1  0.12421805  0.48470593  0.33105482  1
  S2-  S165  1  0.12813305  0.54603260  0.85822982  1
  S2-  S166  1  0.15975055  0.69925537  0.31268055  1
  S2-  S167  1  0.21039282  0.77233440  0.85940577  1
  S2-  S168  1  0.38601932  -0.09031346  0.35000196  1
  S2-  S169  1  0.34212241  0.04521299  0.84382324  1
  S2-  S170  1  0.36870162  0.14323401  0.36394083  1
  S2-  S171  1  0.27920165  0.25920661  0.86217971  1
  S2-  S172  1  0.39225704  0.47643783  0.33663496  1
  S2-  S173  1  0.38551458  0.60697176  0.85949147  1
  S2-  S174  1  0.36449128  0.69032449  0.31156874  1
  S2-  S175  1  0.41702186  0.84496490  0.84031750  1
  S2-  S176  1  0.62393083  0.11074656  0.35992771  1
  S2-  S177  1  0.69830195  -0.02171189  0.84952926  1
  S2-  S178  1  0.57292925  0.32099198  0.33946052  1
  S2-  S179  1  0.62798993  0.24611172  0.84840252  1
  S2-  S180  1  0.65921649  0.51470940  0.33321511  1
  S2-  S181  1  0.67378993  0.50350418  0.85570278  1
  S2-  S182  1  0.54445674  0.74235865  0.35015757  1
  S2-  S183  1  0.63619777  0.72962036  0.84077434  1
  S2-  S184  1  0.88753179  0.08662768  0.36165406  1
  S2-  S185  1  0.92836700  0.02177191  0.84883749  1
  S2-  S186  1  0.78631475  0.28542916  0.33140539  1
  S2-  S187  1  0.86032805  0.27354294  0.84153031  1
  S2-  S188  1  0.89896280  0.49763102  0.33593689  1
  S2-  S189  1  0.89771695  0.51485778  0.84334481  1
  S2-  S190  1  0.96996131  0.75768872  0.34691608  1
  S2-  S191  1  0.91727941  0.74599005  0.84071398  1
  S2-  S192  1  0.01171974  0.12518821  0.46640774  1
  S2-  S193  1  0.00271734  0.12993668  0.95366163  1
  S2-  S194  1  0.00553949  0.38421221  0.44872736  1
  S2-  S195  1  0.00230953  0.37903591  0.95164400  1
  S2-  S196  1  0.00723373  0.63222593  0.44750263  1
  S2-  S197  1  -0.00294899  0.62856124  0.96204492  1
  S2-  S198  1  0.00521251  0.88419000  0.45708388  1
  S2-  S199  1  0.00268202  0.87835212  0.95253448  1
  S2-  S200  1  0.25374547  0.13203322  0.46472700  1
  S2-  S201  1  0.25297940  0.12515025  0.96135163  1
  S2-  S202  1  0.25679483  0.37729853  0.44645024  1
  S2-  S203  1  0.25352418  0.38621575  0.95598427  1
  S2-  S204  1  0.25682969  0.63942750  0.43751584  1
  S2-  S205  1  0.25255286  0.62624713  0.96609691  1
  S2-  S206  1  0.25976349  0.87773222  0.45869403  1
  S2-  S207  1  0.24859678  0.88468012  0.95712269  1
  S2-  S208  1  0.50692557  0.13422020  0.46122451  1
  S2-  S209  1  0.49690948  0.13021075  0.94832255  1
  S2-  S210  1  0.50490060  0.37963676  0.45155116  1
  S2-  S211  1  0.49881036  0.38078517  0.96043363  1
  S2-  S212  1  0.50682503  0.63072418  0.44917001  1
  S2-  S213  1  0.50489147  0.62653670  0.95693395  1
  S2-  S214  1  0.50808017  0.88078785  0.45295227  1
  S2-  S215  1  0.50086314  0.87952129  0.95049249  1
  S2-  S216  1  0.75771491  0.13042093  0.45765774  1
  S2-  S217  1  0.75044531  0.13150856  0.95130858  1
  S2-  S218  1  0.75732079  0.38081202  0.44406355  1
  S2-  S219  1  0.75078691  0.37806214  0.96086977  1
  S2-  S220  1  0.75879079  0.63101507  0.43702554  1
  S2-  S221  1  0.74835593  0.62850525  0.96194732  1
  S2-  S222  1  0.75906101  0.88520094  0.45149752  1
  S2-  S223  1  0.75001349  0.87689980  0.95743267  1
  S2-  S224  1  0.12024663  0.00321036  0.04233799  1
  S2-  S225  1  0.13293281  0.00866541  0.55764278  1
  S2-  S226  1  0.12761014  0.25501757  0.04634834  1
  S2-  S227  1  0.13099667  0.25852846  0.54751908  1
  S2-  S228  1  0.12636503  0.50888032  0.06054543  1
  S2-  S229  1  0.12915932  0.50778921  0.53930216  1
  S2-  S230  1  0.12455552  0.75160437  0.04770944  1
  S2-  S231  1  0.13032846  0.75964776  0.54533998  1
  S2-  S232  1  0.37784210  0.00749088  0.04226609  1
  S2-  S233  1  0.38523350  0.00709876  0.54382033  1
  S2-  S234  1  0.37392316  0.25427177  0.04856802  1
  S2-  S235  1  0.38192508  0.26289016  0.54334026  1
  S2-  S236  1  0.37478628  0.50327800  0.04648925  1
  S2-  S237  1  0.38069105  0.51096485  0.54286674  1
  S2-  S238  1  0.37579342  0.75650929  0.03927939  1
  S2-  S239  1  0.38632981  0.75220812  0.54144538  1
  S2-  S240  1  0.62568104  0.00520736  0.04782489  1
  S2-  S241  1  0.63315999  0.00168118  0.54500481  1
  S2-  S242  1  0.62504146  0.25286565  0.05270214  1
  S2-  S243  1  0.63324478  0.25830272  0.54480172  1
  S2-  S244  1  0.62481091  0.50391177  0.05414028  1
  S2-  S245  1  0.63567133  0.50928092  0.53906980  1
  S2-  S246  1  0.62126547  0.75801607  0.04484681  1
  S2-  S247  1  0.63087760  0.75816628  0.53953213  1
  S2-  S248  1  0.87492305  0.00165299  0.04996631  1
  S2-  S249  1  0.87752899  0.00664725  0.55369765  1
  S2-  S250  1  0.87352335  0.25381147  0.04736881  1
  S2-  S251  1  0.87987176  0.26047279  0.53512772  1
  S2-  S252  1  0.87421560  0.50295093  0.04886493  1
  S2-  S253  1  0.88077327  0.50637473  0.53906734  1
  S2-  S254  1  0.87484379  0.75719074  0.04548091  1
  S2-  S255  1  0.88427359  0.75969300  0.53821638  1
