# generated using pymatgen
data_La6Ce7Pr13Nd19Sm19(BiS2)64
_symmetry_space_group_name_H-M   'P 1'
_cell_length_a   16.06481740
_cell_length_b   16.11681996
_cell_length_c   27.48353554
_cell_angle_alpha   90.11341757
_cell_angle_beta   89.75511919
_cell_angle_gamma   90.05916686
_symmetry_Int_Tables_number   1
_chemical_formula_structural   La6Ce7Pr13Nd19Sm19(BiS2)64
_chemical_formula_sum   'La6 Ce7 Pr13 Nd19 Sm19 Bi64 S128'
_cell_volume   7115.78312577
_cell_formula_units_Z   1
loop_
 _symmetry_equiv_pos_site_id
 _symmetry_equiv_pos_as_xyz
  1  'x, y, z'
loop_
 _atom_type_symbol
 _atom_type_oxidation_number
  La3+  3.0
  Ce3+  3.0
  Pr3+  3.0
  Nd3+  3.0
  Sm3+  3.0
  Bi2+  2.0
  S2-  -2.0
loop_
 _atom_site_type_symbol
 _atom_site_label
 _atom_site_symmetry_multiplicity
 _atom_site_fract_x
 _atom_site_fract_y
 _atom_site_fract_z
 _atom_site_occupancy
  La3+  La0  1  0.38561451  -0.00812233  0.38238949  1
  La3+  La1  1  -0.01063319  0.11923698  0.57010131  1
  La3+  La2  1  0.74856476  0.87240414  0.07006796  1
  La3+  La3  1  0.36978668  0.24116409  0.93331378  1
  La3+  La4  1  0.00333571  0.62649788  0.60106259  1
  La3+  La5  1  0.75276507  0.62390950  0.11268263  1
  Ce3+  Ce6  1  0.25025558  0.36103023  0.07349365  1
  Ce3+  Ce7  1  -0.00372135  0.37223648  0.56094722  1
  Ce3+  Ce8  1  0.12184714  0.49331914  0.44542679  1
  Ce3+  Ce9  1  0.00121773  0.11557648  0.06181833  1
  Ce3+  Ce10  1  -0.00241396  0.86312681  0.04853639  1
  Ce3+  Ce11  1  0.37382850  0.49655746  0.43343216  1
  Ce3+  Ce12  1  0.24760196  0.62057474  0.55898686  1
  Pr3+  Pr13  1  0.88417786  0.48744087  0.39472274  1
  Pr3+  Pr14  1  0.87432079  0.24187227  0.94572842  1
  Pr3+  Pr15  1  0.37406955  0.49134840  0.94347130  1
  Pr3+  Pr16  1  0.37224699  -0.00857024  0.94296731  1
  Pr3+  Pr17  1  0.12477609  0.73569775  0.92074473  1
  Pr3+  Pr18  1  0.74955744  0.61601580  0.55641058  1
  Pr3+  Pr19  1  0.49766893  0.36861670  0.05878841  1
  Pr3+  Pr20  1  0.62868776  0.74604271  0.43426194  1
  Pr3+  Pr21  1  0.12537276  0.24383795  0.44952020  1
  Pr3+  Pr22  1  0.62629044  0.49068369  0.43267157  1
  Pr3+  Pr23  1  0.75796876  0.36920974  0.07902564  1
  Pr3+  Pr24  1  0.24435323  0.86084278  0.06627729  1
  Pr3+  Pr25  1  0.74857206  0.11720402  0.07181287  1
  Nd3+  Nd26  1  0.62706579  0.74125453  0.94677587  1
  Nd3+  Nd27  1  0.24197074  0.10808139  0.08225114  1
  Nd3+  Nd28  1  0.49698486  0.61891717  0.55859554  1
  Nd3+  Nd29  1  0.37417228  0.73915561  0.42888352  1
  Nd3+  Nd30  1  0.12800184  -0.00592817  0.43587618  1
  Nd3+  Nd31  1  0.87175788  0.49173709  0.94291064  1
  Nd3+  Nd32  1  0.62548546  -0.00595283  0.44218284  1
  Nd3+  Nd33  1  0.12183391  0.74129826  0.43475391  1
  Nd3+  Nd34  1  0.49645809  0.86959966  0.54864633  1
  Nd3+  Nd35  1  0.12411307  0.49194902  0.93854122  1
  Nd3+  Nd36  1  0.37569368  0.74243039  0.94305596  1
  Nd3+  Nd37  1  0.49672248  0.11650773  0.56073481  1
  Nd3+  Nd38  1  0.24699689  0.11417178  0.56337191  1
  Nd3+  Nd39  1  0.74946544  0.86250001  0.56453105  1
  Nd3+  Nd40  1  0.00283659  0.37163182  0.06614832  1
  Nd3+  Nd41  1  0.87500030  -0.00811731  0.43925598  1
  Nd3+  Nd42  1  0.87376451  -0.00668831  0.93951107  1
  Nd3+  Nd43  1  -0.00097660  0.86774005  0.56051755  1
  Nd3+  Nd44  1  0.25016664  0.37026937  0.56413302  1
  Sm3+  Sm45  1  0.24610362  0.62102948  0.06105098  1
  Sm3+  Sm46  1  0.50341053  0.61719529  0.06221453  1
  Sm3+  Sm47  1  0.62503356  0.24396960  0.44695678  1
  Sm3+  Sm48  1  0.62619030  0.49190088  0.94800161  1
  Sm3+  Sm49  1  0.37387479  0.23903541  0.44306884  1
  Sm3+  Sm50  1  0.49831613  0.36883837  0.55489470  1
  Sm3+  Sm51  1  0.86977740  0.74126235  0.94084721  1
  Sm3+  Sm52  1  0.75208495  0.37258011  0.55659090  1
  Sm3+  Sm53  1  0.62514425  0.24150459  0.95001984  1
  Sm3+  Sm54  1  0.12467642  -0.00964519  0.93887432  1
  Sm3+  Sm55  1  0.12369139  0.24099171  0.94741850  1
  Sm3+  Sm56  1  0.87665161  0.24413908  0.43619758  1
  Sm3+  Sm57  1  0.24755625  0.86825423  0.54871932  1
  Sm3+  Sm58  1  0.49886955  0.86761310  0.05791346  1
  Sm3+  Sm59  1  0.87647955  0.74022944  0.44301239  1
  Sm3+  Sm60  1  0.49518323  0.11848104  0.06037239  1
  Sm3+  Sm61  1  0.62432395  -0.00645470  0.94373185  1
  Sm3+  Sm62  1  0.74981023  0.11970779  0.55371340  1
  Sm3+  Sm63  1  -0.00602495  0.62074747  0.05650321  1
  Bi2+  Bi64  1  -0.03206277  0.18256640  0.31075714  1
  Bi2+  Bi65  1  -0.04708701  0.12695129  0.80118127  1
  Bi2+  Bi66  1  0.06731696  0.35637050  0.28085178  1
  Bi2+  Bi67  1  -0.03948747  0.37226504  0.80026680  1
  Bi2+  Bi68  1  0.05851835  0.65424960  0.27760018  1
  Bi2+  Bi69  1  0.00748262  0.63923505  0.80322922  1
  Bi2+  Bi70  1  -0.02682004  0.89481369  0.28249722  1
  Bi2+  Bi71  1  0.01488836  0.91982266  0.78974406  1
  Bi2+  Bi72  1  0.24392057  0.14801484  0.29174257  1
  Bi2+  Bi73  1  0.25613446  0.11749607  0.80056550  1
  Bi2+  Bi74  1  0.22712667  0.44644659  0.33045945  1
  Bi2+  Bi75  1  0.26807222  0.36686418  0.80420430  1
  Bi2+  Bi76  1  0.25218833  0.62889830  0.29032484  1
  Bi2+  Bi77  1  0.24791573  0.59505509  0.73780066  1
  Bi2+  Bi78  1  0.22708970  0.86720770  0.28544724  1
  Bi2+  Bi79  1  0.30666683  0.86348332  0.73810902  1
  Bi2+  Bi80  1  0.50488287  0.24823388  0.29170673  1
  Bi2+  Bi81  1  0.51775174  0.12712051  0.81400831  1
  Bi2+  Bi82  1  0.48682205  0.44019678  0.32068192  1
  Bi2+  Bi83  1  0.50352508  0.41829379  0.79135271  1
  Bi2+  Bi84  1  0.50336941  0.57742124  0.24051550  1
  Bi2+  Bi85  1  0.47728816  0.67689441  0.79484344  1
  Bi2+  Bi86  1  0.41627598  0.84212165  0.24182801  1
  Bi2+  Bi87  1  0.46251196  0.87257141  0.80696031  1
  Bi2+  Bi88  1  0.78469159  0.11256920  0.28325536  1
  Bi2+  Bi89  1  0.76090458  0.13572696  0.73565621  1
  Bi2+  Bi90  1  0.74879793  0.33413821  0.28701176  1
  Bi2+  Bi91  1  0.76608140  0.38581242  0.76078887  1
  Bi2+  Bi92  1  0.73452163  0.64007260  0.31418031  1
  Bi2+  Bi93  1  0.75591675  0.62604711  0.81642480  1
  Bi2+  Bi94  1  0.71185723  0.88382395  0.30749507  1
  Bi2+  Bi95  1  0.73810189  0.84081650  0.78086385  1
  Bi2+  Bi96  1  0.06691823  0.05368300  0.24375103  1
  Bi2+  Bi97  1  0.17843820  0.01092079  0.71262194  1
  Bi2+  Bi98  1  0.15216253  0.24912441  0.19995449  1
  Bi2+  Bi99  1  0.09275963  0.24168083  0.75405558  1
  Bi2+  Bi100  1  0.14062733  0.51584696  0.21427707  1
  Bi2+  Bi101  1  0.12081043  0.44030475  0.74716077  1
  Bi2+  Bi102  1  0.13074381  0.86054394  0.19200368  1
  Bi2+  Bi103  1  0.14166922  0.75926599  0.71065681  1
  Bi2+  Bi104  1  0.35348110  0.07824718  0.20812352  1
  Bi2+  Bi105  1  0.43827633  0.00340723  0.70688722  1
  Bi2+  Bi106  1  0.33941441  0.34043923  0.26334107  1
  Bi2+  Bi107  1  0.38271054  0.24037905  0.69682213  1
  Bi2+  Bi108  1  0.33381388  0.48036360  0.18368923  1
  Bi2+  Bi109  1  0.38913949  0.47702062  0.69197206  1
  Bi2+  Bi110  1  0.35307618  0.67553423  0.18992022  1
  Bi2+  Bi111  1  0.40370154  0.68353798  0.68460328  1
  Bi2+  Bi112  1  0.62665661  0.06764880  0.21836699  1
  Bi2+  Bi113  1  0.63137760  -0.01225571  0.74056399  1
  Bi2+  Bi114  1  0.71324439  0.22930620  0.18451842  1
  Bi2+  Bi115  1  0.61019664  0.26644105  0.74816408  1
  Bi2+  Bi116  1  0.60137413  0.39843175  0.22056658  1
  Bi2+  Bi117  1  0.61810739  0.55439026  0.74614696  1
  Bi2+  Bi118  1  0.59898789  0.77044701  0.21000093  1
  Bi2+  Bi119  1  0.58539145  0.77946114  0.71500633  1
  Bi2+  Bi120  1  0.88283628  0.00766343  0.19904211  1
  Bi2+  Bi121  1  0.91577987  0.01202665  0.70743702  1
  Bi2+  Bi122  1  0.90978258  0.20766416  0.19710258  1
  Bi2+  Bi123  1  0.88860777  0.27999924  0.69118520  1
  Bi2+  Bi124  1  0.87777836  0.49652879  0.21531025  1
  Bi2+  Bi125  1  0.82853738  0.52006558  0.68946026  1
  Bi2+  Bi126  1  0.88635717  0.75136951  0.21365233  1
  Bi2+  Bi127  1  0.86662648  0.76792757  0.70809146  1
  S2-  S128  1  0.09489473  0.11006123  0.14315221  1
  S2-  S129  1  0.05699262  0.07397609  0.65858453  1
  S2-  S130  1  -0.09466053  0.36292235  0.14970916  1
  S2-  S131  1  0.00731543  0.38209678  0.65722505  1
  S2-  S132  1  -0.06671822  0.61785550  0.14874261  1
  S2-  S133  1  -0.03531469  0.60187159  0.70268373  1
  S2-  S134  1  -0.02484001  0.85498027  0.14467630  1
  S2-  S135  1  0.00727857  0.78858248  0.64826127  1
  S2-  S136  1  0.28799960  0.23686513  0.14383819  1
  S2-  S137  1  0.28020482  0.12907281  0.66057372  1
  S2-  S138  1  0.12314045  0.39004617  0.14013581  1
  S2-  S139  1  0.27049567  0.35746728  0.66202119  1
  S2-  S140  1  0.20855483  0.72971093  0.13484425  1
  S2-  S141  1  0.16472458  0.62364334  0.64585236  1
  S2-  S142  1  0.26044079  0.96735547  0.14708304  1
  S2-  S143  1  0.21977485  0.87461391  0.64505287  1
  S2-  S144  1  0.49998337  0.12198921  0.15818324  1
  S2-  S145  1  0.50860971  0.13407292  0.65875233  1
  S2-  S146  1  0.47139678  0.38020648  0.15679191  1
  S2-  S147  1  0.48841431  0.35537670  0.65141236  1
  S2-  S148  1  0.57759699  0.63091328  0.15025514  1
  S2-  S149  1  0.53537916  0.57575426  0.65119621  1
  S2-  S150  1  0.51979324  0.87777961  0.15452050  1
  S2-  S151  1  0.50947989  0.87596761  0.64688867  1
  S2-  S152  1  0.73600491  -0.00084140  0.14713161  1
  S2-  S153  1  0.83736205  0.12934926  0.63675591  1
  S2-  S154  1  0.73509398  0.46848171  0.15976770  1
  S2-  S155  1  0.73800328  0.37351149  0.65372088  1
  S2-  S156  1  0.76713497  0.62812858  0.22070576  1
  S2-  S157  1  0.76536215  0.66423125  0.65175717  1
  S2-  S158  1  0.75058517  0.78609207  0.15695795  1
  S2-  S159  1  0.81085391  0.89270488  0.65443184  1
  S2-  S160  1  0.21407475  0.00094655  0.34927143  1
  S2-  S161  1  0.13803152  0.01084912  0.84184994  1
  S2-  S162  1  0.16115573  0.25917244  0.35205344  1
  S2-  S163  1  0.16133290  0.24735487  0.85212307  1
  S2-  S164  1  0.05502819  0.47278154  0.35673795  1
  S2-  S165  1  0.13160715  0.59068864  0.85752614  1
  S2-  S166  1  0.08481318  0.78814712  0.34038454  1
  S2-  S167  1  0.09829246  0.78638467  0.82277146  1
  S2-  S168  1  0.42750224  -0.00085112  0.27852598  1
  S2-  S169  1  0.37295657  0.01847091  0.84438348  1
  S2-  S170  1  0.38707937  0.16554867  0.35564343  1
  S2-  S171  1  0.37740073  0.24034736  0.83298364  1
  S2-  S172  1  0.38125837  0.61095487  0.35895474  1
  S2-  S173  1  0.36741378  0.48511506  0.84381301  1
  S2-  S174  1  0.36674227  0.82855484  0.34196753  1
  S2-  S175  1  0.34650897  0.75265283  0.84686012  1
  S2-  S176  1  0.60922562  -0.00691218  0.34480308  1
  S2-  S177  1  0.62824809  0.01581220  0.84755554  1
  S2-  S178  1  0.64121252  0.24220603  0.35017986  1
  S2-  S179  1  0.61361371  0.24737524  0.85391408  1
  S2-  S180  1  0.72083752  0.47898531  0.34851826  1
  S2-  S181  1  0.62951887  0.50212143  0.85019873  1
  S2-  S182  1  0.60465433  0.75645754  0.33460605  1
  S2-  S183  1  0.64948616  0.75213003  0.84899721  1
  S2-  S184  1  0.85425538  -0.02136481  0.34157295  1
  S2-  S185  1  0.87237081  -0.01366213  0.84151966  1
  S2-  S186  1  0.88173324  0.32639033  0.35043015  1
  S2-  S187  1  0.85989606  0.24933570  0.84706550  1
  S2-  S188  1  0.90193179  0.57967061  0.30706293  1
  S2-  S189  1  0.89271851  0.52140194  0.84521921  1
  S2-  S190  1  0.82474706  0.76752194  0.35174709  1
  S2-  S191  1  0.87870881  0.73870285  0.84247799  1
  S2-  S192  1  -0.00147202  0.11760296  0.45647808  1
  S2-  S193  1  0.00205537  0.11592043  0.95322915  1
  S2-  S194  1  -0.00305253  0.36701050  0.45636775  1
  S2-  S195  1  0.00084798  0.36779039  0.95583344  1
  S2-  S196  1  -0.00505304  0.61822457  0.44189541  1
  S2-  S197  1  -0.00616341  0.61848671  0.95314363  1
  S2-  S198  1  -0.00141641  0.86872987  0.45281183  1
  S2-  S199  1  -0.00234445  0.86567423  0.94366529  1
  S2-  S200  1  0.25052102  0.11767528  0.45813948  1
  S2-  S201  1  0.24485775  0.11523372  0.95612015  1
  S2-  S202  1  0.25403022  0.36768029  0.45852871  1
  S2-  S203  1  0.24600299  0.36776625  0.95947828  1
  S2-  S204  1  0.24565824  0.61960623  0.45457023  1
  S2-  S205  1  0.25234381  0.61839549  0.95754867  1
  S2-  S206  1  0.24835514  0.86656086  0.44752462  1
  S2-  S207  1  0.24684503  0.86505101  0.95235411  1
  S2-  S208  1  0.50241902  0.11856668  0.45571873  1
  S2-  S209  1  0.49993418  0.11756999  0.95547938  1
  S2-  S210  1  0.49801747  0.36452695  0.45111456  1
  S2-  S211  1  0.50101685  0.36677008  0.95238070  1
  S2-  S212  1  0.50582846  0.61966951  0.45338580  1
  S2-  S213  1  0.50106421  0.61629766  0.95563909  1
  S2-  S214  1  0.49560392  0.87366508  0.44434774  1
  S2-  S215  1  0.50172427  0.86782802  0.95321140  1
  S2-  S216  1  0.75162800  0.12034474  0.45036077  1
  S2-  S217  1  0.74704852  0.11690241  0.95916475  1
  S2-  S218  1  0.75171494  0.36549912  0.45398684  1
  S2-  S219  1  0.74725934  0.36658247  0.95930765  1
  S2-  S220  1  0.75398914  0.61590037  0.45041829  1
  S2-  S221  1  0.74899118  0.61616671  0.95201143  1
  S2-  S222  1  0.75101528  0.86880343  0.45828259  1
  S2-  S223  1  0.74895694  0.86985974  0.95587318  1
  S2-  S224  1  0.12264506  -0.01325506  0.04203372  1
  S2-  S225  1  0.12195944  -0.00748393  0.54248652  1
  S2-  S226  1  0.12443926  0.24091862  0.04759744  1
  S2-  S227  1  0.12387388  0.24302027  0.55610930  1
  S2-  S228  1  0.12248227  0.50278517  0.04276792  1
  S2-  S229  1  0.12223069  0.49499447  0.55034271  1
  S2-  S230  1  0.11866379  0.73956663  0.03053285  1
  S2-  S231  1  0.12149232  0.74358495  0.54046852  1
  S2-  S232  1  0.37587940  -0.00784872  0.04751605  1
  S2-  S233  1  0.37195581  -0.00849315  0.55236299  1
  S2-  S234  1  0.37680437  0.23983759  0.03998302  1
  S2-  S235  1  0.37427539  0.24291904  0.54753651  1
  S2-  S236  1  0.37159316  0.49796213  0.04954816  1
  S2-  S237  1  0.37496501  0.49342378  0.54362330  1
  S2-  S238  1  0.37850129  0.74070002  0.04824828  1
  S2-  S239  1  0.37265983  0.74500784  0.54067891  1
  S2-  S240  1  0.61776270  -0.00429182  0.04675458  1
  S2-  S241  1  0.62819144  -0.00602284  0.54953414  1
  S2-  S242  1  0.62345707  0.24241348  0.05397306  1
  S2-  S243  1  0.62662236  0.24513755  0.55114253  1
  S2-  S244  1  0.62534801  0.49239740  0.05058936  1
  S2-  S245  1  0.62354190  0.49009106  0.54071785  1
  S2-  S246  1  0.62222629  0.74484910  0.04935107  1
  S2-  S247  1  0.62298308  0.74341405  0.54282985  1
  S2-  S248  1  0.87653749  -0.00513593  0.04485557  1
  S2-  S249  1  0.87078900  -0.00967975  0.54307985  1
  S2-  S250  1  0.87544832  0.23925274  0.05031289  1
  S2-  S251  1  0.87102691  0.24784366  0.53974171  1
  S2-  S252  1  0.87469910  0.49476145  0.04680723  1
  S2-  S253  1  0.87764485  0.49837253  0.55977124  1
  S2-  S254  1  0.86800162  0.73986987  0.04441533  1
  S2-  S255  1  0.87805033  0.73988882  0.54628128  1
