# generated using pymatgen
data_La6Ce7Pr13Nd19Sm19(BiS2)64
_symmetry_space_group_name_H-M   'P 1'
_cell_length_a   15.98986511
_cell_length_b   16.04754332
_cell_length_c   27.61634234
_cell_angle_alpha   90.16487748
_cell_angle_beta   90.11444969
_cell_angle_gamma   90.12192453
_symmetry_Int_Tables_number   1
_chemical_formula_structural   La6Ce7Pr13Nd19Sm19(BiS2)64
_chemical_formula_sum   'La6 Ce7 Pr13 Nd19 Sm19 Bi64 S128'
_cell_volume   7086.24006795
_cell_formula_units_Z   1
loop_
 _symmetry_equiv_pos_site_id
 _symmetry_equiv_pos_as_xyz
  1  'x, y, z'
loop_
 _atom_type_symbol
 _atom_type_oxidation_number
  La3+  3.0
  Ce3+  3.0
  Pr3+  3.0
  Nd3+  3.0
  Sm3+  3.0
  Bi2+  2.0
  S2-  -2.0
loop_
 _atom_site_type_symbol
 _atom_site_label
 _atom_site_symmetry_multiplicity
 _atom_site_fract_x
 _atom_site_fract_y
 _atom_site_fract_z
 _atom_site_occupancy
  La3+  La0  1  0.76633690  0.13059634  0.07406067  1
  La3+  La1  1  0.48811791  0.61350197  0.57976222  1
  La3+  La2  1  0.74585913  0.63579382  0.08793257  1
  La3+  La3  1  0.12505501  0.75552527  0.91673120  1
  La3+  La4  1  0.89002805  0.49103839  0.38628639  1
  La3+  La5  1  0.74490818  0.12676370  0.57804282  1
  Ce3+  Ce6  1  0.37649546  0.49287625  0.43067737  1
  Ce3+  Ce7  1  -0.00460725  0.61401644  0.55940922  1
  Ce3+  Ce8  1  -0.00628507  0.36092756  0.55893201  1
  Ce3+  Ce9  1  0.24651239  0.61765227  0.55382589  1
  Ce3+  Ce10  1  0.24333651  0.86784076  0.55608520  1
  Ce3+  Ce11  1  0.24621053  0.36356042  0.54929767  1
  Ce3+  Ce12  1  0.74639851  0.36611031  0.54993175  1
  Pr3+  Pr13  1  0.62285114  0.49387331  0.43127242  1
  Pr3+  Pr14  1  0.11622867  -0.00848628  0.44311571  1
  Pr3+  Pr15  1  0.38243446  0.25325360  0.94477887  1
  Pr3+  Pr16  1  0.01078056  0.37877128  0.06329233  1
  Pr3+  Pr17  1  -0.00163605  0.11726131  0.59728639  1
  Pr3+  Pr18  1  0.49025750  0.36755736  0.56491223  1
  Pr3+  Pr19  1  0.50028728  0.86633591  0.59148679  1
  Pr3+  Pr20  1  0.63557898  0.75819138  0.92492175  1
  Pr3+  Pr21  1  0.74657868  0.61796305  0.55918856  1
  Pr3+  Pr22  1  0.86235029  0.23611439  0.42745953  1
  Pr3+  Pr23  1  0.76450135  0.87871610  0.06882212  1
  Pr3+  Pr24  1  0.75220959  0.86954451  0.56704070  1
  Pr3+  Pr25  1  0.25716247  0.37967807  0.05504863  1
  Nd3+  Nd26  1  0.00788479  0.85108211  0.60145651  1
  Nd3+  Nd27  1  0.11483557  0.24220900  0.43655533  1
  Nd3+  Nd28  1  0.50956254  0.37694771  0.05447298  1
  Nd3+  Nd29  1  0.87964235  0.25199799  0.93452021  1
  Nd3+  Nd30  1  0.38748898  0.75423087  0.92667846  1
  Nd3+  Nd31  1  0.11566783  0.73959011  0.43848871  1
  Nd3+  Nd32  1  0.01285254  0.87482723  0.06132170  1
  Nd3+  Nd33  1  0.12683535  0.25170515  0.92595849  1
  Nd3+  Nd34  1  0.86792174  0.73911363  0.43794231  1
  Nd3+  Nd35  1  0.61609913  0.23976357  0.43681142  1
  Nd3+  Nd36  1  0.49581091  0.11587475  0.57831748  1
  Nd3+  Nd37  1  0.37499099  0.23775821  0.43752149  1
  Nd3+  Nd38  1  0.86976948  -0.00408706  0.44810493  1
  Nd3+  Nd39  1  0.75676808  0.37754781  0.06120837  1
  Nd3+  Nd40  1  0.37377330  0.74137192  0.44470389  1
  Nd3+  Nd41  1  0.13093576  0.50503549  0.92873771  1
  Nd3+  Nd42  1  0.63502332  0.00457676  0.93852403  1
  Nd3+  Nd43  1  0.38080256  0.00527357  0.94302107  1
  Nd3+  Nd44  1  0.12954958  0.00435918  0.92948056  1
  Sm3+  Sm45  1  0.61928636  0.74158282  0.44791945  1
  Sm3+  Sm46  1  0.50992510  0.12728581  0.06344304  1
  Sm3+  Sm47  1  0.24084063  0.11340812  0.55783292  1
  Sm3+  Sm48  1  0.00933694  0.63022908  0.05577111  1
  Sm3+  Sm49  1  0.63869437  0.24586158  0.93233006  1
  Sm3+  Sm50  1  0.63622165  0.50707433  0.94351224  1
  Sm3+  Sm51  1  0.01462702  0.12847602  0.06203697  1
  Sm3+  Sm52  1  0.38675579  0.50144279  0.94254687  1
  Sm3+  Sm53  1  0.87759751  0.75063446  0.94074174  1
  Sm3+  Sm54  1  0.61946173  -0.00749757  0.45160944  1
  Sm3+  Sm55  1  0.50820083  0.87795929  0.05318332  1
  Sm3+  Sm56  1  0.50788138  0.63235878  0.05459978  1
  Sm3+  Sm57  1  0.87827883  0.50466060  0.95041619  1
  Sm3+  Sm58  1  0.25751277  0.63043263  0.04731252  1
  Sm3+  Sm59  1  0.11973733  0.48978565  0.44381748  1
  Sm3+  Sm60  1  0.37173138  -0.00947854  0.44578614  1
  Sm3+  Sm61  1  0.25396520  0.12684917  0.06062502  1
  Sm3+  Sm62  1  0.88179233  0.00407350  0.94430871  1
  Sm3+  Sm63  1  0.25384354  0.87425606  0.05485194  1
  Bi2+  Bi64  1  0.01234380  0.11440173  0.29446487  1
  Bi2+  Bi65  1  0.00547412  0.14860477  0.79658045  1
  Bi2+  Bi66  1  0.02922248  0.36318357  0.28441383  1
  Bi2+  Bi67  1  -0.01253533  0.40214117  0.78517148  1
  Bi2+  Bi68  1  0.02365473  0.62842485  0.28672955  1
  Bi2+  Bi69  1  -0.00616444  0.61500943  0.79762988  1
  Bi2+  Bi70  1  0.01683214  0.89365962  0.28418433  1
  Bi2+  Bi71  1  0.00674104  0.86642069  0.78177184  1
  Bi2+  Bi72  1  0.29929508  0.15670682  0.28851273  1
  Bi2+  Bi73  1  0.24633051  0.22201185  0.77794292  1
  Bi2+  Bi74  1  0.30462556  0.43780976  0.30415516  1
  Bi2+  Bi75  1  0.18209670  0.39722853  0.81259598  1
  Bi2+  Bi76  1  0.27357667  0.63720061  0.30429984  1
  Bi2+  Bi77  1  0.20283472  0.57506687  0.75669348  1
  Bi2+  Bi78  1  0.22566153  0.83774435  0.26849355  1
  Bi2+  Bi79  1  0.28738596  0.85329066  0.79837083  1
  Bi2+  Bi80  1  0.49672959  0.10934569  0.29754975  1
  Bi2+  Bi81  1  0.47344980  0.09952614  0.78699821  1
  Bi2+  Bi82  1  0.49505309  0.37236495  0.28856615  1
  Bi2+  Bi83  1  0.41459482  0.36448834  0.79134886  1
  Bi2+  Bi84  1  0.51116312  0.64230904  0.29030776  1
  Bi2+  Bi85  1  0.51380750  0.58251919  0.79685636  1
  Bi2+  Bi86  1  0.42236942  0.89295182  0.28759144  1
  Bi2+  Bi87  1  0.48375868  0.85041016  0.77892425  1
  Bi2+  Bi88  1  0.75015415  0.09891361  0.29558946  1
  Bi2+  Bi89  1  0.74206602  0.12480203  0.80786797  1
  Bi2+  Bi90  1  0.75606636  0.35126451  0.28677028  1
  Bi2+  Bi91  1  0.69853573  0.36573594  0.73742016  1
  Bi2+  Bi92  1  0.73838299  0.63949857  0.29271221  1
  Bi2+  Bi93  1  0.75929647  0.58453805  0.80113130  1
  Bi2+  Bi94  1  0.81755676  0.87783340  0.29539825  1
  Bi2+  Bi95  1  0.75698446  0.85597035  0.79262323  1
  Bi2+  Bi96  1  0.17398329  0.02967937  0.22490151  1
  Bi2+  Bi97  1  0.12842629  0.05214079  0.73145933  1
  Bi2+  Bi98  1  0.17249300  0.23187413  0.20929011  1
  Bi2+  Bi99  1  0.13620973  0.33684491  0.70024295  1
  Bi2+  Bi100  1  0.18817940  0.51042246  0.21976755  1
  Bi2+  Bi101  1  0.05061141  0.51790524  0.68554117  1
  Bi2+  Bi102  1  0.12412522  0.74157601  0.19081224  1
  Bi2+  Bi103  1  0.15137461  0.76556160  0.73123604  1
  Bi2+  Bi104  1  0.36639982  0.02412756  0.20242326  1
  Bi2+  Bi105  1  0.29541161  -0.03054524  0.69677845  1
  Bi2+  Bi106  1  0.35433529  0.30634116  0.21684122  1
  Bi2+  Bi107  1  0.36470686  0.15900453  0.69134178  1
  Bi2+  Bi108  1  0.37456336  0.59003104  0.21250176  1
  Bi2+  Bi109  1  0.36513603  0.47117323  0.70298115  1
  Bi2+  Bi110  1  0.36772689  0.81747673  0.18636640  1
  Bi2+  Bi111  1  0.35974935  0.71591162  0.72326043  1
  Bi2+  Bi112  1  0.63709702  -0.05614651  0.26020838  1
  Bi2+  Bi113  1  0.59620850  0.00396924  0.71649166  1
  Bi2+  Bi114  1  0.57832618  0.23992227  0.21225851  1
  Bi2+  Bi115  1  0.53145207  0.25646648  0.71809825  1
  Bi2+  Bi116  1  0.62400643  0.49428169  0.19953611  1
  Bi2+  Bi117  1  0.63034902  0.54500580  0.70733819  1
  Bi2+  Bi118  1  0.58474452  0.76949902  0.21194205  1
  Bi2+  Bi119  1  0.63035865  0.75930983  0.72115613  1
  Bi2+  Bi120  1  0.90171057  0.00814543  0.21970701  1
  Bi2+  Bi121  1  0.87227380  -0.02294476  0.72441266  1
  Bi2+  Bi122  1  0.84596518  0.24993881  0.19830228  1
  Bi2+  Bi123  1  0.85818859  0.25336657  0.71088377  1
  Bi2+  Bi124  1  0.90514256  0.49066940  0.18033030  1
  Bi2+  Bi125  1  0.85870353  0.47877341  0.70948647  1
  Bi2+  Bi126  1  0.87123596  0.76505055  0.20276139  1
  Bi2+  Bi127  1  0.87666081  0.72789301  0.71461055  1
  S2-  S128  1  -0.09057843  0.13276255  0.14153899  1
  S2-  S129  1  0.01229515  -0.01567788  0.66581932  1
  S2-  S130  1  -0.01369423  0.34307248  0.16101069  1
  S2-  S131  1  -0.00638975  0.27817547  0.64601407  1
  S2-  S132  1  -0.01411239  0.64303434  0.15299630  1
  S2-  S133  1  0.00487604  0.68949329  0.64719599  1
  S2-  S134  1  -0.09502989  0.88695525  0.14187995  1
  S2-  S135  1  -0.14617125  0.85513754  0.65169412  1
  S2-  S136  1  0.13985809  0.12180056  0.13412379  1
  S2-  S137  1  0.16257298  0.12865323  0.64369285  1
  S2-  S138  1  0.22143233  0.37831961  0.15147941  1
  S2-  S139  1  0.28561195  0.35940191  0.64331055  1
  S2-  S140  1  0.23691567  0.62768574  0.14353659  1
  S2-  S141  1  0.31684379  0.60526789  0.64072021  1
  S2-  S142  1  0.14299925  0.86850538  0.13105200  1
  S2-  S143  1  0.18002792  0.85444895  0.64576405  1
  S2-  S144  1  0.47086640  0.13637135  0.15731325  1
  S2-  S145  1  0.61865704  0.13198479  0.65354721  1
  S2-  S146  1  0.52838017  0.38441825  0.15170633  1
  S2-  S147  1  0.50510065  0.47517637  0.64389481  1
  S2-  S148  1  0.57705257  0.62176857  0.14340989  1
  S2-  S149  1  0.48937345  0.73253995  0.65758653  1
  S2-  S150  1  0.51829462  0.88726599  0.15005719  1
  S2-  S151  1  0.45142108  0.99806965  0.65359036  1
  S2-  S152  1  0.69758267  0.16293640  0.16598497  1
  S2-  S153  1  0.84930573  0.10782285  0.66029674  1
  S2-  S154  1  0.75923689  0.39094289  0.15985099  1
  S2-  S155  1  0.74339392  0.30589662  0.64015759  1
  S2-  S156  1  0.77053695  0.59439656  0.19028713  1
  S2-  S157  1  0.74653182  0.65187280  0.65736525  1
  S2-  S158  1  0.72834093  0.78118099  0.14908744  1
  S2-  S159  1  0.64711495  0.88302962  0.65136132  1
  S2-  S160  1  0.11071202  0.00404729  0.34327190  1
  S2-  S161  1  0.14463615  0.12347673  0.85596831  1
  S2-  S162  1  0.10984129  0.24889037  0.33720442  1
  S2-  S163  1  -0.00732784  0.27428898  0.85877651  1
  S2-  S164  1  0.06626657  0.49379377  0.35143447  1
  S2-  S165  1  0.13986233  0.61589755  0.85136905  1
  S2-  S166  1  0.11814421  0.72464290  0.34007999  1
  S2-  S167  1  0.13374635  0.89470746  0.85140117  1
  S2-  S168  1  0.36646654  0.02223790  0.35053928  1
  S2-  S169  1  0.39223728  -0.02000878  0.84604507  1
  S2-  S170  1  0.48940460  0.24199991  0.36209315  1
  S2-  S171  1  0.38487723  0.21855312  0.84840851  1
  S2-  S172  1  0.49513899  0.50459964  0.35846605  1
  S2-  S173  1  0.38332755  0.51605777  0.84604315  1
  S2-  S174  1  0.39863371  0.74263362  0.34707557  1
  S2-  S175  1  0.50358721  0.73110077  0.85249215  1
  S2-  S176  1  0.61998194  0.01604967  0.35434418  1
  S2-  S177  1  0.64903503  -0.09840008  0.85779221  1
  S2-  S178  1  0.71289254  0.23953418  0.35147040  1
  S2-  S179  1  0.60707637  0.12054262  0.86232710  1
  S2-  S180  1  0.72381823  0.49154652  0.34498550  1
  S2-  S181  1  0.63388483  0.49006388  0.84654665  1
  S2-  S182  1  0.64059236  0.72398142  0.35016887  1
  S2-  S183  1  0.76715605  0.72011554  0.86127683  1
  S2-  S184  1  0.87267985  0.09000889  0.36072356  1
  S2-  S185  1  0.88149125  0.04981382  0.84912295  1
  S2-  S186  1  0.90179828  0.32754397  0.34250229  1
  S2-  S187  1  0.76027899  0.26004627  0.85929535  1
  S2-  S188  1  0.90755211  0.49027309  0.27419099  1
  S2-  S189  1  0.88074253  0.49909475  0.85283429  1
  S2-  S190  1  0.88560834  0.66157855  0.34848673  1
  S2-  S191  1  0.97464620  0.75145409  0.85597483  1
  S2-  S192  1  -0.00331745  0.11877444  0.45328340  1
  S2-  S193  1  0.00575677  0.12849519  0.95827575  1
  S2-  S194  1  -0.00614917  0.36943125  0.45368268  1
  S2-  S195  1  0.00824287  0.38551289  0.95730576  1
  S2-  S196  1  -0.00614922  0.61135166  0.45461190  1
  S2-  S197  1  0.00407517  0.62380079  0.95424296  1
  S2-  S198  1  -0.00882101  0.86562920  0.43948635  1
  S2-  S199  1  0.00243939  0.88033734  0.95554743  1
  S2-  S200  1  0.24570045  0.11687288  0.45258188  1
  S2-  S201  1  0.25727309  0.12984908  0.95825208  1
  S2-  S202  1  0.24695978  0.36463405  0.44347018  1
  S2-  S203  1  0.25689350  0.38036235  0.94915334  1
  S2-  S204  1  0.24472861  0.61573541  0.44805465  1
  S2-  S205  1  0.26569167  0.62758217  0.94587887  1
  S2-  S206  1  0.24514994  0.86524519  0.44855899  1
  S2-  S207  1  0.26192292  0.87463309  0.95195029  1
  S2-  S208  1  0.49343330  0.11204529  0.46381276  1
  S2-  S209  1  0.50621728  0.12825179  0.96181066  1
  S2-  S210  1  0.49409074  0.36810377  0.45949869  1
  S2-  S211  1  0.51357930  0.37638753  0.94915694  1
  S2-  S212  1  0.49706888  0.61994550  0.46247466  1
  S2-  S213  1  0.50843091  0.62576994  0.95377055  1
  S2-  S214  1  0.49671628  0.86817841  0.44960291  1
  S2-  S215  1  0.50454491  0.88076707  0.95198678  1
  S2-  S216  1  0.73981647  0.11558643  0.46474812  1
  S2-  S217  1  0.75852232  0.12666906  0.96427505  1
  S2-  S218  1  0.74590248  0.36806850  0.44948068  1
  S2-  S219  1  0.75463521  0.37984937  0.95754497  1
  S2-  S220  1  0.74409618  0.61872114  0.45490543  1
  S2-  S221  1  0.75630085  0.62558216  0.96608188  1
  S2-  S222  1  0.74421259  0.86706940  0.45601155  1
  S2-  S223  1  0.76216165  0.88066309  0.96202261  1
  S2-  S224  1  0.13577234  0.00177357  0.03440559  1
  S2-  S225  1  0.11540905  -0.01140260  0.54724270  1
  S2-  S226  1  0.13427804  0.25458679  0.03726266  1
  S2-  S227  1  0.12123172  0.23985431  0.54054830  1
  S2-  S228  1  0.13363317  0.50700069  0.03978718  1
  S2-  S229  1  0.12261598  0.48933410  0.54743883  1
  S2-  S230  1  0.13369426  0.74778171  0.02971471  1
  S2-  S231  1  0.11881552  0.74135839  0.54215939  1
  S2-  S232  1  0.37854669  0.00172154  0.04891948  1
  S2-  S233  1  0.36824307  -0.00868188  0.54706811  1
  S2-  S234  1  0.38140116  0.25055060  0.05124846  1
  S2-  S235  1  0.36973829  0.23467748  0.54377758  1
  S2-  S236  1  0.38477621  0.50567074  0.04706797  1
  S2-  S237  1  0.36765575  0.49099637  0.53645132  1
  S2-  S238  1  0.38238401  0.75417442  0.03830630  1
  S2-  S239  1  0.37184266  0.74842538  0.54847761  1
  S2-  S240  1  0.63282807  0.00385177  0.05131225  1
  S2-  S241  1  0.61625031  -0.00846700  0.55175812  1
  S2-  S242  1  0.63186875  0.25117758  0.04476207  1
  S2-  S243  1  0.61277339  0.24397311  0.54344427  1
  S2-  S244  1  0.63182131  0.50389622  0.04663837  1
  S2-  S245  1  0.62172030  0.49213154  0.54290949  1
  S2-  S246  1  0.62826560  0.75663788  0.03953668  1
  S2-  S247  1  0.61869797  0.74371719  0.55021653  1
  S2-  S248  1  0.88929659  0.00479383  0.04475211  1
  S2-  S249  1  0.87680930  -0.00531279  0.55040640  1
  S2-  S250  1  0.88548318  0.25806342  0.04159040  1
  S2-  S251  1  0.87174186  0.23968306  0.54021776  1
  S2-  S252  1  0.88085984  0.50642307  0.05429386  1
  S2-  S253  1  0.87127773  0.49002425  0.55959165  1
  S2-  S254  1  0.88332538  0.74749143  0.04538752  1
  S2-  S255  1  0.87632329  0.74365993  0.54274123  1
