# generated using pymatgen
data_La6Ce7Pr13Nd19Sm19(BiS2)64
_symmetry_space_group_name_H-M   'P 1'
_cell_length_a   16.06579085
_cell_length_b   16.06921503
_cell_length_c   27.42613280
_cell_angle_alpha   89.85144346
_cell_angle_beta   89.94311753
_cell_angle_gamma   90.02997825
_symmetry_Int_Tables_number   1
_chemical_formula_structural   La6Ce7Pr13Nd19Sm19(BiS2)64
_chemical_formula_sum   'La6 Ce7 Pr13 Nd19 Sm19 Bi64 S128'
_cell_volume   7080.42964821
_cell_formula_units_Z   1
loop_
 _symmetry_equiv_pos_site_id
 _symmetry_equiv_pos_as_xyz
  1  'x, y, z'
loop_
 _atom_type_symbol
 _atom_type_oxidation_number
  La3+  3.0
  Ce3+  3.0
  Pr3+  3.0
  Nd3+  3.0
  Sm3+  3.0
  Bi2+  2.0
  S2-  -2.0
loop_
 _atom_site_type_symbol
 _atom_site_label
 _atom_site_symmetry_multiplicity
 _atom_site_fract_x
 _atom_site_fract_y
 _atom_site_fract_z
 _atom_site_occupancy
  La3+  La0  1  0.88707829  0.24811580  0.39217597  1
  La3+  La1  1  0.73897628  0.87555643  0.57474658  1
  La3+  La2  1  0.36851635  0.00760396  0.43627248  1
  La3+  La3  1  0.11923016  0.26115271  0.92759813  1
  La3+  La4  1  0.01138334  0.13062319  0.07972472  1
  La3+  La5  1  0.12201125  0.52504920  0.88955700  1
  Ce3+  Ce6  1  0.24215005  0.12824844  0.56184514  1
  Ce3+  Ce7  1  0.24875983  0.62475206  0.05714949  1
  Ce3+  Ce8  1  0.24511547  0.37600940  0.55822123  1
  Ce3+  Ce9  1  0.24990196  0.87896423  0.05722799  1
  Ce3+  Ce10  1  0.62549645  0.00361866  0.93467225  1
  Ce3+  Ce11  1  -0.00612247  0.37768194  0.56963054  1
  Ce3+  Ce12  1  0.87177479  0.75871318  0.44250557  1
  Pr3+  Pr13  1  0.50377530  0.37703988  0.07402206  1
  Pr3+  Pr14  1  0.49513149  0.13560959  0.56770688  1
  Pr3+  Pr15  1  0.62628719  0.50131387  0.93392649  1
  Pr3+  Pr16  1  -0.00423200  0.62706554  0.57337739  1
  Pr3+  Pr17  1  0.61678564  0.50332149  0.43553334  1
  Pr3+  Pr18  1  0.11732890  0.50126646  0.44232173  1
  Pr3+  Pr19  1  -0.00804607  0.88155917  0.60044051  1
  Pr3+  Pr20  1  0.36368764  0.76142093  0.41742558  1
  Pr3+  Pr21  1  0.12244759  0.01113484  0.93138660  1
  Pr3+  Pr22  1  0.62020178  -0.00138533  0.43402330  1
  Pr3+  Pr23  1  0.50002047  0.88344557  0.06762609  1
  Pr3+  Pr24  1  0.86881610  -0.00133258  0.44127105  1
  Pr3+  Pr25  1  0.87121012  0.50333077  0.43670178  1
  Nd3+  Nd26  1  0.37650482  0.75414148  0.94387928  1
  Nd3+  Nd27  1  0.75008167  0.87861973  0.05748216  1
  Nd3+  Nd28  1  0.87828673  0.25561734  0.94691700  1
  Nd3+  Nd29  1  0.37735021  0.50352639  0.94433397  1
  Nd3+  Nd30  1  0.74274840  0.12881398  0.55439460  1
  Nd3+  Nd31  1  0.49807534  0.38182907  0.56546630  1
  Nd3+  Nd32  1  0.25078094  0.13120470  0.06049572  1
  Nd3+  Nd33  1  0.00251446  0.87957912  0.05972766  1
  Nd3+  Nd34  1  0.62477971  0.25084766  0.42487060  1
  Nd3+  Nd35  1  0.37245858  0.25030788  0.43280394  1
  Nd3+  Nd36  1  0.49217785  0.62896441  0.56289376  1
  Nd3+  Nd37  1  0.12637437  0.75586483  0.94158741  1
  Nd3+  Nd38  1  0.75144835  0.38074617  0.06671923  1
  Nd3+  Nd39  1  0.87915409  0.75245450  0.94263529  1
  Nd3+  Nd40  1  0.49171321  0.88118323  0.56356795  1
  Nd3+  Nd41  1  0.37085770  0.50232361  0.43959309  1
  Nd3+  Nd42  1  0.74377904  0.63039581  0.55434783  1
  Nd3+  Nd43  1  0.75035385  0.12435555  0.06518672  1
  Nd3+  Nd44  1  0.62966493  0.25280021  0.94104315  1
  Sm3+  Sm45  1  0.37865463  0.25791084  0.94094833  1
  Sm3+  Sm46  1  0.11498870  0.00450415  0.44746874  1
  Sm3+  Sm47  1  -0.00996251  0.12984140  0.56905526  1
  Sm3+  Sm48  1  0.50120093  0.12795962  0.05313030  1
  Sm3+  Sm49  1  0.11577066  0.25177233  0.44406668  1
  Sm3+  Sm50  1  0.75072903  0.62865940  0.05525376  1
  Sm3+  Sm51  1  0.24170744  0.87693152  0.56193842  1
  Sm3+  Sm52  1  0.62599447  0.75650543  0.94482522  1
  Sm3+  Sm53  1  0.24814536  0.37922221  0.05334705  1
  Sm3+  Sm54  1  0.00078096  0.62572397  0.05873943  1
  Sm3+  Sm55  1  0.87851348  0.00683046  0.94640675  1
  Sm3+  Sm56  1  0.74431269  0.37716025  0.55149683  1
  Sm3+  Sm57  1  0.37544249  0.00620839  0.94165012  1
  Sm3+  Sm58  1  0.61558562  0.75615384  0.43707665  1
  Sm3+  Sm59  1  0.24432329  0.62982310  0.55641206  1
  Sm3+  Sm60  1  0.50191867  0.62793339  0.05665389  1
  Sm3+  Sm61  1  -0.00308534  0.37947163  0.06754178  1
  Sm3+  Sm62  1  0.87336994  0.50279084  0.93390419  1
  Sm3+  Sm63  1  0.11919605  0.75430588  0.44264259  1
  Bi2+  Bi64  1  0.02038588  0.11767118  0.29342156  1
  Bi2+  Bi65  1  0.00391972  0.12883428  0.79528834  1
  Bi2+  Bi66  1  -0.01008517  0.48136444  0.27709940  1
  Bi2+  Bi67  1  -0.00630656  0.37232746  0.78388718  1
  Bi2+  Bi68  1  -0.04242699  0.65669353  0.33693174  1
  Bi2+  Bi69  1  -0.02225168  0.64969855  0.79036593  1
  Bi2+  Bi70  1  0.00234661  0.84539623  0.30815865  1
  Bi2+  Bi71  1  -0.01921578  0.87396723  0.78873398  1
  Bi2+  Bi72  1  0.27397623  0.14016961  0.22269541  1
  Bi2+  Bi73  1  0.28433181  0.11284208  0.79610312  1
  Bi2+  Bi74  1  0.25590811  0.29874704  0.29148952  1
  Bi2+  Bi75  1  0.27931034  0.40061258  0.79435033  1
  Bi2+  Bi76  1  0.27070166  0.50366100  0.29053491  1
  Bi2+  Bi77  1  0.28024681  0.77992371  0.77225476  1
  Bi2+  Bi78  1  0.22848727  0.90742711  0.29811368  1
  Bi2+  Bi79  1  0.17042027  0.92574854  0.81282228  1
  Bi2+  Bi80  1  0.47444828  0.11910547  0.28359354  1
  Bi2+  Bi81  1  0.55201149  0.14139637  0.79685165  1
  Bi2+  Bi82  1  0.45098931  0.31262526  0.31126727  1
  Bi2+  Bi83  1  0.51636810  0.40412926  0.77264388  1
  Bi2+  Bi84  1  0.56741458  0.58029161  0.31035603  1
  Bi2+  Bi85  1  0.49204360  0.61099442  0.79181965  1
  Bi2+  Bi86  1  0.49440474  0.84783686  0.28807631  1
  Bi2+  Bi87  1  0.50982734  0.83866644  0.79381261  1
  Bi2+  Bi88  1  0.74667021  0.11400018  0.29011531  1
  Bi2+  Bi89  1  0.74849252  0.16763805  0.79278871  1
  Bi2+  Bi90  1  0.74992242  0.38968336  0.28408695  1
  Bi2+  Bi91  1  0.70964414  0.35585198  0.80629692  1
  Bi2+  Bi92  1  0.76124819  0.64243379  0.30704634  1
  Bi2+  Bi93  1  0.68685668  0.62726618  0.79303584  1
  Bi2+  Bi94  1  0.74394938  0.83929992  0.28740763  1
  Bi2+  Bi95  1  0.79505018  0.82988110  0.75348432  1
  Bi2+  Bi96  1  0.13537635  -0.03513865  0.20243342  1
  Bi2+  Bi97  1  0.12992142  0.01264517  0.71176175  1
  Bi2+  Bi98  1  0.10901519  0.35231252  0.22147216  1
  Bi2+  Bi99  1  0.14341271  0.25924542  0.70438518  1
  Bi2+  Bi100  1  0.11606226  0.55902430  0.20024096  1
  Bi2+  Bi101  1  0.12417554  0.50540174  0.70368391  1
  Bi2+  Bi102  1  0.15128197  0.73092245  0.26653795  1
  Bi2+  Bi103  1  0.11202989  0.74916418  0.71395588  1
  Bi2+  Bi104  1  0.38875570  -0.01914045  0.20166423  1
  Bi2+  Bi105  1  0.37650742  -0.04146816  0.74407304  1
  Bi2+  Bi106  1  0.38361386  0.30421882  0.18494667  1
  Bi2+  Bi107  1  0.40824656  0.24389488  0.74400272  1
  Bi2+  Bi108  1  0.39486229  0.50287486  0.19920567  1
  Bi2+  Bi109  1  0.38817451  0.62320634  0.69173202  1
  Bi2+  Bi110  1  0.33635444  0.67680083  0.24373094  1
  Bi2+  Bi111  1  0.37039022  0.81442567  0.66552401  1
  Bi2+  Bi112  1  0.62916307  -0.00487897  0.19093195  1
  Bi2+  Bi113  1  0.62133298  0.00100058  0.70927345  1
  Bi2+  Bi114  1  0.56508087  0.26930235  0.22339492  1
  Bi2+  Bi115  1  0.60887178  0.22502730  0.68761964  1
  Bi2+  Bi116  1  0.58997631  0.48905300  0.20890875  1
  Bi2+  Bi117  1  0.63537113  0.49713125  0.69969575  1
  Bi2+  Bi118  1  0.62287084  0.69710540  0.22188974  1
  Bi2+  Bi119  1  0.55183562  0.73710547  0.69689114  1
  Bi2+  Bi120  1  0.88939265  -0.05353956  0.21550477  1
  Bi2+  Bi121  1  0.86790376  0.00642939  0.72558513  1
  Bi2+  Bi122  1  0.86233596  0.24051102  0.18063090  1
  Bi2+  Bi123  1  0.87896799  0.25123192  0.72083725  1
  Bi2+  Bi124  1  0.83344707  0.53012155  0.20624389  1
  Bi2+  Bi125  1  0.82340095  0.44163691  0.72126429  1
  Bi2+  Bi126  1  0.90085582  0.73462528  0.23171112  1
  Bi2+  Bi127  1  0.83490229  0.64329530  0.70946330  1
  S2-  S128  1  -0.06906756  0.07886664  0.16794395  1
  S2-  S129  1  -0.00868659  0.03250496  0.65416480  1
  S2-  S130  1  0.02298724  0.27280327  0.14644852  1
  S2-  S131  1  0.00301066  0.25386676  0.64549260  1
  S2-  S132  1  -0.02309522  0.62573272  0.15614812  1
  S2-  S133  1  -0.00317368  0.49450563  0.64455243  1
  S2-  S134  1  0.01672168  0.86902484  0.15817140  1
  S2-  S135  1  -0.01565034  0.73087735  0.65458658  1
  S2-  S136  1  0.16007833  0.10857093  0.14433937  1
  S2-  S137  1  0.22981783  0.13597685  0.66020170  1
  S2-  S138  1  0.23291251  0.37358794  0.15107794  1
  S2-  S139  1  0.22854311  0.38395309  0.65751983  1
  S2-  S140  1  0.24437803  0.64954003  0.15340790  1
  S2-  S141  1  0.20379120  0.62551701  0.65230314  1
  S2-  S142  1  0.26527888  0.88739172  0.15424434  1
  S2-  S143  1  0.15479000  0.87998451  0.64896911  1
  S2-  S144  1  0.49634987  0.08440879  0.14716411  1
  S2-  S145  1  0.49551098  0.06380435  0.66237927  1
  S2-  S146  1  0.63336066  0.36622479  0.14264126  1
  S2-  S147  1  0.47123271  0.27429984  0.64229490  1
  S2-  S148  1  0.49973888  0.62834408  0.15374587  1
  S2-  S149  1  0.49293628  0.51055229  0.63810400  1
  S2-  S150  1  0.50908367  0.86859686  0.16842114  1
  S2-  S151  1  0.60448376  0.88266030  0.64282047  1
  S2-  S152  1  0.71984359  0.13384681  0.16349365  1
  S2-  S153  1  0.72902046  0.10245315  0.65400263  1
  S2-  S154  1  0.86856459  0.40466514  0.14103455  1
  S2-  S155  1  0.69482493  0.36036532  0.64640716  1
  S2-  S156  1  0.73668185  0.63895147  0.15161661  1
  S2-  S157  1  0.70620687  0.68165577  0.64618859  1
  S2-  S158  1  0.74547949  0.89912096  0.15544046  1
  S2-  S159  1  0.83820954  0.88237274  0.65909273  1
  S2-  S160  1  0.13761487  0.01924509  0.34837152  1
  S2-  S161  1  0.13370109  0.13146821  0.85733018  1
  S2-  S162  1  0.05401703  0.24171098  0.35261204  1
  S2-  S163  1  0.13722797  0.36610852  0.84447706  1
  S2-  S164  1  0.12354963  0.51113139  0.34276564  1
  S2-  S165  1  0.20797558  0.54196456  0.79578875  1
  S2-  S166  1  0.21508821  0.75433796  0.35903921  1
  S2-  S167  1  0.10064208  0.69321085  0.85162885  1
  S2-  S168  1  0.38358807  -0.09312383  0.35168035  1
  S2-  S169  1  0.40227151  0.01025259  0.84567607  1
  S2-  S170  1  0.36715196  0.12979779  0.35886321  1
  S2-  S171  1  0.33665641  0.25276553  0.84586237  1
  S2-  S172  1  0.42406573  0.48192837  0.34624745  1
  S2-  S173  1  0.41076926  0.48256537  0.84841708  1
  S2-  S174  1  0.44120744  0.70764360  0.32923939  1
  S2-  S175  1  0.39188352  0.73533171  0.84635904  1
  S2-  S176  1  0.61522286  0.09255187  0.34645100  1
  S2-  S177  1  0.66348462  0.02995306  0.84040756  1
  S2-  S178  1  0.73067120  0.24903772  0.34359615  1
  S2-  S179  1  0.55734486  0.29603928  0.85557671  1
  S2-  S180  1  0.63409078  0.42257418  0.34689466  1
  S2-  S181  1  0.74322657  0.50308516  0.85871806  1
  S2-  S182  1  0.61522320  0.86532376  0.35888400  1
  S2-  S183  1  0.63534147  0.77400512  0.84823329  1
  S2-  S184  1  0.88385976  0.08121150  0.34997192  1
  S2-  S185  1  0.93207751  0.01040333  0.85372911  1
  S2-  S186  1  0.89502096  0.23296722  0.27155391  1
  S2-  S187  1  0.94838645  0.25877681  0.85660158  1
  S2-  S188  1  0.87996874  0.41281978  0.35039356  1
  S2-  S189  1  0.96084496  0.50718308  0.84843243  1
  S2-  S190  1  0.85367314  0.86916045  0.36500285  1
  S2-  S191  1  0.87145288  0.76357422  0.84407125  1
  S2-  S192  1  -0.00595551  0.12881475  0.46163320  1
  S2-  S193  1  -0.00122056  0.12871380  0.96460057  1
  S2-  S194  1  -0.00585547  0.37560389  0.45875867  1
  S2-  S195  1  -0.00388066  0.38466169  0.96088660  1
  S2-  S196  1  -0.00310524  0.62945093  0.46214810  1
  S2-  S197  1  0.00135699  0.62596501  0.95526033  1
  S2-  S198  1  0.00054740  0.87713849  0.45672243  1
  S2-  S199  1  0.00151215  0.87968295  0.95366211  1
  S2-  S200  1  0.23804058  0.13028771  0.45674314  1
  S2-  S201  1  0.25737131  0.13195903  0.95566510  1
  S2-  S202  1  0.24513175  0.37497944  0.44827303  1
  S2-  S203  1  0.25455589  0.38169789  0.95058186  1
  S2-  S204  1  0.24582262  0.62669584  0.45277883  1
  S2-  S205  1  0.24954612  0.62669251  0.94941968  1
  S2-  S206  1  0.23995557  0.88154231  0.45903311  1
  S2-  S207  1  0.25219939  0.88113907  0.95010569  1
  S2-  S208  1  0.49895399  0.13116802  0.45729302  1
  S2-  S209  1  0.50012791  0.13035650  0.94967449  1
  S2-  S210  1  0.49506219  0.37497461  0.45556876  1
  S2-  S211  1  0.50253754  0.37934953  0.96458782  1
  S2-  S212  1  0.49176533  0.63127190  0.45341087  1
  S2-  S213  1  0.50435666  0.63054518  0.95193648  1
  S2-  S214  1  0.48970960  0.87531706  0.45911039  1
  S2-  S215  1  0.50003173  0.88003563  0.95577415  1
  S2-  S216  1  0.74731631  0.12912142  0.45099059  1
  S2-  S217  1  0.75312875  0.12757846  0.95603466  1
  S2-  S218  1  0.74569066  0.37807939  0.45125929  1
  S2-  S219  1  0.75154960  0.37822526  0.95979944  1
  S2-  S220  1  0.74269727  0.63203853  0.44828386  1
  S2-  S221  1  0.74921219  0.63365777  0.95243750  1
  S2-  S222  1  0.73936894  0.87408466  0.46521950  1
  S2-  S223  1  0.75414051  0.87951534  0.95153131  1
  S2-  S224  1  0.12823764  0.00125260  0.03938112  1
  S2-  S225  1  0.11726154  0.00443512  0.54992948  1
  S2-  S226  1  0.12976537  0.25702963  0.03917123  1
  S2-  S227  1  0.12055063  0.25285062  0.54639530  1
  S2-  S228  1  0.12254549  0.50110224  0.05632737  1
  S2-  S229  1  0.12435208  0.50297034  0.54635600  1
  S2-  S230  1  0.12389078  0.75141442  0.04821228  1
  S2-  S231  1  0.12130476  0.75260400  0.54561237  1
  S2-  S232  1  0.37482722  0.00529840  0.04573275  1
  S2-  S233  1  0.36568332  0.00369975  0.54887708  1
  S2-  S234  1  0.37764163  0.25384080  0.04662113  1
  S2-  S235  1  0.36589962  0.25193998  0.53859817  1
  S2-  S236  1  0.37795483  0.50197683  0.05049839  1
  S2-  S237  1  0.36559302  0.50283187  0.54407996  1
  S2-  S238  1  0.37834641  0.75259573  0.04963390  1
  S2-  S239  1  0.36685347  0.75207094  0.54208207  1
  S2-  S240  1  0.62517540  0.00315582  0.04207667  1
  S2-  S241  1  0.61535083  0.00547569  0.54171439  1
  S2-  S242  1  0.62517196  0.24792327  0.04529026  1
  S2-  S243  1  0.62026700  0.25514282  0.53735729  1
  S2-  S244  1  0.62559808  0.50722751  0.04291587  1
  S2-  S245  1  0.62145566  0.50551235  0.54083815  1
  S2-  S246  1  0.62380687  0.75386693  0.04948396  1
  S2-  S247  1  0.61279167  0.75070845  0.53960078  1
  S2-  S248  1  0.87643131  0.00184621  0.05006582  1
  S2-  S249  1  0.86977526  0.00366793  0.54888780  1
  S2-  S250  1  0.87257246  0.24941926  0.05064552  1
  S2-  S251  1  0.86440981  0.25466787  0.55387690  1
  S2-  S252  1  0.87400849  0.50964050  0.04013948  1
  S2-  S253  1  0.86532869  0.50405085  0.54426083  1
  S2-  S254  1  0.87639787  0.75274839  0.04913653  1
  S2-  S255  1  0.87025892  0.75375972  0.54799743  1
