# generated using pymatgen
data_La6Ce7Pr13Nd19Sm19(BiS2)64
_symmetry_space_group_name_H-M   'P 1'
_cell_length_a   16.10339465
_cell_length_b   16.08778329
_cell_length_c   27.19149051
_cell_angle_alpha   90.48289510
_cell_angle_beta   89.99786878
_cell_angle_gamma   89.99607849
_symmetry_Int_Tables_number   1
_chemical_formula_structural   La6Ce7Pr13Nd19Sm19(BiS2)64
_chemical_formula_sum   'La6 Ce7 Pr13 Nd19 Sm19 Bi64 S128'
_cell_volume   7044.19276229
_cell_formula_units_Z   1
loop_
 _symmetry_equiv_pos_site_id
 _symmetry_equiv_pos_as_xyz
  1  'x, y, z'
loop_
 _atom_type_symbol
 _atom_type_oxidation_number
  La3+  3.0
  Ce3+  3.0
  Pr3+  3.0
  Nd3+  3.0
  Sm3+  3.0
  Bi2+  2.0
  S2-  -2.0
loop_
 _atom_site_type_symbol
 _atom_site_label
 _atom_site_symmetry_multiplicity
 _atom_site_fract_x
 _atom_site_fract_y
 _atom_site_fract_z
 _atom_site_occupancy
  La3+  La0  1  0.39090245  -0.01075292  0.91810449  1
  La3+  La1  1  0.37560482  0.48966567  0.41622409  1
  La3+  La2  1  0.87422505  0.48667705  0.41889216  1
  La3+  La3  1  0.76322445  0.87348333  0.10217259  1
  La3+  La4  1  0.89026019  -0.00489928  0.92043502  1
  La3+  La5  1  0.74398624  0.38460112  0.58165663  1
  Ce3+  Ce6  1  0.38444374  0.24558226  0.94609729  1
  Ce3+  Ce7  1  0.12964745  0.24594333  0.44597005  1
  Ce3+  Ce8  1  0.62685569  0.74885488  0.43424359  1
  Ce3+  Ce9  1  0.25272926  0.86534301  0.57940639  1
  Ce3+  Ce10  1  0.88837607  0.48338268  0.92343020  1
  Ce3+  Ce11  1  0.51216235  0.12147743  0.05957609  1
  Ce3+  Ce12  1  0.51290454  0.62321589  0.06681002  1
  Pr3+  Pr13  1  0.63251495  0.24828725  0.93944531  1
  Pr3+  Pr14  1  0.76669226  0.62085791  0.06880283  1
  Pr3+  Pr15  1  0.12837400  0.48962005  0.42577902  1
  Pr3+  Pr16  1  0.50185416  0.87017296  0.56350872  1
  Pr3+  Pr17  1  0.87596952  0.75488905  0.42082756  1
  Pr3+  Pr18  1  0.00848287  0.88320303  0.06363427  1
  Pr3+  Pr19  1  0.88406686  0.74790247  0.93253207  1
  Pr3+  Pr20  1  0.12999035  -0.00112455  0.45486895  1
  Pr3+  Pr21  1  0.37271856  0.75681659  0.42368721  1
  Pr3+  Pr22  1  0.25179558  0.38228559  0.56488892  1
  Pr3+  Pr23  1  0.25939549  0.63044252  0.07536825  1
  Pr3+  Pr24  1  0.50160214  0.12456337  0.56537454  1
  Pr3+  Pr25  1  0.01097603  0.37231601  0.06364633  1
  Nd3+  Nd26  1  0.25360231  0.13496946  0.57963894  1
  Nd3+  Nd27  1  0.51021602  0.37485966  0.06141661  1
  Nd3+  Nd28  1  0.76587990  0.37505763  0.06784342  1
  Nd3+  Nd29  1  0.76225727  0.12136709  0.05657793  1
  Nd3+  Nd30  1  0.50204969  0.62518366  0.54653277  1
  Nd3+  Nd31  1  0.13828423  0.24529997  0.94010286  1
  Nd3+  Nd32  1  0.12819597  0.74701166  0.44298952  1
  Nd3+  Nd33  1  0.62892378  0.49635252  0.43142771  1
  Nd3+  Nd34  1  0.62939143  0.24672373  0.44195787  1
  Nd3+  Nd35  1  0.26115653  0.87863149  0.06049066  1
  Nd3+  Nd36  1  0.00168325  0.12558915  0.57128560  1
  Nd3+  Nd37  1  0.14243206  -0.01303682  0.91805401  1
  Nd3+  Nd38  1  0.39009662  0.74101486  0.93459883  1
  Nd3+  Nd39  1  0.25394922  0.62318045  0.55474008  1
  Nd3+  Nd40  1  0.64243558  0.49787999  0.93473598  1
  Nd3+  Nd41  1  0.62620319  -0.00019926  0.44486626  1
  Nd3+  Nd42  1  0.87935770  0.00077679  0.43693462  1
  Nd3+  Nd43  1  0.50838192  0.87458970  0.06574219  1
  Nd3+  Nd44  1  -0.00081721  0.87308393  0.56176862  1
  Sm3+  Sm45  1  0.75358820  0.12888218  0.56750345  1
  Sm3+  Sm46  1  0.75557736  0.62280919  0.54961884  1
  Sm3+  Sm47  1  0.50292030  0.37733631  0.55193444  1
  Sm3+  Sm48  1  -0.00167925  0.62138487  0.54312761  1
  Sm3+  Sm49  1  0.75441570  0.87488693  0.55566326  1
  Sm3+  Sm50  1  0.00068118  0.37948603  0.55993196  1
  Sm3+  Sm51  1  0.00345181  0.62446707  0.05080270  1
  Sm3+  Sm52  1  0.64022445  0.74502842  0.95220875  1
  Sm3+  Sm53  1  0.13829919  0.74569443  0.94079424  1
  Sm3+  Sm54  1  0.88170014  0.24104525  0.92750797  1
  Sm3+  Sm55  1  0.37465826  -0.00237060  0.45103881  1
  Sm3+  Sm56  1  0.87625961  0.24654434  0.44967133  1
  Sm3+  Sm57  1  0.25993798  0.37366872  0.05744997  1
  Sm3+  Sm58  1  0.00926479  0.11962439  0.05034248  1
  Sm3+  Sm59  1  0.13690503  0.49796137  0.94957669  1
  Sm3+  Sm60  1  0.37688644  0.24543918  0.44116046  1
  Sm3+  Sm61  1  0.38971961  0.50002201  0.94162129  1
  Sm3+  Sm62  1  0.26087039  0.11622448  0.05683619  1
  Sm3+  Sm63  1  0.63324632  -0.00705139  0.94407034  1
  Bi2+  Bi64  1  -0.06830707  0.12084636  0.32850289  1
  Bi2+  Bi65  1  -0.00389050  0.18022612  0.79682806  1
  Bi2+  Bi66  1  -0.00412494  0.30104782  0.28873139  1
  Bi2+  Bi67  1  -0.01118437  0.46839367  0.78785691  1
  Bi2+  Bi68  1  0.08674225  0.57821995  0.22214134  1
  Bi2+  Bi69  1  -0.03264159  0.66638990  0.80274114  1
  Bi2+  Bi70  1  0.00732615  0.94550176  0.29352588  1
  Bi2+  Bi71  1  0.01529575  0.87811589  0.79039514  1
  Bi2+  Bi72  1  0.21010044  0.15083265  0.31211968  1
  Bi2+  Bi73  1  0.26743002  0.15687698  0.78644838  1
  Bi2+  Bi74  1  0.23359085  0.39581540  0.29776492  1
  Bi2+  Bi75  1  0.25778263  0.43273385  0.77941275  1
  Bi2+  Bi76  1  0.24028308  0.63955792  0.30053760  1
  Bi2+  Bi77  1  0.22147567  0.61988475  0.81731511  1
  Bi2+  Bi78  1  0.24881009  0.89691263  0.29493445  1
  Bi2+  Bi79  1  0.26827797  0.87527958  0.78690932  1
  Bi2+  Bi80  1  0.40037153  0.10878553  0.33544673  1
  Bi2+  Bi81  1  0.52896093  0.18164243  0.79829925  1
  Bi2+  Bi82  1  0.46704788  0.26362749  0.28069664  1
  Bi2+  Bi83  1  0.44501670  0.42906862  0.74630866  1
  Bi2+  Bi84  1  0.50735390  0.61550860  0.28303694  1
  Bi2+  Bi85  1  0.50604377  0.61223508  0.79979870  1
  Bi2+  Bi86  1  0.50897198  0.96553302  0.29052237  1
  Bi2+  Bi87  1  0.49145428  0.81987550  0.76395214  1
  Bi2+  Bi88  1  0.74919299  0.14440283  0.29333196  1
  Bi2+  Bi89  1  0.75158612  0.12867611  0.76647882  1
  Bi2+  Bi90  1  0.73363615  0.35527044  0.30156533  1
  Bi2+  Bi91  1  0.67350807  0.41492181  0.79102777  1
  Bi2+  Bi92  1  0.74196905  0.61699240  0.30143559  1
  Bi2+  Bi93  1  0.74539535  0.66839338  0.79942644  1
  Bi2+  Bi94  1  0.74247290  0.87817939  0.29215511  1
  Bi2+  Bi95  1  0.76439956  0.86239055  0.77210741  1
  Bi2+  Bi96  1  0.13440095  -0.03786964  0.20167232  1
  Bi2+  Bi97  1  0.11169092  0.00987596  0.70816724  1
  Bi2+  Bi98  1  0.11143561  0.18623612  0.21409491  1
  Bi2+  Bi99  1  0.13181179  0.34136180  0.70945040  1
  Bi2+  Bi100  1  0.10887947  0.38617939  0.20143633  1
  Bi2+  Bi101  1  0.12035305  0.52790100  0.67402471  1
  Bi2+  Bi102  1  0.10051944  0.77752349  0.23939368  1
  Bi2+  Bi103  1  0.12700175  0.69961167  0.73296254  1
  Bi2+  Bi104  1  0.36264539  0.01597818  0.21881951  1
  Bi2+  Bi105  1  0.38724481  0.00207436  0.69904924  1
  Bi2+  Bi106  1  0.31183939  0.21159106  0.21663066  1
  Bi2+  Bi107  1  0.39646259  0.24995984  0.71365668  1
  Bi2+  Bi108  1  0.37587146  0.46854938  0.20680142  1
  Bi2+  Bi109  1  0.31539878  0.50979993  0.66752574  1
  Bi2+  Bi110  1  0.35939039  0.73281142  0.20347298  1
  Bi2+  Bi111  1  0.33738408  0.68180561  0.72617490  1
  Bi2+  Bi112  1  0.61456528  0.07505564  0.21882712  1
  Bi2+  Bi113  1  0.61564566  -0.01071289  0.76928995  1
  Bi2+  Bi114  1  0.69222185  0.24888346  0.18865890  1
  Bi2+  Bi115  1  0.62448083  0.26737822  0.71064184  1
  Bi2+  Bi116  1  0.63113296  0.42930067  0.21736740  1
  Bi2+  Bi117  1  0.60863210  0.53283578  0.69877573  1
  Bi2+  Bi118  1  0.60034577  0.75076821  0.20415003  1
  Bi2+  Bi119  1  0.63532698  0.72969108  0.70743948  1
  Bi2+  Bi120  1  0.89779078  0.02819900  0.21165170  1
  Bi2+  Bi121  1  0.87007851  -0.00398393  0.69309774  1
  Bi2+  Bi122  1  0.88483331  0.22530066  0.20556392  1
  Bi2+  Bi123  1  0.88634835  0.31573501  0.74192293  1
  Bi2+  Bi124  1  0.86963074  0.48228646  0.20724567  1
  Bi2+  Bi125  1  0.85814834  0.56172681  0.71896756  1
  Bi2+  Bi126  1  0.89101446  0.73134811  0.21451283  1
  Bi2+  Bi127  1  0.90302522  0.75259615  0.69766989  1
  S2-  S128  1  0.02250460  0.02773848  0.13341757  1
  S2-  S129  1  -0.00572381  0.12063911  0.67152196  1
  S2-  S130  1  -0.10339149  0.36650094  0.13979155  1
  S2-  S131  1  -0.01350700  0.36767553  0.65847536  1
  S2-  S132  1  -0.03975817  0.60238060  0.14650852  1
  S2-  S133  1  -0.02340351  0.62359558  0.64068970  1
  S2-  S134  1  -0.08353176  0.84662552  0.15039179  1
  S2-  S135  1  0.01236910  0.88534964  0.66118713  1
  S2-  S136  1  0.26206859  0.00743025  0.13321811  1
  S2-  S137  1  0.23632310  0.09921174  0.67995935  1
  S2-  S138  1  0.27800854  0.36091883  0.15489542  1
  S2-  S139  1  0.26159607  0.28218777  0.64647951  1
  S2-  S140  1  0.26947996  0.57551636  0.17438891  1
  S2-  S141  1  0.28106606  0.72288701  0.63471158  1
  S2-  S142  1  0.24878816  0.77407641  0.14057178  1
  S2-  S143  1  0.24518796  0.90542150  0.68039697  1
  S2-  S144  1  0.48684363  0.08099898  0.15297793  1
  S2-  S145  1  0.49390862  0.12469787  0.66524567  1
  S2-  S146  1  0.50370735  0.37065148  0.16137427  1
  S2-  S147  1  0.58010631  0.38512767  0.63921099  1
  S2-  S148  1  0.50144615  0.61175118  0.16707384  1
  S2-  S149  1  0.52019429  0.65271304  0.64506091  1
  S2-  S150  1  0.46656404  0.83654647  0.16247789  1
  S2-  S151  1  0.49178056  0.89053763  0.66415017  1
  S2-  S152  1  0.78186241  0.04050452  0.14329093  1
  S2-  S153  1  0.74008224  0.07485606  0.66096454  1
  S2-  S154  1  0.74236714  0.49723937  0.14359564  1
  S2-  S155  1  0.77469038  0.28744433  0.66485003  1
  S2-  S156  1  0.74960899  0.71281486  0.15899664  1
  S2-  S157  1  0.75667925  0.53789567  0.63573971  1
  S2-  S158  1  0.67224247  0.89330696  0.19523560  1
  S2-  S159  1  0.77978645  0.85692664  0.65179757  1
  S2-  S160  1  0.14493626  0.00705390  0.35408474  1
  S2-  S161  1  0.03221961  0.02029682  0.83927325  1
  S2-  S162  1  0.12518078  0.33836665  0.36172373  1
  S2-  S163  1  0.13601060  0.23181181  0.83923736  1
  S2-  S164  1  0.11564344  0.54584076  0.32777010  1
  S2-  S165  1  0.13177482  0.47345663  0.85227657  1
  S2-  S166  1  0.15084450  0.76754406  0.34545033  1
  S2-  S167  1  0.14619751  0.83589798  0.85548522  1
  S2-  S168  1  0.36048103  -0.09276975  0.36650213  1
  S2-  S169  1  0.26688852  0.02326880  0.84337017  1
  S2-  S170  1  0.36952619  0.33561172  0.35600699  1
  S2-  S171  1  0.38474951  0.23905260  0.84824216  1
  S2-  S172  1  0.37807687  0.51984542  0.31250922  1
  S2-  S173  1  0.37569033  0.61026499  0.86628188  1
  S2-  S174  1  0.40165975  0.71918926  0.32098535  1
  S2-  S175  1  0.39034674  0.84282169  0.85029426  1
  S2-  S176  1  0.65446974  -0.01271347  0.34639000  1
  S2-  S177  1  0.54251525  0.00725502  0.85881767  1
  S2-  S178  1  0.61352995  0.24300746  0.34239000  1
  S2-  S179  1  0.67111017  0.25566147  0.84067184  1
  S2-  S180  1  0.60866730  0.49615290  0.33166664  1
  S2-  S181  1  0.54237168  0.46826690  0.85147385  1
  S2-  S182  1  0.64143826  0.75307720  0.33511179  1
  S2-  S183  1  0.61316141  0.72569692  0.85493774  1
  S2-  S184  1  0.86908302  -0.10259246  0.35556389  1
  S2-  S185  1  0.85747827  0.12573536  0.84951734  1
  S2-  S186  1  0.86681745  0.32837717  0.36331130  1
  S2-  S187  1  0.91008867  0.34844725  0.85169266  1
  S2-  S188  1  0.85873912  0.50683809  0.31429376  1
  S2-  S189  1  0.75977177  0.50928741  0.85699868  1
  S2-  S190  1  0.87611109  0.70335988  0.32089728  1
  S2-  S191  1  0.87929304  0.86033938  0.85124950  1
  S2-  S192  1  0.00186349  0.12454011  0.46340735  1
  S2-  S193  1  0.01364228  0.12528181  0.94819229  1
  S2-  S194  1  0.00107636  0.37019130  0.45678006  1
  S2-  S195  1  0.01744969  0.36899154  0.95764729  1
  S2-  S196  1  -0.00080404  0.62144251  0.43816813  1
  S2-  S197  1  0.01224599  0.62041503  0.94585636  1
  S2-  S198  1  0.00417208  0.87386132  0.45479820  1
  S2-  S199  1  0.01381980  0.86766487  0.95416242  1
  S2-  S200  1  0.25586716  0.12451887  0.46792691  1
  S2-  S201  1  0.26246943  0.12106229  0.95316711  1
  S2-  S202  1  0.25436568  0.37006405  0.45918052  1
  S2-  S203  1  0.26208387  0.37597149  0.95207470  1
  S2-  S204  1  0.25359824  0.62039819  0.44517435  1
  S2-  S205  1  0.25761811  0.62103683  0.96581076  1
  S2-  S206  1  0.24891117  0.87200464  0.46792613  1
  S2-  S207  1  0.26509898  0.86532861  0.95565110  1
  S2-  S208  1  0.50095680  0.12253023  0.45851642  1
  S2-  S209  1  0.50972539  0.12362134  0.95566243  1
  S2-  S210  1  0.50535025  0.37092100  0.44839189  1
  S2-  S211  1  0.50683130  0.37289515  0.95602176  1
  S2-  S212  1  0.50019308  0.62191832  0.43891848  1
  S2-  S213  1  0.51602386  0.61867542  0.96093972  1
  S2-  S214  1  0.50424000  0.87544040  0.45558179  1
  S2-  S215  1  0.51471039  0.86535545  0.95874768  1
  S2-  S216  1  0.75353254  0.12250483  0.45856892  1
  S2-  S217  1  0.75330821  0.11921490  0.95148562  1
  S2-  S218  1  0.74778806  0.37113921  0.46063158  1
  S2-  S219  1  0.76280279  0.36522756  0.95645432  1
  S2-  S220  1  0.75450816  0.62234849  0.44357750  1
  S2-  S221  1  0.76460098  0.62342934  0.96004066  1
  S2-  S222  1  0.74988039  0.87566135  0.45298211  1
  S2-  S223  1  0.75386401  0.87252691  0.94668748  1
  S2-  S224  1  0.13673059  0.00016941  0.02947544  1
  S2-  S225  1  0.12904633  0.00032031  0.56142295  1
  S2-  S226  1  0.13820234  0.24404680  0.04962807  1
  S2-  S227  1  0.12254442  0.25192102  0.55239629  1
  S2-  S228  1  0.13419639  0.50049151  0.05486187  1
  S2-  S229  1  0.12439515  0.50056958  0.53610720  1
  S2-  S230  1  0.12541737  0.74719024  0.04478519  1
  S2-  S231  1  0.12102244  0.74453577  0.54923533  1
  S2-  S232  1  0.39026383  -0.00164574  0.03544364  1
  S2-  S233  1  0.37359830  -0.00157659  0.55659621  1
  S2-  S234  1  0.38194776  0.24645906  0.05302504  1
  S2-  S235  1  0.38199077  0.25340709  0.54669481  1
  S2-  S236  1  0.38246885  0.49801365  0.04839396  1
  S2-  S237  1  0.38088840  0.49918527  0.53197573  1
  S2-  S238  1  0.38976294  0.74580315  0.04438386  1
  S2-  S239  1  0.38101230  0.74878889  0.53264583  1
  S2-  S240  1  0.63704118  -0.00684438  0.04904132  1
  S2-  S241  1  0.62926715  -0.00131608  0.55188547  1
  S2-  S242  1  0.63583763  0.25011434  0.04793774  1
  S2-  S243  1  0.62805414  0.24679798  0.54838627  1
  S2-  S244  1  0.63346665  0.49624530  0.04285207  1
  S2-  S245  1  0.62561499  0.50346769  0.53612729  1
  S2-  S246  1  0.63723034  0.75188738  0.05651411  1
  S2-  S247  1  0.63238900  0.74900535  0.54282735  1
  S2-  S248  1  0.88427333  0.00004272  0.03328101  1
  S2-  S249  1  0.87591039  0.00172414  0.54665726  1
  S2-  S250  1  0.88710382  0.24311017  0.03825506  1
  S2-  S251  1  0.87735949  0.25169061  0.55338346  1
  S2-  S252  1  0.88844429  0.49463870  0.03489032  1
  S2-  S253  1  0.87757418  0.49733788  0.53375997  1
  S2-  S254  1  0.88417630  0.74924237  0.04037093  1
  S2-  S255  1  0.87589443  0.74891320  0.53568335  1
