# generated using pymatgen
data_La6Ce7Pr13Nd19Sm19(BiS2)64
_symmetry_space_group_name_H-M   'P 1'
_cell_length_a   16.08645756
_cell_length_b   16.08207131
_cell_length_c   27.39540213
_cell_angle_alpha   90.25003915
_cell_angle_beta   89.96807079
_cell_angle_gamma   90.03150033
_symmetry_Int_Tables_number   1
_chemical_formula_structural   La6Ce7Pr13Nd19Sm19(BiS2)64
_chemical_formula_sum   'La6 Ce7 Pr13 Nd19 Sm19 Bi64 S128'
_cell_volume   7087.21834415
_cell_formula_units_Z   1
loop_
 _symmetry_equiv_pos_site_id
 _symmetry_equiv_pos_as_xyz
  1  'x, y, z'
loop_
 _atom_type_symbol
 _atom_type_oxidation_number
  La3+  3.0
  Ce3+  3.0
  Pr3+  3.0
  Nd3+  3.0
  Sm3+  3.0
  Bi2+  2.0
  S2-  -2.0
loop_
 _atom_site_type_symbol
 _atom_site_label
 _atom_site_symmetry_multiplicity
 _atom_site_fract_x
 _atom_site_fract_y
 _atom_site_fract_z
 _atom_site_occupancy
  La3+  La0  1  0.62334372  0.76092035  0.90920389  1
  La3+  La1  1  -0.00577181  0.36697556  0.10645332  1
  La3+  La2  1  -0.02297138  0.63243187  0.62053730  1
  La3+  La3  1  0.74963081  0.37512066  0.56461311  1
  La3+  La4  1  0.51667808  0.85525546  0.11563919  1
  La3+  La5  1  0.61221170  0.75031208  0.43323405  1
  Ce3+  Ce6  1  0.11384341  -0.00793777  0.93190026  1
  Ce3+  Ce7  1  0.86650551  0.74701100  0.43907484  1
  Ce3+  Ce8  1  0.86571943  -0.00268927  0.43218971  1
  Ce3+  Ce9  1  0.49603144  0.63294363  0.57344490  1
  Ce3+  Ce10  1  0.61833503  0.50049933  0.44571429  1
  Ce3+  Ce11  1  0.49230828  0.37238904  0.56311940  1
  Ce3+  Ce12  1  0.11689386  0.24902890  0.43983218  1
  Pr3+  Pr13  1  0.24371774  0.87899853  0.55951970  1
  Pr3+  Pr14  1  0.36866010  0.50182652  0.44728848  1
  Pr3+  Pr15  1  0.49169457  0.12775416  0.57329065  1
  Pr3+  Pr16  1  0.61833375  0.25231179  0.92795401  1
  Pr3+  Pr17  1  0.23783377  0.12906260  0.06123196  1
  Pr3+  Pr18  1  0.11753412  0.50668098  0.93436868  1
  Pr3+  Pr19  1  0.74187418  0.37805072  0.06736073  1
  Pr3+  Pr20  1  0.73853142  0.62543471  0.56740597  1
  Pr3+  Pr21  1  -0.00474310  0.87582398  0.56150158  1
  Pr3+  Pr22  1  0.74612146  0.87537734  0.56163044  1
  Pr3+  Pr23  1  0.61957001  0.25142085  0.43552593  1
  Pr3+  Pr24  1  0.36176876  0.00433180  0.92875386  1
  Pr3+  Pr25  1  0.00560663  0.37618206  0.57405495  1
  Nd3+  Nd26  1  0.61383702  0.00062218  0.43344481  1
  Nd3+  Nd27  1  0.49515306  0.63380460  0.04751249  1
  Nd3+  Nd28  1  0.49150903  0.11833173  0.05918190  1
  Nd3+  Nd29  1  0.11763184  0.26078998  0.93282343  1
  Nd3+  Nd30  1  -0.00653904  0.87483173  0.06708723  1
  Nd3+  Nd31  1  0.86602185  0.49961469  0.93781978  1
  Nd3+  Nd32  1  0.11892706  0.50259946  0.43941581  1
  Nd3+  Nd33  1  0.36670940  0.00266392  0.43058134  1
  Nd3+  Nd34  1  0.73833199  0.63515959  0.05823266  1
  Nd3+  Nd35  1  0.87142448  0.50197011  0.44565297  1
  Nd3+  Nd36  1  0.36729130  0.75055152  0.43802369  1
  Nd3+  Nd37  1  -0.00938156  0.62791755  0.06651131  1
  Nd3+  Nd38  1  0.24493353  0.63126394  0.05928693  1
  Nd3+  Nd39  1  0.49338774  0.87980149  0.56861268  1
  Nd3+  Nd40  1  0.37037526  0.50341199  0.94122285  1
  Nd3+  Nd41  1  0.61624872  0.00681500  0.92784984  1
  Nd3+  Nd42  1  0.37097151  0.75729314  0.93634447  1
  Nd3+  Nd43  1  0.24116986  0.38197704  0.06302202  1
  Nd3+  Nd44  1  0.36693393  0.25448095  0.94519535  1
  Sm3+  Sm45  1  0.24431038  0.12377450  0.55761236  1
  Sm3+  Sm46  1  0.24242981  0.37679769  0.55675257  1
  Sm3+  Sm47  1  0.62052242  0.50288928  0.94066932  1
  Sm3+  Sm48  1  0.86945054  0.74527889  0.93235660  1
  Sm3+  Sm49  1  0.11514851  0.75066946  0.44278880  1
  Sm3+  Sm50  1  0.74363592  0.12437861  0.55077407  1
  Sm3+  Sm51  1  -0.00475338  0.12789594  0.56419025  1
  Sm3+  Sm52  1  0.11391804  0.00072309  0.43011505  1
  Sm3+  Sm53  1  0.74230069  0.12949694  0.04894234  1
  Sm3+  Sm54  1  0.25156254  0.88106971  0.05969961  1
  Sm3+  Sm55  1  0.36917108  0.24757431  0.44195193  1
  Sm3+  Sm56  1  0.11620416  0.74980472  0.93798285  1
  Sm3+  Sm57  1  0.87203467  0.25958769  0.93980981  1
  Sm3+  Sm58  1  0.49736381  0.37697819  0.05941340  1
  Sm3+  Sm59  1  0.23988263  0.62701254  0.56448522  1
  Sm3+  Sm60  1  0.74059456  0.88039230  0.04737137  1
  Sm3+  Sm61  1  0.87219429  0.25125286  0.44133224  1
  Sm3+  Sm62  1  -0.00633029  0.12996973  0.05249088  1
  Sm3+  Sm63  1  0.87085630  0.00185474  0.94055321  1
  Bi2+  Bi64  1  0.02539403  0.12110445  0.28437162  1
  Bi2+  Bi65  1  0.03681500  0.20094702  0.81257067  1
  Bi2+  Bi66  1  -0.00392245  0.37454075  0.32363937  1
  Bi2+  Bi67  1  -0.02125056  0.38941342  0.79516903  1
  Bi2+  Bi68  1  0.02198332  0.63167216  0.31384522  1
  Bi2+  Bi69  1  0.00967869  0.71591086  0.80921805  1
  Bi2+  Bi70  1  0.04307716  0.91850832  0.27509327  1
  Bi2+  Bi71  1  -0.00437902  0.95542676  0.78721545  1
  Bi2+  Bi72  1  0.23916628  0.12145711  0.29138769  1
  Bi2+  Bi73  1  0.19262286  0.10581559  0.77102738  1
  Bi2+  Bi74  1  0.30683478  0.36194365  0.21183227  1
  Bi2+  Bi75  1  0.26279673  0.36933882  0.79476940  1
  Bi2+  Bi76  1  0.26587870  0.59202813  0.29832104  1
  Bi2+  Bi77  1  0.22296543  0.62164321  0.74107562  1
  Bi2+  Bi78  1  0.23354942  0.85381752  0.28983986  1
  Bi2+  Bi79  1  0.27104934  0.89675912  0.79120306  1
  Bi2+  Bi80  1  0.48619896  0.12082391  0.29303362  1
  Bi2+  Bi81  1  0.48829944  0.12894474  0.77975120  1
  Bi2+  Bi82  1  0.45882206  0.37363874  0.28315147  1
  Bi2+  Bi83  1  0.50298507  0.32335661  0.80519296  1
  Bi2+  Bi84  1  0.45074023  0.63456065  0.27937839  1
  Bi2+  Bi85  1  0.44498227  0.58030923  0.78580474  1
  Bi2+  Bi86  1  0.58808583  0.86521167  0.30991077  1
  Bi2+  Bi87  1  0.48005090  0.83914429  0.79090756  1
  Bi2+  Bi88  1  0.73954444  0.08971139  0.28900589  1
  Bi2+  Bi89  1  0.75678174  0.13712466  0.79055176  1
  Bi2+  Bi90  1  0.72708251  0.34073076  0.29870560  1
  Bi2+  Bi91  1  0.69764206  0.34842310  0.81024165  1
  Bi2+  Bi92  1  0.75385956  0.60281276  0.30090341  1
  Bi2+  Bi93  1  0.76299758  0.62497518  0.79629601  1
  Bi2+  Bi94  1  0.78946846  0.89452238  0.23227254  1
  Bi2+  Bi95  1  0.74156718  0.90208374  0.78358371  1
  Bi2+  Bi96  1  0.13284398  -0.06360633  0.16786467  1
  Bi2+  Bi97  1  0.09499961  0.04173054  0.67279082  1
  Bi2+  Bi98  1  0.14632752  0.13408371  0.18934409  1
  Bi2+  Bi99  1  0.11843451  0.24512260  0.70322147  1
  Bi2+  Bi100  1  0.12520908  0.49579089  0.21224978  1
  Bi2+  Bi101  1  0.09241752  0.48638256  0.71855461  1
  Bi2+  Bi102  1  0.10156998  0.74553124  0.20890025  1
  Bi2+  Bi103  1  0.14105944  0.86161811  0.71215306  1
  Bi2+  Bi104  1  0.31299281  -0.01206596  0.21731094  1
  Bi2+  Bi105  1  0.36620053  0.01215076  0.70253436  1
  Bi2+  Bi106  1  0.45308196  0.22815512  0.19979135  1
  Bi2+  Bi107  1  0.38275535  0.26685749  0.71172363  1
  Bi2+  Bi108  1  0.44206339  0.49720072  0.19095305  1
  Bi2+  Bi109  1  0.36578775  0.46644708  0.69681665  1
  Bi2+  Bi110  1  0.30794266  0.72424890  0.21248266  1
  Bi2+  Bi111  1  0.38081520  0.66785371  0.68815193  1
  Bi2+  Bi112  1  0.64143235  0.01904554  0.20194658  1
  Bi2+  Bi113  1  0.63183802  0.05136740  0.71461108  1
  Bi2+  Bi114  1  0.64608841  0.26506800  0.20655135  1
  Bi2+  Bi115  1  0.64719462  0.27175276  0.70610855  1
  Bi2+  Bi116  1  0.61808172  0.48387390  0.24439010  1
  Bi2+  Bi117  1  0.56259356  0.46887409  0.72358167  1
  Bi2+  Bi118  1  0.65207682  0.71499055  0.20281834  1
  Bi2+  Bi119  1  0.65228671  0.72054724  0.69737098  1
  Bi2+  Bi120  1  0.93574404  -0.01640704  0.17911601  1
  Bi2+  Bi121  1  0.90362440  0.04766830  0.69789007  1
  Bi2+  Bi122  1  0.87130423  0.15922204  0.21548009  1
  Bi2+  Bi123  1  0.89534169  0.23993980  0.73440247  1
  Bi2+  Bi124  1  0.86564411  0.49599334  0.21092964  1
  Bi2+  Bi125  1  0.83033113  0.50740156  0.72097493  1
  Bi2+  Bi126  1  0.90938135  0.73772923  0.24135652  1
  Bi2+  Bi127  1  0.87486190  0.85620492  0.70905488  1
  S2-  S128  1  -0.00553960  0.19956045  0.14251002  1
  S2-  S129  1  -0.01999238  0.24136784  0.64055569  1
  S2-  S130  1  -0.00311195  0.38208892  0.23063572  1
  S2-  S131  1  -0.04078118  0.46647131  0.65659359  1
  S2-  S132  1  -0.00177601  0.53056076  0.15043472  1
  S2-  S133  1  -0.01591208  0.62718084  0.73300506  1
  S2-  S134  1  -0.02556906  0.75278771  0.14046367  1
  S2-  S135  1  0.00656969  0.80006814  0.65159659  1
  S2-  S136  1  0.31109302  0.13084606  0.15354091  1
  S2-  S137  1  0.31785400  0.13755589  0.64681692  1
  S2-  S138  1  0.15905558  0.36583366  0.14977440  1
  S2-  S139  1  0.16296279  0.37640437  0.64368384  1
  S2-  S140  1  0.23634731  0.59708341  0.15674095  1
  S2-  S141  1  0.15304689  0.62113763  0.64972984  1
  S2-  S142  1  0.34413896  0.86669736  0.14490365  1
  S2-  S143  1  0.28998143  0.87717398  0.65645741  1
  S2-  S144  1  0.51259313  0.02687741  0.14264828  1
  S2-  S145  1  0.50313191  0.00162344  0.64327131  1
  S2-  S146  1  0.60632425  0.37181296  0.13509010  1
  S2-  S147  1  0.50617679  0.26462486  0.64029389  1
  S2-  S148  1  0.53010759  0.68037490  0.14096974  1
  S2-  S149  1  0.60863353  0.58792663  0.64797024  1
  S2-  S150  1  0.53097725  0.84724823  0.22551124  1
  S2-  S151  1  0.50738669  0.76706837  0.64646966  1
  S2-  S152  1  0.73206893  0.14145681  0.14692854  1
  S2-  S153  1  0.72106445  0.13932460  0.64743245  1
  S2-  S154  1  0.83548380  0.37346197  0.15256565  1
  S2-  S155  1  0.74693748  0.38982490  0.66452375  1
  S2-  S156  1  0.75884717  0.61197147  0.15753498  1
  S2-  S157  1  0.81019979  0.64737072  0.65905177  1
  S2-  S158  1  0.69630436  0.85796198  0.14178828  1
  S2-  S159  1  0.71247571  0.86896220  0.66056337  1
  S2-  S160  1  0.23837304  -0.00471026  0.35846656  1
  S2-  S161  1  0.22554515  0.02414989  0.85922850  1
  S2-  S162  1  0.11392595  0.24770385  0.34170089  1
  S2-  S163  1  0.12627024  0.38365054  0.85783952  1
  S2-  S164  1  0.13044344  0.48737720  0.33916621  1
  S2-  S165  1  0.12160442  0.63503003  0.85990536  1
  S2-  S166  1  0.18275666  0.72524722  0.35263060  1
  S2-  S167  1  0.07868026  0.85956318  0.86183444  1
  S2-  S168  1  0.48990181  -0.00825790  0.35700731  1
  S2-  S169  1  0.42556710  -0.00197235  0.83058000  1
  S2-  S170  1  0.36721714  0.20476543  0.34694206  1
  S2-  S171  1  0.33986278  0.25339078  0.84711646  1
  S2-  S172  1  0.38600120  0.50293964  0.34742085  1
  S2-  S173  1  0.33082576  0.50389962  0.84510187  1
  S2-  S174  1  0.47512217  0.75088971  0.35857966  1
  S2-  S175  1  0.33991814  0.76746382  0.83718903  1
  S2-  S176  1  0.73267892  -0.02561430  0.35829409  1
  S2-  S177  1  0.61543091  -0.09368871  0.84346770  1
  S2-  S178  1  0.61804152  0.20765434  0.33802670  1
  S2-  S179  1  0.62138440  0.13044992  0.85362382  1
  S2-  S180  1  0.64664962  0.48216365  0.35050416  1
  S2-  S181  1  0.65993648  0.50792685  0.84562925  1
  S2-  S182  1  0.70439766  0.73725375  0.34513701  1
  S2-  S183  1  0.56275334  0.70936894  0.81487806  1
  S2-  S184  1  0.98412134  0.00816600  0.36008192  1
  S2-  S185  1  0.85339860  0.00620764  0.84247421  1
  S2-  S186  1  0.85819505  0.26980127  0.34357462  1
  S2-  S187  1  0.85226860  0.37007796  0.86281998  1
  S2-  S188  1  0.89253063  0.51476884  0.34505120  1
  S2-  S189  1  0.89501744  0.60957765  0.85972584  1
  S2-  S190  1  0.93729308  0.75630415  0.34861842  1
  S2-  S191  1  0.77766207  0.76949726  0.84665319  1
  S2-  S192  1  -0.00754802  0.12704860  0.45920023  1
  S2-  S193  1  -0.00694792  0.12957967  0.94780327  1
  S2-  S194  1  -0.00486186  0.37541025  0.45901404  1
  S2-  S195  1  -0.00694981  0.38046624  0.95570734  1
  S2-  S196  1  -0.00304850  0.62595917  0.45061644  1
  S2-  S197  1  -0.00729902  0.62975158  0.96272124  1
  S2-  S198  1  -0.00539540  0.87408624  0.45572922  1
  S2-  S199  1  -0.01597390  0.87321582  0.96214461  1
  S2-  S200  1  0.24209094  0.12704249  0.45435246  1
  S2-  S201  1  0.23768950  0.13607163  0.95564858  1
  S2-  S202  1  0.24517976  0.37332357  0.45094191  1
  S2-  S203  1  0.24608631  0.38107767  0.95852783  1
  S2-  S204  1  0.24360102  0.62635434  0.45895106  1
  S2-  S205  1  0.24882032  0.62975359  0.95498194  1
  S2-  S206  1  0.24164084  0.87342967  0.45390692  1
  S2-  S207  1  0.24120307  0.87316258  0.95526010  1
  S2-  S208  1  0.49315609  0.12919709  0.45855606  1
  S2-  S209  1  0.48859637  0.12972793  0.95150624  1
  S2-  S210  1  0.49155477  0.37284398  0.45355465  1
  S2-  S211  1  0.49547487  0.37883270  0.95400688  1
  S2-  S212  1  0.49256698  0.62350079  0.46232031  1
  S2-  S213  1  0.49675660  0.62804560  0.94191765  1
  S2-  S214  1  0.48879151  0.87768044  0.46196318  1
  S2-  S215  1  0.49108660  0.88031499  0.93936759  1
  S2-  S216  1  0.74701558  0.12900645  0.44786770  1
  S2-  S217  1  0.75236477  0.13100851  0.94701266  1
  S2-  S218  1  0.74764206  0.37465254  0.45551781  1
  S2-  S219  1  0.73735375  0.37588599  0.96038716  1
  S2-  S220  1  0.74337262  0.62279762  0.45855023  1
  S2-  S221  1  0.73843259  0.62948094  0.95180148  1
  S2-  S222  1  0.74402997  0.87147135  0.45707059  1
  S2-  S223  1  0.74795636  0.88237849  0.94673274  1
  S2-  S224  1  0.11510463  0.00163375  0.04063965  1
  S2-  S225  1  0.11859207  0.00361292  0.53821739  1
  S2-  S226  1  0.11538499  0.25632065  0.04079896  1
  S2-  S227  1  0.12409340  0.24605793  0.54432783  1
  S2-  S228  1  0.12235413  0.50724776  0.04398052  1
  S2-  S229  1  0.12357580  0.50160382  0.54326156  1
  S2-  S230  1  0.12345222  0.75621855  0.04543982  1
  S2-  S231  1  0.12201706  0.75173734  0.54595221  1
  S2-  S232  1  0.36068568  0.00797548  0.03687202  1
  S2-  S233  1  0.36744654  0.00383435  0.53955870  1
  S2-  S234  1  0.37057020  0.25635733  0.05071808  1
  S2-  S235  1  0.36399869  0.25249639  0.54447674  1
  S2-  S236  1  0.37284750  0.50270376  0.04780419  1
  S2-  S237  1  0.36681700  0.50188799  0.55380828  1
  S2-  S238  1  0.37121231  0.75545647  0.04245133  1
  S2-  S239  1  0.36480594  0.75032022  0.54462744  1
  S2-  S240  1  0.62291564  0.00543211  0.03464810  1
  S2-  S241  1  0.62270816  0.00216682  0.54037112  1
  S2-  S242  1  0.61377943  0.24607747  0.03604368  1
  S2-  S243  1  0.62301601  0.25052973  0.54123087  1
  S2-  S244  1  0.61568517  0.50709312  0.04393303  1
  S2-  S245  1  0.61658973  0.49349264  0.54778506  1
  S2-  S246  1  0.61596860  0.76096482  0.03478335  1
  S2-  S247  1  0.61950725  0.75340054  0.54275323  1
  S2-  S248  1  0.86796989  0.00493661  0.04508718  1
  S2-  S249  1  0.87102141  0.00394692  0.54570422  1
  S2-  S250  1  0.86842017  0.25150373  0.04240162  1
  S2-  S251  1  0.86899931  0.24784041  0.54434043  1
  S2-  S252  1  0.86098518  0.50893525  0.04436387  1
  S2-  S253  1  0.87198079  0.50512811  0.55046521  1
  S2-  S254  1  0.86214925  0.75590091  0.03918183  1
  S2-  S255  1  0.87166232  0.74858006  0.54835301  1
