# generated using pymatgen
data_La6Ce7Pr13Nd19Sm19(BiS2)64
_symmetry_space_group_name_H-M   'P 1'
_cell_length_a   16.01179832
_cell_length_b   16.07206340
_cell_length_c   27.38853856
_cell_angle_alpha   89.86008357
_cell_angle_beta   89.80731086
_cell_angle_gamma   90.04915163
_symmetry_Int_Tables_number   1
_chemical_formula_structural   La6Ce7Pr13Nd19Sm19(BiS2)64
_chemical_formula_sum   'La6 Ce7 Pr13 Nd19 Sm19 Bi64 S128'
_cell_volume   7048.17523647
_cell_formula_units_Z   1
loop_
 _symmetry_equiv_pos_site_id
 _symmetry_equiv_pos_as_xyz
  1  'x, y, z'
loop_
 _atom_type_symbol
 _atom_type_oxidation_number
  La3+  3.0
  Ce3+  3.0
  Pr3+  3.0
  Nd3+  3.0
  Sm3+  3.0
  Bi2+  2.0
  S2-  -2.0
loop_
 _atom_site_type_symbol
 _atom_site_label
 _atom_site_symmetry_multiplicity
 _atom_site_fract_x
 _atom_site_fract_y
 _atom_site_fract_z
 _atom_site_occupancy
  La3+  La0  1  0.24268125  0.62564783  0.60677195  1
  La3+  La1  1  0.49059700  0.11258151  0.06072975  1
  La3+  La2  1  0.87625106  0.49437442  0.37982305  1
  La3+  La3  1  -0.01029844  0.87074653  0.06368334  1
  La3+  La4  1  0.87459711  -0.00622446  0.90112232  1
  La3+  La5  1  0.23862122  0.12869709  0.10982669  1
  Ce3+  Ce6  1  0.49170845  0.86305168  0.05605113  1
  Ce3+  Ce7  1  0.12502227  0.25433396  0.44890095  1
  Ce3+  Ce8  1  0.74382594  0.36422997  0.06885774  1
  Ce3+  Ce9  1  0.75564223  0.13452575  0.59613294  1
  Ce3+  Ce10  1  0.12178204  0.50879718  0.44374649  1
  Ce3+  Ce11  1  0.75007240  0.86601127  0.05507910  1
  Ce3+  Ce12  1  0.75096009  0.87885772  0.56685114  1
  Pr3+  Pr13  1  0.48712235  0.36240998  0.05940431  1
  Pr3+  Pr14  1  0.74332039  0.61197725  0.07882905  1
  Pr3+  Pr15  1  0.25343330  0.87959934  0.56581555  1
  Pr3+  Pr16  1  0.12921708  0.75391897  0.44509224  1
  Pr3+  Pr17  1  0.74821088  0.37867599  0.56470131  1
  Pr3+  Pr18  1  0.24396173  0.36549360  0.04689826  1
  Pr3+  Pr19  1  0.87712891  0.25659539  0.44534514  1
  Pr3+  Pr20  1  0.88334715  0.75759252  0.42832545  1
  Pr3+  Pr21  1  0.23526859  0.61804251  0.07117723  1
  Pr3+  Pr22  1  0.62765293  0.75234629  0.44629184  1
  Pr3+  Pr23  1  0.62383148  0.50425764  0.43097888  1
  Pr3+  Pr24  1  0.74536860  0.11961461  0.06357144  1
  Pr3+  Pr25  1  0.37176642  0.76200697  0.42354217  1
  Nd3+  Nd26  1  -0.00804136  0.62642386  0.56867266  1
  Nd3+  Nd27  1  0.23755789  0.86831423  0.07411259  1
  Nd3+  Nd28  1  0.36419658  -0.01283177  0.94172660  1
  Nd3+  Nd29  1  0.49452389  0.62798888  0.56140028  1
  Nd3+  Nd30  1  0.00155424  0.38368372  0.56548187  1
  Nd3+  Nd31  1  0.49407297  0.61821098  0.06335787  1
  Nd3+  Nd32  1  0.87625465  0.73904713  0.93209147  1
  Nd3+  Nd33  1  0.37585191  0.00939287  0.42820370  1
  Nd3+  Nd34  1  -0.00259547  0.87032711  0.57342069  1
  Nd3+  Nd35  1  0.61583098  0.24038535  0.93233486  1
  Nd3+  Nd36  1  0.37203715  0.25234425  0.43339153  1
  Nd3+  Nd37  1  0.62208754  -0.01250004  0.93956765  1
  Nd3+  Nd38  1  0.49824477  0.87933658  0.55475446  1
  Nd3+  Nd39  1  0.62837473  0.00715247  0.44719341  1
  Nd3+  Nd40  1  -0.00479681  0.36492070  0.05283207  1
  Nd3+  Nd41  1  0.12000328  0.74234769  0.93462821  1
  Nd3+  Nd42  1  0.11069107  0.49145472  0.92779090  1
  Nd3+  Nd43  1  0.37129772  0.23888333  0.92866930  1
  Nd3+  Nd44  1  0.86062499  0.23911974  0.92726351  1
  Sm3+  Sm45  1  0.36841978  0.49867026  0.93888497  1
  Sm3+  Sm46  1  0.25148502  0.37999606  0.55803621  1
  Sm3+  Sm47  1  0.49865970  0.37767518  0.55385647  1
  Sm3+  Sm48  1  0.11892335  -0.00714757  0.94809548  1
  Sm3+  Sm49  1  0.49873911  0.12845869  0.55989213  1
  Sm3+  Sm50  1  0.25184944  0.12758797  0.56820816  1
  Sm3+  Sm51  1  0.37745179  0.50537458  0.43777063  1
  Sm3+  Sm52  1  0.62900421  0.25245004  0.44459291  1
  Sm3+  Sm53  1  0.12702081  0.00531157  0.44766453  1
  Sm3+  Sm54  1  0.62031132  0.49153229  0.94817174  1
  Sm3+  Sm55  1  -0.00604148  0.11924696  0.05845909  1
  Sm3+  Sm56  1  0.87735806  0.00193958  0.44839676  1
  Sm3+  Sm57  1  0.86516673  0.49144733  0.94266511  1
  Sm3+  Sm58  1  0.00027199  0.12144346  0.57466611  1
  Sm3+  Sm59  1  0.63057840  0.73820683  0.93507170  1
  Sm3+  Sm60  1  -0.00850527  0.61962838  0.06142944  1
  Sm3+  Sm61  1  0.75230592  0.62544490  0.55114397  1
  Sm3+  Sm62  1  0.36720867  0.73578342  0.93228980  1
  Sm3+  Sm63  1  0.11727052  0.23913418  0.93741714  1
  Bi2+  Bi64  1  -0.07073519  0.10101485  0.29149358  1
  Bi2+  Bi65  1  0.04140343  0.13858064  0.78781971  1
  Bi2+  Bi66  1  0.00262689  0.28244103  0.29215886  1
  Bi2+  Bi67  1  -0.01954564  0.37511579  0.78402733  1
  Bi2+  Bi68  1  0.00912900  0.64933638  0.29293761  1
  Bi2+  Bi69  1  0.02463409  0.59975630  0.79006413  1
  Bi2+  Bi70  1  -0.01377311  0.89620881  0.29850237  1
  Bi2+  Bi71  1  0.02883574  0.86638926  0.79446192  1
  Bi2+  Bi72  1  0.24148330  0.09683099  0.30415496  1
  Bi2+  Bi73  1  0.25289567  0.16749158  0.78136971  1
  Bi2+  Bi74  1  0.26239939  0.34601943  0.31010059  1
  Bi2+  Bi75  1  0.27262746  0.36157019  0.78078176  1
  Bi2+  Bi76  1  0.29936786  0.62081721  0.29749367  1
  Bi2+  Bi77  1  0.26893674  0.64206303  0.79153331  1
  Bi2+  Bi78  1  0.25068031  0.87594772  0.29244795  1
  Bi2+  Bi79  1  0.25277326  0.90405123  0.79485710  1
  Bi2+  Bi80  1  0.53180950  0.13261980  0.29690897  1
  Bi2+  Bi81  1  0.52102625  0.14611375  0.76237910  1
  Bi2+  Bi82  1  0.44612751  0.39032475  0.29361305  1
  Bi2+  Bi83  1  0.46399272  0.37299837  0.80297467  1
  Bi2+  Bi84  1  0.49069967  0.67682605  0.30881861  1
  Bi2+  Bi85  1  0.51527558  0.56686589  0.78901770  1
  Bi2+  Bi86  1  0.53111521  0.84522220  0.25012042  1
  Bi2+  Bi87  1  0.44707058  0.87106031  0.79677826  1
  Bi2+  Bi88  1  0.73625662  0.09352576  0.31751705  1
  Bi2+  Bi89  1  0.74718699  0.14198198  0.78911619  1
  Bi2+  Bi90  1  0.72591561  0.44985991  0.24257523  1
  Bi2+  Bi91  1  0.74562224  0.40381725  0.79090359  1
  Bi2+  Bi92  1  0.71366504  0.64427991  0.28875871  1
  Bi2+  Bi93  1  0.76396768  0.60435333  0.78183777  1
  Bi2+  Bi94  1  0.75790805  0.89563167  0.25994299  1
  Bi2+  Bi95  1  0.69476186  0.84520595  0.80197438  1
  Bi2+  Bi96  1  0.05580104  0.00570011  0.21298200  1
  Bi2+  Bi97  1  0.14900846  0.01482361  0.71900742  1
  Bi2+  Bi98  1  0.14426982  0.32338129  0.21576508  1
  Bi2+  Bi99  1  0.12717534  0.20503622  0.67725810  1
  Bi2+  Bi100  1  0.15990500  0.49903560  0.26123947  1
  Bi2+  Bi101  1  0.11067114  0.39535584  0.69948156  1
  Bi2+  Bi102  1  0.11732540  0.72770485  0.20346706  1
  Bi2+  Bi103  1  0.13581242  0.78535802  0.71384318  1
  Bi2+  Bi104  1  0.40045525  0.00693021  0.20564663  1
  Bi2+  Bi105  1  0.39666070  0.01998003  0.70309193  1
  Bi2+  Bi106  1  0.40626823  0.27563158  0.20294088  1
  Bi2+  Bi107  1  0.32239145  0.23964050  0.68490927  1
  Bi2+  Bi108  1  0.33060539  0.53363299  0.19235054  1
  Bi2+  Bi109  1  0.38451672  0.48211497  0.71325944  1
  Bi2+  Bi110  1  0.38972333  0.72632086  0.21029098  1
  Bi2+  Bi111  1  0.42062224  0.75610234  0.70563154  1
  Bi2+  Bi112  1  0.67802036  0.05151710  0.20741306  1
  Bi2+  Bi113  1  0.59620517  -0.03102297  0.73267273  1
  Bi2+  Bi114  1  0.68675021  0.25110483  0.24560650  1
  Bi2+  Bi115  1  0.60536953  0.31472155  0.72488587  1
  Bi2+  Bi116  1  0.52115199  0.51640366  0.21417840  1
  Bi2+  Bi117  1  0.64262913  0.50466743  0.68916995  1
  Bi2+  Bi118  1  0.67786418  0.75499321  0.19354447  1
  Bi2+  Bi119  1  0.61508433  0.69259870  0.71889799  1
  Bi2+  Bi120  1  0.86895375  0.05131436  0.17587913  1
  Bi2+  Bi121  1  0.87966348  -0.00763499  0.70917865  1
  Bi2+  Bi122  1  0.87313267  0.24660831  0.20395927  1
  Bi2+  Bi123  1  0.86891715  0.28394093  0.71207231  1
  Bi2+  Bi124  1  0.94705923  0.50800655  0.18208071  1
  Bi2+  Bi125  1  0.85279139  0.48204010  0.69405624  1
  Bi2+  Bi126  1  0.88964643  0.77413455  0.21314699  1
  Bi2+  Bi127  1  0.87712984  0.73186260  0.71266975  1
  S2-  S128  1  0.07424020  0.12833270  0.14848956  1
  S2-  S129  1  -0.09905631  0.14106229  0.65511456  1
  S2-  S130  1  0.00024592  0.34968239  0.15181376  1
  S2-  S131  1  0.00529799  0.49750561  0.64312463  1
  S2-  S132  1  0.09575673  0.58921440  0.14035820  1
  S2-  S133  1  0.00534738  0.74359034  0.64625205  1
  S2-  S134  1  0.08452051  0.86118511  0.15052818  1
  S2-  S135  1  0.01275790  0.97790359  0.65210763  1
  S2-  S136  1  0.28501095  0.13818263  0.21657118  1
  S2-  S137  1  0.26995942  0.00733976  0.64007224  1
  S2-  S138  1  0.26199207  0.30270922  0.13993694  1
  S2-  S139  1  0.25285662  0.45632608  0.64530446  1
  S2-  S140  1  0.26097521  0.74103821  0.14437651  1
  S2-  S141  1  0.16905700  0.62468596  0.70736695  1
  S2-  S142  1  0.27162442  0.97155235  0.15440455  1
  S2-  S143  1  0.27147519  0.78606439  0.65186394  1
  S2-  S144  1  0.48030950  0.14271551  0.15913048  1
  S2-  S145  1  0.48200727  0.15567285  0.65654918  1
  S2-  S146  1  0.52467950  0.36817196  0.15733131  1
  S2-  S147  1  0.50810872  0.40459775  0.65041955  1
  S2-  S148  1  0.59834740  0.62760231  0.14426023  1
  S2-  S149  1  0.40731813  0.62215919  0.64789922  1
  S2-  S150  1  0.50282273  0.89824538  0.15194777  1
  S2-  S151  1  0.49868287  0.89433415  0.65325519  1
  S2-  S152  1  0.73463908  0.24163223  0.13918624  1
  S2-  S153  1  0.71831796  0.05919581  0.68590170  1
  S2-  S154  1  0.76715451  0.47126580  0.14655215  1
  S2-  S155  1  0.72894864  0.28080881  0.64931981  1
  S2-  S156  1  0.88153723  0.64841752  0.14221988  1
  S2-  S157  1  0.81957896  0.63469124  0.64293192  1
  S2-  S158  1  0.85395353  0.87923264  0.13480195  1
  S2-  S159  1  0.81442671  0.86316695  0.65754064  1
  S2-  S160  1  0.13574700  -0.02155938  0.34990870  1
  S2-  S161  1  0.05528492  -0.00103276  0.85610744  1
  S2-  S162  1  0.14643660  0.22374422  0.35328365  1
  S2-  S163  1  0.08450704  0.27270573  0.84288888  1
  S2-  S164  1  0.05260971  0.51006275  0.35367756  1
  S2-  S165  1  0.16683249  0.54101939  0.83738578  1
  S2-  S166  1  0.02749009  0.76453723  0.36098388  1
  S2-  S167  1  0.00321191  0.72698581  0.85601112  1
  S2-  S168  1  0.37699148  -0.10001546  0.34886067  1
  S2-  S169  1  0.36755227  0.00903461  0.84259148  1
  S2-  S170  1  0.38065892  0.13980716  0.35713169  1
  S2-  S171  1  0.49472092  0.22448867  0.85621810  1
  S2-  S172  1  0.48838997  0.51276609  0.35980073  1
  S2-  S173  1  0.38806175  0.60523465  0.86224472  1
  S2-  S174  1  0.23348635  0.75412485  0.35602341  1
  S2-  S175  1  0.24349940  0.76372020  0.86061798  1
  S2-  S176  1  0.59399047  0.00698168  0.34909394  1
  S2-  S177  1  0.69360815  0.00904075  0.84966566  1
  S2-  S178  1  0.61748058  0.25744078  0.34621728  1
  S2-  S179  1  0.72731330  0.26164872  0.85516823  1
  S2-  S180  1  0.70898575  0.49334006  0.34257842  1
  S2-  S181  1  0.64804822  0.51226342  0.85172430  1
  S2-  S182  1  0.63160600  0.76267941  0.34625797  1
  S2-  S183  1  0.55843049  0.77256399  0.84714379  1
  S2-  S184  1  0.86351688  -0.09345123  0.36574195  1
  S2-  S185  1  0.86866624  -0.08787365  0.80745661  1
  S2-  S186  1  0.87744381  0.32122248  0.35240063  1
  S2-  S187  1  0.88507139  0.13948943  0.84307089  1
  S2-  S188  1  0.88789873  0.48950476  0.26849298  1
  S2-  S189  1  0.95175661  0.50586172  0.85516488  1
  S2-  S190  1  0.85635670  0.66086990  0.34257949  1
  S2-  S191  1  0.75796263  0.72086505  0.85922075  1
  S2-  S192  1  0.00064907  0.12647066  0.46000505  1
  S2-  S193  1  -0.00615711  0.11949916  0.95380291  1
  S2-  S194  1  0.00323050  0.37978773  0.45970399  1
  S2-  S195  1  -0.01079121  0.36288428  0.94841804  1
  S2-  S196  1  0.00071094  0.62963311  0.46124911  1
  S2-  S197  1  -0.00590772  0.61235855  0.95910288  1
  S2-  S198  1  0.00470992  0.88495206  0.46698083  1
  S2-  S199  1  -0.00705965  0.87161309  0.95413604  1
  S2-  S200  1  0.24966210  0.12954715  0.46283321  1
  S2-  S201  1  0.24178710  0.11775192  0.93757565  1
  S2-  S202  1  0.25216503  0.38076544  0.45318545  1
  S2-  S203  1  0.24642011  0.36774779  0.93980132  1
  S2-  S204  1  0.25609189  0.62365290  0.44768635  1
  S2-  S205  1  0.24121750  0.61353011  0.95931883  1
  S2-  S206  1  0.25235845  0.88663949  0.45900582  1
  S2-  S207  1  0.24127743  0.86812060  0.96186211  1
  S2-  S208  1  0.50268260  0.13211366  0.45683383  1
  S2-  S209  1  0.49299131  0.10814506  0.95359771  1
  S2-  S210  1  0.49958626  0.37201234  0.45129746  1
  S2-  S211  1  0.49025881  0.37222289  0.95212249  1
  S2-  S212  1  0.49576661  0.63426919  0.45660763  1
  S2-  S213  1  0.50119664  0.61857493  0.95890232  1
  S2-  S214  1  0.50303300  0.88125392  0.45065707  1
  S2-  S215  1  0.49202904  0.86313701  0.95171772  1
  S2-  S216  1  0.75371611  0.12861649  0.45486155  1
  S2-  S217  1  0.74069158  0.11692719  0.95546300  1
  S2-  S218  1  0.74707654  0.37767404  0.45695676  1
  S2-  S219  1  0.74324725  0.36888845  0.95935424  1
  S2-  S220  1  0.75142855  0.62610096  0.45005261  1
  S2-  S221  1  0.74517810  0.61128334  0.96347846  1
  S2-  S222  1  0.74795674  0.88057624  0.46206096  1
  S2-  S223  1  0.75124875  0.86926517  0.94987086  1
  S2-  S224  1  0.12229096  0.00163274  0.04916890  1
  S2-  S225  1  0.12514295  0.00711529  0.54999495  1
  S2-  S226  1  0.12129468  0.23939921  0.04066752  1
  S2-  S227  1  0.12623632  0.25299383  0.55308007  1
  S2-  S228  1  0.11832666  0.48811274  0.03537760  1
  S2-  S229  1  0.13197284  0.50817719  0.54732934  1
  S2-  S230  1  0.11542323  0.74161919  0.04122752  1
  S2-  S231  1  0.13235432  0.74684913  0.55139027  1
  S2-  S232  1  0.36605707  -0.01048679  0.04634769  1
  S2-  S233  1  0.37948771  0.00793191  0.53849173  1
  S2-  S234  1  0.36441366  0.23465440  0.03606766  1
  S2-  S235  1  0.37429256  0.25360182  0.54283320  1
  S2-  S236  1  0.36779803  0.49562077  0.04409869  1
  S2-  S237  1  0.37589397  0.50032238  0.54082784  1
  S2-  S238  1  0.36984607  0.73866006  0.03997818  1
  S2-  S239  1  0.37799704  0.75519336  0.53938743  1
  S2-  S240  1  0.62244444  -0.01080694  0.04665750  1
  S2-  S241  1  0.62674477  0.00905316  0.55463169  1
  S2-  S242  1  0.61331525  0.24092753  0.03900632  1
  S2-  S243  1  0.62101450  0.25077801  0.54855058  1
  S2-  S244  1  0.61400187  0.48703442  0.04955919  1
  S2-  S245  1  0.62228756  0.50408137  0.54203618  1
  S2-  S246  1  0.62143783  0.74450594  0.04143026  1
  S2-  S247  1  0.62534569  0.75077922  0.55433489  1
  S2-  S248  1  0.86990991  0.00074576  0.03808677  1
  S2-  S249  1  0.87232932  0.00713902  0.55141273  1
  S2-  S250  1  0.87140335  0.24187180  0.03895131  1
  S2-  S251  1  0.87989049  0.25464919  0.55148987  1
  S2-  S252  1  0.87243776  0.48979022  0.04372671  1
  S2-  S253  1  0.87100251  0.50009671  0.54696115  1
  S2-  S254  1  0.86805439  0.74040839  0.03671755  1
  S2-  S255  1  0.87052718  0.75450436  0.53985661  1
