# generated using pymatgen
data_La6Ce7Pr13Nd19Sm19(BiS2)64
_symmetry_space_group_name_H-M   'P 1'
_cell_length_a   16.07539666
_cell_length_b   16.08094524
_cell_length_c   27.37025061
_cell_angle_alpha   90.20818381
_cell_angle_beta   90.18606458
_cell_angle_gamma   89.93847093
_symmetry_Int_Tables_number   1
_chemical_formula_structural   La6Ce7Pr13Nd19Sm19(BiS2)64
_chemical_formula_sum   'La6 Ce7 Pr13 Nd19 Sm19 Bi64 S128'
_cell_volume   7075.32906171
_cell_formula_units_Z   1
loop_
 _symmetry_equiv_pos_site_id
 _symmetry_equiv_pos_as_xyz
  1  'x, y, z'
loop_
 _atom_type_symbol
 _atom_type_oxidation_number
  La3+  3.0
  Ce3+  3.0
  Pr3+  3.0
  Nd3+  3.0
  Sm3+  3.0
  Bi2+  2.0
  S2-  -2.0
loop_
 _atom_site_type_symbol
 _atom_site_label
 _atom_site_symmetry_multiplicity
 _atom_site_fract_x
 _atom_site_fract_y
 _atom_site_fract_z
 _atom_site_occupancy
  La3+  La0  1  0.14358279  0.24113404  0.88769445  1
  La3+  La1  1  0.50900144  0.62825969  0.07464898  1
  La3+  La2  1  0.01293926  0.63660683  0.09406869  1
  La3+  La3  1  0.13372122  0.23357279  0.43207558  1
  La3+  La4  1  0.87517192  0.47340093  0.41242226  1
  La3+  La5  1  -0.01375166  0.09746247  0.60096056  1
  Ce3+  Ce6  1  0.37411819  0.48731586  0.44929394  1
  Ce3+  Ce7  1  0.88041159  0.74763996  0.94618813  1
  Ce3+  Ce8  1  0.37709665  0.50049280  0.93396804  1
  Ce3+  Ce9  1  0.62294632  0.22862459  0.43226096  1
  Ce3+  Ce10  1  0.88144617  0.22623362  0.43107563  1
  Ce3+  Ce11  1  0.00371917  0.60652890  0.54966395  1
  Ce3+  Ce12  1  0.00067899  0.13159131  0.05935028  1
  Pr3+  Pr13  1  0.74672729  0.37178514  0.09081339  1
  Pr3+  Pr14  1  0.13729105  0.48276116  0.40716352  1
  Pr3+  Pr15  1  0.87775630  0.00019856  0.93310067  1
  Pr3+  Pr16  1  0.38145314  0.75170689  0.93227005  1
  Pr3+  Pr17  1  0.75492970  0.35730611  0.55344136  1
  Pr3+  Pr18  1  0.00492008  0.35948637  0.55585323  1
  Pr3+  Pr19  1  0.51647746  0.60147681  0.57604656  1
  Pr3+  Pr20  1  0.37534935  0.73030046  0.44189059  1
  Pr3+  Pr21  1  0.25837339  0.61519513  0.58034241  1
  Pr3+  Pr22  1  0.63396536  0.50274468  0.94309026  1
  Pr3+  Pr23  1  0.00658204  0.87910640  0.05323365  1
  Pr3+  Pr24  1  0.25240887  0.62778482  0.05593699  1
  Pr3+  Pr25  1  0.63449392  0.25252218  0.93273264  1
  Nd3+  Nd26  1  0.13124774  0.74354391  0.92308472  1
  Nd3+  Nd27  1  0.75414509  0.86167641  0.55540778  1
  Nd3+  Nd28  1  0.00250149  0.37249864  0.07437617  1
  Nd3+  Nd29  1  0.25488518  0.10909087  0.57153311  1
  Nd3+  Nd30  1  0.62867675  0.73300445  0.43084112  1
  Nd3+  Nd31  1  0.37823517  0.25288874  0.94104837  1
  Nd3+  Nd32  1  0.12656273  0.73274623  0.43966761  1
  Nd3+  Nd33  1  0.62560922  0.48370276  0.42137174  1
  Nd3+  Nd34  1  0.50287064  0.38349442  0.06391172  1
  Nd3+  Nd35  1  0.11927318  0.49686120  0.93387588  1
  Nd3+  Nd36  1  0.75552669  0.63614661  0.07549831  1
  Nd3+  Nd37  1  0.24741561  0.37874956  0.05398512  1
  Nd3+  Nd38  1  0.62832759  -0.00092398  0.94836637  1
  Nd3+  Nd39  1  0.37623647  0.23531067  0.45148578  1
  Nd3+  Nd40  1  0.75328933  0.12762332  0.06189022  1
  Nd3+  Nd41  1  0.50067849  0.11071055  0.57409026  1
  Nd3+  Nd42  1  0.50459222  0.85611062  0.55252071  1
  Nd3+  Nd43  1  0.25268482  0.13035830  0.06169990  1
  Nd3+  Nd44  1  0.25109405  0.36277946  0.57125168  1
  Sm3+  Sm45  1  0.62687392  -0.01284952  0.44062376  1
  Sm3+  Sm46  1  0.75220352  0.11073379  0.55424679  1
  Sm3+  Sm47  1  0.50357566  0.12946347  0.05400205  1
  Sm3+  Sm48  1  0.75492345  0.60709471  0.55051130  1
  Sm3+  Sm49  1  0.75543937  0.87593611  0.05905008  1
  Sm3+  Sm50  1  0.00244845  0.86175300  0.55216231  1
  Sm3+  Sm51  1  0.88180373  0.25939908  0.93768598  1
  Sm3+  Sm52  1  0.87933918  0.73337583  0.43733400  1
  Sm3+  Sm53  1  0.12783406  -0.00859309  0.43900537  1
  Sm3+  Sm54  1  0.37795291  -0.01411690  0.44303372  1
  Sm3+  Sm55  1  0.12751853  0.00672389  0.93973257  1
  Sm3+  Sm56  1  0.50833931  0.36235834  0.55434927  1
  Sm3+  Sm57  1  0.88052852  0.50129491  0.96344443  1
  Sm3+  Sm58  1  0.62334936  0.74459306  0.93258568  1
  Sm3+  Sm59  1  0.24927753  0.86183150  0.55191327  1
  Sm3+  Sm60  1  0.37675625  0.00494219  0.94492060  1
  Sm3+  Sm61  1  0.87956196  -0.01261058  0.43428109  1
  Sm3+  Sm62  1  0.25297719  0.87592682  0.04945402  1
  Sm3+  Sm63  1  0.50220526  0.87547689  0.06500956  1
  Bi2+  Bi64  1  0.02087963  0.13516124  0.28485036  1
  Bi2+  Bi65  1  0.00958539  0.12052944  0.78231034  1
  Bi2+  Bi66  1  0.00195403  0.40307302  0.28091298  1
  Bi2+  Bi67  1  -0.02279016  0.38184893  0.79408580  1
  Bi2+  Bi68  1  0.00620297  0.66506496  0.28365623  1
  Bi2+  Bi69  1  0.00159533  0.65109345  0.78037008  1
  Bi2+  Bi70  1  -0.00004454  0.93649969  0.28316954  1
  Bi2+  Bi71  1  0.04905995  0.84811411  0.79485049  1
  Bi2+  Bi72  1  0.25840651  0.11636073  0.28897323  1
  Bi2+  Bi73  1  0.29486205  0.11041057  0.79122889  1
  Bi2+  Bi74  1  0.26823481  0.35959111  0.29946765  1
  Bi2+  Bi75  1  0.25234985  0.38122740  0.78032103  1
  Bi2+  Bi76  1  0.27371042  0.67567697  0.28803382  1
  Bi2+  Bi77  1  0.24315664  0.62506327  0.78749245  1
  Bi2+  Bi78  1  0.20003126  0.92968988  0.27790302  1
  Bi2+  Bi79  1  0.25320036  0.87079452  0.78068526  1
  Bi2+  Bi80  1  0.47357680  0.08708277  0.29639317  1
  Bi2+  Bi81  1  0.55080539  0.16451653  0.79946163  1
  Bi2+  Bi82  1  0.48900526  0.38291538  0.29419883  1
  Bi2+  Bi83  1  0.50476771  0.35352286  0.78346342  1
  Bi2+  Bi84  1  0.48682779  0.65150867  0.28167822  1
  Bi2+  Bi85  1  0.50708602  0.65966009  0.79209844  1
  Bi2+  Bi86  1  0.50701838  0.86577825  0.29111205  1
  Bi2+  Bi87  1  0.62081929  0.88258933  0.79435085  1
  Bi2+  Bi88  1  0.75399323  0.08857597  0.28731264  1
  Bi2+  Bi89  1  0.74783013  0.12979375  0.79057188  1
  Bi2+  Bi90  1  0.75569175  0.35202054  0.28620751  1
  Bi2+  Bi91  1  0.69028644  0.39560268  0.80979082  1
  Bi2+  Bi92  1  0.73445594  0.71725846  0.30673145  1
  Bi2+  Bi93  1  0.73175412  0.67426456  0.78967678  1
  Bi2+  Bi94  1  0.69403598  0.90787362  0.32108240  1
  Bi2+  Bi95  1  0.82323820  0.86968155  0.80915689  1
  Bi2+  Bi96  1  0.09273144  0.02754592  0.19694313  1
  Bi2+  Bi97  1  0.12637396  -0.03113067  0.71314615  1
  Bi2+  Bi98  1  0.14157537  0.26628087  0.19027177  1
  Bi2+  Bi99  1  0.11928285  0.26485116  0.68198338  1
  Bi2+  Bi100  1  0.16557342  0.50187143  0.20588780  1
  Bi2+  Bi101  1  0.07952241  0.50667750  0.69067813  1
  Bi2+  Bi102  1  0.14958352  0.78207367  0.20583874  1
  Bi2+  Bi103  1  0.11677390  0.76816038  0.69370768  1
  Bi2+  Bi104  1  0.46026898  -0.02174369  0.20004491  1
  Bi2+  Bi105  1  0.42204886  -0.03978250  0.74633266  1
  Bi2+  Bi106  1  0.41438793  0.23975538  0.23014845  1
  Bi2+  Bi107  1  0.39211987  0.22443975  0.71311269  1
  Bi2+  Bi108  1  0.37202805  0.51834077  0.23050511  1
  Bi2+  Bi109  1  0.45086914  0.51784574  0.72439981  1
  Bi2+  Bi110  1  0.36905221  0.78892655  0.20843885  1
  Bi2+  Bi111  1  0.38386550  0.77227346  0.70652784  1
  Bi2+  Bi112  1  0.65859412  -0.02284668  0.20867569  1
  Bi2+  Bi113  1  0.59789221  0.03385403  0.71317083  1
  Bi2+  Bi114  1  0.60869796  0.22003784  0.20963602  1
  Bi2+  Bi115  1  0.57919691  0.22377530  0.68021796  1
  Bi2+  Bi116  1  0.58488069  0.48368596  0.21234452  1
  Bi2+  Bi117  1  0.65150404  0.49440682  0.70233436  1
  Bi2+  Bi118  1  0.63395020  0.75247149  0.20862900  1
  Bi2+  Bi119  1  0.62208230  0.75193566  0.70542682  1
  Bi2+  Bi120  1  0.84103827  0.00760149  0.16272585  1
  Bi2+  Bi121  1  0.85450234  -0.03709973  0.70552238  1
  Bi2+  Bi122  1  0.87530395  0.18333862  0.21410813  1
  Bi2+  Bi123  1  0.75549594  0.28057323  0.71918465  1
  Bi2+  Bi124  1  0.80366947  0.57073362  0.23400521  1
  Bi2+  Bi125  1  0.84306061  0.51018723  0.76809099  1
  Bi2+  Bi126  1  0.88559258  0.83883843  0.20891667  1
  Bi2+  Bi127  1  0.89086649  0.76724215  0.71380770  1
  S2-  S128  1  -0.00737362  0.23046698  0.14109892  1
  S2-  S129  1  -0.02610525  0.17814582  0.69747704  1
  S2-  S130  1  0.03261280  0.42971328  0.17264544  1
  S2-  S131  1  -0.00409380  0.37980707  0.65737769  1
  S2-  S132  1  -0.06702700  0.62775702  0.18802566  1
  S2-  S133  1  -0.02602574  0.60661164  0.64604634  1
  S2-  S134  1  0.01765911  0.80281558  0.14284872  1
  S2-  S135  1  -0.00544280  0.93257494  0.64212729  1
  S2-  S136  1  0.22540113  0.12836101  0.16020847  1
  S2-  S137  1  0.14854010  0.10069855  0.64975319  1
  S2-  S138  1  0.25082319  0.36871535  0.15457041  1
  S2-  S139  1  0.24622893  0.39077968  0.67241194  1
  S2-  S140  1  0.16981046  0.63626213  0.14494184  1
  S2-  S141  1  0.20402809  0.62579875  0.67998405  1
  S2-  S142  1  0.25471975  0.87474972  0.14707885  1
  S2-  S143  1  0.25266505  0.85790459  0.64945764  1
  S2-  S144  1  0.48495127  0.13907208  0.15064293  1
  S2-  S145  1  0.37850151  0.09960819  0.64612293  1
  S2-  S146  1  0.59640840  0.35387801  0.14698868  1
  S2-  S147  1  0.52357456  0.44684055  0.63865986  1
  S2-  S148  1  0.45703184  0.50319897  0.14249350  1
  S2-  S149  1  0.39741459  0.62989833  0.64873278  1
  S2-  S150  1  0.49789793  0.76611499  0.14144990  1
  S2-  S151  1  0.50882233  0.84444991  0.65086692  1
  S2-  S152  1  0.74329906  0.21800495  0.14682327  1
  S2-  S153  1  0.81556069  0.07995179  0.64286175  1
  S2-  S154  1  0.79218536  0.42531461  0.19035744  1
  S2-  S155  1  0.76777658  0.40419759  0.65075603  1
  S2-  S156  1  0.64548837  0.60698092  0.15158592  1
  S2-  S157  1  0.66497952  0.62135800  0.63428171  1
  S2-  S158  1  0.76199735  0.78199217  0.14207574  1
  S2-  S159  1  0.76068218  0.83936461  0.65331001  1
  S2-  S160  1  0.13347980  0.10184768  0.36114214  1
  S2-  S161  1  0.14232532  0.07139166  0.84993817  1
  S2-  S162  1  0.11956622  0.33670652  0.34750236  1
  S2-  S163  1  0.15310593  0.23823293  0.77473472  1
  S2-  S164  1  0.10585376  0.52756034  0.30649314  1
  S2-  S165  1  0.12563074  0.40418923  0.84605906  1
  S2-  S166  1  0.13830502  0.73614427  0.34091899  1
  S2-  S167  1  0.11288762  0.61388124  0.85368051  1
  S2-  S168  1  0.34222672  -0.00272791  0.34751900  1
  S2-  S169  1  0.38661797  0.01093801  0.84753652  1
  S2-  S170  1  0.31400011  0.23568414  0.35943072  1
  S2-  S171  1  0.31410950  0.25742841  0.84867339  1
  S2-  S172  1  0.29885621  0.49191809  0.36179892  1
  S2-  S173  1  0.33199307  0.50591566  0.83766782  1
  S2-  S174  1  0.38587783  0.76477967  0.34427900  1
  S2-  S175  1  0.26884912  0.74596751  0.85207320  1
  S2-  S176  1  0.59974402  0.09538720  0.36525098  1
  S2-  S177  1  0.63756984  0.02558687  0.85114262  1
  S2-  S178  1  0.61810494  0.31057535  0.34407147  1
  S2-  S179  1  0.75887933  0.25519769  0.86187551  1
  S2-  S180  1  0.73686581  0.47597262  0.34385954  1
  S2-  S181  1  0.63444823  0.61127894  0.86346914  1
  S2-  S182  1  0.59660806  0.62364868  0.35564764  1
  S2-  S183  1  0.50598609  0.78620814  0.86043193  1
  S2-  S184  1  0.88053168  0.09634411  0.35673675  1
  S2-  S185  1  0.88491579  0.03341678  0.83458704  1
  S2-  S186  1  0.88890547  0.32183608  0.34656380  1
  S2-  S187  1  0.97512301  0.24691497  0.85199263  1
  S2-  S188  1  0.91629390  0.53844357  0.31783236  1
  S2-  S189  1  0.89256361  0.47113295  0.86505001  1
  S2-  S190  1  0.89653348  0.75739820  0.34112977  1
  S2-  S191  1  0.87645199  0.71424284  0.85166243  1
  S2-  S192  1  0.00349836  0.10725500  0.45650519  1
  S2-  S193  1  0.00135686  0.12492320  0.95397751  1
  S2-  S194  1  0.00718113  0.36289497  0.45096960  1
  S2-  S195  1  0.00055021  0.37798342  0.96664716  1
  S2-  S196  1  0.00410634  0.60599602  0.44216892  1
  S2-  S197  1  0.00320752  0.62543181  0.96016836  1
  S2-  S198  1  0.00385858  0.86327588  0.44695397  1
  S2-  S199  1  0.00829855  0.87666984  0.94528461  1
  S2-  S200  1  0.25671030  0.10612123  0.46481361  1
  S2-  S201  1  0.25358723  0.12888952  0.95503582  1
  S2-  S202  1  0.25095888  0.36293289  0.46400277  1
  S2-  S203  1  0.25086980  0.37488227  0.94993563  1
  S2-  S204  1  0.24679206  0.61027830  0.46152676  1
  S2-  S205  1  0.25325947  0.62153427  0.95203987  1
  S2-  S206  1  0.25048731  0.86269640  0.44724378  1
  S2-  S207  1  0.25269234  0.88311272  0.94613015  1
  S2-  S208  1  0.49633129  0.10739529  0.46720093  1
  S2-  S209  1  0.50419234  0.12720420  0.95011217  1
  S2-  S210  1  0.49987901  0.36137473  0.45098415  1
  S2-  S211  1  0.50561768  0.37680708  0.94949163  1
  S2-  S212  1  0.50072606  0.60907989  0.46135328  1
  S2-  S213  1  0.50103968  0.62449519  0.96061516  1
  S2-  S214  1  0.50332241  0.86106008  0.44727596  1
  S2-  S215  1  0.50005453  0.88272045  0.96239229  1
  S2-  S216  1  0.75213778  0.10643555  0.45337720  1
  S2-  S217  1  0.75467017  0.12338661  0.95708340  1
  S2-  S218  1  0.75133613  0.35030952  0.44901178  1
  S2-  S219  1  0.75549283  0.37964078  0.96435790  1
  S2-  S220  1  0.75784565  0.61111612  0.44718282  1
  S2-  S221  1  0.75620317  0.62804379  0.96665109  1
  S2-  S222  1  0.75517181  0.86072622  0.44956516  1
  S2-  S223  1  0.75002762  0.87199559  0.95254881  1
  S2-  S224  1  0.13110981  0.00427744  0.04487718  1
  S2-  S225  1  0.12576659  -0.01663343  0.54206208  1
  S2-  S226  1  0.12979670  0.25076047  0.04898507  1
  S2-  S227  1  0.13111543  0.23580582  0.54854186  1
  S2-  S228  1  0.12374130  0.50302273  0.04706198  1
  S2-  S229  1  0.13162563  0.48970624  0.55745985  1
  S2-  S230  1  0.13158904  0.75523151  0.03392618  1
  S2-  S231  1  0.12624541  0.73732965  0.54648955  1
  S2-  S232  1  0.37864609  0.00234583  0.04969707  1
  S2-  S233  1  0.37837312  -0.02105285  0.54689192  1
  S2-  S234  1  0.37975773  0.25460226  0.04782542  1
  S2-  S235  1  0.38162420  0.24292372  0.55558960  1
  S2-  S236  1  0.37415198  0.50064846  0.03836067  1
  S2-  S237  1  0.37726652  0.48381634  0.55249410  1
  S2-  S238  1  0.37593058  0.75397512  0.04051809  1
  S2-  S239  1  0.37502363  0.73954139  0.54616802  1
  S2-  S240  1  0.62661801  0.00024580  0.05453992  1
  S2-  S241  1  0.62723725  -0.01328383  0.54694132  1
  S2-  S242  1  0.62405001  0.24996823  0.03939657  1
  S2-  S243  1  0.62613478  0.23268181  0.54261389  1
  S2-  S244  1  0.63434513  0.49977752  0.04807039  1
  S2-  S245  1  0.63430781  0.48270008  0.53092185  1
  S2-  S246  1  0.62844012  0.75827420  0.03932447  1
  S2-  S247  1  0.63200714  0.73629805  0.53623915  1
  S2-  S248  1  0.87760292  0.00101525  0.03984214  1
  S2-  S249  1  0.87777991  -0.01597921  0.53725501  1
  S2-  S250  1  0.87186627  0.25426830  0.04404256  1
  S2-  S251  1  0.88066736  0.22956820  0.54671105  1
  S2-  S252  1  0.87856146  0.50538891  0.06702867  1
  S2-  S253  1  0.87644156  0.48465176  0.53651787  1
  S2-  S254  1  0.88428923  0.75217541  0.04866730  1
  S2-  S255  1  0.87767910  0.73613967  0.54231642  1
