# generated using pymatgen
data_La6Ce7Pr13Nd19Sm19(BiS2)64
_symmetry_space_group_name_H-M   'P 1'
_cell_length_a   16.13141088
_cell_length_b   16.06354052
_cell_length_c   27.41198646
_cell_angle_alpha   89.72240239
_cell_angle_beta   90.10079217
_cell_angle_gamma   90.02137699
_symmetry_Int_Tables_number   1
_chemical_formula_structural   La6Ce7Pr13Nd19Sm19(BiS2)64
_chemical_formula_sum   'La6 Ce7 Pr13 Nd19 Sm19 Bi64 S128'
_cell_volume   7103.10666858
_cell_formula_units_Z   1
loop_
 _symmetry_equiv_pos_site_id
 _symmetry_equiv_pos_as_xyz
  1  'x, y, z'
loop_
 _atom_type_symbol
 _atom_type_oxidation_number
  La3+  3.0
  Ce3+  3.0
  Pr3+  3.0
  Nd3+  3.0
  Sm3+  3.0
  Bi2+  2.0
  S2-  -2.0
loop_
 _atom_site_type_symbol
 _atom_site_label
 _atom_site_symmetry_multiplicity
 _atom_site_fract_x
 _atom_site_fract_y
 _atom_site_fract_z
 _atom_site_occupancy
  La3+  La0  1  0.24529476  0.63025452  0.61106418  1
  La3+  La1  1  0.00042261  0.11821893  0.57521391  1
  La3+  La2  1  0.87171247  0.00892367  0.41409016  1
  La3+  La3  1  0.25904007  0.88284994  0.57229365  1
  La3+  La4  1  0.50306984  0.36939650  0.56837246  1
  La3+  La5  1  0.11459134  0.51368769  0.90815678  1
  Ce3+  Ce6  1  0.88212073  0.75273254  0.44259672  1
  Ce3+  Ce7  1  0.00823471  0.88055420  0.54931519  1
  Ce3+  Ce8  1  0.25533065  0.37627860  0.55788432  1
  Ce3+  Ce9  1  0.86864661  0.26574480  0.93655239  1
  Ce3+  Ce10  1  0.61495561  0.25397526  0.92486809  1
  Ce3+  Ce11  1  0.75762768  0.87795050  0.55525077  1
  Ce3+  Ce12  1  0.37897138  0.25526188  0.43030590  1
  Pr3+  Pr13  1  0.62336871  0.00955221  0.94190592  1
  Pr3+  Pr14  1  0.62862343  0.75042263  0.44866040  1
  Pr3+  Pr15  1  0.36489270  0.27130832  0.92253522  1
  Pr3+  Pr16  1  0.13269468  0.00965314  0.42526527  1
  Pr3+  Pr17  1  0.50470711  0.87495109  0.56344042  1
  Pr3+  Pr18  1  0.37116567  0.76753883  0.93556371  1
  Pr3+  Pr19  1  0.00737228  0.37114764  0.56651926  1
  Pr3+  Pr20  1  0.75809554  0.37633482  0.55990048  1
  Pr3+  Pr21  1  0.25015601  0.13432368  0.06422527  1
  Pr3+  Pr22  1  0.37862537  0.51939492  0.92365465  1
  Pr3+  Pr23  1  0.25570644  0.86739405  0.11257347  1
  Pr3+  Pr24  1  0.88208091  0.25677298  0.43394603  1
  Pr3+  Pr25  1  -0.00224964  0.88672425  0.06492912  1
  Nd3+  Nd26  1  0.49422335  0.13805667  0.05404189  1
  Nd3+  Nd27  1  0.74651208  0.63338468  0.06964070  1
  Nd3+  Nd28  1  0.74403861  0.38734233  0.06187727  1
  Nd3+  Nd29  1  0.87291034  0.51551204  0.94336658  1
  Nd3+  Nd30  1  0.24964440  0.38288754  0.06306733  1
  Nd3+  Nd31  1  0.62550562  0.51275211  0.93145369  1
  Nd3+  Nd32  1  -0.00176954  0.38889816  0.06161432  1
  Nd3+  Nd33  1  0.62936235  0.25542153  0.43886405  1
  Nd3+  Nd34  1  0.49677337  0.38608503  0.04898207  1
  Nd3+  Nd35  1  0.13269894  0.75506022  0.44058809  1
  Nd3+  Nd36  1  0.75588470  0.62511873  0.55623358  1
  Nd3+  Nd37  1  0.00159148  0.61912577  0.56807296  1
  Nd3+  Nd38  1  0.88284978  0.50124747  0.43105376  1
  Nd3+  Nd39  1  0.49607875  0.88585904  0.06475464  1
  Nd3+  Nd40  1  0.24987782  0.63324102  0.05920500  1
  Nd3+  Nd41  1  0.74508019  0.14279319  0.06378044  1
  Nd3+  Nd42  1  0.87514899  0.01377890  0.94077098  1
  Nd3+  Nd43  1  0.37994082  0.00098441  0.43297300  1
  Nd3+  Nd44  1  -0.00623349  0.13773029  0.06348901  1
  Sm3+  Sm45  1  0.74944059  0.88789954  0.05787126  1
  Sm3+  Sm46  1  0.62634753  0.50374404  0.44433687  1
  Sm3+  Sm47  1  0.12363793  0.75909252  0.94909008  1
  Sm3+  Sm48  1  0.62541070  0.76346082  0.94823883  1
  Sm3+  Sm49  1  0.36604993  0.00743045  0.94115156  1
  Sm3+  Sm50  1  0.37894662  0.75152390  0.44715281  1
  Sm3+  Sm51  1  0.87518991  0.76013993  0.94697393  1
  Sm3+  Sm52  1  0.13237939  0.50617899  0.44724393  1
  Sm3+  Sm53  1  0.37810010  0.50430464  0.44661868  1
  Sm3+  Sm54  1  0.12838247  0.25114981  0.44418508  1
  Sm3+  Sm55  1  0.50389829  0.12955622  0.55366585  1
  Sm3+  Sm56  1  0.25609025  0.12483464  0.55629568  1
  Sm3+  Sm57  1  0.62985278  0.00228639  0.44501840  1
  Sm3+  Sm58  1  0.50057035  0.61807269  0.57077164  1
  Sm3+  Sm59  1  0.75833441  0.12548007  0.55602232  1
  Sm3+  Sm60  1  0.12100981  0.26372187  0.94512562  1
  Sm3+  Sm61  1  0.00134155  0.63729423  0.06341218  1
  Sm3+  Sm62  1  0.49580229  0.63739436  0.05484498  1
  Sm3+  Sm63  1  0.12142565  0.01233938  0.94990821  1
  Bi2+  Bi64  1  -0.00120531  0.09721216  0.29484829  1
  Bi2+  Bi65  1  -0.02207780  0.10296990  0.79746468  1
  Bi2+  Bi66  1  0.01348100  0.42271336  0.28512902  1
  Bi2+  Bi67  1  0.00812097  0.35376151  0.80494201  1
  Bi2+  Bi68  1  -0.04797726  0.61396675  0.26431701  1
  Bi2+  Bi69  1  -0.00146237  0.63732454  0.79738399  1
  Bi2+  Bi70  1  -0.00321360  0.82950559  0.29070229  1
  Bi2+  Bi71  1  0.02288649  0.90392167  0.79808619  1
  Bi2+  Bi72  1  0.26291360  0.13794477  0.28942444  1
  Bi2+  Bi73  1  0.25813710  0.09140678  0.79583366  1
  Bi2+  Bi74  1  0.31302528  0.34680348  0.29817466  1
  Bi2+  Bi75  1  0.29480872  0.29309350  0.78206126  1
  Bi2+  Bi76  1  0.24728325  0.54726163  0.28827701  1
  Bi2+  Bi77  1  0.25978802  0.59468952  0.81132583  1
  Bi2+  Bi78  1  0.23289978  0.86358271  0.30380393  1
  Bi2+  Bi79  1  0.27022058  0.89715817  0.78172563  1
  Bi2+  Bi80  1  0.51119492  0.15056257  0.25758601  1
  Bi2+  Bi81  1  0.51496873  0.10089922  0.78052732  1
  Bi2+  Bi82  1  0.49512113  0.42684163  0.29117652  1
  Bi2+  Bi83  1  0.54704913  0.35944144  0.79090143  1
  Bi2+  Bi84  1  0.50476135  0.63342492  0.28577906  1
  Bi2+  Bi85  1  0.52670704  0.64458381  0.79045670  1
  Bi2+  Bi86  1  0.45412667  0.90576479  0.30271312  1
  Bi2+  Bi87  1  0.50045871  0.90045412  0.78958381  1
  Bi2+  Bi88  1  0.73543709  0.12976996  0.29029927  1
  Bi2+  Bi89  1  0.73333919  0.10493441  0.73450499  1
  Bi2+  Bi90  1  0.75898723  0.37292968  0.29129218  1
  Bi2+  Bi91  1  0.74946622  0.39725340  0.76388129  1
  Bi2+  Bi92  1  0.74578230  0.57878404  0.29041440  1
  Bi2+  Bi93  1  0.74054922  0.63532956  0.79316944  1
  Bi2+  Bi94  1  0.72867268  0.79227650  0.29686944  1
  Bi2+  Bi95  1  0.69657048  0.91260098  0.79846745  1
  Bi2+  Bi96  1  0.10769110  0.00434010  0.20367165  1
  Bi2+  Bi97  1  0.12266770  0.03844650  0.71124142  1
  Bi2+  Bi98  1  0.13897333  0.27776779  0.25511468  1
  Bi2+  Bi99  1  0.14570353  0.23411958  0.71481454  1
  Bi2+  Bi100  1  0.13625607  0.44269301  0.18662777  1
  Bi2+  Bi101  1  0.11216257  0.49293601  0.70369716  1
  Bi2+  Bi102  1  0.12695471  0.63589157  0.21019058  1
  Bi2+  Bi103  1  0.07897289  0.78207224  0.71616246  1
  Bi2+  Bi104  1  0.38066540  0.01163575  0.21582882  1
  Bi2+  Bi105  1  0.37370686  0.04826748  0.70443500  1
  Bi2+  Bi106  1  0.39313723  0.26740647  0.18760195  1
  Bi2+  Bi107  1  0.33038721  0.23752898  0.67512745  1
  Bi2+  Bi108  1  0.32981281  0.46192891  0.19754237  1
  Bi2+  Bi109  1  0.39188655  0.49787964  0.70484340  1
  Bi2+  Bi110  1  0.38902602  0.73695816  0.21724197  1
  Bi2+  Bi111  1  0.36685840  0.78410013  0.71370677  1
  Bi2+  Bi112  1  0.62044505  -0.02978642  0.26028138  1
  Bi2+  Bi113  1  0.62332641  -0.04769558  0.69283528  1
  Bi2+  Bi114  1  0.62442486  0.30308056  0.21827626  1
  Bi2+  Bi115  1  0.61663891  0.25196910  0.70894966  1
  Bi2+  Bi116  1  0.59419455  0.51883632  0.20409766  1
  Bi2+  Bi117  1  0.66025961  0.55900932  0.69835910  1
  Bi2+  Bi118  1  0.58386522  0.77989222  0.21313396  1
  Bi2+  Bi119  1  0.62476654  0.75314571  0.71554543  1
  Bi2+  Bi120  1  0.85220903  -0.03319660  0.20841314  1
  Bi2+  Bi121  1  0.88491917  -0.02500370  0.70293679  1
  Bi2+  Bi122  1  0.86649974  0.21563866  0.19301339  1
  Bi2+  Bi123  1  0.87776213  0.23952858  0.70720329  1
  Bi2+  Bi124  1  0.85816503  0.47222924  0.20614516  1
  Bi2+  Bi125  1  0.87707121  0.52713260  0.72534081  1
  Bi2+  Bi126  1  0.76468568  0.70031789  0.19838264  1
  Bi2+  Bi127  1  0.88796333  0.77504570  0.74844451  1
  S2-  S128  1  0.00251382  0.13681937  0.16343059  1
  S2-  S129  1  0.01076156  0.25151903  0.64641145  1
  S2-  S130  1  -0.05121325  0.35242733  0.15427265  1
  S2-  S131  1  -0.02026057  0.47438539  0.64562150  1
  S2-  S132  1  -0.01995593  0.65269151  0.15972802  1
  S2-  S133  1  0.07979348  0.64505079  0.65531333  1
  S2-  S134  1  -0.01109510  0.89770517  0.16461151  1
  S2-  S135  1  0.01254321  0.96570242  0.63527237  1
  S2-  S136  1  0.24846350  0.03494421  0.14951726  1
  S2-  S137  1  0.23690415  0.02606695  0.63720817  1
  S2-  S138  1  0.25704093  0.26139870  0.13636438  1
  S2-  S139  1  0.25297585  0.44721589  0.64770309  1
  S2-  S140  1  0.26748329  0.69787255  0.15039005  1
  S2-  S141  1  0.25134411  0.60295179  0.71826021  1
  S2-  S142  1  0.18273887  0.86132065  0.20816534  1
  S2-  S143  1  0.22575580  0.79296312  0.65693192  1
  S2-  S144  1  0.48614372  0.12043967  0.15260605  1
  S2-  S145  1  0.49866934  0.22759298  0.63505477  1
  S2-  S146  1  0.52054899  0.38019352  0.14731797  1
  S2-  S147  1  0.52069968  0.47032557  0.65102015  1
  S2-  S148  1  0.50387715  0.64336010  0.15240777  1
  S2-  S149  1  0.41214223  0.64481250  0.65274082  1
  S2-  S150  1  0.41644238  0.87932039  0.15213889  1
  S2-  S151  1  0.41139281  0.89610767  0.64611102  1
  S2-  S152  1  0.77284910  0.07890890  0.15839710  1
  S2-  S153  1  0.84846010  0.11354849  0.63937952  1
  S2-  S154  1  0.72846970  0.27174189  0.13656377  1
  S2-  S155  1  0.75526409  0.33802494  0.65757371  1
  S2-  S156  1  0.73099294  0.50516026  0.13719557  1
  S2-  S157  1  0.80610883  0.61821608  0.65008949  1
  S2-  S158  1  0.76494452  0.86359223  0.15351825  1
  S2-  S159  1  0.77529118  0.87836472  0.65146398  1
  S2-  S160  1  0.08761156  -0.03958178  0.32943443  1
  S2-  S161  1  0.11449414  0.02698108  0.85256705  1
  S2-  S162  1  0.11646347  0.19321599  0.35169995  1
  S2-  S163  1  0.12428186  0.26853413  0.84768479  1
  S2-  S164  1  0.11770514  0.50222856  0.34925186  1
  S2-  S165  1  0.13897930  0.46948693  0.80638383  1
  S2-  S166  1  0.12529315  0.74852264  0.34005910  1
  S2-  S167  1  0.12701582  0.68135576  0.86012801  1
  S2-  S168  1  0.27298957  0.01064055  0.35594170  1
  S2-  S169  1  0.37754851  -0.10000517  0.86270508  1
  S2-  S170  1  0.40479712  0.18736329  0.34204142  1
  S2-  S171  1  0.48782127  0.23539696  0.85198076  1
  S2-  S172  1  0.39808789  0.53784322  0.35107663  1
  S2-  S173  1  0.33544453  0.40286928  0.85214955  1
  S2-  S174  1  0.36455095  0.78371498  0.35051064  1
  S2-  S175  1  0.38656147  0.66365335  0.85463684  1
  S2-  S176  1  0.69655247  0.00519195  0.35579463  1
  S2-  S177  1  0.64043707  0.06053958  0.84664474  1
  S2-  S178  1  0.65838516  0.24394974  0.34182861  1
  S2-  S179  1  0.69172180  0.31247708  0.84366340  1
  S2-  S180  1  0.64204898  0.47629009  0.34876843  1
  S2-  S181  1  0.53628903  0.50957867  0.84569948  1
  S2-  S182  1  0.60024622  0.73749698  0.35106890  1
  S2-  S183  1  0.60672626  0.78934997  0.85238789  1
  S2-  S184  1  0.89434966  -0.04257680  0.31338939  1
  S2-  S185  1  0.87946433  -0.01280064  0.84362351  1
  S2-  S186  1  0.88050359  0.15507898  0.35122205  1
  S2-  S187  1  0.89897632  0.23463236  0.84147970  1
  S2-  S188  1  0.88879383  0.38181019  0.35866320  1
  S2-  S189  1  0.95265892  0.49754488  0.85669321  1
  S2-  S190  1  0.88605158  0.73933837  0.34598579  1
  S2-  S191  1  0.86630880  0.72341893  0.85209273  1
  S2-  S192  1  0.00481135  0.12860088  0.45614963  1
  S2-  S193  1  -0.00251866  0.13852485  0.95643625  1
  S2-  S194  1  0.01223913  0.37917192  0.45830368  1
  S2-  S195  1  -0.00085023  0.38768927  0.95619405  1
  S2-  S196  1  0.00576751  0.62544401  0.45442643  1
  S2-  S197  1  -0.00069041  0.63627268  0.95993020  1
  S2-  S198  1  0.00361462  0.88023762  0.44469367  1
  S2-  S199  1  -0.00146685  0.88420820  0.95689428  1
  S2-  S200  1  0.25750232  0.13260566  0.45339770  1
  S2-  S201  1  0.24633638  0.13657223  0.95203849  1
  S2-  S202  1  0.25275120  0.37851810  0.44959063  1
  S2-  S203  1  0.23502399  0.39374623  0.95715673  1
  S2-  S204  1  0.25647685  0.62854321  0.44689125  1
  S2-  S205  1  0.24549325  0.63334687  0.95599194  1
  S2-  S206  1  0.25801343  0.87701227  0.45842342  1
  S2-  S207  1  0.23810429  0.88653369  0.95290337  1
  S2-  S208  1  0.50772860  0.12644192  0.44991386  1
  S2-  S209  1  0.48960121  0.12590914  0.95054836  1
  S2-  S210  1  0.50356629  0.37921776  0.45475604  1
  S2-  S211  1  0.49878159  0.38964764  0.94648802  1
  S2-  S212  1  0.50259797  0.62571306  0.46190037  1
  S2-  S213  1  0.50460600  0.64130923  0.95349515  1
  S2-  S214  1  0.50503220  0.87857240  0.45611854  1
  S2-  S215  1  0.50122659  0.88638685  0.96032586  1
  S2-  S216  1  0.75101213  0.13010896  0.45428324  1
  S2-  S217  1  0.74887376  0.13641712  0.95470965  1
  S2-  S218  1  0.75107486  0.38126650  0.45410821  1
  S2-  S219  1  0.74786450  0.39159415  0.95466039  1
  S2-  S220  1  0.75515414  0.62363286  0.44953908  1
  S2-  S221  1  0.74779011  0.63912234  0.95917978  1
  S2-  S222  1  0.75364063  0.87565784  0.45049128  1
  S2-  S223  1  0.75232879  0.88505403  0.95359631  1
  S2-  S224  1  0.11832945  0.01329951  0.05198969  1
  S2-  S225  1  0.13083136  0.00489269  0.53305037  1
  S2-  S226  1  0.11819915  0.26031949  0.04886436  1
  S2-  S227  1  0.13467192  0.24701381  0.54760435  1
  S2-  S228  1  0.12349878  0.51231728  0.05597762  1
  S2-  S229  1  0.13302251  0.50442637  0.54899966  1
  S2-  S230  1  0.12590491  0.76305153  0.05399404  1
  S2-  S231  1  0.12755526  0.75015368  0.54583440  1
  S2-  S232  1  0.37294693  0.00795020  0.04353794  1
  S2-  S233  1  0.38526628  0.00750171  0.53851101  1
  S2-  S234  1  0.37350694  0.26233298  0.03180004  1
  S2-  S235  1  0.37685326  0.24966553  0.53553052  1
  S2-  S236  1  0.37388643  0.51197235  0.04242995  1
  S2-  S237  1  0.37909338  0.50016229  0.54833684  1
  S2-  S238  1  0.37287168  0.76208294  0.04385016  1
  S2-  S239  1  0.38024442  0.74784277  0.54870172  1
  S2-  S240  1  0.62292585  0.01068694  0.05036015  1
  S2-  S241  1  0.62918741  0.00567790  0.54913666  1
  S2-  S242  1  0.61714046  0.25992134  0.03317890  1
  S2-  S243  1  0.63477759  0.24871711  0.54338302  1
  S2-  S244  1  0.61814248  0.51473538  0.03779723  1
  S2-  S245  1  0.63036528  0.50097250  0.54741873  1
  S2-  S246  1  0.62420344  0.76169358  0.05273943  1
  S2-  S247  1  0.62791601  0.74731494  0.55598216  1
  S2-  S248  1  0.87048347  0.01116402  0.04703434  1
  S2-  S249  1  0.87632101  -0.00009073  0.53212116  1
  S2-  S250  1  0.87365162  0.26387768  0.04185459  1
  S2-  S251  1  0.87903467  0.25110923  0.54087765  1
  S2-  S252  1  0.87682730  0.51572704  0.04793108  1
  S2-  S253  1  0.87913428  0.50062848  0.53688589  1
  S2-  S254  1  0.87150467  0.75879323  0.05113293  1
  S2-  S255  1  0.88249766  0.75090772  0.54840985  1
