# generated using pymatgen
data_La6Ce7Pr13Nd19Sm19(BiS2)64
_symmetry_space_group_name_H-M   'P 1'
_cell_length_a   16.05078266
_cell_length_b   16.02321583
_cell_length_c   27.25588474
_cell_angle_alpha   90.12219458
_cell_angle_beta   89.68512837
_cell_angle_gamma   90.09234523
_symmetry_Int_Tables_number   1
_chemical_formula_structural   La6Ce7Pr13Nd19Sm19(BiS2)64
_chemical_formula_sum   'La6 Ce7 Pr13 Nd19 Sm19 Bi64 S128'
_cell_volume   7009.67816883
_cell_formula_units_Z   1
loop_
 _symmetry_equiv_pos_site_id
 _symmetry_equiv_pos_as_xyz
  1  'x, y, z'
loop_
 _atom_type_symbol
 _atom_type_oxidation_number
  La3+  3.0
  Ce3+  3.0
  Pr3+  3.0
  Nd3+  3.0
  Sm3+  3.0
  Bi2+  2.0
  S2-  -2.0
loop_
 _atom_site_type_symbol
 _atom_site_label
 _atom_site_symmetry_multiplicity
 _atom_site_fract_x
 _atom_site_fract_y
 _atom_site_fract_z
 _atom_site_occupancy
  La3+  La0  1  0.89186256  0.52376773  0.40199228  1
  La3+  La1  1  0.25637681  0.41917674  0.57387550  1
  La3+  La2  1  -0.01146391  0.13272850  0.07575974  1
  La3+  La3  1  0.63335907  0.78882115  0.42875136  1
  La3+  La4  1  0.48619190  0.12915273  0.08208983  1
  La3+  La5  1  0.11978719  0.74681704  0.90905330  1
  Ce3+  Ce6  1  0.61525747  0.00397128  0.93665026  1
  Ce3+  Ce7  1  0.87046969  0.00713264  0.94082507  1
  Ce3+  Ce8  1  0.50507571  0.16518706  0.57388759  1
  Ce3+  Ce9  1  0.12113917  0.50726112  0.93762623  1
  Ce3+  Ce10  1  0.00567323  0.65911661  0.54608580  1
  Ce3+  Ce11  1  0.74448556  0.13026764  0.06399417  1
  Ce3+  Ce12  1  0.14059616  0.52891337  0.42709284  1
  Pr3+  Pr13  1  0.00000731  0.90749804  0.57522162  1
  Pr3+  Pr14  1  0.38356086  0.03712378  0.43949885  1
  Pr3+  Pr15  1  0.13231229  0.78705058  0.42742335  1
  Pr3+  Pr16  1  0.75385824  0.90768630  0.56502301  1
  Pr3+  Pr17  1  0.61480160  0.75986932  0.93173554  1
  Pr3+  Pr18  1  0.38295312  0.79011997  0.43089687  1
  Pr3+  Pr19  1  0.50688841  0.65761883  0.56560859  1
  Pr3+  Pr20  1  0.36556430  0.25478289  0.93887477  1
  Pr3+  Pr21  1  -0.01632496  0.63256815  0.07656847  1
  Pr3+  Pr22  1  0.37089027  0.50779982  0.93643597  1
  Pr3+  Pr23  1  -0.00905611  0.38434262  0.06720125  1
  Pr3+  Pr24  1  0.36171677  0.00570855  0.94216687  1
  Pr3+  Pr25  1  0.00070220  0.41221522  0.56682978  1
  Nd3+  Nd26  1  0.88735055  0.79352331  0.42628596  1
  Nd3+  Nd27  1  0.13334372  0.27944161  0.44387137  1
  Nd3+  Nd28  1  0.38310068  0.53463238  0.43435983  1
  Nd3+  Nd29  1  0.63217820  0.28886255  0.43859644  1
  Nd3+  Nd30  1  0.23860771  0.87984679  0.06416016  1
  Nd3+  Nd31  1  0.49551074  0.63453888  0.07045814  1
  Nd3+  Nd32  1  0.73784705  0.88152257  0.05574259  1
  Nd3+  Nd33  1  0.01421709  0.16267866  0.57918298  1
  Nd3+  Nd34  1  0.23936602  0.63007823  0.06859094  1
  Nd3+  Nd35  1  -0.00830230  0.87594833  0.05381114  1
  Nd3+  Nd36  1  0.25333678  0.90801624  0.56504580  1
  Nd3+  Nd37  1  0.62345775  0.51354510  0.91419429  1
  Nd3+  Nd38  1  0.75562131  0.16042192  0.55827531  1
  Nd3+  Nd39  1  0.75992066  0.41452881  0.55288005  1
  Nd3+  Nd40  1  0.86852205  0.75202858  0.93782400  1
  Nd3+  Nd41  1  0.13176809  0.03464444  0.44050732  1
  Nd3+  Nd42  1  0.86934411  0.50994008  0.94119427  1
  Nd3+  Nd43  1  0.63124847  0.54074398  0.42667001  1
  Nd3+  Nd44  1  0.11529473  0.00732878  0.94212516  1
  Sm3+  Sm45  1  0.73580602  0.63146954  0.06609869  1
  Sm3+  Sm46  1  0.88586804  0.28283849  0.43922942  1
  Sm3+  Sm47  1  0.26248614  0.16078630  0.57100269  1
  Sm3+  Sm48  1  0.49028303  0.87949052  0.06626280  1
  Sm3+  Sm49  1  0.88524867  0.03475387  0.44514831  1
  Sm3+  Sm50  1  0.24331698  0.38299771  0.06564907  1
  Sm3+  Sm51  1  0.38244957  0.27977124  0.44289013  1
  Sm3+  Sm52  1  0.86692526  0.25801910  0.94505799  1
  Sm3+  Sm53  1  0.76021570  0.65876743  0.54060250  1
  Sm3+  Sm54  1  0.50551246  0.90474936  0.56474073  1
  Sm3+  Sm55  1  0.11615662  0.25898902  0.94908602  1
  Sm3+  Sm56  1  0.49167272  0.38335718  0.05292792  1
  Sm3+  Sm57  1  0.50851325  0.41133859  0.56468417  1
  Sm3+  Sm58  1  0.61721394  0.25502008  0.94462562  1
  Sm3+  Sm59  1  0.25391945  0.66023968  0.55093293  1
  Sm3+  Sm60  1  0.73533139  0.38329064  0.05842190  1
  Sm3+  Sm61  1  0.23765064  0.13073775  0.07284225  1
  Sm3+  Sm62  1  0.63108391  0.03761153  0.43985943  1
  Sm3+  Sm63  1  0.36352379  0.75578064  0.94236455  1
  Bi2+  Bi64  1  -0.07577901  0.10181820  0.31671967  1
  Bi2+  Bi65  1  0.01336884  0.08320102  0.78761529  1
  Bi2+  Bi66  1  0.02368145  0.27800361  0.31411945  1
  Bi2+  Bi67  1  -0.00142451  0.36375465  0.80981885  1
  Bi2+  Bi68  1  -0.00297505  0.62773320  0.27500660  1
  Bi2+  Bi69  1  -0.09698682  0.60990911  0.81501641  1
  Bi2+  Bi70  1  0.01170683  0.88522818  0.29219822  1
  Bi2+  Bi71  1  -0.04952352  0.89405626  0.79397940  1
  Bi2+  Bi72  1  0.24234367  0.10157146  0.29193685  1
  Bi2+  Bi73  1  0.33540382  0.11757324  0.78720797  1
  Bi2+  Bi74  1  0.23131316  0.34849205  0.33111263  1
  Bi2+  Bi75  1  0.23749209  0.36489529  0.79859961  1
  Bi2+  Bi76  1  0.24167224  0.58956814  0.26468550  1
  Bi2+  Bi77  1  0.27283757  0.61618064  0.78022142  1
  Bi2+  Bi78  1  0.26289885  0.83081896  0.30289882  1
  Bi2+  Bi79  1  0.22359424  0.87931280  0.79624778  1
  Bi2+  Bi80  1  0.49667733  0.11470975  0.29816317  1
  Bi2+  Bi81  1  0.53346655  0.13034885  0.79407495  1
  Bi2+  Bi82  1  0.41261043  0.34010665  0.28493445  1
  Bi2+  Bi83  1  0.57759739  0.41057034  0.77873771  1
  Bi2+  Bi84  1  0.47640274  0.57724707  0.31084245  1
  Bi2+  Bi85  1  0.49642230  0.62807032  0.78617723  1
  Bi2+  Bi86  1  0.50426959  0.91822149  0.28425380  1
  Bi2+  Bi87  1  0.47795864  0.86089398  0.78985729  1
  Bi2+  Bi88  1  0.72411751  0.09729909  0.30180793  1
  Bi2+  Bi89  1  0.71292979  0.04679586  0.78320270  1
  Bi2+  Bi90  1  0.75305937  0.29212372  0.28479885  1
  Bi2+  Bi91  1  0.74103421  0.30026388  0.77360005  1
  Bi2+  Bi92  1  0.68396815  0.57866774  0.27206284  1
  Bi2+  Bi93  1  0.71901383  0.57973893  0.76758959  1
  Bi2+  Bi94  1  0.70249873  0.82012554  0.29202355  1
  Bi2+  Bi95  1  0.67161847  0.85176441  0.76012628  1
  Bi2+  Bi96  1  0.11536421  0.00979520  0.22419737  1
  Bi2+  Bi97  1  0.12918192  -0.01544624  0.70033654  1
  Bi2+  Bi98  1  0.24724819  0.26369678  0.22514879  1
  Bi2+  Bi99  1  0.14277829  0.26168522  0.71600846  1
  Bi2+  Bi100  1  0.11003554  0.43367884  0.25565142  1
  Bi2+  Bi101  1  0.10158436  0.51458232  0.75938757  1
  Bi2+  Bi102  1  0.12287204  0.77181256  0.18678251  1
  Bi2+  Bi103  1  0.16142724  0.71804443  0.68165285  1
  Bi2+  Bi104  1  0.36078065  0.01647664  0.21305508  1
  Bi2+  Bi105  1  0.44584897  0.00940851  0.71293070  1
  Bi2+  Bi106  1  0.51673870  0.22680087  0.20498241  1
  Bi2+  Bi107  1  0.41173203  0.26184827  0.71283005  1
  Bi2+  Bi108  1  0.34523531  0.43591349  0.19171253  1
  Bi2+  Bi109  1  0.37133529  0.50771216  0.70116688  1
  Bi2+  Bi110  1  0.42146316  0.61684783  0.20604207  1
  Bi2+  Bi111  1  0.38415667  0.74164514  0.71565416  1
  Bi2+  Bi112  1  0.63660099  -0.01432699  0.20707397  1
  Bi2+  Bi113  1  0.62841320  -0.02940058  0.67003229  1
  Bi2+  Bi114  1  0.70619327  0.17686779  0.19133654  1
  Bi2+  Bi115  1  0.64181642  0.16762770  0.69084763  1
  Bi2+  Bi116  1  0.61275973  0.40774976  0.23535738  1
  Bi2+  Bi117  1  0.70521391  0.43059487  0.68959820  1
  Bi2+  Bi118  1  0.60291253  0.73136245  0.20423157  1
  Bi2+  Bi119  1  0.62165576  0.69879243  0.69422327  1
  Bi2+  Bi120  1  0.83535700  -0.05068506  0.24778176  1
  Bi2+  Bi121  1  0.85190792  0.02201054  0.70275887  1
  Bi2+  Bi122  1  0.97728501  0.18652437  0.21546805  1
  Bi2+  Bi123  1  0.92708811  0.22965125  0.72921679  1
  Bi2+  Bi124  1  0.86626365  0.46657237  0.20339604  1
  Bi2+  Bi125  1  0.91559389  0.48388101  0.72662676  1
  Bi2+  Bi126  1  0.85249907  0.75802188  0.20328789  1
  Bi2+  Bi127  1  0.90078131  0.73453110  0.68878341  1
  S2-  S128  1  0.11146582  0.12557072  0.14971346  1
  S2-  S129  1  -0.00424330  0.03613526  0.64916579  1
  S2-  S130  1  -0.04310571  0.34840318  0.16474105  1
  S2-  S131  1  0.02125816  0.29691648  0.64870045  1
  S2-  S132  1  0.05484546  0.62624503  0.17199495  1
  S2-  S133  1  0.02148608  0.63094843  0.64394074  1
  S2-  S134  1  -0.01693400  0.85234625  0.15276123  1
  S2-  S135  1  0.04850524  0.83360208  0.66891665  1
  S2-  S136  1  0.34726704  0.14937662  0.14933303  1
  S2-  S137  1  0.16822608  0.13544527  0.65511254  1
  S2-  S138  1  0.17991587  0.39184874  0.15806914  1
  S2-  S139  1  0.27849012  0.35418083  0.66840507  1
  S2-  S140  1  0.26109512  0.66931264  0.16669410  1
  S2-  S141  1  0.25059959  0.57696538  0.63836609  1
  S2-  S142  1  0.23725677  0.90946708  0.16348781  1
  S2-  S143  1  0.25491768  0.87033697  0.66453781  1
  S2-  S144  1  0.49816347  -0.01220322  0.14673731  1
  S2-  S145  1  0.38264365  0.13832471  0.64565047  1
  S2-  S146  1  0.50510488  0.38177676  0.15077069  1
  S2-  S147  1  0.52321391  0.29714118  0.64411260  1
  S2-  S148  1  0.62175186  0.60420038  0.14021733  1
  S2-  S149  1  0.49843236  0.52940060  0.63981783  1
  S2-  S150  1  0.47440078  0.76524695  0.14230010  1
  S2-  S151  1  0.49538890  0.78376851  0.63911606  1
  S2-  S152  1  0.85426074  0.12102899  0.14418071  1
  S2-  S153  1  0.80671470  0.17888186  0.65331669  1
  S2-  S154  1  0.74309326  0.39707502  0.15757004  1
  S2-  S155  1  0.85988591  0.43646869  0.63446731  1
  S2-  S156  1  0.84550675  0.62227843  0.14709629  1
  S2-  S157  1  0.77210742  0.66768688  0.64026972  1
  S2-  S158  1  0.72824680  0.83102960  0.15059664  1
  S2-  S159  1  0.85271969  0.87489255  0.64639789  1
  S2-  S160  1  0.13600649  -0.07860604  0.35803952  1
  S2-  S161  1  0.13721820  0.00769185  0.84300592  1
  S2-  S162  1  0.13452335  0.15760684  0.36621586  1
  S2-  S163  1  0.12634243  0.26051102  0.85081366  1
  S2-  S164  1  0.04214245  0.51456900  0.34499592  1
  S2-  S165  1  0.06098136  0.59654620  0.85855126  1
  S2-  S166  1  0.16700667  0.71130621  0.33144154  1
  S2-  S167  1  0.08159775  0.80012698  0.81054475  1
  S2-  S168  1  0.37775471  -0.07537186  0.35884758  1
  S2-  S169  1  0.35836976  -0.03331167  0.84384310  1
  S2-  S170  1  0.37810134  0.16427159  0.36610843  1
  S2-  S171  1  0.36234052  0.27270766  0.83821267  1
  S2-  S172  1  0.27533278  0.51797745  0.35502357  1
  S2-  S173  1  0.24990669  0.49699720  0.86317304  1
  S2-  S174  1  0.39085109  0.71878026  0.33489290  1
  S2-  S175  1  0.27627219  0.74607081  0.85612501  1
  S2-  S176  1  0.62714456  -0.07346834  0.36100785  1
  S2-  S177  1  0.60658501  -0.10804360  0.85974159  1
  S2-  S178  1  0.62064741  0.21982289  0.34778983  1
  S2-  S179  1  0.61007435  0.27167995  0.84645833  1
  S2-  S180  1  0.60320754  0.45358342  0.34054704  1
  S2-  S181  1  0.48299618  0.49298830  0.85305770  1
  S2-  S182  1  0.61709151  0.67283514  0.35114225  1
  S2-  S183  1  0.62714188  0.65577491  0.85067814  1
  S2-  S184  1  0.88751789  -0.06297525  0.36311032  1
  S2-  S185  1  0.86483181  0.02787048  0.84412715  1
  S2-  S186  1  0.87160336  0.35545043  0.34970146  1
  S2-  S187  1  0.86747895  0.26908054  0.84752537  1
  S2-  S188  1  0.84088910  0.54922889  0.30029762  1
  S2-  S189  1  0.77635958  0.49925666  0.85643055  1
  S2-  S190  1  0.92994569  0.73578286  0.33151181  1
  S2-  S191  1  0.85089651  0.77579726  0.83854383  1
  S2-  S192  1  0.00368975  0.15972375  0.46518938  1
  S2-  S193  1  -0.00778233  0.13545730  0.95937419  1
  S2-  S194  1  0.00957170  0.40384343  0.45502888  1
  S2-  S195  1  -0.00814586  0.38242447  0.95801340  1
  S2-  S196  1  0.00977637  0.65835055  0.44163742  1
  S2-  S197  1  -0.00820275  0.63368084  0.96616227  1
  S2-  S198  1  0.00856250  0.91185575  0.46334102  1
  S2-  S199  1  -0.00338142  0.87561495  0.94692240  1
  S2-  S200  1  0.25917581  0.15836024  0.46779161  1
  S2-  S201  1  0.23781031  0.13312902  0.95942613  1
  S2-  S202  1  0.26128842  0.40336419  0.46155413  1
  S2-  S203  1  0.24277834  0.37847440  0.96198412  1
  S2-  S204  1  0.25861449  0.66218603  0.44944492  1
  S2-  S205  1  0.24042357  0.63395017  0.96167189  1
  S2-  S206  1  0.25615081  0.91070254  0.46017538  1
  S2-  S207  1  0.23523437  0.87796998  0.95654227  1
  S2-  S208  1  0.51171859  0.16167722  0.46385129  1
  S2-  S209  1  0.49159686  0.12978357  0.95220314  1
  S2-  S210  1  0.50383736  0.40728393  0.45416432  1
  S2-  S211  1  0.49425112  0.37691485  0.95079418  1
  S2-  S212  1  0.50424863  0.66021091  0.45593790  1
  S2-  S213  1  0.48867415  0.63693147  0.95681135  1
  S2-  S214  1  0.50884881  0.91170630  0.46211944  1
  S2-  S215  1  0.48442292  0.88139832  0.96020898  1
  S2-  S216  1  0.75839438  0.15950434  0.45072739  1
  S2-  S217  1  0.74251718  0.13205941  0.95380866  1
  S2-  S218  1  0.75747276  0.41249878  0.44731848  1
  S2-  S219  1  0.74032774  0.37820279  0.95394518  1
  S2-  S220  1  0.76742287  0.65875404  0.43669467  1
  S2-  S221  1  0.74268434  0.63269237  0.95861661  1
  S2-  S222  1  0.75659904  0.91539449  0.45908255  1
  S2-  S223  1  0.74681581  0.88224797  0.95109176  1
  S2-  S224  1  0.11522075  0.00504321  0.04806000  1
  S2-  S225  1  0.13356736  0.03367454  0.54767647  1
  S2-  S226  1  0.11881017  0.25960247  0.05317001  1
  S2-  S227  1  0.13789313  0.28604608  0.54880236  1
  S2-  S228  1  0.11740911  0.50620445  0.05003091  1
  S2-  S229  1  0.12934623  0.53336330  0.53659917  1
  S2-  S230  1  0.11606454  0.75289043  0.05451301  1
  S2-  S231  1  0.13155181  0.78398388  0.54162324  1
  S2-  S232  1  0.36090491  0.00622327  0.04819950  1
  S2-  S233  1  0.38367824  0.02648221  0.54802562  1
  S2-  S234  1  0.36585918  0.25850315  0.04661791  1
  S2-  S235  1  0.38137772  0.28966179  0.54673058  1
  S2-  S236  1  0.36816320  0.50742323  0.04928217  1
  S2-  S237  1  0.38111307  0.53570949  0.53835287  1
  S2-  S238  1  0.36182110  0.75641195  0.04538269  1
  S2-  S239  1  0.37702546  0.78369158  0.54142713  1
  S2-  S240  1  0.61563339  0.00866267  0.04362236  1
  S2-  S241  1  0.62805671  0.03528134  0.54482405  1
  S2-  S242  1  0.61354180  0.25365063  0.05018752  1
  S2-  S243  1  0.63614272  0.28940979  0.54379523  1
  S2-  S244  1  0.61491651  0.50326443  0.03559277  1
  S2-  S245  1  0.63436070  0.53566778  0.53589611  1
  S2-  S246  1  0.61507572  0.75865279  0.04000198  1
  S2-  S247  1  0.63436645  0.78231327  0.53923422  1
  S2-  S248  1  0.86792904  0.00129943  0.04569781  1
  S2-  S249  1  0.87852672  0.03629344  0.54731455  1
  S2-  S250  1  0.86236931  0.26163630  0.04903923  1
  S2-  S251  1  0.88058010  0.28323666  0.54251991  1
  S2-  S252  1  0.86103270  0.50327914  0.04629055  1
  S2-  S253  1  0.88292578  0.53726138  0.52837979  1
  S2-  S254  1  0.86166186  0.75617917  0.04459934  1
  S2-  S255  1  0.88084841  0.78369258  0.53424367  1
