# generated using pymatgen
data_La6Ce7Pr13Nd19Sm19(BiS2)64
_symmetry_space_group_name_H-M   'P 1'
_cell_length_a   16.12560428
_cell_length_b   16.15505773
_cell_length_c   27.26907830
_cell_angle_alpha   90.12334514
_cell_angle_beta   89.90856070
_cell_angle_gamma   90.06795284
_symmetry_Int_Tables_number   1
_chemical_formula_structural   La6Ce7Pr13Nd19Sm19(BiS2)64
_chemical_formula_sum   'La6 Ce7 Pr13 Nd19 Sm19 Bi64 S128'
_cell_volume   7103.83897196
_cell_formula_units_Z   1
loop_
 _symmetry_equiv_pos_site_id
 _symmetry_equiv_pos_as_xyz
  1  'x, y, z'
loop_
 _atom_type_symbol
 _atom_type_oxidation_number
  La3+  3.0
  Ce3+  3.0
  Pr3+  3.0
  Nd3+  3.0
  Sm3+  3.0
  Bi2+  2.0
  S2-  -2.0
loop_
 _atom_site_type_symbol
 _atom_site_label
 _atom_site_symmetry_multiplicity
 _atom_site_fract_x
 _atom_site_fract_y
 _atom_site_fract_z
 _atom_site_occupancy
  La3+  La0  1  0.25719736  0.64133242  0.57872235  1
  La3+  La1  1  0.75930922  0.63858565  0.57840940  1
  La3+  La2  1  0.00578478  0.87802977  0.07223024  1
  La3+  La3  1  0.86751324  0.74805505  0.41521409  1
  La3+  La4  1  0.89223407  0.00367346  0.92897423  1
  La3+  La5  1  0.00721566  0.62908894  0.11046446  1
  Ce3+  Ce6  1  0.63631504  0.49768689  0.94228581  1
  Ce3+  Ce7  1  0.13316921  -0.00302478  0.93944930  1
  Ce3+  Ce8  1  0.13396219  0.74539667  0.95027026  1
  Ce3+  Ce9  1  0.24981182  0.12715342  0.55603589  1
  Ce3+  Ce10  1  0.00048823  0.87642828  0.53596829  1
  Ce3+  Ce11  1  0.00646725  0.63885967  0.55514225  1
  Ce3+  Ce12  1  0.26378033  0.12086626  0.05337716  1
  Pr3+  Pr13  1  0.76138627  0.88348705  0.56299729  1
  Pr3+  Pr14  1  0.50523788  0.37808971  0.56747691  1
  Pr3+  Pr15  1  0.76293785  0.87141328  0.05883536  1
  Pr3+  Pr16  1  0.75678246  0.37964531  0.55866469  1
  Pr3+  Pr17  1  0.13001479  0.25724438  0.43397111  1
  Pr3+  Pr18  1  0.14393763  0.74275886  0.41558472  1
  Pr3+  Pr19  1  0.86552264  0.01366292  0.41578819  1
  Pr3+  Pr20  1  0.38794907  0.24681221  0.93035067  1
  Pr3+  Pr21  1  0.50885332  0.12048805  0.06098746  1
  Pr3+  Pr22  1  0.38600824  0.49624164  0.93052994  1
  Pr3+  Pr23  1  0.26298371  0.62281249  0.06644485  1
  Pr3+  Pr24  1  0.38415462  0.75526825  0.43441283  1
  Pr3+  Pr25  1  0.26777022  0.37374236  0.06914989  1
  Nd3+  Nd26  1  0.12546051  0.00317368  0.43161776  1
  Nd3+  Nd27  1  0.50133216  0.63259504  0.56235131  1
  Nd3+  Nd28  1  0.64329256  -0.00263032  0.92797712  1
  Nd3+  Nd29  1  0.13466864  0.50000122  0.43979489  1
  Nd3+  Nd30  1  0.51238584  0.87272049  0.05444513  1
  Nd3+  Nd31  1  0.87774349  0.25810412  0.43566880  1
  Nd3+  Nd32  1  0.50834493  0.62028267  0.06395517  1
  Nd3+  Nd33  1  0.89006819  0.74461584  0.93844045  1
  Nd3+  Nd34  1  0.89054229  0.49665207  0.93392901  1
  Nd3+  Nd35  1  0.38426108  0.75041225  0.93635754  1
  Nd3+  Nd36  1  0.37891894  0.25583739  0.44749571  1
  Nd3+  Nd37  1  0.75395596  0.12167479  0.06625400  1
  Nd3+  Nd38  1  0.01588135  0.37780562  0.06249876  1
  Nd3+  Nd39  1  0.00832302  0.12323315  0.07086599  1
  Nd3+  Nd40  1  0.62989687  0.25421463  0.44593229  1
  Nd3+  Nd41  1  0.14275637  0.49858186  0.93308397  1
  Nd3+  Nd42  1  0.88918108  0.24844523  0.94630939  1
  Nd3+  Nd43  1  0.24923924  0.38206302  0.57072615  1
  Nd3+  Nd44  1  0.38999412  -0.00418468  0.93051208  1
  Sm3+  Sm45  1  0.63830462  0.74492168  0.94581903  1
  Sm3+  Sm46  1  0.13882388  0.24898472  0.95135616  1
  Sm3+  Sm47  1  0.37921549  0.00573340  0.43729447  1
  Sm3+  Sm48  1  0.50194414  0.88366172  0.55744441  1
  Sm3+  Sm49  1  0.00432985  0.38452674  0.55575528  1
  Sm3+  Sm50  1  0.62854342  0.50722510  0.45304431  1
  Sm3+  Sm51  1  0.63087733  0.00788532  0.44580358  1
  Sm3+  Sm52  1  0.63706376  0.24621851  0.94667998  1
  Sm3+  Sm53  1  0.51000933  0.37265803  0.06153971  1
  Sm3+  Sm54  1  0.87674417  0.50919706  0.44602611  1
  Sm3+  Sm55  1  0.76642726  0.12455944  0.57013699  1
  Sm3+  Sm56  1  0.76326430  0.37416595  0.05279404  1
  Sm3+  Sm57  1  0.63012122  0.75638757  0.44664437  1
  Sm3+  Sm58  1  0.00558616  0.12885692  0.55291533  1
  Sm3+  Sm59  1  0.50331213  0.12971347  0.55635823  1
  Sm3+  Sm60  1  0.76536186  0.61957869  0.05812514  1
  Sm3+  Sm61  1  0.38021791  0.50460554  0.44922192  1
  Sm3+  Sm62  1  0.25124476  0.87951527  0.55060772  1
  Sm3+  Sm63  1  0.26061389  0.87140711  0.06007517  1
  Bi2+  Bi64  1  0.02653301  0.17795169  0.29949485  1
  Bi2+  Bi65  1  -0.01572486  0.08960501  0.77625522  1
  Bi2+  Bi66  1  -0.00940515  0.37370553  0.29580304  1
  Bi2+  Bi67  1  -0.08208755  0.32400202  0.79153744  1
  Bi2+  Bi68  1  0.00397728  0.63075350  0.31733824  1
  Bi2+  Bi69  1  0.00132764  0.61356355  0.80843087  1
  Bi2+  Bi70  1  0.02355617  0.91171790  0.28518635  1
  Bi2+  Bi71  1  -0.04373384  0.89171774  0.77906723  1
  Bi2+  Bi72  1  0.29939999  0.12388501  0.25579547  1
  Bi2+  Bi73  1  0.22401973  0.13550660  0.80500050  1
  Bi2+  Bi74  1  0.27211227  0.35859985  0.29506455  1
  Bi2+  Bi75  1  0.23844797  0.39782838  0.80672168  1
  Bi2+  Bi76  1  0.29369343  0.60914906  0.29512809  1
  Bi2+  Bi77  1  0.25640719  0.66901094  0.79088699  1
  Bi2+  Bi78  1  0.32945834  0.91669671  0.25903016  1
  Bi2+  Bi79  1  0.21372465  0.93482251  0.78233027  1
  Bi2+  Bi80  1  0.48288237  0.15283751  0.29484922  1
  Bi2+  Bi81  1  0.41761731  0.11462887  0.82089287  1
  Bi2+  Bi82  1  0.52218580  0.43446248  0.28786897  1
  Bi2+  Bi83  1  0.47767762  0.28470483  0.78123274  1
  Bi2+  Bi84  1  0.48951381  0.65442426  0.29682709  1
  Bi2+  Bi85  1  0.48154357  0.62671606  0.76846791  1
  Bi2+  Bi86  1  0.49486737  0.84878650  0.30969719  1
  Bi2+  Bi87  1  0.45779622  0.91845059  0.76234876  1
  Bi2+  Bi88  1  0.72126264  0.15864718  0.30055159  1
  Bi2+  Bi89  1  0.73748889  0.12803339  0.78500147  1
  Bi2+  Bi90  1  0.79548701  0.36869747  0.29962380  1
  Bi2+  Bi91  1  0.72191647  0.34428175  0.79183947  1
  Bi2+  Bi92  1  0.72932386  0.57598357  0.28432002  1
  Bi2+  Bi93  1  0.75145962  0.63221128  0.80101583  1
  Bi2+  Bi94  1  0.68941653  0.86330741  0.28917314  1
  Bi2+  Bi95  1  0.70324077  0.89401065  0.78931705  1
  Bi2+  Bi96  1  0.12856739  0.06600660  0.20782495  1
  Bi2+  Bi97  1  0.09994730  0.00288890  0.69367108  1
  Bi2+  Bi98  1  0.06862796  0.24961403  0.19493957  1
  Bi2+  Bi99  1  0.08628868  0.25184358  0.75329777  1
  Bi2+  Bi100  1  0.12234605  0.48022682  0.21555311  1
  Bi2+  Bi101  1  0.11381300  0.46184535  0.70461839  1
  Bi2+  Bi102  1  0.15339985  0.74277308  0.21487132  1
  Bi2+  Bi103  1  0.10579830  0.77416421  0.74917820  1
  Bi2+  Bi104  1  0.43402934  0.01006985  0.17495579  1
  Bi2+  Bi105  1  0.29246976  -0.00944624  0.67772932  1
  Bi2+  Bi106  1  0.47826064  0.22923748  0.18869472  1
  Bi2+  Bi107  1  0.35198600  0.16790996  0.71755304  1
  Bi2+  Bi108  1  0.39514169  0.49836769  0.21109636  1
  Bi2+  Bi109  1  0.35557821  0.49875915  0.70059189  1
  Bi2+  Bi110  1  0.41183542  0.76317881  0.20198162  1
  Bi2+  Bi111  1  0.35699182  0.78308141  0.69765148  1
  Bi2+  Bi112  1  0.59082071  0.01176100  0.24284056  1
  Bi2+  Bi113  1  0.61393700  0.03805117  0.71572842  1
  Bi2+  Bi114  1  0.63143097  0.34386093  0.20844004  1
  Bi2+  Bi115  1  0.61359290  0.23214406  0.70110124  1
  Bi2+  Bi116  1  0.58831848  0.53292049  0.18194174  1
  Bi2+  Bi117  1  0.58000626  0.46182107  0.75406322  1
  Bi2+  Bi118  1  0.62831701  0.71282331  0.22106011  1
  Bi2+  Bi119  1  0.62260859  0.74623048  0.73978947  1
  Bi2+  Bi120  1  0.86440422  0.00965880  0.21406492  1
  Bi2+  Bi121  1  0.88805047  -0.02686166  0.68341151  1
  Bi2+  Bi122  1  0.87648458  0.26245186  0.21379146  1
  Bi2+  Bi123  1  0.81560681  0.23640510  0.69882284  1
  Bi2+  Bi124  1  0.85677577  0.49293325  0.21448116  1
  Bi2+  Bi125  1  0.88797207  0.47631062  0.69824700  1
  Bi2+  Bi126  1  0.87679569  0.75745744  0.21536549  1
  Bi2+  Bi127  1  0.88577662  0.72506014  0.69235373  1
  S2-  S128  1  0.00381650  0.01115305  0.14697987  1
  S2-  S129  1  -0.09215863  0.12762364  0.63324835  1
  S2-  S130  1  -0.00533762  0.46287648  0.14765608  1
  S2-  S131  1  0.00812011  0.36167796  0.65244503  1
  S2-  S132  1  0.01502192  0.63004696  0.22191368  1
  S2-  S133  1  -0.01080259  0.60239405  0.65189284  1
  S2-  S134  1  0.01801609  0.79319223  0.16041179  1
  S2-  S135  1  -0.02828662  0.83936630  0.63056920  1
  S2-  S136  1  0.27738267  0.10703896  0.14973504  1
  S2-  S137  1  0.18814450  0.13331563  0.64682191  1
  S2-  S138  1  0.19310666  0.36497369  0.16364372  1
  S2-  S139  1  0.25355414  0.37263869  0.67098836  1
  S2-  S140  1  0.17221286  0.60931188  0.15297115  1
  S2-  S141  1  0.20934748  0.57871223  0.67209763  1
  S2-  S142  1  0.25956353  0.84022962  0.15738534  1
  S2-  S143  1  0.22976532  0.79137694  0.63405409  1
  S2-  S144  1  0.59439168  0.10559673  0.14846444  1
  S2-  S145  1  0.49573940  0.12662054  0.65400448  1
  S2-  S146  1  0.40373414  0.36551730  0.13958736  1
  S2-  S147  1  0.48895292  0.41223856  0.66510369  1
  S2-  S148  1  0.39288297  0.62386886  0.13921872  1
  S2-  S149  1  0.40927661  0.64081966  0.64543406  1
  S2-  S150  1  0.52780627  0.86354269  0.15267597  1
  S2-  S151  1  0.48878050  0.87642607  0.65530528  1
  S2-  S152  1  0.81177081  0.13047403  0.15966314  1
  S2-  S153  1  0.73863992  0.00102440  0.64111641  1
  S2-  S154  1  0.77277183  0.38040920  0.15027573  1
  S2-  S155  1  0.76103489  0.38789919  0.65801888  1
  S2-  S156  1  0.83576612  0.63115031  0.14715652  1
  S2-  S157  1  0.77628005  0.58845569  0.68071304  1
  S2-  S158  1  0.80476007  0.88150334  0.15662651  1
  S2-  S159  1  0.75488175  0.77642198  0.64351151  1
  S2-  S160  1  0.11280124  0.03968443  0.33520942  1
  S2-  S161  1  0.02682567  -0.01342019  0.86083969  1
  S2-  S162  1  0.14902059  0.37168634  0.35835030  1
  S2-  S163  1  0.14832767  0.27116934  0.85418153  1
  S2-  S164  1  0.15192191  0.58856719  0.35538764  1
  S2-  S165  1  0.07875505  0.48248551  0.83678422  1
  S2-  S166  1  0.11267989  0.78549015  0.31618723  1
  S2-  S167  1  0.12412817  0.73544182  0.85141973  1
  S2-  S168  1  0.34952433  0.01594383  0.34085230  1
  S2-  S169  1  0.34854550  -0.08333232  0.84403774  1
  S2-  S170  1  0.35961406  0.25404886  0.34826003  1
  S2-  S171  1  0.38832278  0.36764611  0.85626790  1
  S2-  S172  1  0.36080202  0.47408060  0.35338235  1
  S2-  S173  1  0.27011632  0.53307035  0.85505468  1
  S2-  S174  1  0.29615224  0.74351697  0.34999997  1
  S2-  S175  1  0.39733997  0.71006239  0.84004370  1
  S2-  S176  1  0.69744569  0.02012265  0.35710603  1
  S2-  S177  1  0.56598369  -0.03616386  0.83842493  1
  S2-  S178  1  0.60749919  0.24715344  0.34732582  1
  S2-  S179  1  0.63778308  0.23096395  0.84895542  1
  S2-  S180  1  0.61519042  0.51910528  0.35506640  1
  S2-  S181  1  0.62806763  0.52306941  0.84630017  1
  S2-  S182  1  0.70967767  0.75381506  0.36016844  1
  S2-  S183  1  0.64876454  0.74997005  0.84769368  1
  S2-  S184  1  0.88468485  -0.02536395  0.31538751  1
  S2-  S185  1  0.77113035  0.00034478  0.85654898  1
  S2-  S186  1  0.86966918  0.16318082  0.35440440  1
  S2-  S187  1  0.90410113  0.18848125  0.85455376  1
  S2-  S188  1  0.85186235  0.58463421  0.36002444  1
  S2-  S189  1  0.86355849  0.52046832  0.83520726  1
  S2-  S190  1  0.91179203  0.77666689  0.31189055  1
  S2-  S191  1  0.87695484  0.73612251  0.83762741  1
  S2-  S192  1  0.00529376  0.13275864  0.44981438  1
  S2-  S193  1  0.01637138  0.12757040  0.96370074  1
  S2-  S194  1  -0.00063765  0.38333063  0.45096468  1
  S2-  S195  1  0.01421809  0.37208380  0.95481335  1
  S2-  S196  1  0.00555899  0.62762417  0.44934090  1
  S2-  S197  1  0.01248213  0.61828164  0.94708343  1
  S2-  S198  1  -0.00051753  0.88004385  0.43167186  1
  S2-  S199  1  0.00967930  0.86995592  0.96134743  1
  S2-  S200  1  0.25343837  0.12874114  0.44886931  1
  S2-  S201  1  0.26109173  0.12069756  0.94793266  1
  S2-  S202  1  0.25878764  0.37887489  0.46402866  1
  S2-  S203  1  0.26172085  0.37024381  0.95998096  1
  S2-  S204  1  0.26303616  0.62621954  0.46260388  1
  S2-  S205  1  0.26283008  0.62634355  0.95911711  1
  S2-  S206  1  0.25570376  0.88387666  0.44575617  1
  S2-  S207  1  0.25865988  0.87308986  0.95461124  1
  S2-  S208  1  0.50336724  0.12915250  0.45137536  1
  S2-  S209  1  0.51514269  0.12027458  0.95272768  1
  S2-  S210  1  0.50537081  0.38035321  0.45912708  1
  S2-  S211  1  0.51603768  0.37053445  0.95651993  1
  S2-  S212  1  0.50508908  0.63017860  0.45650137  1
  S2-  S213  1  0.51088473  0.62440581  0.95542529  1
  S2-  S214  1  0.50708331  0.88450432  0.45133084  1
  S2-  S215  1  0.51511491  0.86954079  0.94874054  1
  S2-  S216  1  0.75234256  0.13420134  0.46386825  1
  S2-  S217  1  0.76090331  0.12768564  0.95893009  1
  S2-  S218  1  0.75234194  0.38321645  0.45139234  1
  S2-  S219  1  0.76217155  0.37100927  0.94728052  1
  S2-  S220  1  0.74647926  0.62793196  0.46673484  1
  S2-  S221  1  0.76292066  0.62136441  0.95323358  1
  S2-  S222  1  0.75101377  0.88343457  0.45543827  1
  S2-  S223  1  0.76252143  0.86664960  0.95271893  1
  S2-  S224  1  0.13920058  -0.00248969  0.04690218  1
  S2-  S225  1  0.12613711  0.00209338  0.53884159  1
  S2-  S226  1  0.13674071  0.24557547  0.05433306  1
  S2-  S227  1  0.12531297  0.25790955  0.54204418  1
  S2-  S228  1  0.14085243  0.49462354  0.04316667  1
  S2-  S229  1  0.12921505  0.50639557  0.54795455  1
  S2-  S230  1  0.13468616  0.74851828  0.05365909  1
  S2-  S231  1  0.12963450  0.75723735  0.52797246  1
  S2-  S232  1  0.38587868  -0.00700504  0.03850630  1
  S2-  S233  1  0.37845805  0.00550493  0.54253744  1
  S2-  S234  1  0.38890014  0.24500323  0.03809209  1
  S2-  S235  1  0.37694587  0.25373916  0.55429926  1
  S2-  S236  1  0.39059192  0.49587695  0.03795715  1
  S2-  S237  1  0.37811979  0.50144497  0.55261396  1
  S2-  S238  1  0.38724202  0.75245868  0.04293470  1
  S2-  S239  1  0.38210994  0.76242992  0.53996165  1
  S2-  S240  1  0.63747553  -0.00472384  0.03928789  1
  S2-  S241  1  0.62408674  0.00769013  0.54717970  1
  S2-  S242  1  0.63540477  0.25253296  0.05117735  1
  S2-  S243  1  0.63206866  0.24989610  0.55277748  1
  S2-  S244  1  0.63719909  0.49608168  0.04799998  1
  S2-  S245  1  0.62898303  0.50800237  0.55859676  1
  S2-  S246  1  0.63788413  0.74271572  0.05131828  1
  S2-  S247  1  0.62251505  0.75914291  0.55018832  1
  S2-  S248  1  0.88105678  0.00363661  0.04182566  1
  S2-  S249  1  0.88251142  0.00701405  0.52989145  1
  S2-  S250  1  0.88667056  0.25018899  0.05256468  1
  S2-  S251  1  0.88322436  0.25840995  0.54105864  1
  S2-  S252  1  0.88438855  0.49623191  0.04084907  1
  S2-  S253  1  0.88038765  0.50766832  0.54942122  1
  S2-  S254  1  0.88730368  0.74364106  0.04551229  1
  S2-  S255  1  0.87792844  0.75232512  0.52955509  1
