# generated using pymatgen
data_La6Ce7Pr13Nd19Sm19(BiS2)64
_symmetry_space_group_name_H-M   'P 1'
_cell_length_a   16.06085454
_cell_length_b   16.06309240
_cell_length_c   27.48144239
_cell_angle_alpha   90.06452736
_cell_angle_beta   90.21581622
_cell_angle_gamma   90.08689110
_symmetry_Int_Tables_number   1
_chemical_formula_structural   La6Ce7Pr13Nd19Sm19(BiS2)64
_chemical_formula_sum   'La6 Ce7 Pr13 Nd19 Sm19 Bi64 S128'
_cell_volume   7089.79162743
_cell_formula_units_Z   1
loop_
 _symmetry_equiv_pos_site_id
 _symmetry_equiv_pos_as_xyz
  1  'x, y, z'
loop_
 _atom_type_symbol
 _atom_type_oxidation_number
  La3+  3.0
  Ce3+  3.0
  Pr3+  3.0
  Nd3+  3.0
  Sm3+  3.0
  Bi2+  2.0
  S2-  -2.0
loop_
 _atom_site_type_symbol
 _atom_site_label
 _atom_site_symmetry_multiplicity
 _atom_site_fract_x
 _atom_site_fract_y
 _atom_site_fract_z
 _atom_site_occupancy
  La3+  La0  1  0.10054530  0.26974688  0.90266972  1
  La3+  La1  1  0.61493142  -0.00317838  0.38279306  1
  La3+  La2  1  0.73996995  0.15185993  0.10775884  1
  La3+  La3  1  0.74709117  0.64673066  0.61908036  1
  La3+  La4  1  0.26039330  0.10522001  0.61497260  1
  La3+  La5  1  0.00813835  0.62013883  0.57108354  1
  Ce3+  Ce6  1  0.63275966  0.74852236  0.44218659  1
  Ce3+  Ce7  1  0.75827648  0.87331501  0.55637533  1
  Ce3+  Ce8  1  0.11085724  0.76585978  0.92925419  1
  Ce3+  Ce9  1  0.23982792  0.14606634  0.05979331  1
  Ce3+  Ce10  1  0.11158880  0.01995178  0.94648129  1
  Ce3+  Ce11  1  -0.01329167  0.14655577  0.06195084  1
  Ce3+  Ce12  1  0.61440633  0.02276467  0.94879911  1
  Pr3+  Pr13  1  0.36345826  0.77508715  0.91961898  1
  Pr3+  Pr14  1  0.87933681  -0.01013332  0.42629970  1
  Pr3+  Pr15  1  0.50860473  0.12371339  0.55788710  1
  Pr3+  Pr16  1  0.38263387  0.74574168  0.43913278  1
  Pr3+  Pr17  1  0.48400099  0.64535237  0.05130956  1
  Pr3+  Pr18  1  0.86364091  0.02351372  0.93598216  1
  Pr3+  Pr19  1  0.72930436  0.40481300  0.09234691  1
  Pr3+  Pr20  1  0.11114911  0.52199851  0.93133292  1
  Pr3+  Pr21  1  0.75896959  0.12090579  0.55995500  1
  Pr3+  Pr22  1  0.38068057  0.24267052  0.44097802  1
  Pr3+  Pr23  1  0.00956283  0.36912615  0.56306522  1
  Pr3+  Pr24  1  0.61351087  0.27036039  0.95020172  1
  Pr3+  Pr25  1  0.61228319  0.51306799  0.93690627  1
  Nd3+  Nd26  1  0.48252251  0.39412238  0.06768684  1
  Nd3+  Nd27  1  -0.01316888  0.64703718  0.05954065  1
  Nd3+  Nd28  1  0.36212608  0.02591802  0.93398769  1
  Nd3+  Nd29  1  0.25763242  0.36509485  0.56828272  1
  Nd3+  Nd30  1  0.88055130  0.49530401  0.44546596  1
  Nd3+  Nd31  1  0.85650058  0.76729400  0.92534022  1
  Nd3+  Nd32  1  0.12654033  -0.00329222  0.43678462  1
  Nd3+  Nd33  1  0.50730294  0.87221127  0.55732506  1
  Nd3+  Nd34  1  0.23570102  0.65345068  0.06079669  1
  Nd3+  Nd35  1  0.00688660  0.87220123  0.56060043  1
  Nd3+  Nd36  1  0.61041871  0.76997442  0.93397349  1
  Nd3+  Nd37  1  -0.01183584  0.39536590  0.05900893  1
  Nd3+  Nd38  1  0.12827883  0.49551965  0.43825416  1
  Nd3+  Nd39  1  0.48627123  0.89488760  0.05725582  1
  Nd3+  Nd40  1  0.75304335  0.37806350  0.56710345  1
  Nd3+  Nd41  1  0.00495329  0.11845275  0.56635817  1
  Nd3+  Nd42  1  0.36195765  0.26992542  0.93196284  1
  Nd3+  Nd43  1  0.63259495  0.49326923  0.43353339  1
  Nd3+  Nd44  1  0.74089769  0.89634336  0.06068737  1
  Sm3+  Sm45  1  0.86283980  0.51753026  0.94566287  1
  Sm3+  Sm46  1  0.35865218  0.51450546  0.93342267  1
  Sm3+  Sm47  1  0.50773203  0.37172698  0.55136768  1
  Sm3+  Sm48  1  0.37875158  0.49492527  0.44465363  1
  Sm3+  Sm49  1  0.25561057  0.62012052  0.56574491  1
  Sm3+  Sm50  1  -0.01589834  0.89502793  0.04912416  1
  Sm3+  Sm51  1  0.86089839  0.27103832  0.94980731  1
  Sm3+  Sm52  1  0.63705611  0.24592912  0.42847815  1
  Sm3+  Sm53  1  0.38176900  -0.00224887  0.44105438  1
  Sm3+  Sm54  1  0.48530855  0.14617474  0.06872398  1
  Sm3+  Sm55  1  0.23680656  0.89304552  0.05104185  1
  Sm3+  Sm56  1  0.88032541  0.74402245  0.44454957  1
  Sm3+  Sm57  1  0.73597055  0.64443446  0.05775940  1
  Sm3+  Sm58  1  0.13166514  0.74345914  0.44553073  1
  Sm3+  Sm59  1  0.88070395  0.24356967  0.44478930  1
  Sm3+  Sm60  1  0.50959171  0.62014835  0.55523339  1
  Sm3+  Sm61  1  0.24021024  0.39599071  0.05553573  1
  Sm3+  Sm62  1  0.25800865  0.87468416  0.55173249  1
  Sm3+  Sm63  1  0.13173523  0.24396927  0.44595102  1
  Bi2+  Bi64  1  0.01131342  0.11425712  0.28729982  1
  Bi2+  Bi65  1  -0.02773062  0.10798821  0.79342440  1
  Bi2+  Bi66  1  0.02389473  0.38376124  0.29974727  1
  Bi2+  Bi67  1  -0.06273866  0.35788843  0.78622116  1
  Bi2+  Bi68  1  0.00739957  0.63605810  0.29263397  1
  Bi2+  Bi69  1  -0.00011938  0.59237731  0.79499307  1
  Bi2+  Bi70  1  0.00864834  0.84999451  0.29450125  1
  Bi2+  Bi71  1  0.08552090  0.85806531  0.79516574  1
  Bi2+  Bi72  1  0.21013297  0.11732443  0.29836338  1
  Bi2+  Bi73  1  0.24474530  0.07388245  0.81465746  1
  Bi2+  Bi74  1  0.21126810  0.34372735  0.27080894  1
  Bi2+  Bi75  1  0.34065690  0.36661398  0.76107969  1
  Bi2+  Bi76  1  0.20202725  0.60908404  0.27922578  1
  Bi2+  Bi77  1  0.29880731  0.61150109  0.81866436  1
  Bi2+  Bi78  1  0.21952056  0.91656346  0.28608578  1
  Bi2+  Bi79  1  0.27410113  0.80721199  0.78971895  1
  Bi2+  Bi80  1  0.40546929  0.12430323  0.27867647  1
  Bi2+  Bi81  1  0.52722869  0.12015137  0.79641346  1
  Bi2+  Bi82  1  0.47361170  0.38399632  0.29379474  1
  Bi2+  Bi83  1  0.53212176  0.38810457  0.80710092  1
  Bi2+  Bi84  1  0.48262537  0.63129424  0.29448797  1
  Bi2+  Bi85  1  0.48424630  0.62928787  0.78689906  1
  Bi2+  Bi86  1  0.47645680  0.84846168  0.29236055  1
  Bi2+  Bi87  1  0.49608806  0.89719559  0.79149762  1
  Bi2+  Bi88  1  0.76918827  0.16080562  0.29482213  1
  Bi2+  Bi89  1  0.71577755  0.19026364  0.78301502  1
  Bi2+  Bi90  1  0.76483608  0.44078264  0.30859004  1
  Bi2+  Bi91  1  0.74277275  0.37813361  0.73309195  1
  Bi2+  Bi92  1  0.75717678  0.64167774  0.28309827  1
  Bi2+  Bi93  1  0.76935695  0.62452936  0.81548516  1
  Bi2+  Bi94  1  0.74926918  0.86499405  0.28937083  1
  Bi2+  Bi95  1  0.70687940  0.89943842  0.78344800  1
  Bi2+  Bi96  1  0.13632537  0.02947052  0.19965830  1
  Bi2+  Bi97  1  0.11378816  -0.03231875  0.70521346  1
  Bi2+  Bi98  1  0.16386408  0.22534477  0.18177410  1
  Bi2+  Bi99  1  0.12639771  0.25834345  0.71107369  1
  Bi2+  Bi100  1  0.09840541  0.49692252  0.20773942  1
  Bi2+  Bi101  1  0.17459002  0.48336792  0.76649373  1
  Bi2+  Bi102  1  0.12069221  0.81414644  0.20546433  1
  Bi2+  Bi103  1  0.13993383  0.72634766  0.71513299  1
  Bi2+  Bi104  1  0.33672485  -0.00664365  0.20293313  1
  Bi2+  Bi105  1  0.39240528  -0.02778193  0.70716667  1
  Bi2+  Bi106  1  0.36491657  0.26700398  0.20282732  1
  Bi2+  Bi107  1  0.47441319  0.24218327  0.71647793  1
  Bi2+  Bi108  1  0.33406041  0.48582677  0.22349287  1
  Bi2+  Bi109  1  0.29841785  0.50024454  0.67494563  1
  Bi2+  Bi110  1  0.36768944  0.73109972  0.18759201  1
  Bi2+  Bi111  1  0.33697035  0.68980715  0.70196616  1
  Bi2+  Bi112  1  0.60797562  -0.02731358  0.18221555  1
  Bi2+  Bi113  1  0.65340648  0.03891593  0.70952682  1
  Bi2+  Bi114  1  0.60991005  0.28357739  0.21299911  1
  Bi2+  Bi115  1  0.68036420  0.22364681  0.66699101  1
  Bi2+  Bi116  1  0.60774726  0.50533431  0.24288998  1
  Bi2+  Bi117  1  0.49136074  0.49602012  0.70224974  1
  Bi2+  Bi118  1  0.60780098  0.71210818  0.22000207  1
  Bi2+  Bi119  1  0.58076224  0.75725339  0.71610458  1
  Bi2+  Bi120  1  0.87435454  -0.02851338  0.19620735  1
  Bi2+  Bi121  1  0.85074712  0.00738892  0.72787292  1
  Bi2+  Bi122  1  0.97415542  0.25265381  0.21419687  1
  Bi2+  Bi123  1  0.87417583  0.22857822  0.70335106  1
  Bi2+  Bi124  1  0.84710908  0.49785049  0.21102655  1
  Bi2+  Bi125  1  0.92108753  0.48583317  0.70461657  1
  Bi2+  Bi126  1  0.89872159  0.68850442  0.20356147  1
  Bi2+  Bi127  1  0.88204008  0.77064911  0.71568802  1
  S2-  S128  1  -0.08478408  0.12325624  0.14877777  1
  S2-  S129  1  0.09352920  0.11627460  0.65380359  1
  S2-  S130  1  -0.02529067  0.40335151  0.15779521  1
  S2-  S131  1  0.04747053  0.38258431  0.66133021  1
  S2-  S132  1  0.04270079  0.63769774  0.15276425  1
  S2-  S133  1  -0.08379018  0.64129466  0.65749827  1
  S2-  S134  1  -0.01344770  0.87270851  0.14499969  1
  S2-  S135  1  0.00402294  0.86315325  0.66015776  1
  S2-  S136  1  0.35326336  0.13101021  0.13511892  1
  S2-  S137  1  0.26844180  0.08755144  0.72290079  1
  S2-  S138  1  0.34971434  0.39509771  0.13414037  1
  S2-  S139  1  0.25260554  0.27261097  0.65326356  1
  S2-  S140  1  0.28474362  0.60237386  0.15227889  1
  S2-  S141  1  0.14105162  0.61656970  0.64084844  1
  S2-  S142  1  0.23696688  0.79829783  0.13233642  1
  S2-  S143  1  0.25579738  0.92736355  0.64430587  1
  S2-  S144  1  0.57296796  0.13960046  0.15509802  1
  S2-  S145  1  0.43262580  0.10809800  0.64813190  1
  S2-  S146  1  0.57626546  0.40781738  0.15317190  1
  S2-  S147  1  0.53255798  0.35642010  0.64771330  1
  S2-  S148  1  0.49973083  0.64731637  0.15120534  1
  S2-  S149  1  0.57449090  0.62396282  0.64519850  1
  S2-  S150  1  0.45712540  0.88497032  0.15555114  1
  S2-  S151  1  0.49902879  0.86023886  0.65636024  1
  S2-  S152  1  0.74589141  0.07250161  0.20159873  1
  S2-  S153  1  0.87534870  0.09110312  0.63736823  1
  S2-  S154  1  0.75429610  0.29354273  0.16969345  1
  S2-  S155  1  0.75813862  0.47386004  0.65052557  1
  S2-  S156  1  0.74439472  0.56042725  0.14244102  1
  S2-  S157  1  0.74116229  0.66614715  0.72645817  1
  S2-  S158  1  0.74612188  0.86870245  0.15866388  1
  S2-  S159  1  0.76824818  0.82146614  0.64918302  1
  S2-  S160  1  0.01648834  -0.00797523  0.35832775  1
  S2-  S161  1  0.08904089  0.01302623  0.84939158  1
  S2-  S162  1  0.09167148  0.23992794  0.35039228  1
  S2-  S163  1  0.16674052  0.21772891  0.81249884  1
  S2-  S164  1  0.16978644  0.47495098  0.34376355  1
  S2-  S165  1  0.10407299  0.41954197  0.84805336  1
  S2-  S166  1  0.12833741  0.72637704  0.34896747  1
  S2-  S167  1  0.11455536  0.64881220  0.85710908  1
  S2-  S168  1  0.44075384  -0.00798141  0.34959966  1
  S2-  S169  1  0.35147485  -0.07750651  0.85284247  1
  S2-  S170  1  0.38640839  0.26260295  0.34172347  1
  S2-  S171  1  0.38411815  0.14805960  0.85962961  1
  S2-  S172  1  0.39960226  0.50842089  0.34865850  1
  S2-  S173  1  0.37362925  0.39477661  0.85952487  1
  S2-  S174  1  0.37359800  0.75210488  0.33898291  1
  S2-  S175  1  0.50059588  0.76245775  0.85453928  1
  S2-  S176  1  0.61007101  -0.03053860  0.27550124  1
  S2-  S177  1  0.61499193  -0.00136512  0.85253427  1
  S2-  S178  1  0.62748478  0.16129125  0.34295030  1
  S2-  S179  1  0.65139546  0.30926782  0.85373414  1
  S2-  S180  1  0.63303646  0.37874065  0.35820107  1
  S2-  S181  1  0.61874056  0.53730623  0.83785155  1
  S2-  S182  1  0.62334576  0.81733678  0.35309125  1
  S2-  S183  1  0.72135492  0.77414656  0.85658543  1
  S2-  S184  1  0.78138599  0.00586024  0.34267174  1
  S2-  S185  1  0.86232158  0.00399733  0.83587038  1
  S2-  S186  1  0.84697094  0.26421714  0.34907335  1
  S2-  S187  1  0.93288778  0.24577909  0.85928976  1
  S2-  S188  1  0.93194059  0.50210423  0.35007199  1
  S2-  S189  1  0.86908789  0.49031342  0.84866937  1
  S2-  S190  1  0.87800410  0.81059246  0.35321991  1
  S2-  S191  1  0.91344374  0.72936867  0.82990348  1
  S2-  S192  1  0.00566727  0.12395761  0.45846322  1
  S2-  S193  1  -0.00995096  0.14770603  0.95803779  1
  S2-  S194  1  0.00701500  0.36828663  0.45605859  1
  S2-  S195  1  -0.01305384  0.39305685  0.95523783  1
  S2-  S196  1  0.00753067  0.62236724  0.45904097  1
  S2-  S197  1  -0.01940015  0.64506011  0.95388024  1
  S2-  S198  1  0.00909743  0.86373253  0.45636008  1
  S2-  S199  1  -0.01655692  0.89038548  0.94518565  1
  S2-  S200  1  0.25381858  0.11814897  0.44186566  1
  S2-  S201  1  0.22821336  0.15096221  0.95239159  1
  S2-  S202  1  0.25531705  0.37046361  0.45637572  1
  S2-  S203  1  0.23024599  0.39030496  0.95306425  1
  S2-  S204  1  0.25639832  0.61978149  0.45706928  1
  S2-  S205  1  0.24307800  0.64476799  0.95349107  1
  S2-  S206  1  0.25507680  0.87202485  0.44704609  1
  S2-  S207  1  0.23258696  0.89245758  0.94905841  1
  S2-  S208  1  0.50934718  0.11900744  0.45116106  1
  S2-  S209  1  0.49016951  0.14492742  0.96366872  1
  S2-  S210  1  0.50236585  0.37157669  0.45035725  1
  S2-  S211  1  0.48637752  0.39439570  0.96160699  1
  S2-  S212  1  0.50679776  0.61818301  0.45068493  1
  S2-  S213  1  0.48403826  0.63744812  0.94726365  1
  S2-  S214  1  0.50569336  0.87396982  0.45342111  1
  S2-  S215  1  0.48872984  0.89857953  0.95346484  1
  S2-  S216  1  0.75749384  0.12354953  0.45435257  1
  S2-  S217  1  0.74027149  0.14780647  0.94602521  1
  S2-  S218  1  0.75927796  0.37043077  0.45997669  1
  S2-  S219  1  0.74173714  0.39546702  0.96047954  1
  S2-  S220  1  0.75670076  0.62022775  0.43936592  1
  S2-  S221  1  0.73669457  0.64027169  0.95508635  1
  S2-  S222  1  0.75622974  0.86940644  0.45383683  1
  S2-  S223  1  0.73957638  0.89625874  0.95545167  1
  S2-  S224  1  0.11201673  0.01671895  0.05174632  1
  S2-  S225  1  0.13256106  -0.00460773  0.54207094  1
  S2-  S226  1  0.11440710  0.27268141  0.05483196  1
  S2-  S227  1  0.13347645  0.24221955  0.54775704  1
  S2-  S228  1  0.11501667  0.52022912  0.04330462  1
  S2-  S229  1  0.13700084  0.49183595  0.54393677  1
  S2-  S230  1  0.10779608  0.77207489  0.03536957  1
  S2-  S231  1  0.13646259  0.75042006  0.54838697  1
  S2-  S232  1  0.36072429  0.01481450  0.03899203  1
  S2-  S233  1  0.38029285  -0.00237257  0.54328444  1
  S2-  S234  1  0.36095711  0.26867426  0.03766911  1
  S2-  S235  1  0.38308091  0.24842698  0.54597151  1
  S2-  S236  1  0.35868587  0.52193046  0.03619938  1
  S2-  S237  1  0.38260890  0.49643887  0.54812142  1
  S2-  S238  1  0.36316749  0.77273978  0.03259327  1
  S2-  S239  1  0.38013188  0.74420338  0.54687895  1
  S2-  S240  1  0.61531775  0.02161703  0.05348538  1
  S2-  S241  1  0.63184150  -0.00368566  0.55914687  1
  S2-  S242  1  0.61456258  0.26933427  0.05509973  1
  S2-  S243  1  0.63244539  0.24977297  0.53671494  1
  S2-  S244  1  0.61120764  0.52083471  0.04368962  1
  S2-  S245  1  0.62834902  0.49590305  0.53879525  1
  S2-  S246  1  0.61423140  0.76985097  0.04421671  1
  S2-  S247  1  0.63271414  0.74539176  0.54667744  1
  S2-  S248  1  0.86134280  0.02122248  0.04314567  1
  S2-  S249  1  0.88395683  -0.00803836  0.53516091  1
  S2-  S250  1  0.85912736  0.27235203  0.05268744  1
  S2-  S251  1  0.88026795  0.25114281  0.54909038  1
  S2-  S252  1  0.86357430  0.52068445  0.04836763  1
  S2-  S253  1  0.88485280  0.49400371  0.54882584  1
  S2-  S254  1  0.86043144  0.76764755  0.04164511  1
  S2-  S255  1  0.88066884  0.74491572  0.54687932  1
