# generated using pymatgen
data_La6Ce7Pr13Nd19Sm19(BiS2)64
_symmetry_space_group_name_H-M   'P 1'
_cell_length_a   16.08676828
_cell_length_b   16.10036389
_cell_length_c   27.32454848
_cell_angle_alpha   90.11480804
_cell_angle_beta   90.22898948
_cell_angle_gamma   89.84610028
_symmetry_Int_Tables_number   1
_chemical_formula_structural   La6Ce7Pr13Nd19Sm19(BiS2)64
_chemical_formula_sum   'La6 Ce7 Pr13 Nd19 Sm19 Bi64 S128'
_cell_volume   7077.03908973
_cell_formula_units_Z   1
loop_
 _symmetry_equiv_pos_site_id
 _symmetry_equiv_pos_as_xyz
  1  'x, y, z'
loop_
 _atom_type_symbol
 _atom_type_oxidation_number
  La3+  3.0
  Ce3+  3.0
  Pr3+  3.0
  Nd3+  3.0
  Sm3+  3.0
  Bi2+  2.0
  S2-  -2.0
loop_
 _atom_site_type_symbol
 _atom_site_label
 _atom_site_symmetry_multiplicity
 _atom_site_fract_x
 _atom_site_fract_y
 _atom_site_fract_z
 _atom_site_occupancy
  La3+  La0  1  0.25318802  0.39229622  0.07454824  1
  La3+  La1  1  0.01239249  0.61541477  0.61301316  1
  La3+  La2  1  0.11353172  0.01892310  0.92052966  1
  La3+  La3  1  0.61251427  0.74968754  0.42702704  1
  La3+  La4  1  0.86855979  0.48838801  0.89930035  1
  La3+  La5  1  -0.00535153  0.11979274  0.11254003  1
  Ce3+  Ce6  1  0.62750709  0.49251305  0.43904413  1
  Ce3+  Ce7  1  0.11627761  0.24909176  0.43609248  1
  Ce3+  Ce8  1  0.25108176  0.87098227  0.56473560  1
  Ce3+  Ce9  1  0.24063053  0.37708643  0.55920242  1
  Ce3+  Ce10  1  0.11852614  0.74826001  0.44495573  1
  Ce3+  Ce11  1  0.36692875  0.50762138  0.93212515  1
  Ce3+  Ce12  1  0.23959705  0.13254908  0.06054900  1
  Pr3+  Pr13  1  0.74977349  0.13466619  0.06606483  1
  Pr3+  Pr14  1  0.74613822  0.87090238  0.56254123  1
  Pr3+  Pr15  1  0.49689659  0.38948902  0.07074561  1
  Pr3+  Pr16  1  0.36973861  0.00759828  0.93564457  1
  Pr3+  Pr17  1  0.24482024  0.88535480  0.05877224  1
  Pr3+  Pr18  1  0.86384783  0.74986108  0.43286611  1
  Pr3+  Pr19  1  0.24927090  0.64021240  0.06135913  1
  Pr3+  Pr20  1  -0.00421733  0.63037055  0.05683691  1
  Pr3+  Pr21  1  0.62125577  0.26384163  0.94931818  1
  Pr3+  Pr22  1  0.74871586  0.37303379  0.56843331  1
  Pr3+  Pr23  1  0.86467639  0.75472634  0.92308916  1
  Pr3+  Pr24  1  0.86791446  0.01284553  0.93040639  1
  Pr3+  Pr25  1  0.84956392  0.25576192  0.40005314  1
  Nd3+  Nd26  1  0.12658634  -0.00311180  0.43359003  1
  Nd3+  Nd27  1  0.75019694  0.38711518  0.06918237  1
  Nd3+  Nd28  1  0.37133669  0.48572581  0.42713500  1
  Nd3+  Nd29  1  0.11774584  0.26183242  0.94384946  1
  Nd3+  Nd30  1  0.49807209  0.13108797  0.05723405  1
  Nd3+  Nd31  1  0.49512658  0.37589415  0.56333161  1
  Nd3+  Nd32  1  -0.00537317  0.37321879  0.55575154  1
  Nd3+  Nd33  1  0.36971918  0.75961003  0.93308990  1
  Nd3+  Nd34  1  0.24716883  0.62468221  0.55454710  1
  Nd3+  Nd35  1  0.35956358  0.74397036  0.42220623  1
  Nd3+  Nd36  1  0.11704688  0.75964575  0.93231486  1
  Nd3+  Nd37  1  -0.00570496  0.87565249  0.57627754  1
  Nd3+  Nd38  1  0.87422571  -0.00446795  0.43040297  1
  Nd3+  Nd39  1  0.61949603  0.50597170  0.93621715  1
  Nd3+  Nd40  1  0.75076209  0.62623876  0.56538206  1
  Nd3+  Nd41  1  0.36897847  0.00028587  0.43341663  1
  Nd3+  Nd42  1  0.00514550  0.38502166  0.07672020  1
  Nd3+  Nd43  1  0.75326593  0.88269532  0.05970071  1
  Nd3+  Nd44  1  0.12380534  0.50672901  0.93518294  1
  Sm3+  Sm45  1  -0.00415261  0.11802617  0.55464013  1
  Sm3+  Sm46  1  0.37045646  0.25022554  0.44647147  1
  Sm3+  Sm47  1  0.24406941  0.12284060  0.55814726  1
  Sm3+  Sm48  1  -0.00365488  0.88844210  0.04985545  1
  Sm3+  Sm49  1  0.75163719  0.63172746  0.05121728  1
  Sm3+  Sm50  1  0.62252898  0.24755640  0.44885987  1
  Sm3+  Sm51  1  0.49883134  0.63700514  0.05191130  1
  Sm3+  Sm52  1  0.49351679  0.12426130  0.55504720  1
  Sm3+  Sm53  1  0.11528767  0.49646359  0.43971131  1
  Sm3+  Sm54  1  0.37115782  0.25903125  0.95006787  1
  Sm3+  Sm55  1  0.74828859  0.12234740  0.55823412  1
  Sm3+  Sm56  1  0.87086043  0.50047178  0.44683528  1
  Sm3+  Sm57  1  0.49448562  0.62273233  0.54913922  1
  Sm3+  Sm58  1  0.62582809  0.75575194  0.93753299  1
  Sm3+  Sm59  1  0.62162085  0.00096813  0.44846011  1
  Sm3+  Sm60  1  0.50043830  0.88393390  0.04812704  1
  Sm3+  Sm61  1  0.87228580  0.26312666  0.95403951  1
  Sm3+  Sm62  1  0.49285071  0.87240184  0.55792012  1
  Sm3+  Sm63  1  0.62733757  0.01130919  0.93875464  1
  Bi2+  Bi64  1  0.02409710  0.12825539  0.32009233  1
  Bi2+  Bi65  1  0.00211901  0.14317080  0.79401376  1
  Bi2+  Bi66  1  -0.03304707  0.45220961  0.28945970  1
  Bi2+  Bi67  1  0.03442489  0.34464906  0.77619852  1
  Bi2+  Bi68  1  -0.05173542  0.65292770  0.29235578  1
  Bi2+  Bi69  1  0.02992977  0.62288772  0.81553608  1
  Bi2+  Bi70  1  -0.00865406  0.84837391  0.28170453  1
  Bi2+  Bi71  1  0.04205719  0.87648226  0.79212628  1
  Bi2+  Bi72  1  0.27572924  0.09030120  0.25975860  1
  Bi2+  Bi73  1  0.26115401  0.19684013  0.78118715  1
  Bi2+  Bi74  1  0.24712656  0.39023477  0.30881719  1
  Bi2+  Bi75  1  0.26923874  0.39113281  0.78841120  1
  Bi2+  Bi76  1  0.29576578  0.67782224  0.28062102  1
  Bi2+  Bi77  1  0.31494322  0.64399237  0.79384665  1
  Bi2+  Bi78  1  0.26485881  0.87837809  0.29197251  1
  Bi2+  Bi79  1  0.30823127  0.93221779  0.77712167  1
  Bi2+  Bi80  1  0.45010982  0.10226340  0.30845993  1
  Bi2+  Bi81  1  0.53926063  0.07969317  0.79108335  1
  Bi2+  Bi82  1  0.50202658  0.36143765  0.28422799  1
  Bi2+  Bi83  1  0.49626752  0.37153612  0.80578627  1
  Bi2+  Bi84  1  0.55483762  0.58925556  0.25016219  1
  Bi2+  Bi85  1  0.48821956  0.56483366  0.82514923  1
  Bi2+  Bi86  1  0.47218844  0.90082509  0.30450779  1
  Bi2+  Bi87  1  0.53315009  0.83298373  0.78643354  1
  Bi2+  Bi88  1  0.70838972  0.10634615  0.29361109  1
  Bi2+  Bi89  1  0.79352229  0.14109833  0.79103122  1
  Bi2+  Bi90  1  0.70558963  0.39667729  0.29656720  1
  Bi2+  Bi91  1  0.73610316  0.34652044  0.79511185  1
  Bi2+  Bi92  1  0.74560534  0.63954450  0.26037678  1
  Bi2+  Bi93  1  0.65775640  0.62150579  0.77810412  1
  Bi2+  Bi94  1  0.73594887  0.85206878  0.29695195  1
  Bi2+  Bi95  1  0.72979323  0.87919540  0.79115741  1
  Bi2+  Bi96  1  0.16518632  -0.10734554  0.18946794  1
  Bi2+  Bi97  1  0.13007353  0.01822708  0.70994681  1
  Bi2+  Bi98  1  0.12281621  0.24823611  0.21677072  1
  Bi2+  Bi99  1  0.12342359  0.22630713  0.69608183  1
  Bi2+  Bi100  1  0.12993380  0.51494580  0.21112884  1
  Bi2+  Bi101  1  0.14914239  0.46814398  0.70525167  1
  Bi2+  Bi102  1  0.09743486  0.70888009  0.22135349  1
  Bi2+  Bi103  1  0.15520441  0.74665840  0.71036049  1
  Bi2+  Bi104  1  0.35615583  -0.04974536  0.18958918  1
  Bi2+  Bi105  1  0.44322913  -0.02113084  0.70138180  1
  Bi2+  Bi106  1  0.39410817  0.23094558  0.22052933  1
  Bi2+  Bi107  1  0.44145529  0.23525072  0.72806865  1
  Bi2+  Bi108  1  0.38680352  0.50199515  0.20818936  1
  Bi2+  Bi109  1  0.39758362  0.50665665  0.71734270  1
  Bi2+  Bi110  1  0.39924666  0.75179665  0.19520904  1
  Bi2+  Bi111  1  0.42080395  0.73417939  0.70915119  1
  Bi2+  Bi112  1  0.57005490  0.02065534  0.22681529  1
  Bi2+  Bi113  1  0.63813159  -0.03337716  0.70226724  1
  Bi2+  Bi114  1  0.61431401  0.23380039  0.21836031  1
  Bi2+  Bi115  1  0.64294462  0.18037377  0.71591315  1
  Bi2+  Bi116  1  0.60791766  0.42330037  0.18744308  1
  Bi2+  Bi117  1  0.60505351  0.47642649  0.71105771  1
  Bi2+  Bi118  1  0.58934223  0.79153758  0.23073094  1
  Bi2+  Bi119  1  0.64296422  0.76249925  0.69635584  1
  Bi2+  Bi120  1  0.87199493  -0.02589302  0.21008315  1
  Bi2+  Bi121  1  0.87955168  0.02377910  0.71076058  1
  Bi2+  Bi122  1  0.86850653  0.24076406  0.22328971  1
  Bi2+  Bi123  1  0.90531170  0.24058707  0.71107527  1
  Bi2+  Bi124  1  0.86350506  0.51330016  0.20079974  1
  Bi2+  Bi125  1  0.87520975  0.49977808  0.71873954  1
  Bi2+  Bi126  1  0.88483475  0.75332436  0.19263501  1
  Bi2+  Bi127  1  0.85720004  0.77057898  0.71196102  1
  S2-  S128  1  -0.00631189  0.11211462  0.22601755  1
  S2-  S129  1  0.00218054  0.02380061  0.63907134  1
  S2-  S130  1  -0.01915811  0.27982540  0.15903501  1
  S2-  S131  1  -0.00181076  0.44298328  0.64741919  1
  S2-  S132  1  0.00285350  0.52805854  0.14171672  1
  S2-  S133  1  0.03329610  0.60642770  0.72136788  1
  S2-  S134  1  0.00499308  0.94614223  0.14321262  1
  S2-  S135  1  0.00569344  0.77443023  0.65949630  1
  S2-  S136  1  0.16330913  0.13297438  0.14807995  1
  S2-  S137  1  0.23796267  0.10695089  0.65628724  1
  S2-  S138  1  0.15218827  0.36799817  0.15695047  1
  S2-  S139  1  0.23353148  0.35254730  0.65511665  1
  S2-  S140  1  0.25556810  0.54376954  0.14632468  1
  S2-  S141  1  0.19578382  0.61637864  0.64934620  1
  S2-  S142  1  0.25258702  0.76828542  0.13465609  1
  S2-  S143  1  0.18146059  0.87794313  0.65670295  1
  S2-  S144  1  0.50705805  0.13815669  0.15572920  1
  S2-  S145  1  0.47690625  0.13293318  0.65116224  1
  S2-  S146  1  0.38487140  0.37263663  0.14894160  1
  S2-  S147  1  0.48143898  0.37583964  0.66150047  1
  S2-  S148  1  0.48847066  0.61485061  0.14878273  1
  S2-  S149  1  0.46944337  0.61261817  0.64624113  1
  S2-  S150  1  0.51174457  0.86737841  0.14464642  1
  S2-  S151  1  0.38701033  0.85452234  0.63331662  1
  S2-  S152  1  0.82415774  0.11423233  0.15552301  1
  S2-  S153  1  0.77834101  0.14216967  0.65464427  1
  S2-  S154  1  0.78022262  0.36269486  0.16767896  1
  S2-  S155  1  0.74527676  0.41306456  0.66682691  1
  S2-  S156  1  0.76870425  0.63914617  0.14949027  1
  S2-  S157  1  0.84125479  0.62747796  0.65187817  1
  S2-  S158  1  0.77095382  0.87863432  0.15924070  1
  S2-  S159  1  0.84055673  0.88882570  0.64713066  1
  S2-  S160  1  0.05158589  -0.02552540  0.34287794  1
  S2-  S161  1  0.18389796  -0.03846378  0.83233645  1
  S2-  S162  1  0.15908006  0.24527335  0.33985207  1
  S2-  S163  1  0.13793202  0.17632049  0.85539329  1
  S2-  S164  1  0.12013986  0.48323017  0.34117984  1
  S2-  S165  1  0.03257947  0.45776149  0.85280851  1
  S2-  S166  1  0.21116471  0.74996647  0.36110407  1
  S2-  S167  1  0.15092272  0.74477804  0.83399168  1
  S2-  S168  1  0.25516101  0.00848875  0.35810648  1
  S2-  S169  1  0.39429714  0.04272948  0.83840921  1
  S2-  S170  1  0.37950199  0.33327990  0.36122374  1
  S2-  S171  1  0.36330459  0.27806203  0.85323877  1
  S2-  S172  1  0.33535780  0.53625355  0.33289906  1
  S2-  S173  1  0.24793345  0.51460512  0.85877334  1
  S2-  S174  1  0.48482135  0.75500228  0.35276537  1
  S2-  S175  1  0.37529336  0.79690062  0.83648985  1
  S2-  S176  1  0.64691990  -0.02215472  0.35242557  1
  S2-  S177  1  0.73369809  0.01707211  0.86090873  1
  S2-  S178  1  0.68565555  0.25183091  0.35752004  1
  S2-  S179  1  0.61265845  0.26654472  0.84935476  1
  S2-  S180  1  0.58087833  0.49610577  0.34390622  1
  S2-  S181  1  0.70348254  0.48824830  0.84979688  1
  S2-  S182  1  0.73536107  0.71464099  0.35624710  1
  S2-  S183  1  0.71941942  0.74818163  0.85540653  1
  S2-  S184  1  0.85497339  0.09994942  0.34859223  1
  S2-  S185  1  0.97535355  -0.00676672  0.84861163  1
  S2-  S186  1  0.94004119  0.29022676  0.31532823  1
  S2-  S187  1  0.85355713  0.32101134  0.86098480  1
  S2-  S188  1  0.81713109  0.45918563  0.35658577  1
  S2-  S189  1  0.87018317  0.56960733  0.80493128  1
  S2-  S190  1  0.86902023  0.87190378  0.35741915  1
  S2-  S191  1  0.93623992  0.76998199  0.82940250  1
  S2-  S192  1  -0.00521651  0.12458252  0.45129809  1
  S2-  S193  1  -0.01121972  0.14072282  0.94836488  1
  S2-  S194  1  -0.01145397  0.37146632  0.44862325  1
  S2-  S195  1  -0.00503515  0.38410139  0.96425593  1
  S2-  S196  1  -0.00711944  0.62186197  0.43936625  1
  S2-  S197  1  -0.00749149  0.63051463  0.94681501  1
  S2-  S198  1  -0.00019076  0.87332913  0.45932291  1
  S2-  S199  1  -0.00942681  0.88074467  0.94788327  1
  S2-  S200  1  0.24759979  0.13083107  0.45484270  1
  S2-  S201  1  0.24999853  0.13432203  0.95516306  1
  S2-  S202  1  0.24073952  0.37216211  0.45495144  1
  S2-  S203  1  0.24803108  0.37998947  0.96016292  1
  S2-  S204  1  0.24382189  0.61213401  0.45041366  1
  S2-  S205  1  0.24653453  0.64042348  0.95436901  1
  S2-  S206  1  0.24939318  0.87344442  0.45815112  1
  S2-  S207  1  0.24427009  0.88331244  0.95078011  1
  S2-  S208  1  0.49606194  0.12655767  0.45074440  1
  S2-  S209  1  0.49884174  0.13297301  0.95158509  1
  S2-  S210  1  0.50076723  0.36992294  0.45820598  1
  S2-  S211  1  0.49308330  0.38530186  0.96047130  1
  S2-  S212  1  0.49344799  0.61319946  0.44739931  1
  S2-  S213  1  0.49786973  0.63719276  0.94781644  1
  S2-  S214  1  0.49369336  0.88051826  0.45534762  1
  S2-  S215  1  0.50428693  0.88472127  0.94347878  1
  S2-  S216  1  0.74570026  0.12414358  0.45622689  1
  S2-  S217  1  0.74517292  0.14011427  0.96022159  1
  S2-  S218  1  0.74921244  0.36745830  0.46223151  1
  S2-  S219  1  0.74514787  0.38729335  0.96322575  1
  S2-  S220  1  0.74300570  0.62019870  0.46019039  1
  S2-  S221  1  0.74872989  0.62443717  0.94936277  1
  S2-  S222  1  0.73707636  0.87447249  0.45785161  1
  S2-  S223  1  0.74487448  0.88198089  0.95528242  1
  S2-  S224  1  0.11937206  0.00835966  0.03766430  1
  S2-  S225  1  0.12556570  -0.00106941  0.54121865  1
  S2-  S226  1  0.12249892  0.25945939  0.04734401  1
  S2-  S227  1  0.11793989  0.24536718  0.54499890  1
  S2-  S228  1  0.12632873  0.51243235  0.04106231  1
  S2-  S229  1  0.11572422  0.50310257  0.54403044  1
  S2-  S230  1  0.11497701  0.76076560  0.04001144  1
  S2-  S231  1  0.11936362  0.74654726  0.54831545  1
  S2-  S232  1  0.37410972  0.00696929  0.04378065  1
  S2-  S233  1  0.37138393  0.00357246  0.54110837  1
  S2-  S234  1  0.37291775  0.25284049  0.05228314  1
  S2-  S235  1  0.36870709  0.24954523  0.55062097  1
  S2-  S236  1  0.37795657  0.51514633  0.03972100  1
  S2-  S237  1  0.37026235  0.49670206  0.54235087  1
  S2-  S238  1  0.37973971  0.76311282  0.03817420  1
  S2-  S239  1  0.37334905  0.74344240  0.53095242  1
  S2-  S240  1  0.62519180  0.00709780  0.04534691  1
  S2-  S241  1  0.61761884  -0.00025980  0.55333781  1
  S2-  S242  1  0.62102635  0.26044581  0.05641058  1
  S2-  S243  1  0.62082215  0.24657572  0.55419628  1
  S2-  S244  1  0.62302823  0.51275658  0.04570948  1
  S2-  S245  1  0.62197823  0.49975573  0.54950714  1
  S2-  S246  1  0.62595998  0.75800455  0.04282880  1
  S2-  S247  1  0.61643432  0.74743987  0.54401683  1
  S2-  S248  1  0.87184650  0.00962248  0.04156223  1
  S2-  S249  1  0.86791125  0.00040315  0.53900420  1
  S2-  S250  1  0.87268015  0.25991962  0.05525334  1
  S2-  S251  1  0.87351354  0.24457718  0.55414013  1
  S2-  S252  1  0.86994329  0.50744383  0.04894914  1
  S2-  S253  1  0.87097337  0.49928844  0.54821140  1
  S2-  S254  1  0.87317190  0.75813520  0.03803387  1
  S2-  S255  1  0.87034923  0.74923901  0.54269007  1
