# generated using pymatgen
data_La6Ce7Pr13Nd19Sm19(BiS2)64
_symmetry_space_group_name_H-M   'P 1'
_cell_length_a   16.14869241
_cell_length_b   16.14648633
_cell_length_c   27.12723376
_cell_angle_alpha   90.09044106
_cell_angle_beta   90.03570765
_cell_angle_gamma   90.02437258
_symmetry_Int_Tables_number   1
_chemical_formula_structural   La6Ce7Pr13Nd19Sm19(BiS2)64
_chemical_formula_sum   'La6 Ce7 Pr13 Nd19 Sm19 Bi64 S128'
_cell_volume   7073.27000684
_cell_formula_units_Z   1
loop_
 _symmetry_equiv_pos_site_id
 _symmetry_equiv_pos_as_xyz
  1  'x, y, z'
loop_
 _atom_type_symbol
 _atom_type_oxidation_number
  La3+  3.0
  Ce3+  3.0
  Pr3+  3.0
  Nd3+  3.0
  Sm3+  3.0
  Bi2+  2.0
  S2-  -2.0
loop_
 _atom_site_type_symbol
 _atom_site_label
 _atom_site_symmetry_multiplicity
 _atom_site_fract_x
 _atom_site_fract_y
 _atom_site_fract_z
 _atom_site_occupancy
  La3+  La0  1  0.88234966  0.24218750  0.41823740  1
  La3+  La1  1  0.25755701  0.87385752  0.58774342  1
  La3+  La2  1  0.38035924  -0.01442979  0.42576501  1
  La3+  La3  1  0.38367110  0.24689664  0.93789188  1
  La3+  La4  1  0.51011429  0.61953233  0.57101017  1
  La3+  La5  1  0.13778932  0.50471320  0.40176723  1
  Ce3+  Ce6  1  0.00705054  0.37404770  0.06174512  1
  Ce3+  Ce7  1  0.76208926  0.62135370  0.56007744  1
  Ce3+  Ce8  1  0.12903831  0.49907262  0.94639653  1
  Ce3+  Ce9  1  0.87941604  0.49992943  0.94549909  1
  Ce3+  Ce10  1  0.25475534  0.37278200  0.06009121  1
  Ce3+  Ce11  1  0.25485411  0.62590735  0.05847027  1
  Ce3+  Ce12  1  0.50764385  0.87612230  0.56749685  1
  Pr3+  Pr13  1  0.62873357  0.50253653  0.43257308  1
  Pr3+  Pr14  1  0.14077283  0.23510380  0.41592877  1
  Pr3+  Pr15  1  0.87105230  0.51042552  0.40449169  1
  Pr3+  Pr16  1  0.00752121  0.12383962  0.06820537  1
  Pr3+  Pr17  1  0.13375211  0.74888090  0.44430486  1
  Pr3+  Pr18  1  0.00847592  0.87381882  0.04657533  1
  Pr3+  Pr19  1  0.37775629  -0.00162428  0.93335163  1
  Pr3+  Pr20  1  0.63468348  -0.00211043  0.94119964  1
  Pr3+  Pr21  1  0.75503551  0.87566708  0.56727682  1
  Pr3+  Pr22  1  0.50505449  0.37523769  0.06540871  1
  Pr3+  Pr23  1  0.75589784  0.63421991  0.07331725  1
  Pr3+  Pr24  1  0.50863412  0.12505131  0.06676246  1
  Pr3+  Pr25  1  0.25247318  0.61150437  0.57293693  1
  Nd3+  Nd26  1  0.38086329  0.25006276  0.43962228  1
  Nd3+  Nd27  1  0.62883967  -0.00511676  0.43478724  1
  Nd3+  Nd28  1  0.25996792  0.11104612  0.08347414  1
  Nd3+  Nd29  1  0.13738134  0.24872899  0.93697236  1
  Nd3+  Nd30  1  0.88012864  0.73909469  0.92758261  1
  Nd3+  Nd31  1  0.00740058  0.62175606  0.55819318  1
  Nd3+  Nd32  1  0.88317811  0.75078601  0.44161271  1
  Nd3+  Nd33  1  0.38435894  0.50023500  0.94253173  1
  Nd3+  Nd34  1  0.25467959  0.87312737  0.05264883  1
  Nd3+  Nd35  1  0.75935015  0.37271176  0.54961080  1
  Nd3+  Nd36  1  0.25889123  0.12365730  0.55933675  1
  Nd3+  Nd37  1  0.13163171  0.73811780  0.92095019  1
  Nd3+  Nd38  1  0.00649567  0.62903525  0.06799053  1
  Nd3+  Nd39  1  0.75703050  0.12421864  0.55637789  1
  Nd3+  Nd40  1  0.12723175  0.00770711  0.92758771  1
  Nd3+  Nd41  1  0.00946257  0.13791078  0.56777450  1
  Nd3+  Nd42  1  0.63149156  0.74993325  0.44407671  1
  Nd3+  Nd43  1  0.63306763  0.74837015  0.93558639  1
  Nd3+  Nd44  1  0.75624470  0.37713667  0.06494834  1
  Sm3+  Sm45  1  0.50681827  0.87544769  0.05159825  1
  Sm3+  Sm46  1  0.63058934  0.24914284  0.93644693  1
  Sm3+  Sm47  1  0.88096766  0.25035851  0.94643206  1
  Sm3+  Sm48  1  0.37894408  0.49943634  0.44115541  1
  Sm3+  Sm49  1  0.50592111  0.62755053  0.05890624  1
  Sm3+  Sm50  1  0.50363158  0.12277271  0.55269931  1
  Sm3+  Sm51  1  0.38013833  0.74869793  0.94095833  1
  Sm3+  Sm52  1  0.63055070  0.25091044  0.44222236  1
  Sm3+  Sm53  1  0.88127344  0.00051221  0.44117996  1
  Sm3+  Sm54  1  0.13284609  -0.00049636  0.44726966  1
  Sm3+  Sm55  1  0.88194956  -0.00256292  0.94184109  1
  Sm3+  Sm56  1  0.75789682  0.87174269  0.05733473  1
  Sm3+  Sm57  1  0.00568465  0.87745203  0.56180889  1
  Sm3+  Sm58  1  0.37682623  0.74461377  0.45751545  1
  Sm3+  Sm59  1  0.75633511  0.12543155  0.05594580  1
  Sm3+  Sm60  1  0.50594050  0.37297678  0.55462193  1
  Sm3+  Sm61  1  0.00801291  0.37096974  0.53578584  1
  Sm3+  Sm62  1  0.63196174  0.50147831  0.94990214  1
  Sm3+  Sm63  1  0.25362984  0.37475380  0.55363723  1
  Bi2+  Bi64  1  -0.00870448  0.03393760  0.28445232  1
  Bi2+  Bi65  1  -0.01409182  0.19096651  0.77894262  1
  Bi2+  Bi66  1  -0.01100852  0.35104472  0.28402460  1
  Bi2+  Bi67  1  0.04825976  0.37885845  0.80842252  1
  Bi2+  Bi68  1  0.00776654  0.62083739  0.28671698  1
  Bi2+  Bi69  1  -0.00865945  0.56558899  0.78783578  1
  Bi2+  Bi70  1  0.02310075  0.84582505  0.30317834  1
  Bi2+  Bi71  1  -0.02630498  0.91413078  0.78725311  1
  Bi2+  Bi72  1  0.22443531  0.12581326  0.28720061  1
  Bi2+  Bi73  1  0.22590322  0.11375898  0.80356148  1
  Bi2+  Bi74  1  0.32397620  0.36989532  0.28621635  1
  Bi2+  Bi75  1  0.24984235  0.36480198  0.78407948  1
  Bi2+  Bi76  1  0.28074054  0.66184606  0.29953617  1
  Bi2+  Bi77  1  0.24040141  0.61399991  0.79232651  1
  Bi2+  Bi78  1  0.22405661  0.86496422  0.29768819  1
  Bi2+  Bi79  1  0.27173701  0.87843959  0.79272542  1
  Bi2+  Bi80  1  0.52914096  0.11597349  0.28953550  1
  Bi2+  Bi81  1  0.52080518  0.15325862  0.77427361  1
  Bi2+  Bi82  1  0.50854349  0.42208905  0.30767433  1
  Bi2+  Bi83  1  0.53310630  0.36970337  0.78927831  1
  Bi2+  Bi84  1  0.47453079  0.62581925  0.29087690  1
  Bi2+  Bi85  1  0.49013498  0.61754127  0.81280900  1
  Bi2+  Bi86  1  0.54091739  0.84532835  0.29511734  1
  Bi2+  Bi87  1  0.48868103  0.87888713  0.73760987  1
  Bi2+  Bi88  1  0.73006127  0.07908522  0.30184071  1
  Bi2+  Bi89  1  0.70658523  0.13038206  0.80923215  1
  Bi2+  Bi90  1  0.69260676  0.35877145  0.28611253  1
  Bi2+  Bi91  1  0.79707305  0.38396226  0.80805013  1
  Bi2+  Bi92  1  0.74013200  0.65207650  0.29087829  1
  Bi2+  Bi93  1  0.74868972  0.64509067  0.78986123  1
  Bi2+  Bi94  1  0.74755504  0.89314623  0.32379129  1
  Bi2+  Bi95  1  0.72450827  0.86747185  0.79122728  1
  Bi2+  Bi96  1  0.11105881  -0.05892407  0.21042454  1
  Bi2+  Bi97  1  0.09931761  0.00895993  0.70036958  1
  Bi2+  Bi98  1  0.11685599  0.27931143  0.19553553  1
  Bi2+  Bi99  1  0.11919619  0.28072857  0.71149133  1
  Bi2+  Bi100  1  0.19488019  0.53277494  0.20538590  1
  Bi2+  Bi101  1  0.13534995  0.48218950  0.71655509  1
  Bi2+  Bi102  1  0.08941343  0.73295441  0.19823588  1
  Bi2+  Bi103  1  0.10563805  0.75046153  0.70972929  1
  Bi2+  Bi104  1  0.37442947  -0.01664724  0.20781537  1
  Bi2+  Bi105  1  0.36565940  0.04789268  0.70107775  1
  Bi2+  Bi106  1  0.42395767  0.23830819  0.22189590  1
  Bi2+  Bi107  1  0.39846805  0.27644785  0.71569587  1
  Bi2+  Bi108  1  0.38963231  0.50845542  0.20950438  1
  Bi2+  Bi109  1  0.39814633  0.47415522  0.70541425  1
  Bi2+  Bi110  1  0.38225206  0.79356095  0.23016435  1
  Bi2+  Bi111  1  0.38350279  0.70926636  0.72658305  1
  Bi2+  Bi112  1  0.62657848  -0.02027885  0.21344799  1
  Bi2+  Bi113  1  0.62497896  0.00861228  0.70710846  1
  Bi2+  Bi114  1  0.61040871  0.17719603  0.19109826  1
  Bi2+  Bi115  1  0.67753093  0.27340226  0.73082715  1
  Bi2+  Bi116  1  0.59077199  0.51872281  0.21629792  1
  Bi2+  Bi117  1  0.67899822  0.48683194  0.73804581  1
  Bi2+  Bi118  1  0.62106318  0.78291413  0.19513714  1
  Bi2+  Bi119  1  0.64754446  0.81454199  0.68357514  1
  Bi2+  Bi120  1  0.83285081  -0.01770796  0.21714887  1
  Bi2+  Bi121  1  0.84568598  0.06373160  0.73437730  1
  Bi2+  Bi122  1  0.85824288  0.22926890  0.21343905  1
  Bi2+  Bi123  1  0.87608344  0.27362146  0.69250743  1
  Bi2+  Bi124  1  0.86491173  0.48439098  0.19816795  1
  Bi2+  Bi125  1  0.87884668  0.46528515  0.71326536  1
  Bi2+  Bi126  1  0.83862941  0.79271522  0.23850268  1
  Bi2+  Bi127  1  0.84804024  0.71206147  0.70168990  1
  S2-  S128  1  -0.01019585  0.17146620  0.16574465  1
  S2-  S129  1  -0.03059552  0.07110076  0.65771894  1
  S2-  S130  1  0.00218751  0.39933378  0.15841697  1
  S2-  S131  1  0.01447259  0.28957032  0.62401500  1
  S2-  S132  1  -0.03432293  0.62088881  0.16565442  1
  S2-  S133  1  -0.00118209  0.64578637  0.65817882  1
  S2-  S134  1  0.00569739  0.85435432  0.14615044  1
  S2-  S135  1  0.02649793  0.86722898  0.66004531  1
  S2-  S136  1  0.20241195  0.15060353  0.17920710  1
  S2-  S137  1  0.22669416  0.11297030  0.65810132  1
  S2-  S138  1  0.24429971  0.38118934  0.15801278  1
  S2-  S139  1  0.25711331  0.46376691  0.63930526  1
  S2-  S140  1  0.24038131  0.67468907  0.15191841  1
  S2-  S141  1  0.24494115  0.68779186  0.66430515  1
  S2-  S142  1  0.24954020  0.95381635  0.14047262  1
  S2-  S143  1  0.21693943  0.88448760  0.69083913  1
  S2-  S144  1  0.40186361  0.11239593  0.14637259  1
  S2-  S145  1  0.46500815  0.14009477  0.64853632  1
  S2-  S146  1  0.53354835  0.32069748  0.15913456  1
  S2-  S147  1  0.50324282  0.37891611  0.65231206  1
  S2-  S148  1  0.53108329  0.65230176  0.15451627  1
  S2-  S149  1  0.48469310  0.60854299  0.67127689  1
  S2-  S150  1  0.48255181  0.88510773  0.14891439  1
  S2-  S151  1  0.40650204  0.90240877  0.64510557  1
  S2-  S152  1  0.77313778  0.12559102  0.15364977  1
  S2-  S153  1  0.73635108  0.10067012  0.65429702  1
  S2-  S154  1  0.77075824  0.35153841  0.16403360  1
  S2-  S155  1  0.75381174  0.37906216  0.64906192  1
  S2-  S156  1  0.73901530  0.56358371  0.16615859  1
  S2-  S157  1  0.71786400  0.63164355  0.65350977  1
  S2-  S158  1  0.76460049  0.77644210  0.13894570  1
  S2-  S159  1  0.81168557  0.86184149  0.66283385  1
  S2-  S160  1  0.11427810  0.08118382  0.36055906  1
  S2-  S161  1  0.14004249  -0.04269983  0.82887701  1
  S2-  S162  1  0.11472432  0.26615855  0.31370872  1
  S2-  S163  1  0.09527905  0.14454551  0.85965865  1
  S2-  S164  1  0.10573394  0.48205627  0.29469070  1
  S2-  S165  1  0.12236982  0.58355887  0.86064503  1
  S2-  S166  1  0.13086769  0.66305334  0.35630731  1
  S2-  S167  1  0.16187909  0.76077736  0.81940193  1
  S2-  S168  1  0.30519650  0.00868189  0.33166763  1
  S2-  S169  1  0.36345349  0.01530648  0.83320500  1
  S2-  S170  1  0.30991547  0.23456610  0.35006678  1
  S2-  S171  1  0.27281131  0.24478250  0.85806043  1
  S2-  S172  1  0.29645726  0.50639565  0.35517235  1
  S2-  S173  1  0.36286697  0.51640863  0.84332037  1
  S2-  S174  1  0.34120547  0.79067861  0.36563251  1
  S2-  S175  1  0.38889965  0.75620636  0.84297427  1
  S2-  S176  1  0.51747485  -0.02044763  0.35798724  1
  S2-  S177  1  0.63582537  -0.02472315  0.84095381  1
  S2-  S178  1  0.59453538  0.25686385  0.34588115  1
  S2-  S179  1  0.51131768  0.24967879  0.86394464  1
  S2-  S180  1  0.71722671  0.50734394  0.34571191  1
  S2-  S181  1  0.58788443  0.50382709  0.85437613  1
  S2-  S182  1  0.60818457  0.69684953  0.34977349  1
  S2-  S183  1  0.62593172  0.73526912  0.83571892  1
  S2-  S184  1  0.88441631  0.09386557  0.35810996  1
  S2-  S185  1  0.89308029  0.01532626  0.84429567  1
  S2-  S186  1  0.83032998  0.29302488  0.32162653  1
  S2-  S187  1  0.85721362  0.24264556  0.84878114  1
  S2-  S188  1  0.90503385  0.49252159  0.30296221  1
  S2-  S189  1  0.87054253  0.59474089  0.86293058  1
  S2-  S190  1  0.87899930  0.66987210  0.35380948  1
  S2-  S191  1  0.88125632  0.80556681  0.83195251  1
  S2-  S192  1  0.00672520  0.12168261  0.46023363  1
  S2-  S193  1  -0.00200489  0.12435433  0.96104364  1
  S2-  S194  1  0.00687195  0.37651193  0.43063406  1
  S2-  S195  1  0.00492552  0.37194207  0.95336642  1
  S2-  S196  1  0.00461624  0.61925649  0.45212458  1
  S2-  S197  1  0.00573806  0.62445600  0.96004385  1
  S2-  S198  1  0.00631092  0.87766065  0.45450228  1
  S2-  S199  1  0.00745795  0.87167974  0.94042351  1
  S2-  S200  1  0.26259010  0.11719770  0.45408661  1
  S2-  S201  1  0.25534906  0.11982377  0.95969165  1
  S2-  S202  1  0.25369787  0.37497198  0.44935676  1
  S2-  S203  1  0.25722054  0.37885450  0.95413887  1
  S2-  S204  1  0.25571848  0.62059366  0.46301457  1
  S2-  S205  1  0.25984986  0.62499583  0.95278177  1
  S2-  S206  1  0.25231554  0.87487736  0.46837557  1
  S2-  S207  1  0.25249155  0.87070663  0.94526685  1
  S2-  S208  1  0.50607184  0.12663880  0.44950026  1
  S2-  S209  1  0.50992774  0.11862097  0.95823377  1
  S2-  S210  1  0.50490609  0.37526250  0.45001569  1
  S2-  S211  1  0.50996567  0.37738284  0.95949113  1
  S2-  S212  1  0.50236951  0.62324233  0.45848486  1
  S2-  S213  1  0.50664186  0.62714100  0.95456350  1
  S2-  S214  1  0.50502477  0.86582158  0.46130227  1
  S2-  S215  1  0.50588228  0.87269721  0.94594846  1
  S2-  S216  1  0.74818365  0.12262451  0.45036098  1
  S2-  S217  1  0.75789461  0.12504696  0.95185632  1
  S2-  S218  1  0.75666062  0.37468279  0.44371813  1
  S2-  S219  1  0.75260965  0.37356601  0.95585705  1
  S2-  S220  1  0.75666628  0.62541128  0.45528487  1
  S2-  S221  1  0.75144464  0.62501228  0.96264530  1
  S2-  S222  1  0.75744591  0.87523382  0.45824737  1
  S2-  S223  1  0.76078021  0.87132694  0.95169836  1
  S2-  S224  1  0.13008829  0.00131949  0.03959739  1
  S2-  S225  1  0.12957432  0.00061416  0.55250993  1
  S2-  S226  1  0.13304929  0.24651138  0.04839287  1
  S2-  S227  1  0.13955213  0.24977911  0.53040705  1
  S2-  S228  1  0.12972543  0.50224171  0.05216837  1
  S2-  S229  1  0.12524967  0.49333910  0.54370696  1
  S2-  S230  1  0.13126208  0.74867738  0.03626445  1
  S2-  S231  1  0.12865235  0.75206910  0.55184268  1
  S2-  S232  1  0.38345393  -0.00427244  0.04009564  1
  S2-  S233  1  0.38187550  0.00125249  0.54065670  1
  S2-  S234  1  0.38065984  0.24878320  0.04846749  1
  S2-  S235  1  0.38026087  0.25250206  0.54621748  1
  S2-  S236  1  0.38258086  0.50243642  0.05106041  1
  S2-  S237  1  0.38435283  0.49586722  0.54454779  1
  S2-  S238  1  0.38329094  0.75186664  0.04686268  1
  S2-  S239  1  0.38103316  0.74328156  0.56022968  1
  S2-  S240  1  0.63508782  -0.00292982  0.04981455  1
  S2-  S241  1  0.62869595  0.00110409  0.54418989  1
  S2-  S242  1  0.63405069  0.24916252  0.04245304  1
  S2-  S243  1  0.62919783  0.24807474  0.54807851  1
  S2-  S244  1  0.62965760  0.50257933  0.05449969  1
  S2-  S245  1  0.63193084  0.49518815  0.54308748  1
  S2-  S246  1  0.62763588  0.75326182  0.04198221  1
  S2-  S247  1  0.63219568  0.74760212  0.54989746  1
  S2-  S248  1  0.87878769  -0.00146046  0.04881013  1
  S2-  S249  1  0.88139524  0.00039829  0.54588377  1
  S2-  S250  1  0.87923051  0.24973001  0.05108889  1
  S2-  S251  1  0.87799548  0.24815581  0.53062135  1
  S2-  S252  1  0.88023252  0.50233184  0.05125603  1
  S2-  S253  1  0.88593505  0.49334164  0.54736863  1
  S2-  S254  1  0.88361306  0.74989134  0.03797339  1
  S2-  S255  1  0.88392550  0.75152339  0.54787210  1
