# generated using pymatgen
data_La6Ce7Pr13Nd19Sm19(BiS2)64
_symmetry_space_group_name_H-M   'P 1'
_cell_length_a   16.01375631
_cell_length_b   16.03834203
_cell_length_c   27.53327352
_cell_angle_alpha   90.15097733
_cell_angle_beta   89.95194068
_cell_angle_gamma   89.90123411
_symmetry_Int_Tables_number   1
_chemical_formula_structural   La6Ce7Pr13Nd19Sm19(BiS2)64
_chemical_formula_sum   'La6 Ce7 Pr13 Nd19 Sm19 Bi64 S128'
_cell_volume   7071.44597436
_cell_formula_units_Z   1
loop_
 _symmetry_equiv_pos_site_id
 _symmetry_equiv_pos_as_xyz
  1  'x, y, z'
loop_
 _atom_type_symbol
 _atom_type_oxidation_number
  La3+  3.0
  Ce3+  3.0
  Pr3+  3.0
  Nd3+  3.0
  Sm3+  3.0
  Bi2+  2.0
  S2-  -2.0
loop_
 _atom_site_type_symbol
 _atom_site_label
 _atom_site_symmetry_multiplicity
 _atom_site_fract_x
 _atom_site_fract_y
 _atom_site_fract_z
 _atom_site_occupancy
  La3+  La0  1  0.64389750  0.01658104  0.88245485  1
  La3+  La1  1  0.24391443  0.36027115  0.57498774  1
  La3+  La2  1  -0.00221256  0.61162092  0.60308299  1
  La3+  La3  1  0.49426729  0.84200709  0.58665917  1
  La3+  La4  1  0.61476181  0.00301377  0.38291890  1
  La3+  La5  1  0.01597456  0.35860252  0.07977661  1
  Ce3+  Ce6  1  0.12152296  0.72076328  0.43304028  1
  Ce3+  Ce7  1  0.26530782  0.10293604  0.05395974  1
  Ce3+  Ce8  1  0.37711028  0.72997995  0.44223640  1
  Ce3+  Ce9  1  0.89014906  0.73265665  0.93658020  1
  Ce3+  Ce10  1  0.39592512  0.48129334  0.93772944  1
  Ce3+  Ce11  1  0.24990060  0.85022186  0.55700477  1
  Ce3+  Ce12  1  0.88997815  0.47420199  0.93030553  1
  Pr3+  Pr13  1  0.13988035  0.23314475  0.94260863  1
  Pr3+  Pr14  1  0.00491901  0.85345515  0.56297632  1
  Pr3+  Pr15  1  0.75377551  0.85132884  0.56551139  1
  Pr3+  Pr16  1  0.51333757  0.35763667  0.07417864  1
  Pr3+  Pr17  1  0.73079039  0.34058820  0.60676995  1
  Pr3+  Pr18  1  0.14850341  0.47317559  0.92125294  1
  Pr3+  Pr19  1  0.76574574  0.60853227  0.05135025  1
  Pr3+  Pr20  1  0.63901351  0.23502996  0.94671737  1
  Pr3+  Pr21  1  0.00306615  0.10623956  0.56990714  1
  Pr3+  Pr22  1  0.01437613  0.85807940  0.06975548  1
  Pr3+  Pr23  1  0.63155519  0.47947062  0.44094744  1
  Pr3+  Pr24  1  0.74871282  0.09454926  0.56906535  1
  Pr3+  Pr25  1  -0.00840241  0.35303318  0.58190150  1
  Nd3+  Nd26  1  0.13681929  0.73264046  0.93700417  1
  Nd3+  Nd27  1  0.63081214  0.73956491  0.43685610  1
  Nd3+  Nd28  1  0.12518602  0.47703148  0.44173844  1
  Nd3+  Nd29  1  0.25274937  0.11122161  0.56867943  1
  Nd3+  Nd30  1  0.88864693  0.23291622  0.94585466  1
  Nd3+  Nd31  1  0.76308571  0.36013319  0.06854560  1
  Nd3+  Nd32  1  0.37370158  0.47837064  0.43684872  1
  Nd3+  Nd33  1  0.12112815  0.23059902  0.43693996  1
  Nd3+  Nd34  1  0.01374405  0.10715289  0.07164251  1
  Nd3+  Nd35  1  0.76406173  0.85739449  0.05673874  1
  Nd3+  Nd36  1  0.37766095  0.22459531  0.44171609  1
  Nd3+  Nd37  1  0.39471481  -0.02193941  0.92599414  1
  Nd3+  Nd38  1  0.87843548  0.72963028  0.43511968  1
  Nd3+  Nd39  1  0.38313585  -0.02628164  0.44836403  1
  Nd3+  Nd40  1  0.12500575  -0.01533310  0.43748100  1
  Nd3+  Nd41  1  0.51179965  0.09600744  0.06470321  1
  Nd3+  Nd42  1  0.51261578  0.61270877  0.06079708  1
  Nd3+  Nd43  1  0.50201674  0.10306051  0.56315516  1
  Nd3+  Nd44  1  0.62972394  0.22872262  0.44332463  1
  Sm3+  Sm45  1  0.89424356  -0.01784867  0.93675324  1
  Sm3+  Sm46  1  0.50498624  0.60320861  0.55209327  1
  Sm3+  Sm47  1  0.75485981  0.60389070  0.55959107  1
  Sm3+  Sm48  1  0.50247220  0.35572944  0.55324076  1
  Sm3+  Sm49  1  0.26556900  0.35786472  0.06739828  1
  Sm3+  Sm50  1  0.01685276  0.60371784  0.04713452  1
  Sm3+  Sm51  1  0.39130668  0.73663271  0.93174495  1
  Sm3+  Sm52  1  0.26326310  0.60597926  0.04810851  1
  Sm3+  Sm53  1  0.87482829  0.22807594  0.45438622  1
  Sm3+  Sm54  1  0.63587690  0.48513796  0.94036682  1
  Sm3+  Sm55  1  0.88056232  0.47721882  0.45453898  1
  Sm3+  Sm56  1  0.76138528  0.10425983  0.05737492  1
  Sm3+  Sm57  1  0.13557643  -0.01751282  0.94048937  1
  Sm3+  Sm58  1  0.64000251  0.74475712  0.93157378  1
  Sm3+  Sm59  1  0.51483186  0.85148567  0.05827259  1
  Sm3+  Sm60  1  0.24707253  0.59939441  0.56508707  1
  Sm3+  Sm61  1  0.39321541  0.22939842  0.94476263  1
  Sm3+  Sm62  1  0.87025344  -0.02078172  0.44106721  1
  Sm3+  Sm63  1  0.26458671  0.85722891  0.05524714  1
  Bi2+  Bi64  1  0.01583823  0.12031896  0.30014706  1
  Bi2+  Bi65  1  0.03956262  0.12931873  0.79588715  1
  Bi2+  Bi66  1  -0.01436115  0.38033032  0.31765770  1
  Bi2+  Bi67  1  0.00198171  0.39962602  0.80553122  1
  Bi2+  Bi68  1  -0.01553962  0.64287034  0.28162687  1
  Bi2+  Bi69  1  -0.00160984  0.65016955  0.79505029  1
  Bi2+  Bi70  1  -0.00582167  0.92755699  0.32900691  1
  Bi2+  Bi71  1  0.01107960  0.87606437  0.79233066  1
  Bi2+  Bi72  1  0.24888661  0.15233556  0.25430264  1
  Bi2+  Bi73  1  0.23476031  0.09431818  0.79323891  1
  Bi2+  Bi74  1  0.21253544  0.47395915  0.30080590  1
  Bi2+  Bi75  1  0.27050084  0.33606047  0.79588624  1
  Bi2+  Bi76  1  0.18812066  0.63265207  0.23065864  1
  Bi2+  Bi77  1  0.30924011  0.61133916  0.79232509  1
  Bi2+  Bi78  1  0.16419290  0.87781684  0.27978941  1
  Bi2+  Bi79  1  0.24705827  0.89854410  0.78579485  1
  Bi2+  Bi80  1  0.48411868  0.14088383  0.29579408  1
  Bi2+  Bi81  1  0.42809748  0.13472524  0.76705691  1
  Bi2+  Bi82  1  0.54140458  0.39752734  0.26008120  1
  Bi2+  Bi83  1  0.49387184  0.39144646  0.77910098  1
  Bi2+  Bi84  1  0.44268394  0.62852159  0.28953897  1
  Bi2+  Bi85  1  0.49347109  0.67719075  0.80282154  1
  Bi2+  Bi86  1  0.47415074  0.87510942  0.28989477  1
  Bi2+  Bi87  1  0.49125601  0.87825210  0.78479527  1
  Bi2+  Bi88  1  0.78763169  0.14548787  0.26059704  1
  Bi2+  Bi89  1  0.78673374  0.15486697  0.79902151  1
  Bi2+  Bi90  1  0.73533888  0.36435355  0.28140007  1
  Bi2+  Bi91  1  0.68322550  0.42107226  0.81729498  1
  Bi2+  Bi92  1  0.64765173  0.63600384  0.29996488  1
  Bi2+  Bi93  1  0.68105431  0.61789041  0.79160531  1
  Bi2+  Bi94  1  0.81731362  0.84826853  0.29269997  1
  Bi2+  Bi95  1  0.76487829  0.87643819  0.78739022  1
  Bi2+  Bi96  1  0.14759196  0.01030062  0.19808892  1
  Bi2+  Bi97  1  0.14064111  0.05948268  0.67566738  1
  Bi2+  Bi98  1  0.12197985  0.28854827  0.21651978  1
  Bi2+  Bi99  1  0.13265147  0.25517609  0.71173045  1
  Bi2+  Bi100  1  -0.00378224  0.48270673  0.20729269  1
  Bi2+  Bi101  1  0.16670047  0.51373808  0.71159645  1
  Bi2+  Bi102  1  0.05053979  0.76958977  0.19879025  1
  Bi2+  Bi103  1  0.10425604  0.86976309  0.68709627  1
  Bi2+  Bi104  1  0.37726422  0.02817393  0.18894177  1
  Bi2+  Bi105  1  0.33563107  0.00544995  0.70068993  1
  Bi2+  Bi106  1  0.37025063  0.30691232  0.24056640  1
  Bi2+  Bi107  1  0.36371767  0.35037174  0.69862237  1
  Bi2+  Bi108  1  0.34195594  0.50742691  0.19578491  1
  Bi2+  Bi109  1  0.43424489  0.56782473  0.70803744  1
  Bi2+  Bi110  1  0.32392340  0.77899181  0.24338654  1
  Bi2+  Bi111  1  0.26760261  0.74550946  0.71326848  1
  Bi2+  Bi112  1  0.63486759  0.00589305  0.18319016  1
  Bi2+  Bi113  1  0.62832866  0.03929475  0.68445142  1
  Bi2+  Bi114  1  0.63939511  0.24444275  0.20465120  1
  Bi2+  Bi115  1  0.65365458  0.29068018  0.73182754  1
  Bi2+  Bi116  1  0.53308076  0.56289229  0.19166490  1
  Bi2+  Bi117  1  0.63493055  0.48671181  0.70276861  1
  Bi2+  Bi118  1  0.63948066  0.74049956  0.20038502  1
  Bi2+  Bi119  1  0.63357825  0.74114216  0.70404375  1
  Bi2+  Bi120  1  0.90641855  -0.00241152  0.23274833  1
  Bi2+  Bi121  1  0.95934089  0.01197579  0.71449563  1
  Bi2+  Bi122  1  0.89593649  0.28517056  0.21773896  1
  Bi2+  Bi123  1  0.91505678  0.26269724  0.73780463  1
  Bi2+  Bi124  1  0.81083078  0.54455306  0.26101065  1
  Bi2+  Bi125  1  0.83411116  0.51080699  0.72378994  1
  Bi2+  Bi126  1  0.85631917  0.73547157  0.19951057  1
  Bi2+  Bi127  1  0.81716200  0.79831333  0.69203949  1
  S2-  S128  1  0.01547969  0.21702752  0.15046977  1
  S2-  S129  1  -0.00626328  0.21181384  0.65017787  1
  S2-  S130  1  -0.12306397  0.39710975  0.14284074  1
  S2-  S131  1  0.11407277  0.39279546  0.65255576  1
  S2-  S132  1  0.01886798  0.60626088  0.14468388  1
  S2-  S133  1  -0.00079275  0.56194720  0.70546764  1
  S2-  S134  1  0.00144272  0.98072361  0.14299891  1
  S2-  S135  1  -0.02144169  0.77056893  0.65020400  1
  S2-  S136  1  0.25190911  0.14171588  0.14840580  1
  S2-  S137  1  0.26927649  0.22998607  0.64599078  1
  S2-  S138  1  0.15458087  0.39067949  0.14407334  1
  S2-  S139  1  0.30137485  0.48776198  0.64496938  1
  S2-  S140  1  0.28051055  0.63958593  0.14302330  1
  S2-  S141  1  0.16320107  0.64406283  0.64873564  1
  S2-  S142  1  0.26813043  0.90576844  0.14873156  1
  S2-  S143  1  0.33585073  0.85020292  0.64354790  1
  S2-  S144  1  0.50797064  0.14326767  0.16217660  1
  S2-  S145  1  0.47353069  0.11356036  0.66263249  1
  S2-  S146  1  0.38239682  0.35499456  0.14363982  1
  S2-  S147  1  0.56252978  0.35116695  0.64470246  1
  S2-  S148  1  0.51330662  0.72940295  0.13529229  1
  S2-  S149  1  0.50605854  0.67775656  0.64079649  1
  S2-  S150  1  0.49193376  0.94460546  0.14107513  1
  S2-  S151  1  0.54534088  0.88526873  0.68543222  1
  S2-  S152  1  0.76240389  0.12339885  0.15542324  1
  S2-  S153  1  0.72454419  0.18413891  0.65685818  1
  S2-  S154  1  0.64415986  0.37211437  0.14321053  1
  S2-  S155  1  0.86886484  0.38148298  0.66386228  1
  S2-  S156  1  0.75079185  0.62521529  0.15066087  1
  S2-  S157  1  0.81351729  0.62964957  0.65062934  1
  S2-  S158  1  0.73816792  0.87417925  0.15519953  1
  S2-  S159  1  0.76913817  0.95966139  0.64738119  1
  S2-  S160  1  0.14178638  0.10640816  0.36533514  1
  S2-  S161  1  0.02621490  -0.00733235  0.86564668  1
  S2-  S162  1  0.13758788  0.35476311  0.36512020  1
  S2-  S163  1  0.13224657  0.32569646  0.85804078  1
  S2-  S164  1  0.14859370  0.58578739  0.36097999  1
  S2-  S165  1  0.10066606  0.53723228  0.82742603  1
  S2-  S166  1  -0.00061772  0.74657090  0.35961890  1
  S2-  S167  1  0.11543225  0.75721274  0.84009770  1
  S2-  S168  1  0.42552487  0.00342017  0.35273385  1
  S2-  S169  1  0.47922063  0.02285377  0.83962021  1
  S2-  S170  1  0.38638038  0.24659958  0.34311248  1
  S2-  S171  1  0.39503380  0.24225512  0.84697252  1
  S2-  S172  1  0.37097339  0.49167443  0.33828646  1
  S2-  S173  1  0.29742191  0.47218697  0.85716394  1
  S2-  S174  1  0.35115133  0.74362976  0.34585802  1
  S2-  S175  1  0.37196903  0.84560021  0.85515195  1
  S2-  S176  1  0.59936537  -0.00811656  0.27503337  1
  S2-  S177  1  0.67252721  0.02393477  0.77399798  1
  S2-  S178  1  0.61925994  0.17425561  0.34945870  1
  S2-  S179  1  0.64996924  0.18972898  0.85022300  1
  S2-  S180  1  0.62228560  0.46456290  0.34145199  1
  S2-  S181  1  0.52205580  0.46880125  0.86676541  1
  S2-  S182  1  0.57150953  0.83519158  0.36052886  1
  S2-  S183  1  0.63166077  0.84495264  0.84982044  1
  S2-  S184  1  0.78550643  -0.02147117  0.35474245  1
  S2-  S185  1  0.81529410  0.00541389  0.85042932  1
  S2-  S186  1  0.93330577  0.23253461  0.36135584  1
  S2-  S187  1  0.88331960  0.30018520  0.85521585  1
  S2-  S188  1  0.88156965  0.49091941  0.35472576  1
  S2-  S189  1  0.89193699  0.52675476  0.83634867  1
  S2-  S190  1  0.75844247  0.72510121  0.35928943  1
  S2-  S191  1  0.88250945  0.76742651  0.84073229  1
  S2-  S192  1  -0.00338450  0.10222714  0.46352954  1
  S2-  S193  1  0.01410424  0.11060790  0.96370525  1
  S2-  S194  1  -0.00234901  0.35150168  0.46887706  1
  S2-  S195  1  0.01386579  0.35681318  0.96144136  1
  S2-  S196  1  -0.00149997  0.60097066  0.45439506  1
  S2-  S197  1  0.01571260  0.60457553  0.94467725  1
  S2-  S198  1  0.00212861  0.86101538  0.45867954  1
  S2-  S199  1  0.01489958  0.85660343  0.96129973  1
  S2-  S200  1  0.25756216  0.10283299  0.46344283  1
  S2-  S201  1  0.26546088  0.10383134  0.94625035  1
  S2-  S202  1  0.25703926  0.35168335  0.46244178  1
  S2-  S203  1  0.27139468  0.35215820  0.96163697  1
  S2-  S204  1  0.25487777  0.60303605  0.46042924  1
  S2-  S205  1  0.26642417  0.61359435  0.94557617  1
  S2-  S206  1  0.24742462  0.85560775  0.44998454  1
  S2-  S207  1  0.25820016  0.85931562  0.95189878  1
  S2-  S208  1  0.50721195  0.10013622  0.45752293  1
  S2-  S209  1  0.51681309  0.10477246  0.95512954  1
  S2-  S210  1  0.50266754  0.35387048  0.44925392  1
  S2-  S211  1  0.51350484  0.35434636  0.96582451  1
  S2-  S212  1  0.50441092  0.60505970  0.44796600  1
  S2-  S213  1  0.51694412  0.61828754  0.95417132  1
  S2-  S214  1  0.49414286  0.84694852  0.47245833  1
  S2-  S215  1  0.51261646  0.85545496  0.95492527  1
  S2-  S216  1  0.75014565  0.10303910  0.45954186  1
  S2-  S217  1  0.76425854  0.10634207  0.95464419  1
  S2-  S218  1  0.75491376  0.35242995  0.44680208  1
  S2-  S219  1  0.76056830  0.36145810  0.96034003  1
  S2-  S220  1  0.75447602  0.60157925  0.45737741  1
  S2-  S221  1  0.76022354  0.60944750  0.94441967  1
  S2-  S222  1  0.75461363  0.85697592  0.46149247  1
  S2-  S223  1  0.76921262  0.85882198  0.95210102  1
  S2-  S224  1  0.13885549  -0.01951217  0.04276316  1
  S2-  S225  1  0.13015671  -0.01823524  0.54531861  1
  S2-  S226  1  0.14320238  0.23155716  0.04641700  1
  S2-  S227  1  0.12470175  0.22942455  0.54474298  1
  S2-  S228  1  0.14269742  0.48492556  0.03585710  1
  S2-  S229  1  0.11709314  0.48702296  0.54823154  1
  S2-  S230  1  0.13936417  0.73334632  0.04426222  1
  S2-  S231  1  0.12575568  0.72717282  0.54090438  1
  S2-  S232  1  0.38660964  -0.02262537  0.03424665  1
  S2-  S233  1  0.37386450  -0.01769870  0.55212216  1
  S2-  S234  1  0.38994629  0.22747357  0.04710904  1
  S2-  S235  1  0.38265198  0.23306899  0.54629043  1
  S2-  S236  1  0.39010377  0.48774378  0.04426262  1
  S2-  S237  1  0.38420607  0.48017835  0.54104075  1
  S2-  S238  1  0.38377381  0.73449254  0.03536827  1
  S2-  S239  1  0.37139815  0.71897257  0.54649689  1
  S2-  S240  1  0.64007894  -0.02086442  0.04900833  1
  S2-  S241  1  0.61729386  -0.02761200  0.56155675  1
  S2-  S242  1  0.63728120  0.22682654  0.05056028  1
  S2-  S243  1  0.62564146  0.22945198  0.54674733  1
  S2-  S244  1  0.63596118  0.48840956  0.04246155  1
  S2-  S245  1  0.63189308  0.47763290  0.54743633  1
  S2-  S246  1  0.64189299  0.73437389  0.03573999  1
  S2-  S247  1  0.63068773  0.72602279  0.54510735  1
  S2-  S248  1  0.88715088  -0.01661033  0.04288736  1
  S2-  S249  1  0.88172699  -0.02046116  0.54668805  1
  S2-  S250  1  0.88359294  0.23041427  0.04990384  1
  S2-  S251  1  0.86284051  0.23179098  0.55503113  1
  S2-  S252  1  0.89086773  0.48586805  0.03736148  1
  S2-  S253  1  0.87995370  0.48643985  0.55614013  1
  S2-  S254  1  0.89370833  0.73260238  0.04456912  1
  S2-  S255  1  0.87904056  0.72658861  0.54228619  1
