# generated using pymatgen
data_La6Ce7Pr13Nd19Sm19(BiS2)64
_symmetry_space_group_name_H-M   'P 1'
_cell_length_a   16.12897594
_cell_length_b   16.12916795
_cell_length_c   27.23809418
_cell_angle_alpha   90.08047832
_cell_angle_beta   89.92801126
_cell_angle_gamma   90.01267767
_symmetry_Int_Tables_number   1
_chemical_formula_structural   La6Ce7Pr13Nd19Sm19(BiS2)64
_chemical_formula_sum   'La6 Ce7 Pr13 Nd19 Sm19 Bi64 S128'
_cell_volume   7085.89469344
_cell_formula_units_Z   1
loop_
 _symmetry_equiv_pos_site_id
 _symmetry_equiv_pos_as_xyz
  1  'x, y, z'
loop_
 _atom_type_symbol
 _atom_type_oxidation_number
  La3+  3.0
  Ce3+  3.0
  Pr3+  3.0
  Nd3+  3.0
  Sm3+  3.0
  Bi2+  2.0
  S2-  -2.0
loop_
 _atom_site_type_symbol
 _atom_site_label
 _atom_site_symmetry_multiplicity
 _atom_site_fract_x
 _atom_site_fract_y
 _atom_site_fract_z
 _atom_site_occupancy
  La3+  La0  1  0.75265974  0.86088547  0.10370368  1
  La3+  La1  1  0.36751739  0.26294540  0.42905037  1
  La3+  La2  1  0.75516128  0.38536337  0.59143095  1
  La3+  La3  1  0.38121641  0.74825519  0.92332587  1
  La3+  La4  1  0.24235525  0.63301792  0.58440947  1
  La3+  La5  1  0.61156849  -0.00155029  0.38794489  1
  Ce3+  Ce6  1  0.24463429  0.88033367  0.56617742  1
  Ce3+  Ce7  1  0.12588651  0.25533151  0.44567427  1
  Ce3+  Ce8  1  0.49997451  0.62662809  0.05339791  1
  Ce3+  Ce9  1  0.62273928  0.49455599  0.93829285  1
  Ce3+  Ce10  1  -0.00401101  0.37992395  0.55823687  1
  Ce3+  Ce11  1  0.87101602  0.49822069  0.93811090  1
  Ce3+  Ce12  1  0.87190517  0.50554476  0.44227579  1
  Pr3+  Pr13  1  0.36596401  0.24672118  0.92880313  1
  Pr3+  Pr14  1  0.13166877  0.75343442  0.43588228  1
  Pr3+  Pr15  1  0.24556153  0.37568719  0.06271939  1
  Pr3+  Pr16  1  0.25057784  0.62900044  0.06270910  1
  Pr3+  Pr17  1  0.49307062  0.38236607  0.57221483  1
  Pr3+  Pr18  1  -0.00319399  0.37325462  0.05170782  1
  Pr3+  Pr19  1  0.62652265  0.75041844  0.93941112  1
  Pr3+  Pr20  1  0.62310523  0.25671097  0.43781721  1
  Pr3+  Pr21  1  0.12486663  0.24794759  0.93744646  1
  Pr3+  Pr22  1  0.24531414  0.12717733  0.56267012  1
  Pr3+  Pr23  1  0.74376512  0.13511687  0.07787586  1
  Pr3+  Pr24  1  0.50307362  0.13284671  0.56358188  1
  Pr3+  Pr25  1  0.87745294  0.74607339  0.41569905  1
  Nd3+  Nd26  1  -0.00616398  0.12242817  0.05854677  1
  Nd3+  Nd27  1  0.50052512  0.87853391  0.56691988  1
  Nd3+  Nd28  1  0.49670384  0.87311222  0.06536596  1
  Nd3+  Nd29  1  0.48877917  0.12949985  0.07219457  1
  Nd3+  Nd30  1  0.87208847  0.75162120  0.93791193  1
  Nd3+  Nd31  1  0.74962101  0.63773122  0.56262553  1
  Nd3+  Nd32  1  -0.00538430  0.62591100  0.05756428  1
  Nd3+  Nd33  1  0.62293754  0.75359312  0.43343635  1
  Nd3+  Nd34  1  0.62227178  0.00260258  0.95061094  1
  Nd3+  Nd35  1  0.74695458  0.62370850  0.06130312  1
  Nd3+  Nd36  1  0.87682889  0.00996706  0.42038613  1
  Nd3+  Nd37  1  0.86783383  0.00044024  0.95041341  1
  Nd3+  Nd38  1  -0.00446312  0.87802126  0.54874611  1
  Nd3+  Nd39  1  0.74826527  0.12940715  0.55620220  1
  Nd3+  Nd40  1  0.87009294  0.24676493  0.93361623  1
  Nd3+  Nd41  1  0.12492086  0.00378781  0.42854184  1
  Nd3+  Nd42  1  0.87095090  0.25591815  0.43790413  1
  Nd3+  Nd43  1  0.12289390  -0.00369764  0.94404974  1
  Nd3+  Nd44  1  0.12880035  0.50438291  0.44922065  1
  Sm3+  Sm45  1  0.49461038  0.37335957  0.05222347  1
  Sm3+  Sm46  1  0.74872224  0.87731940  0.54514402  1
  Sm3+  Sm47  1  0.62252456  0.49928896  0.44393889  1
  Sm3+  Sm48  1  0.24836119  0.87259418  0.05509019  1
  Sm3+  Sm49  1  -0.00319830  0.63221187  0.55555609  1
  Sm3+  Sm50  1  0.37072893  0.49940113  0.94094529  1
  Sm3+  Sm51  1  0.37234256  0.50539379  0.45142851  1
  Sm3+  Sm52  1  0.49927808  0.63000976  0.55723921  1
  Sm3+  Sm53  1  0.37622321  0.75708120  0.44925906  1
  Sm3+  Sm54  1  0.12339230  0.74905310  0.94606091  1
  Sm3+  Sm55  1  0.37849216  0.00638036  0.44952956  1
  Sm3+  Sm56  1  -0.00620922  0.87593572  0.05810315  1
  Sm3+  Sm57  1  0.61827879  0.24298211  0.93458769  1
  Sm3+  Sm58  1  0.24811248  0.12327608  0.06216286  1
  Sm3+  Sm59  1  -0.00575627  0.12688196  0.55263766  1
  Sm3+  Sm60  1  0.37404865  -0.00107232  0.94574352  1
  Sm3+  Sm61  1  0.74478674  0.37281944  0.05457494  1
  Sm3+  Sm62  1  0.25079145  0.37096794  0.57544894  1
  Sm3+  Sm63  1  0.12344382  0.50274016  0.94176843  1
  Bi2+  Bi64  1  0.02412678  0.12854152  0.28912964  1
  Bi2+  Bi65  1  0.04191171  0.06200996  0.75999600  1
  Bi2+  Bi66  1  -0.04223421  0.38698914  0.29028554  1
  Bi2+  Bi67  1  0.02777775  0.34811888  0.77707714  1
  Bi2+  Bi68  1  0.01651974  0.58055748  0.29242503  1
  Bi2+  Bi69  1  -0.00603895  0.68061082  0.78179183  1
  Bi2+  Bi70  1  0.07842166  0.86855335  0.27074501  1
  Bi2+  Bi71  1  -0.04827370  0.86906332  0.80535373  1
  Bi2+  Bi72  1  0.22228865  0.14324783  0.28482544  1
  Bi2+  Bi73  1  0.23329980  0.11975533  0.78264211  1
  Bi2+  Bi74  1  0.23870688  0.39876621  0.29191850  1
  Bi2+  Bi75  1  0.22304274  0.37849287  0.78761721  1
  Bi2+  Bi76  1  0.22981249  0.65508558  0.29963037  1
  Bi2+  Bi77  1  0.22984375  0.62917185  0.80563030  1
  Bi2+  Bi78  1  0.23810075  0.94880360  0.31645618  1
  Bi2+  Bi79  1  0.22107869  0.88063786  0.78790361  1
  Bi2+  Bi80  1  0.49273942  0.12805410  0.28367774  1
  Bi2+  Bi81  1  0.49734362  0.11157474  0.79551605  1
  Bi2+  Bi82  1  0.49787534  0.38715348  0.29590749  1
  Bi2+  Bi83  1  0.52797859  0.38372949  0.80055088  1
  Bi2+  Bi84  1  0.55603050  0.59430992  0.30824378  1
  Bi2+  Bi85  1  0.55368726  0.65503477  0.75764059  1
  Bi2+  Bi86  1  0.42161613  0.86714589  0.29633059  1
  Bi2+  Bi87  1  0.47550255  0.86824975  0.79672540  1
  Bi2+  Bi88  1  0.75799328  0.14099347  0.28777933  1
  Bi2+  Bi89  1  0.77900547  0.10319759  0.79895361  1
  Bi2+  Bi90  1  0.75819949  0.38581277  0.29608177  1
  Bi2+  Bi91  1  0.76881667  0.38328491  0.80338391  1
  Bi2+  Bi92  1  0.74759944  0.59875173  0.28909092  1
  Bi2+  Bi93  1  0.74764196  0.62603001  0.73654121  1
  Bi2+  Bi94  1  0.72471968  0.84791128  0.29286034  1
  Bi2+  Bi95  1  0.75995732  0.83713130  0.77432767  1
  Bi2+  Bi96  1  0.14027319  0.02126735  0.20654963  1
  Bi2+  Bi97  1  0.17271403  0.00181377  0.67549868  1
  Bi2+  Bi98  1  0.11985405  0.29267565  0.22600020  1
  Bi2+  Bi99  1  0.12095400  0.22582561  0.70751449  1
  Bi2+  Bi100  1  0.09735205  0.51845986  0.19882893  1
  Bi2+  Bi101  1  0.12635465  0.48254509  0.70649419  1
  Bi2+  Bi102  1  0.18529477  0.75286101  0.20224016  1
  Bi2+  Bi103  1  0.10167792  0.81496954  0.71115988  1
  Bi2+  Bi104  1  0.33847845  -0.00364658  0.21578646  1
  Bi2+  Bi105  1  0.34448448  -0.01171519  0.72387374  1
  Bi2+  Bi106  1  0.38625642  0.26848985  0.19708750  1
  Bi2+  Bi107  1  0.39627103  0.26288670  0.69799445  1
  Bi2+  Bi108  1  0.37978962  0.53538890  0.26539164  1
  Bi2+  Bi109  1  0.37857158  0.48082837  0.75104611  1
  Bi2+  Bi110  1  0.37847094  0.73660078  0.21482866  1
  Bi2+  Bi111  1  0.37419643  0.71939011  0.69894206  1
  Bi2+  Bi112  1  0.61661289  0.00707886  0.18510267  1
  Bi2+  Bi113  1  0.62553982  -0.02193673  0.75070244  1
  Bi2+  Bi114  1  0.62295560  0.31020169  0.21175651  1
  Bi2+  Bi115  1  0.63512110  0.21234182  0.70983255  1
  Bi2+  Bi116  1  0.64614337  0.50688897  0.20135818  1
  Bi2+  Bi117  1  0.61032087  0.48923184  0.70628400  1
  Bi2+  Bi118  1  0.58661923  0.69834329  0.20882794  1
  Bi2+  Bi119  1  0.62076272  0.80406901  0.69094568  1
  Bi2+  Bi120  1  0.89863456  0.01016114  0.20853392  1
  Bi2+  Bi121  1  0.87872105  -0.02910309  0.71782957  1
  Bi2+  Bi122  1  0.89181179  0.28302108  0.19938536  1
  Bi2+  Bi123  1  0.88082461  0.23808963  0.69912730  1
  Bi2+  Bi124  1  0.84390245  0.48265697  0.20691990  1
  Bi2+  Bi125  1  0.93716280  0.50108179  0.72988188  1
  Bi2+  Bi126  1  0.89499126  0.73702190  0.21326339  1
  Bi2+  Bi127  1  0.90153318  0.71084541  0.67947207  1
  S2-  S128  1  -0.02745875  0.14127033  0.15572797  1
  S2-  S129  1  -0.01368233  0.14452504  0.65006171  1
  S2-  S130  1  0.02424892  0.37455416  0.15009120  1
  S2-  S131  1  -0.07990987  0.38256674  0.64556876  1
  S2-  S132  1  -0.01196200  0.64111520  0.15730979  1
  S2-  S133  1  0.03901729  0.61541307  0.65045509  1
  S2-  S134  1  -0.06459045  0.86767727  0.14949896  1
  S2-  S135  1  -0.03040947  0.87375799  0.64785913  1
  S2-  S136  1  0.35031213  0.12620814  0.14060489  1
  S2-  S137  1  0.25462806  0.23316424  0.64333744  1
  S2-  S138  1  0.25646857  0.34331348  0.16135442  1
  S2-  S139  1  0.36556305  0.39935546  0.64882681  1
  S2-  S140  1  0.22719113  0.58899187  0.15950495  1
  S2-  S141  1  0.26579494  0.58512833  0.68401361  1
  S2-  S142  1  0.30532757  0.85970832  0.14705990  1
  S2-  S143  1  0.23666990  0.77794339  0.64624194  1
  S2-  S144  1  0.55538566  0.16570505  0.16403510  1
  S2-  S145  1  0.49138615  0.13131367  0.66527316  1
  S2-  S146  1  0.48161051  0.37581570  0.15022625  1
  S2-  S147  1  0.54923770  0.33683992  0.66546246  1
  S2-  S148  1  0.46298478  0.63414282  0.14782100  1
  S2-  S149  1  0.49498456  0.61768065  0.65558158  1
  S2-  S150  1  0.57828233  0.85023969  0.15176179  1
  S2-  S151  1  0.45225150  0.86066826  0.66310814  1
  S2-  S152  1  0.76888476  0.09545275  0.17842738  1
  S2-  S153  1  0.75732621  0.13543509  0.65688667  1
  S2-  S154  1  0.74944443  0.28823666  0.13914780  1
  S2-  S155  1  0.74048749  0.33790351  0.69554416  1
  S2-  S156  1  0.76540137  0.70274349  0.15010725  1
  S2-  S157  1  0.74126006  0.53789520  0.64548663  1
  S2-  S158  1  0.75993940  0.90642833  0.20352084  1
  S2-  S159  1  0.75618699  0.77951976  0.62670613  1
  S2-  S160  1  0.01131063  0.00159096  0.35041796  1
  S2-  S161  1  0.13921676  0.00540664  0.84591191  1
  S2-  S162  1  0.20559918  0.27428473  0.36112106  1
  S2-  S163  1  0.23059161  0.24283852  0.85854980  1
  S2-  S164  1  0.14211801  0.50863190  0.34962518  1
  S2-  S165  1  0.13964081  0.51057621  0.84437422  1
  S2-  S166  1  0.08211444  0.73623664  0.33978877  1
  S2-  S167  1  0.12642370  0.73852389  0.84844514  1
  S2-  S168  1  0.43941994  0.01459396  0.35766322  1
  S2-  S169  1  0.39638762  0.00443930  0.84922255  1
  S2-  S170  1  0.41839275  0.23941447  0.33266110  1
  S2-  S171  1  0.43950947  0.24659114  0.83516949  1
  S2-  S172  1  0.36380571  0.43342905  0.36312331  1
  S2-  S173  1  0.37156883  0.54177257  0.84511879  1
  S2-  S174  1  0.34346972  0.74282623  0.35310941  1
  S2-  S175  1  0.33892453  0.76531563  0.82571683  1
  S2-  S176  1  0.60413387  -0.00724174  0.27875400  1
  S2-  S177  1  0.63453687  0.05569881  0.85664308  1
  S2-  S178  1  0.62442139  0.16538485  0.34848622  1
  S2-  S179  1  0.64532194  0.27723278  0.83874702  1
  S2-  S180  1  0.62401226  0.38923925  0.36611883  1
  S2-  S181  1  0.64786656  0.49654377  0.84144104  1
  S2-  S182  1  0.57713681  0.82755655  0.34894713  1
  S2-  S183  1  0.54782959  0.75297214  0.85027492  1
  S2-  S184  1  0.77455947  -0.00299023  0.34019696  1
  S2-  S185  1  0.87951342  0.01366615  0.85182801  1
  S2-  S186  1  0.87993807  0.18389713  0.34583747  1
  S2-  S187  1  0.86177609  0.24169552  0.83394950  1
  S2-  S188  1  0.87663117  0.59472239  0.35803677  1
  S2-  S189  1  0.87989521  0.48252490  0.84084261  1
  S2-  S190  1  0.87162590  0.79788812  0.31600161  1
  S2-  S191  1  0.85122390  0.72287885  0.84076896  1
  S2-  S192  1  0.00101612  0.13224915  0.45021219  1
  S2-  S193  1  -0.00129673  0.12352442  0.95124645  1
  S2-  S194  1  -0.00030704  0.38069910  0.45010039  1
  S2-  S195  1  0.00008144  0.37401433  0.94461609  1
  S2-  S196  1  0.00519326  0.62830134  0.45260187  1
  S2-  S197  1  -0.00216213  0.62557860  0.95066135  1
  S2-  S198  1  -0.00024544  0.87478231  0.44401422  1
  S2-  S199  1  -0.00243243  0.87382326  0.95308158  1
  S2-  S200  1  0.24920914  0.12531410  0.45448828  1
  S2-  S201  1  0.24824515  0.11815602  0.95833212  1
  S2-  S202  1  0.24844113  0.38183433  0.46997482  1
  S2-  S203  1  0.24576444  0.37992091  0.95490810  1
  S2-  S204  1  0.25265648  0.63024096  0.46188238  1
  S2-  S205  1  0.24861590  0.62628711  0.95458213  1
  S2-  S206  1  0.25290215  0.88187296  0.45760891  1
  S2-  S207  1  0.24970058  0.87251409  0.94999225  1
  S2-  S208  1  0.49804614  0.13193657  0.45794955  1
  S2-  S209  1  0.49365834  0.12523599  0.95994891  1
  S2-  S210  1  0.49518556  0.38233060  0.46454008  1
  S2-  S211  1  0.49412601  0.37258921  0.94721815  1
  S2-  S212  1  0.49754666  0.62759902  0.45197727  1
  S2-  S213  1  0.49941204  0.61980993  0.94884401  1
  S2-  S214  1  0.49794228  0.88107578  0.46000834  1
  S2-  S215  1  0.49909463  0.87708756  0.95731339  1
  S2-  S216  1  0.74994354  0.12896996  0.45171712  1
  S2-  S217  1  0.74625119  0.12882621  0.96205217  1
  S2-  S218  1  0.75243123  0.38188294  0.46129426  1
  S2-  S219  1  0.74577336  0.36886819  0.95097747  1
  S2-  S220  1  0.74187216  0.62719427  0.45375996  1
  S2-  S221  1  0.74820063  0.62295506  0.95350640  1
  S2-  S222  1  0.75049620  0.87542700  0.44278401  1
  S2-  S223  1  0.74669082  0.87717165  0.94377615  1
  S2-  S224  1  0.12335183  -0.00264505  0.05113034  1
  S2-  S225  1  0.11891011  0.00418263  0.53781806  1
  S2-  S226  1  0.12338490  0.24472681  0.04612999  1
  S2-  S227  1  0.11726428  0.25299510  0.54967562  1
  S2-  S228  1  0.12173307  0.50300629  0.04639908  1
  S2-  S229  1  0.12561452  0.50093558  0.55458791  1
  S2-  S230  1  0.11962971  0.75280433  0.05108867  1
  S2-  S231  1  0.12050972  0.75444804  0.54351540  1
  S2-  S232  1  0.37087089  -0.00425487  0.04825713  1
  S2-  S233  1  0.37486318  0.00478044  0.55511391  1
  S2-  S234  1  0.36828543  0.25188434  0.03892481  1
  S2-  S235  1  0.37339855  0.25260853  0.54325656  1
  S2-  S236  1  0.37206102  0.49954075  0.04637214  1
  S2-  S237  1  0.36923847  0.51339566  0.55310409  1
  S2-  S238  1  0.37397668  0.75159688  0.03772862  1
  S2-  S239  1  0.37511589  0.75302652  0.55145194  1
  S2-  S240  1  0.62054771  0.00441928  0.05688610  1
  S2-  S241  1  0.62789459  -0.00090637  0.56076259  1
  S2-  S242  1  0.61650827  0.25195445  0.04165049  1
  S2-  S243  1  0.62888346  0.25938215  0.55106403  1
  S2-  S244  1  0.62186196  0.49637690  0.04671532  1
  S2-  S245  1  0.62111875  0.50508972  0.54766713  1
  S2-  S246  1  0.62740199  0.75147419  0.04503121  1
  S2-  S247  1  0.61844815  0.75451643  0.53893582  1
  S2-  S248  1  0.86468710  -0.00195991  0.05534257  1
  S2-  S249  1  0.87134310  0.00204876  0.53885519  1
  S2-  S250  1  0.87270309  0.24915193  0.04088699  1
  S2-  S251  1  0.87251484  0.25386834  0.54454808  1
  S2-  S252  1  0.87009178  0.49776033  0.04709026  1
  S2-  S253  1  0.87513456  0.50982685  0.54636408  1
  S2-  S254  1  0.87128775  0.75239511  0.04350149  1
  S2-  S255  1  0.87658766  0.75266821  0.52759760  1
