# generated using pymatgen
data_La6Ce7Pr13Nd19Sm19(BiS2)64
_symmetry_space_group_name_H-M   'P 1'
_cell_length_a   16.07822830
_cell_length_b   15.97718676
_cell_length_c   27.54199959
_cell_angle_alpha   90.00729604
_cell_angle_beta   89.91237875
_cell_angle_gamma   90.05462278
_symmetry_Int_Tables_number   1
_chemical_formula_structural   La6Ce7Pr13Nd19Sm19(BiS2)64
_chemical_formula_sum   'La6 Ce7 Pr13 Nd19 Sm19 Bi64 S128'
_cell_volume   7075.11106317
_cell_formula_units_Z   1
loop_
 _symmetry_equiv_pos_site_id
 _symmetry_equiv_pos_as_xyz
  1  'x, y, z'
loop_
 _atom_type_symbol
 _atom_type_oxidation_number
  La3+  3.0
  Ce3+  3.0
  Pr3+  3.0
  Nd3+  3.0
  Sm3+  3.0
  Bi2+  2.0
  S2-  -2.0
loop_
 _atom_site_type_symbol
 _atom_site_label
 _atom_site_symmetry_multiplicity
 _atom_site_fract_x
 _atom_site_fract_y
 _atom_site_fract_z
 _atom_site_occupancy
  La3+  La0  1  0.14301488  0.76237585  0.89169080  1
  La3+  La1  1  0.24861490  0.59662915  0.57290343  1
  La3+  La2  1  -0.01808911  0.14300362  0.06583267  1
  La3+  La3  1  0.38669969  0.21957161  0.39186762  1
  La3+  La4  1  0.75574968  0.59491603  0.57087097  1
  La3+  La5  1  0.22643669  0.89558946  0.08618908  1
  Ce3+  Ce6  1  0.35681696  0.26821229  0.94381703  1
  Ce3+  Ce7  1  0.60651815  0.01688240  0.92558969  1
  Ce3+  Ce8  1  0.00927586  0.85458882  0.56810317  1
  Ce3+  Ce9  1  0.23080346  0.38789451  0.05956378  1
  Ce3+  Ce10  1  0.48752983  0.64234404  0.07228379  1
  Ce3+  Ce11  1  0.37813611  0.72805421  0.44119607  1
  Ce3+  Ce12  1  0.63060704  0.22072609  0.44212196  1
  Pr3+  Pr13  1  0.25801166  0.09656902  0.55603310  1
  Pr3+  Pr14  1  0.14309430  0.47499538  0.42672531  1
  Pr3+  Pr15  1  0.48802582  0.39375197  0.06117417  1
  Pr3+  Pr16  1  0.63288938  0.72356088  0.44769439  1
  Pr3+  Pr17  1  -0.01570975  0.89475180  0.06336518  1
  Pr3+  Pr18  1  0.73388534  0.89310549  0.05340931  1
  Pr3+  Pr19  1  0.25892285  0.84624639  0.57649709  1
  Pr3+  Pr20  1  0.63111503  -0.02591127  0.44419891  1
  Pr3+  Pr21  1  0.88187164  -0.02655055  0.43268886  1
  Pr3+  Pr22  1  0.25100271  0.35156537  0.56867067  1
  Pr3+  Pr23  1  0.23508376  0.64319100  0.07656120  1
  Pr3+  Pr24  1  0.86062434  0.01930140  0.93070161  1
  Pr3+  Pr25  1  0.88175553  0.72210274  0.43638357  1
  Nd3+  Nd26  1  0.50289690  0.09849714  0.55809787  1
  Nd3+  Nd27  1  0.88314495  0.22443596  0.43306873  1
  Nd3+  Nd28  1  0.86926131  0.76752717  0.92194560  1
  Nd3+  Nd29  1  0.50395237  0.59317743  0.56038315  1
  Nd3+  Nd30  1  0.35586394  0.52326113  0.94488270  1
  Nd3+  Nd31  1  0.48498223  0.89474538  0.05578928  1
  Nd3+  Nd32  1  0.88244192  0.47262637  0.43441589  1
  Nd3+  Nd33  1  0.10847009  0.01736847  0.93851419  1
  Nd3+  Nd34  1  0.23497936  0.14773025  0.07386979  1
  Nd3+  Nd35  1  0.50377602  0.84693536  0.56720457  1
  Nd3+  Nd36  1  0.13277133  0.72378844  0.44135749  1
  Nd3+  Nd37  1  0.10575676  0.52347210  0.94347079  1
  Nd3+  Nd38  1  0.62814266  0.46956438  0.43482513  1
  Nd3+  Nd39  1  0.35200670  0.01831683  0.94459790  1
  Nd3+  Nd40  1  0.76096433  0.84739556  0.57372311  1
  Nd3+  Nd41  1  0.73290622  0.39353450  0.04745251  1
  Nd3+  Nd42  1  0.60843345  0.52336847  0.93007126  1
  Nd3+  Nd43  1  0.48694230  0.14178691  0.06024052  1
  Nd3+  Nd44  1  -0.01257404  0.64599189  0.06815909  1
  Sm3+  Sm45  1  0.73138791  0.14479691  0.04761212  1
  Sm3+  Sm46  1  0.38342290  0.47115939  0.43719144  1
  Sm3+  Sm47  1  0.60851502  0.77097377  0.93499437  1
  Sm3+  Sm48  1  0.86016644  0.52503195  0.94091936  1
  Sm3+  Sm49  1  0.86148166  0.26585362  0.92896126  1
  Sm3+  Sm50  1  0.00936460  0.34852085  0.55536827  1
  Sm3+  Sm51  1  0.10739240  0.26544026  0.93675694  1
  Sm3+  Sm52  1  0.75565961  0.34478652  0.56581041  1
  Sm3+  Sm53  1  0.75873442  0.09660856  0.56768688  1
  Sm3+  Sm54  1  0.60396987  0.26902136  0.92380139  1
  Sm3+  Sm55  1  0.14113330  0.22177022  0.43997701  1
  Sm3+  Sm56  1  0.00476160  0.59991458  0.55715891  1
  Sm3+  Sm57  1  0.00566400  0.09707777  0.55265104  1
  Sm3+  Sm58  1  0.73691931  0.64509204  0.06651833  1
  Sm3+  Sm59  1  0.35564731  0.76807202  0.95611666  1
  Sm3+  Sm60  1  0.13481356  -0.03210919  0.43524460  1
  Sm3+  Sm61  1  0.38013805  -0.03062028  0.43157049  1
  Sm3+  Sm62  1  -0.01932586  0.39263214  0.05624065  1
  Sm3+  Sm63  1  0.50340489  0.34646366  0.55486595  1
  Bi2+  Bi64  1  -0.03715215  0.16524228  0.27799720  1
  Bi2+  Bi65  1  0.00434799  0.13974348  0.78888592  1
  Bi2+  Bi66  1  0.02624127  0.40410445  0.30461440  1
  Bi2+  Bi67  1  -0.01339269  0.35093342  0.82801917  1
  Bi2+  Bi68  1  0.00513344  0.60148907  0.28692680  1
  Bi2+  Bi69  1  -0.02413342  0.54507675  0.81066502  1
  Bi2+  Bi70  1  -0.02664350  0.87187234  0.27583902  1
  Bi2+  Bi71  1  -0.01285948  0.88851540  0.79217028  1
  Bi2+  Bi72  1  0.24799028  0.12312217  0.28421096  1
  Bi2+  Bi73  1  0.27200154  0.14505186  0.80661024  1
  Bi2+  Bi74  1  0.22036493  0.38056184  0.28417887  1
  Bi2+  Bi75  1  0.18071512  0.35491620  0.79545069  1
  Bi2+  Bi76  1  0.25239159  0.71387770  0.31735280  1
  Bi2+  Bi77  1  0.27814471  0.62167771  0.79670891  1
  Bi2+  Bi78  1  0.24545672  0.92422471  0.30867174  1
  Bi2+  Bi79  1  0.26664239  0.89187621  0.79474223  1
  Bi2+  Bi80  1  0.57894715  0.11016989  0.27561125  1
  Bi2+  Bi81  1  0.52902645  0.13056443  0.76257736  1
  Bi2+  Bi82  1  0.54239281  0.38871285  0.27806271  1
  Bi2+  Bi83  1  0.50628659  0.33060397  0.78661274  1
  Bi2+  Bi84  1  0.51230816  0.62401212  0.29742531  1
  Bi2+  Bi85  1  0.51675260  0.57456940  0.78822181  1
  Bi2+  Bi86  1  0.55557517  0.83188525  0.28039440  1
  Bi2+  Bi87  1  0.49161681  0.86144346  0.77933496  1
  Bi2+  Bi88  1  0.76156595  0.18504688  0.29025633  1
  Bi2+  Bi89  1  0.74327944  0.16687905  0.78613041  1
  Bi2+  Bi90  1  0.72837237  0.38649966  0.31166483  1
  Bi2+  Bi91  1  0.79333612  0.36238947  0.78934023  1
  Bi2+  Bi92  1  0.74493646  0.60642560  0.29524304  1
  Bi2+  Bi93  1  0.71464899  0.62244736  0.78166633  1
  Bi2+  Bi94  1  0.75153065  0.90904188  0.30107093  1
  Bi2+  Bi95  1  0.73212319  0.88213159  0.77652807  1
  Bi2+  Bi96  1  0.08477605  -0.00270113  0.20767727  1
  Bi2+  Bi97  1  0.12612500  0.00597695  0.71020361  1
  Bi2+  Bi98  1  0.11509245  0.21314580  0.20912356  1
  Bi2+  Bi99  1  0.12432962  0.22244611  0.70946378  1
  Bi2+  Bi100  1  0.12499871  0.50095508  0.21433770  1
  Bi2+  Bi101  1  0.14751610  0.46943812  0.70855040  1
  Bi2+  Bi102  1  0.15457834  0.75253160  0.21791538  1
  Bi2+  Bi103  1  0.09817548  0.72890242  0.69259765  1
  Bi2+  Bi104  1  0.38531280  -0.01152451  0.19756573  1
  Bi2+  Bi105  1  0.38677613  0.00260065  0.71009724  1
  Bi2+  Bi106  1  0.38044304  0.27513435  0.19701567  1
  Bi2+  Bi107  1  0.31735172  0.27112562  0.72285007  1
  Bi2+  Bi108  1  0.33237980  0.56261379  0.26421591  1
  Bi2+  Bi109  1  0.40271240  0.45080728  0.71635013  1
  Bi2+  Bi110  1  0.41953946  0.73190570  0.21784031  1
  Bi2+  Bi111  1  0.39308355  0.73585026  0.70994745  1
  Bi2+  Bi112  1  0.65078272  -0.00125742  0.19296248  1
  Bi2+  Bi113  1  0.63897625  0.00224112  0.70221377  1
  Bi2+  Bi114  1  0.64258406  0.26143770  0.20799212  1
  Bi2+  Bi115  1  0.65507056  0.29401113  0.71123189  1
  Bi2+  Bi116  1  0.70250353  0.51906827  0.20025938  1
  Bi2+  Bi117  1  0.62200420  0.51686765  0.69790171  1
  Bi2+  Bi118  1  0.69574890  0.75268530  0.21247528  1
  Bi2+  Bi119  1  0.61148418  0.80122434  0.69763213  1
  Bi2+  Bi120  1  0.85653902  -0.00035344  0.22160243  1
  Bi2+  Bi121  1  0.87589917  0.13526257  0.70094877  1
  Bi2+  Bi122  1  0.93419196  0.25706890  0.17750925  1
  Bi2+  Bi123  1  0.93371540  0.32737808  0.70939317  1
  Bi2+  Bi124  1  0.87236730  0.42209216  0.23053032  1
  Bi2+  Bi125  1  0.87436746  0.51774876  0.71628217  1
  Bi2+  Bi126  1  0.89387924  0.72056423  0.22003942  1
  Bi2+  Bi127  1  0.84721828  0.73437727  0.72715659  1
  S2-  S128  1  -0.04086824  0.02340157  0.13977786  1
  S2-  S129  1  -0.00239612  0.05139817  0.64734522  1
  S2-  S130  1  -0.00210895  0.42045443  0.15216831  1
  S2-  S131  1  0.10991056  0.34459431  0.63650368  1
  S2-  S132  1  0.10866821  0.63794486  0.14970542  1
  S2-  S133  1  0.08122250  0.57701317  0.64432430  1
  S2-  S134  1  0.08127320  0.86154014  0.15123764  1
  S2-  S135  1  -0.05081544  0.79088794  0.65398185  1
  S2-  S136  1  0.23434785  0.03941525  0.15341535  1
  S2-  S137  1  0.25825448  0.06563602  0.65587004  1
  S2-  S138  1  0.23138850  0.28725536  0.14089372  1
  S2-  S139  1  0.28439730  0.47231174  0.64527525  1
  S2-  S140  1  0.37145405  0.62551541  0.14640932  1
  S2-  S141  1  0.25977625  0.70922385  0.65227487  1
  S2-  S142  1  0.29502597  0.84107006  0.17949963  1
  S2-  S143  1  0.13371938  0.87889244  0.64695041  1
  S2-  S144  1  0.44422185  0.13478605  0.15699715  1
  S2-  S145  1  0.50474037  0.10281085  0.65749033  1
  S2-  S146  1  0.47942510  0.38869268  0.16134349  1
  S2-  S147  1  0.52735800  0.37955025  0.65059412  1
  S2-  S148  1  0.61608109  0.64175104  0.14099419  1
  S2-  S149  1  0.50086263  0.63008370  0.65699452  1
  S2-  S150  1  0.50667449  0.91325903  0.15336884  1
  S2-  S151  1  0.39560979  0.87342111  0.64466420  1
  S2-  S152  1  0.70443911  0.13385335  0.14433154  1
  S2-  S153  1  0.75542482  0.22162583  0.63864353  1
  S2-  S154  1  0.72461879  0.37883368  0.14556102  1
  S2-  S155  1  0.75984854  0.46562501  0.63988307  1
  S2-  S156  1  0.86067003  0.63366539  0.13970158  1
  S2-  S157  1  0.74505298  0.72037590  0.64603176  1
  S2-  S158  1  0.76225041  0.87852889  0.15211467  1
  S2-  S159  1  0.76960772  0.97734262  0.64196402  1
  S2-  S160  1  0.13376322  0.04327008  0.34211663  1
  S2-  S161  1  0.12591047  -0.07162928  0.85014965  1
  S2-  S162  1  0.21954498  0.24450900  0.35421296  1
  S2-  S163  1  0.12099329  0.14618039  0.86440391  1
  S2-  S164  1  0.12279686  0.61467291  0.35994402  1
  S2-  S165  1  0.13822295  0.58871492  0.85338328  1
  S2-  S166  1  0.13402809  0.83876702  0.36359254  1
  S2-  S167  1  0.16909008  0.76259404  0.77879701  1
  S2-  S168  1  0.37092782  0.06158779  0.34513493  1
  S2-  S169  1  0.36422635  0.02117605  0.84549310  1
  S2-  S170  1  0.40280786  0.29928735  0.29472742  1
  S2-  S171  1  0.37345523  0.26528759  0.84843592  1
  S2-  S172  1  0.28090198  0.47456342  0.35734575  1
  S2-  S173  1  0.37435668  0.52020608  0.84595303  1
  S2-  S174  1  0.37359441  0.83478890  0.36297762  1
  S2-  S175  1  0.32130050  0.75483585  0.86039551  1
  S2-  S176  1  0.60219469  -0.03158725  0.34529925  1
  S2-  S177  1  0.60577201  -0.11144121  0.85470872  1
  S2-  S178  1  0.56042337  0.21132892  0.35432436  1
  S2-  S179  1  0.60435461  0.13906095  0.85361309  1
  S2-  S180  1  0.50879194  0.48132501  0.36077060  1
  S2-  S181  1  0.60225494  0.39798866  0.85599319  1
  S2-  S182  1  0.63889263  0.72253659  0.34834900  1
  S2-  S183  1  0.59884846  0.65484388  0.86162684  1
  S2-  S184  1  0.86880487  0.10254289  0.35909444  1
  S2-  S185  1  0.85503543  -0.09081317  0.84890772  1
  S2-  S186  1  0.88339528  0.35088354  0.36151344  1
  S2-  S187  1  0.87034853  0.14459167  0.85601725  1
  S2-  S188  1  0.87512458  0.59858932  0.36101542  1
  S2-  S189  1  0.83803816  0.61544752  0.85815017  1
  S2-  S190  1  0.87535781  0.84476388  0.36035360  1
  S2-  S191  1  0.98666958  0.75808563  0.84479915  1
  S2-  S192  1  0.01315962  0.10014577  0.45003572  1
  S2-  S193  1  -0.01662122  0.14727283  0.95901081  1
  S2-  S194  1  0.01709674  0.34652804  0.45344903  1
  S2-  S195  1  -0.01795324  0.39338251  0.95237949  1
  S2-  S196  1  0.00746274  0.59463989  0.45709645  1
  S2-  S197  1  -0.01667056  0.64366269  0.96010784  1
  S2-  S198  1  0.00625861  0.85005828  0.46082989  1
  S2-  S199  1  -0.01710855  0.89621339  0.95676281  1
  S2-  S200  1  0.26053255  0.09667927  0.45179438  1
  S2-  S201  1  0.23337329  0.14697565  0.96509193  1
  S2-  S202  1  0.26372348  0.34386305  0.46005709  1
  S2-  S203  1  0.22982436  0.39361213  0.95181656  1
  S2-  S204  1  0.26204328  0.60043352  0.46127483  1
  S2-  S205  1  0.23193689  0.64451837  0.96472676  1
  S2-  S206  1  0.25764212  0.85027485  0.46602205  1
  S2-  S207  1  0.23317519  0.89057527  0.95803170  1
  S2-  S208  1  0.50035391  0.09721469  0.45385795  1
  S2-  S209  1  0.48154087  0.14358444  0.95394519  1
  S2-  S210  1  0.50030666  0.33969535  0.45212513  1
  S2-  S211  1  0.48137883  0.39557615  0.95464215  1
  S2-  S212  1  0.50503855  0.60095538  0.45653692  1
  S2-  S213  1  0.48038354  0.64498740  0.96269280  1
  S2-  S214  1  0.50753614  0.84912508  0.46057487  1
  S2-  S215  1  0.47753445  0.89255858  0.95196437  1
  S2-  S216  1  0.75536341  0.09980186  0.46161028  1
  S2-  S217  1  0.73148780  0.14930087  0.94763332  1
  S2-  S218  1  0.75314182  0.34699447  0.45992730  1
  S2-  S219  1  0.74098513  0.39331526  0.94414965  1
  S2-  S220  1  0.75133647  0.59201388  0.46002942  1
  S2-  S221  1  0.73424910  0.64683344  0.96098651  1
  S2-  S222  1  0.75508904  0.84947712  0.46364776  1
  S2-  S223  1  0.73496447  0.89062809  0.95014759  1
  S2-  S224  1  0.11182085  0.02250922  0.04543965  1
  S2-  S225  1  0.13119955  -0.02277131  0.53938592  1
  S2-  S226  1  0.10364695  0.26945587  0.04161372  1
  S2-  S227  1  0.13005889  0.21868254  0.54284939  1
  S2-  S228  1  0.10787790  0.51282774  0.04767992  1
  S2-  S229  1  0.12806287  0.47393002  0.53535637  1
  S2-  S230  1  0.11252596  0.76751095  0.05106154  1
  S2-  S231  1  0.12665998  0.72470523  0.54618115  1
  S2-  S232  1  0.35844483  0.01847578  0.04914483  1
  S2-  S233  1  0.38299357  -0.02673804  0.53955428  1
  S2-  S234  1  0.36329834  0.26783417  0.04685975  1
  S2-  S235  1  0.38009979  0.22626719  0.56358476  1
  S2-  S236  1  0.35621708  0.51195538  0.04848074  1
  S2-  S237  1  0.38330012  0.47070278  0.54141616  1
  S2-  S238  1  0.35893582  0.77289755  0.05692878  1
  S2-  S239  1  0.38349845  0.72042278  0.54628784  1
  S2-  S240  1  0.60907203  0.01944939  0.03616162  1
  S2-  S241  1  0.62852908  -0.02705073  0.54979847  1
  S2-  S242  1  0.60829631  0.26795073  0.03584909  1
  S2-  S243  1  0.62802031  0.22284508  0.54608863  1
  S2-  S244  1  0.61139976  0.51850651  0.03841758  1
  S2-  S245  1  0.62824729  0.46861381  0.54002027  1
  S2-  S246  1  0.60800124  0.76938841  0.04073980  1
  S2-  S247  1  0.62671067  0.72276460  0.55070947  1
  S2-  S248  1  0.85266781  0.02224073  0.03754658  1
  S2-  S249  1  0.88240287  -0.02479419  0.53982102  1
  S2-  S250  1  0.85684197  0.26838518  0.03728670  1
  S2-  S251  1  0.88635883  0.22447980  0.54106341  1
  S2-  S252  1  0.85916049  0.51528973  0.04295537  1
  S2-  S253  1  0.88647201  0.46888691  0.54272260  1
  S2-  S254  1  0.86000699  0.76919352  0.04298489  1
  S2-  S255  1  0.88071606  0.72035531  0.54242384  1
