# generated using pymatgen
data_La6Ce7Pr13Nd19Sm19(BiS2)64
_symmetry_space_group_name_H-M   'P 1'
_cell_length_a   16.09004377
_cell_length_b   16.11575566
_cell_length_c   27.28577069
_cell_angle_alpha   89.98594315
_cell_angle_beta   89.97810427
_cell_angle_gamma   89.96623886
_symmetry_Int_Tables_number   1
_chemical_formula_structural   La6Ce7Pr13Nd19Sm19(BiS2)64
_chemical_formula_sum   'La6 Ce7 Pr13 Nd19 Sm19 Bi64 S128'
_cell_volume   7075.28607642
_cell_formula_units_Z   1
loop_
 _symmetry_equiv_pos_site_id
 _symmetry_equiv_pos_as_xyz
  1  'x, y, z'
loop_
 _atom_type_symbol
 _atom_type_oxidation_number
  La3+  3.0
  Ce3+  3.0
  Pr3+  3.0
  Nd3+  3.0
  Sm3+  3.0
  Bi2+  2.0
  S2-  -2.0
loop_
 _atom_site_type_symbol
 _atom_site_label
 _atom_site_symmetry_multiplicity
 _atom_site_fract_x
 _atom_site_fract_y
 _atom_site_fract_z
 _atom_site_occupancy
  La3+  La0  1  0.23904590  0.11792105  0.55807280  1
  La3+  La1  1  0.26156894  0.11747602  0.09005389  1
  La3+  La2  1  0.74133090  0.36555187  0.56030742  1
  La3+  La3  1  0.60822896  0.74784745  0.40995355  1
  La3+  La4  1  0.10894995  -0.01084042  0.40904760  1
  La3+  La5  1  0.38437188  0.49794187  0.88944104  1
  Ce3+  Ce6  1  0.36507898  0.24426925  0.92866826  1
  Ce3+  Ce7  1  0.86650278  0.49342051  0.43869961  1
  Ce3+  Ce8  1  0.50168535  0.61851393  0.04774572  1
  Ce3+  Ce9  1  0.74477361  0.62127926  0.55666768  1
  Ce3+  Ce10  1  0.13131484  0.24726025  0.94998367  1
  Ce3+  Ce11  1  0.00036380  0.36790249  0.55636719  1
  Ce3+  Ce12  1  0.87086763  0.24232103  0.44385589  1
  Pr3+  Pr13  1  0.36831126  -0.00541559  0.43316084  1
  Pr3+  Pr14  1  0.49571507  0.62272793  0.56462578  1
  Pr3+  Pr15  1  0.11964386  0.73980509  0.42891954  1
  Pr3+  Pr16  1  0.25232178  0.86793307  0.06193383  1
  Pr3+  Pr17  1  0.12265781  0.75408874  0.93187658  1
  Pr3+  Pr18  1  0.12243097  0.25334991  0.40992252  1
  Pr3+  Pr19  1  0.00399125  0.37309720  0.05814949  1
  Pr3+  Pr20  1  0.00798175  0.86891892  0.56683699  1
  Pr3+  Pr21  1  0.48817657  0.11705267  0.56919002  1
  Pr3+  Pr22  1  0.13017252  0.50609215  0.93224456  1
  Pr3+  Pr23  1  0.63785457  0.49471455  0.91218240  1
  Pr3+  Pr24  1  0.86889424  0.74346578  0.44062679  1
  Pr3+  Pr25  1  0.37015757  0.24716287  0.43702678  1
  Nd3+  Nd26  1  0.74729202  0.87159832  0.06112541  1
  Nd3+  Nd27  1  0.61667489  0.49265880  0.44573472  1
  Nd3+  Nd28  1  0.00316378  0.12161465  0.06887755  1
  Nd3+  Nd29  1  0.62772676  0.00622010  0.93400901  1
  Nd3+  Nd30  1  0.23974935  0.36899204  0.56613834  1
  Nd3+  Nd31  1  0.74381554  0.11648985  0.56267114  1
  Nd3+  Nd32  1  0.23212593  0.62463455  0.58217930  1
  Nd3+  Nd33  1  0.87162426  0.75059681  0.94147260  1
  Nd3+  Nd34  1  0.87369188  0.00052351  0.95552827  1
  Nd3+  Nd35  1  0.36760681  0.74202951  0.44725406  1
  Nd3+  Nd36  1  0.49962685  0.37384866  0.05258070  1
  Nd3+  Nd37  1  0.74558732  0.87078076  0.55596950  1
  Nd3+  Nd38  1  0.37695171  0.74832320  0.93169678  1
  Nd3+  Nd39  1  0.74669356  0.12436573  0.06981634  1
  Nd3+  Nd40  1  0.62437197  0.25151200  0.93305536  1
  Nd3+  Nd41  1  0.48757288  0.36525877  0.58188240  1
  Nd3+  Nd42  1  0.25366655  0.37285390  0.06259481  1
  Nd3+  Nd43  1  -0.01106051  0.61940533  0.56054648  1
  Nd3+  Nd44  1  0.61988449  -0.00467439  0.43720088  1
  Sm3+  Sm45  1  0.87123921  -0.00701234  0.44700608  1
  Sm3+  Sm46  1  0.25134743  0.62572837  0.05890287  1
  Sm3+  Sm47  1  0.00287529  0.11814849  0.55226127  1
  Sm3+  Sm48  1  0.87694830  0.24791603  0.95021858  1
  Sm3+  Sm49  1  0.37390466  0.00319798  0.93561645  1
  Sm3+  Sm50  1  0.12506650  -0.00454904  0.94413026  1
  Sm3+  Sm51  1  0.24082530  0.86918729  0.55014359  1
  Sm3+  Sm52  1  0.74716679  0.62140681  0.05978966  1
  Sm3+  Sm53  1  0.37059901  0.49301866  0.45180926  1
  Sm3+  Sm54  1  0.12170718  0.49447629  0.43981693  1
  Sm3+  Sm55  1  0.49934085  0.12448521  0.05676957  1
  Sm3+  Sm56  1  -0.00038474  0.62309279  0.05647272  1
  Sm3+  Sm57  1  0.74934720  0.37301437  0.06119487  1
  Sm3+  Sm58  1  0.87476361  0.49724386  0.94505970  1
  Sm3+  Sm59  1  0.49493352  0.86959245  0.56031404  1
  Sm3+  Sm60  1  0.50099513  0.87379532  0.05164168  1
  Sm3+  Sm61  1  0.00018244  0.86956500  0.06898124  1
  Sm3+  Sm62  1  0.62473389  0.74913858  0.93976459  1
  Sm3+  Sm63  1  0.61245997  0.24447352  0.43741909  1
  Bi2+  Bi64  1  -0.02450506  0.11563176  0.29069878  1
  Bi2+  Bi65  1  0.04202321  0.10521570  0.78912151  1
  Bi2+  Bi66  1  0.00334660  0.45462292  0.27826222  1
  Bi2+  Bi67  1  0.00404426  0.38572205  0.77970209  1
  Bi2+  Bi68  1  -0.01302556  0.64550007  0.29117002  1
  Bi2+  Bi69  1  -0.00454866  0.64226093  0.78198938  1
  Bi2+  Bi70  1  -0.01022541  0.84846076  0.27856884  1
  Bi2+  Bi71  1  -0.02041549  0.89888376  0.80064414  1
  Bi2+  Bi72  1  0.25416480  0.12438648  0.29395075  1
  Bi2+  Bi73  1  0.24951454  0.12623245  0.78770497  1
  Bi2+  Bi74  1  0.25355060  0.39932124  0.29338639  1
  Bi2+  Bi75  1  0.26056196  0.35146594  0.78790268  1
  Bi2+  Bi76  1  0.18656955  0.65293683  0.30926844  1
  Bi2+  Bi77  1  0.23421875  0.60964432  0.77938713  1
  Bi2+  Bi78  1  0.28808033  0.82805336  0.30685466  1
  Bi2+  Bi79  1  0.26084793  0.92884238  0.80610120  1
  Bi2+  Bi80  1  0.49851907  0.13786122  0.28303692  1
  Bi2+  Bi81  1  0.50285783  0.11187009  0.78127798  1
  Bi2+  Bi82  1  0.47039561  0.39482940  0.29725153  1
  Bi2+  Bi83  1  0.51986027  0.39348205  0.77679059  1
  Bi2+  Bi84  1  0.48430536  0.64135545  0.28678537  1
  Bi2+  Bi85  1  0.54680036  0.66466129  0.76908829  1
  Bi2+  Bi86  1  0.54562652  0.89601114  0.25825533  1
  Bi2+  Bi87  1  0.55207706  0.93219268  0.81883688  1
  Bi2+  Bi88  1  0.67702478  0.12221046  0.33308214  1
  Bi2+  Bi89  1  0.77022567  0.11731019  0.79945976  1
  Bi2+  Bi90  1  0.69900282  0.31509805  0.30551205  1
  Bi2+  Bi91  1  0.78193824  0.36756457  0.79558805  1
  Bi2+  Bi92  1  0.72201549  0.52319050  0.27793791  1
  Bi2+  Bi93  1  0.75291358  0.62561446  0.78238127  1
  Bi2+  Bi94  1  0.72928003  0.81067315  0.28919192  1
  Bi2+  Bi95  1  0.73960378  0.91860720  0.78980558  1
  Bi2+  Bi96  1  0.11498001  -0.00568276  0.19963956  1
  Bi2+  Bi97  1  0.15483170  0.00015563  0.70982873  1
  Bi2+  Bi98  1  0.10240926  0.25876832  0.20369055  1
  Bi2+  Bi99  1  0.11921468  0.23530333  0.70461003  1
  Bi2+  Bi100  1  0.17431670  0.52386198  0.21496439  1
  Bi2+  Bi101  1  0.11333699  0.49563887  0.70782664  1
  Bi2+  Bi102  1  0.12556740  0.72218550  0.20659997  1
  Bi2+  Bi103  1  0.06632607  0.77521251  0.70529211  1
  Bi2+  Bi104  1  0.39918933  -0.01200975  0.20596896  1
  Bi2+  Bi105  1  0.36678120  -0.02289090  0.71188636  1
  Bi2+  Bi106  1  0.38961628  0.26147672  0.20915074  1
  Bi2+  Bi107  1  0.38629707  0.22463548  0.70538655  1
  Bi2+  Bi108  1  0.37261885  0.53127042  0.21359262  1
  Bi2+  Bi109  1  0.40077929  0.52970896  0.67807304  1
  Bi2+  Bi110  1  0.35343802  0.73121258  0.21932800  1
  Bi2+  Bi111  1  0.41118851  0.80743685  0.79365836  1
  Bi2+  Bi112  1  0.64826288  0.05030889  0.21016161  1
  Bi2+  Bi113  1  0.60562035  0.00946225  0.70365178  1
  Bi2+  Bi114  1  0.61947412  0.24586216  0.20659912  1
  Bi2+  Bi115  1  0.66388205  0.25663415  0.70488950  1
  Bi2+  Bi116  1  0.57106467  0.49560508  0.20164773  1
  Bi2+  Bi117  1  0.70566177  0.51121642  0.69436070  1
  Bi2+  Bi118  1  0.62854765  0.75379636  0.18964068  1
  Bi2+  Bi119  1  0.65871425  0.78515944  0.70891886  1
  Bi2+  Bi120  1  0.79707906  -0.00530092  0.28542608  1
  Bi2+  Bi121  1  0.89793460  0.03325320  0.72215700  1
  Bi2+  Bi122  1  0.86015778  0.26810032  0.25193461  1
  Bi2+  Bi123  1  0.92806294  0.23027202  0.72280109  1
  Bi2+  Bi124  1  0.85211737  0.44677896  0.20423600  1
  Bi2+  Bi125  1  0.91509518  0.50971496  0.70769498  1
  Bi2+  Bi126  1  0.87250377  0.74044807  0.18879009  1
  Bi2+  Bi127  1  0.85490647  0.76767332  0.72011530  1
  S2-  S128  1  0.00543334  0.12166445  0.16872005  1
  S2-  S129  1  0.10978642  0.10966946  0.63041514  1
  S2-  S130  1  -0.00064233  0.37054612  0.15744913  1
  S2-  S131  1  0.10581442  0.36373560  0.63525975  1
  S2-  S132  1  -0.00573336  0.63754602  0.15365644  1
  S2-  S133  1  0.08650170  0.63589138  0.64188316  1
  S2-  S134  1  -0.01235311  0.88129229  0.16782453  1
  S2-  S135  1  -0.05922862  0.87301553  0.66167381  1
  S2-  S136  1  0.20806229  0.13078100  0.19071804  1
  S2-  S137  1  0.34996679  0.10680090  0.64027084  1
  S2-  S138  1  0.24971859  0.31793318  0.15735560  1
  S2-  S139  1  0.34553421  0.36575137  0.64804380  1
  S2-  S140  1  0.25130121  0.73889346  0.13434674  1
  S2-  S141  1  0.29046375  0.64911243  0.67801895  1
  S2-  S142  1  0.25926350  0.95967058  0.14754594  1
  S2-  S143  1  0.15507476  0.87038857  0.63566997  1
  S2-  S144  1  0.41652681  0.12069973  0.14356227  1
  S2-  S145  1  0.52807121  0.22963579  0.64496367  1
  S2-  S146  1  0.48904096  0.34661336  0.15282069  1
  S2-  S147  1  0.55824544  0.43270716  0.67324230  1
  S2-  S148  1  0.52575931  0.63186553  0.14512203  1
  S2-  S149  1  0.52042094  0.65462084  0.66279240  1
  S2-  S150  1  0.49744763  0.87855206  0.14983443  1
  S2-  S151  1  0.48741238  0.90494167  0.65625687  1
  S2-  S152  1  0.76018941  0.16428572  0.16582972  1
  S2-  S153  1  0.73155054  0.12911786  0.66173630  1
  S2-  S154  1  0.70846547  0.40286853  0.15460977  1
  S2-  S155  1  0.77468464  0.35814305  0.65867245  1
  S2-  S156  1  0.75489784  0.64155540  0.15836433  1
  S2-  S157  1  0.82553068  0.62010244  0.64296102  1
  S2-  S158  1  0.75457616  0.86175366  0.15978164  1
  S2-  S159  1  0.71871853  0.90730180  0.65129470  1
  S2-  S160  1  0.12584330  0.02383836  0.30408404  1
  S2-  S161  1  0.11076236  -0.11026503  0.86473791  1
  S2-  S162  1  0.10506353  0.21554436  0.30605473  1
  S2-  S163  1  0.19653337  0.24500597  0.86084973  1
  S2-  S164  1  0.11390764  0.41082203  0.35414749  1
  S2-  S165  1  0.22077458  0.47417066  0.84781077  1
  S2-  S166  1  0.11361559  0.84066428  0.34665164  1
  S2-  S167  1  0.11871631  0.64193889  0.85374393  1
  S2-  S168  1  0.34252631  -0.01829761  0.33294916  1
  S2-  S169  1  0.38198550  0.11314618  0.85918748  1
  S2-  S170  1  0.27626321  0.25962647  0.35195525  1
  S2-  S171  1  0.40330735  0.33315402  0.84589110  1
  S2-  S172  1  0.36425295  0.49197239  0.35339212  1
  S2-  S173  1  0.36848741  0.48626907  0.76913651  1
  S2-  S174  1  0.43967991  0.74744670  0.35667083  1
  S2-  S175  1  0.34964707  0.66294360  0.84593659  1
  S2-  S176  1  0.60832714  -0.10293986  0.35376338  1
  S2-  S177  1  0.63388441  0.12768979  0.86017202  1
  S2-  S178  1  0.49463298  0.25695299  0.36308138  1
  S2-  S179  1  0.64068307  0.34875187  0.84741746  1
  S2-  S180  1  0.60851777  0.45288414  0.34904498  1
  S2-  S181  1  0.53297948  0.52564450  0.83271379  1
  S2-  S182  1  0.65246727  0.66334431  0.32446291  1
  S2-  S183  1  0.65895916  0.71657138  0.84626114  1
  S2-  S184  1  0.93490918  -0.01571961  0.35650928  1
  S2-  S185  1  0.86233545  -0.00324018  0.85729666  1
  S2-  S186  1  0.90908050  0.24747644  0.34866656  1
  S2-  S187  1  0.85378693  0.24657126  0.85339629  1
  S2-  S188  1  0.86529103  0.50920112  0.34147174  1
  S2-  S189  1  0.79604435  0.50178755  0.85811034  1
  S2-  S190  1  0.88027119  0.75980798  0.34047647  1
  S2-  S191  1  0.91667998  0.75946114  0.84639573  1
  S2-  S192  1  -0.00359011  0.11973547  0.44866334  1
  S2-  S193  1  0.00146515  0.12172595  0.95976022  1
  S2-  S194  1  -0.00651943  0.37185407  0.45231608  1
  S2-  S195  1  0.00183214  0.37459843  0.95000808  1
  S2-  S196  1  -0.00540172  0.61605472  0.45046546  1
  S2-  S197  1  -0.00632944  0.62270468  0.95295107  1
  S2-  S198  1  -0.00609149  0.86585743  0.45608268  1
  S2-  S199  1  -0.00589301  0.87528640  0.96428991  1
  S2-  S200  1  0.23906176  0.11546844  0.44314404  1
  S2-  S201  1  0.24565833  0.11452742  0.96178041  1
  S2-  S202  1  0.24523142  0.37480558  0.45860928  1
  S2-  S203  1  0.25068756  0.37734622  0.95790360  1
  S2-  S204  1  0.24595105  0.61674553  0.45496515  1
  S2-  S205  1  0.25219528  0.62800683  0.95719362  1
  S2-  S206  1  0.24403696  0.86784488  0.44724769  1
  S2-  S207  1  0.25588034  0.87578807  0.95466024  1
  S2-  S208  1  0.49408932  0.11580101  0.45784482  1
  S2-  S209  1  0.50050656  0.12456842  0.95621331  1
  S2-  S210  1  0.49407554  0.37234835  0.46888160  1
  S2-  S211  1  0.50276035  0.38025121  0.94955623  1
  S2-  S212  1  0.49531589  0.61915370  0.45718713  1
  S2-  S213  1  0.50320315  0.62350278  0.94363753  1
  S2-  S214  1  0.49269768  0.86919275  0.45742807  1
  S2-  S215  1  0.50166815  0.87676867  0.94731131  1
  S2-  S216  1  0.74621726  0.11782183  0.45635795  1
  S2-  S217  1  0.75223091  0.12753731  0.96354422  1
  S2-  S218  1  0.74168478  0.36483560  0.45227230  1
  S2-  S219  1  0.75478506  0.37033017  0.95836787  1
  S2-  S220  1  0.73845969  0.62148340  0.44920383  1
  S2-  S221  1  0.74971419  0.62453564  0.95571808  1
  S2-  S222  1  0.74588170  0.87030004  0.44992624  1
  S2-  S223  1  0.74679078  0.87569227  0.95410863  1
  S2-  S224  1  0.12171637  -0.00568895  0.04931334  1
  S2-  S225  1  0.11961087  -0.00865745  0.52732681  1
  S2-  S226  1  0.12867184  0.24291153  0.05561715  1
  S2-  S227  1  0.11871577  0.24500710  0.52948061  1
  S2-  S228  1  0.12689999  0.50239612  0.04740776  1
  S2-  S229  1  0.12016890  0.49968466  0.54235524  1
  S2-  S230  1  0.11817964  0.74740009  0.04023211  1
  S2-  S231  1  0.12177522  0.74013017  0.53554837  1
  S2-  S232  1  0.38011277  -0.00347735  0.03995182  1
  S2-  S233  1  0.36674015  -0.01282439  0.54023968  1
  S2-  S234  1  0.37513038  0.24781579  0.04165719  1
  S2-  S235  1  0.36636004  0.24481903  0.54325674  1
  S2-  S236  1  0.37254583  0.50055882  0.05834240  1
  S2-  S237  1  0.36166546  0.50477443  0.55488219  1
  S2-  S238  1  0.38246505  0.74784043  0.03844342  1
  S2-  S239  1  0.36583750  0.74790583  0.55429089  1
  S2-  S240  1  0.62416976  -0.00027860  0.04659398  1
  S2-  S241  1  0.61704107  -0.00506899  0.54466219  1
  S2-  S242  1  0.62539204  0.24830766  0.04682477  1
  S2-  S243  1  0.61962651  0.23935005  0.54143054  1
  S2-  S244  1  0.62949981  0.49606387  0.04212857  1
  S2-  S245  1  0.61895045  0.49525353  0.55178311  1
  S2-  S246  1  0.62535922  0.74779866  0.04398606  1
  S2-  S247  1  0.62107714  0.74880029  0.54989096  1
  S2-  S248  1  0.87452594  -0.00308494  0.06139558  1
  S2-  S249  1  0.87526049  -0.00401544  0.55123667  1
  S2-  S250  1  0.87531426  0.24819569  0.05536880  1
  S2-  S251  1  0.87423899  0.23884573  0.55153868  1
  S2-  S252  1  0.87370130  0.49853229  0.04962825  1
  S2-  S253  1  0.87048562  0.49080942  0.54491354  1
  S2-  S254  1  0.87326191  0.74643384  0.04819137  1
  S2-  S255  1  0.87269052  0.74951481  0.54662226  1
