# generated using pymatgen
data_La6Ce7Pr13Nd19Sm19(BiS2)64
_symmetry_space_group_name_H-M   'P 1'
_cell_length_a   16.07935027
_cell_length_b   16.04738078
_cell_length_c   27.41926040
_cell_angle_alpha   89.95015064
_cell_angle_beta   89.80582678
_cell_angle_gamma   90.00299551
_symmetry_Int_Tables_number   1
_chemical_formula_structural   La6Ce7Pr13Nd19Sm19(BiS2)64
_chemical_formula_sum   'La6 Ce7 Pr13 Nd19 Sm19 Bi64 S128'
_cell_volume   7074.98837905
_cell_formula_units_Z   1
loop_
 _symmetry_equiv_pos_site_id
 _symmetry_equiv_pos_as_xyz
  1  'x, y, z'
loop_
 _atom_type_symbol
 _atom_type_oxidation_number
  La3+  3.0
  Ce3+  3.0
  Pr3+  3.0
  Nd3+  3.0
  Sm3+  3.0
  Bi2+  2.0
  S2-  -2.0
loop_
 _atom_site_type_symbol
 _atom_site_label
 _atom_site_symmetry_multiplicity
 _atom_site_fract_x
 _atom_site_fract_y
 _atom_site_fract_z
 _atom_site_occupancy
  La3+  La0  1  0.89114987  0.26166273  0.88524757  1
  La3+  La1  1  0.25472112  0.61565789  0.60716455  1
  La3+  La2  1  0.24960097  0.87444201  0.56924437  1
  La3+  La3  1  0.63305623  -0.00074146  0.39387478  1
  La3+  La4  1  0.39278157  0.76148255  0.89299003  1
  La3+  La5  1  0.74216424  0.11767756  0.58836225  1
  Ce3+  Ce6  1  0.00112244  0.87992848  0.55527749  1
  Ce3+  Ce7  1  0.25601572  0.11911991  0.05840839  1
  Ce3+  Ce8  1  0.38275820  0.24892687  0.93761096  1
  Ce3+  Ce9  1  0.87945712  0.49475487  0.94636170  1
  Ce3+  Ce10  1  0.63073637  0.49512911  0.94610072  1
  Ce3+  Ce11  1  0.87868273  0.75122145  0.93486997  1
  Ce3+  Ce12  1  0.00437935  0.62235028  0.05453347  1
  Pr3+  Pr13  1  0.00370384  0.62763596  0.56587873  1
  Pr3+  Pr14  1  0.25140480  0.12558488  0.56607601  1
  Pr3+  Pr15  1  0.62538621  0.50119897  0.42745392  1
  Pr3+  Pr16  1  0.25532380  0.62044114  0.06065619  1
  Pr3+  Pr17  1  0.25690723  0.36610040  0.06603099  1
  Pr3+  Pr18  1  0.37895443  0.49558537  0.93187568  1
  Pr3+  Pr19  1  0.87289934  0.24931945  0.44637211  1
  Pr3+  Pr20  1  0.51087636  0.12740693  0.09265403  1
  Pr3+  Pr21  1  0.12975009  0.75083741  0.43493854  1
  Pr3+  Pr22  1  0.37876854  0.00222843  0.43800527  1
  Pr3+  Pr23  1  0.12481832  -0.00070988  0.42815986  1
  Pr3+  Pr24  1  0.74948443  0.62587792  0.56916699  1
  Pr3+  Pr25  1  0.62786221  0.25188558  0.43037878  1
  Nd3+  Nd26  1  0.13414220  0.74623149  0.93991934  1
  Nd3+  Nd27  1  0.75188634  0.86659764  0.06461579  1
  Nd3+  Nd28  1  0.12564021  0.25454380  0.44469693  1
  Nd3+  Nd29  1  0.75369297  0.62087448  0.06330403  1
  Nd3+  Nd30  1  0.12707009  0.49376033  0.94395824  1
  Nd3+  Nd31  1  0.00184388  0.37858232  0.56210716  1
  Nd3+  Nd32  1  0.74885928  0.88013509  0.55424355  1
  Nd3+  Nd33  1  0.12686096  0.24362610  0.94656865  1
  Nd3+  Nd34  1  0.62893792  0.74436934  0.93792880  1
  Nd3+  Nd35  1  0.37704676  0.75166190  0.44335274  1
  Nd3+  Nd36  1  0.75603311  0.11570550  0.06174721  1
  Nd3+  Nd37  1  0.00350969  0.87240018  0.06054345  1
  Nd3+  Nd38  1  0.00226435  0.36809556  0.06661957  1
  Nd3+  Nd39  1  0.87736342  -0.00488824  0.92976075  1
  Nd3+  Nd40  1  0.50289455  0.12815741  0.55555989  1
  Nd3+  Nd41  1  0.37539367  0.25295749  0.43748051  1
  Nd3+  Nd42  1  0.87641378  0.50649214  0.43830424  1
  Nd3+  Nd43  1  0.50608195  0.36880013  0.06145914  1
  Nd3+  Nd44  1  0.50161458  0.86794991  0.06331672  1
  Sm3+  Sm45  1  0.37503621  0.50567811  0.44027088  1
  Sm3+  Sm46  1  0.00124689  0.11793789  0.05473888  1
  Sm3+  Sm47  1  0.12139970  0.50873975  0.43212543  1
  Sm3+  Sm48  1  0.50140235  0.61997015  0.05748416  1
  Sm3+  Sm49  1  0.87436960  0.75197818  0.44507903  1
  Sm3+  Sm50  1  0.50273613  0.37746244  0.55490490  1
  Sm3+  Sm51  1  0.38368917  -0.00254869  0.94729795  1
  Sm3+  Sm52  1  0.87536960  0.00405223  0.43209017  1
  Sm3+  Sm53  1  0.62833756  -0.00456110  0.94694160  1
  Sm3+  Sm54  1  0.63502221  0.24182156  0.93687595  1
  Sm3+  Sm55  1  0.25702251  0.87086723  0.05463878  1
  Sm3+  Sm56  1  0.00134268  0.12650135  0.55813525  1
  Sm3+  Sm57  1  0.50417112  0.62641634  0.56234494  1
  Sm3+  Sm58  1  0.25171372  0.38228493  0.55211385  1
  Sm3+  Sm59  1  0.13269245  -0.00653889  0.94063992  1
  Sm3+  Sm60  1  0.75439377  0.36524215  0.05517679  1
  Sm3+  Sm61  1  0.74965949  0.37710765  0.55475436  1
  Sm3+  Sm62  1  0.50335335  0.87833373  0.55233875  1
  Sm3+  Sm63  1  0.62932054  0.75080771  0.43878392  1
  Bi2+  Bi64  1  0.01681146  0.11509560  0.27028348  1
  Bi2+  Bi65  1  0.01436234  0.12601540  0.78539343  1
  Bi2+  Bi66  1  -0.02645707  0.34646429  0.30146236  1
  Bi2+  Bi67  1  0.03324207  0.39089749  0.79615970  1
  Bi2+  Bi68  1  -0.00365295  0.63714109  0.30858313  1
  Bi2+  Bi69  1  -0.05607705  0.58181903  0.79269556  1
  Bi2+  Bi70  1  0.03611777  0.90772584  0.28489849  1
  Bi2+  Bi71  1  -0.05225672  0.83321111  0.73521874  1
  Bi2+  Bi72  1  0.20941575  0.09949973  0.25776534  1
  Bi2+  Bi73  1  0.29241226  0.13560961  0.78964722  1
  Bi2+  Bi74  1  0.22791497  0.36114684  0.29585776  1
  Bi2+  Bi75  1  0.28521025  0.33127799  0.76798655  1
  Bi2+  Bi76  1  0.22462028  0.54821599  0.27737091  1
  Bi2+  Bi77  1  0.22797483  0.63473109  0.81619702  1
  Bi2+  Bi78  1  0.23165183  0.81023456  0.27616131  1
  Bi2+  Bi79  1  0.20889584  0.90119317  0.80544388  1
  Bi2+  Bi80  1  0.46910219  0.12562803  0.28883281  1
  Bi2+  Bi81  1  0.48520143  0.17689458  0.82782267  1
  Bi2+  Bi82  1  0.48125287  0.39521825  0.29547821  1
  Bi2+  Bi83  1  0.49761426  0.37211229  0.79914278  1
  Bi2+  Bi84  1  0.54836964  0.58700922  0.30539585  1
  Bi2+  Bi85  1  0.54377802  0.62074231  0.79667440  1
  Bi2+  Bi86  1  0.46960652  0.85825359  0.30266255  1
  Bi2+  Bi87  1  0.50923578  0.98890040  0.79559186  1
  Bi2+  Bi88  1  0.75631852  0.14405384  0.28533319  1
  Bi2+  Bi89  1  0.73855311  0.11348431  0.78599694  1
  Bi2+  Bi90  1  0.76573361  0.41936742  0.29658954  1
  Bi2+  Bi91  1  0.69248381  0.37297941  0.77979332  1
  Bi2+  Bi92  1  0.74086484  0.60630589  0.33396911  1
  Bi2+  Bi93  1  0.77324145  0.66746166  0.80996671  1
  Bi2+  Bi94  1  0.76250558  0.85274870  0.28842865  1
  Bi2+  Bi95  1  0.75150419  0.86277510  0.79450531  1
  Bi2+  Bi96  1  0.12119494  -0.01134279  0.18117691  1
  Bi2+  Bi97  1  0.12346748  0.02889555  0.70950109  1
  Bi2+  Bi98  1  0.13253610  0.26081168  0.20208321  1
  Bi2+  Bi99  1  0.15729854  0.22594775  0.70532683  1
  Bi2+  Bi100  1  0.02935368  0.48839196  0.22636392  1
  Bi2+  Bi101  1  0.12012882  0.49466641  0.71310132  1
  Bi2+  Bi102  1  0.12372880  0.71989096  0.19739278  1
  Bi2+  Bi103  1  0.12119660  0.77122218  0.71089881  1
  Bi2+  Bi104  1  0.37184469  -0.07353072  0.21252169  1
  Bi2+  Bi105  1  0.37505616  0.01147212  0.71237987  1
  Bi2+  Bi106  1  0.36132632  0.32342238  0.21280453  1
  Bi2+  Bi107  1  0.35104979  0.20073390  0.67949269  1
  Bi2+  Bi108  1  0.45460411  0.49218566  0.18504883  1
  Bi2+  Bi109  1  0.38603585  0.47066208  0.70543327  1
  Bi2+  Bi110  1  0.37575442  0.65701555  0.23200097  1
  Bi2+  Bi111  1  0.40488153  0.75177901  0.70945951  1
  Bi2+  Bi112  1  0.61487163  -0.01242993  0.19594024  1
  Bi2+  Bi113  1  0.59773740  -0.02335954  0.69635245  1
  Bi2+  Bi114  1  0.62975476  0.25895401  0.21314357  1
  Bi2+  Bi115  1  0.53783367  0.23217480  0.72110342  1
  Bi2+  Bi116  1  0.64774600  0.50762029  0.20860760  1
  Bi2+  Bi117  1  0.61056837  0.50433690  0.71007319  1
  Bi2+  Bi118  1  0.65556800  0.70718023  0.23634464  1
  Bi2+  Bi119  1  0.68609100  0.73941760  0.71352676  1
  Bi2+  Bi120  1  0.86033713  0.03264970  0.21482134  1
  Bi2+  Bi121  1  0.85110540  0.00087028  0.72177560  1
  Bi2+  Bi122  1  0.82988114  0.28718322  0.21608677  1
  Bi2+  Bi123  1  0.89862561  0.27796350  0.68140430  1
  Bi2+  Bi124  1  0.84285036  0.56765596  0.22774432  1
  Bi2+  Bi125  1  0.81624026  0.50028630  0.71948995  1
  Bi2+  Bi126  1  0.91771281  0.77373843  0.23659217  1
  Bi2+  Bi127  1  0.86355745  0.68028117  0.68007430  1
  S2-  S128  1  -0.01915973  0.08555192  0.15021870  1
  S2-  S129  1  0.01475076  0.14857384  0.65506636  1
  S2-  S130  1  -0.01035132  0.34702541  0.16504873  1
  S2-  S131  1  0.00758195  0.41907746  0.65831988  1
  S2-  S132  1  0.01613745  0.60995877  0.15056676  1
  S2-  S133  1  0.09336248  0.63300868  0.65214437  1
  S2-  S134  1  0.01216710  0.85081416  0.15840081  1
  S2-  S135  1  0.04150555  0.89491988  0.64941773  1
  S2-  S136  1  0.23385285  0.13220205  0.15465135  1
  S2-  S137  1  0.24587088  0.00500564  0.64089563  1
  S2-  S138  1  0.22242494  0.39020011  0.16283428  1
  S2-  S139  1  0.24783710  0.44387743  0.64257903  1
  S2-  S140  1  0.24581879  0.62870929  0.16086391  1
  S2-  S141  1  0.26563366  0.59032755  0.72739930  1
  S2-  S142  1  0.25474599  0.87437670  0.15258636  1
  S2-  S143  1  0.26035832  0.77694428  0.65496837  1
  S2-  S144  1  0.45856279  0.07318286  0.18589125  1
  S2-  S145  1  0.58590016  0.12713157  0.64352057  1
  S2-  S146  1  0.49995973  0.27987102  0.14718346  1
  S2-  S147  1  0.51645251  0.38177461  0.65228652  1
  S2-  S148  1  0.48558825  0.65483977  0.15303765  1
  S2-  S149  1  0.41624787  0.61349879  0.64785872  1
  S2-  S150  1  0.51837074  0.86762319  0.16239612  1
  S2-  S151  1  0.50643744  0.86018819  0.65055892  1
  S2-  S152  1  0.66597048  0.13722294  0.14650149  1
  S2-  S153  1  0.78677998  0.16043064  0.68540801  1
  S2-  S154  1  0.72579292  0.37429728  0.15170950  1
  S2-  S155  1  0.76399372  0.37523186  0.65164503  1
  S2-  S156  1  0.75241709  0.68349660  0.15506945  1
  S2-  S157  1  0.62418147  0.62709510  0.63874658  1
  S2-  S158  1  0.77021910  0.92754608  0.15588425  1
  S2-  S159  1  0.75163196  0.95517456  0.64398979  1
  S2-  S160  1  -0.00251341  0.02468045  0.35773387  1
  S2-  S161  1  0.09609780  -0.00178539  0.84485531  1
  S2-  S162  1  0.11603186  0.26735074  0.34650118  1
  S2-  S163  1  0.06694642  0.24933523  0.85438295  1
  S2-  S164  1  0.14225946  0.62943402  0.35780890  1
  S2-  S165  1  0.15769477  0.48836583  0.84682386  1
  S2-  S166  1  0.15166477  0.86981637  0.35766000  1
  S2-  S167  1  0.11920501  0.77005734  0.84172647  1
  S2-  S168  1  0.38108516  -0.00006770  0.33773126  1
  S2-  S169  1  0.37405573  -0.06329698  0.85665022  1
  S2-  S170  1  0.38778963  0.24076826  0.33920810  1
  S2-  S171  1  0.36056052  0.36374744  0.86282458  1
  S2-  S172  1  0.34400980  0.48289714  0.34350397  1
  S2-  S173  1  0.39070018  0.59654101  0.84888474  1
  S2-  S174  1  0.35845737  0.75117362  0.34363859  1
  S2-  S175  1  0.33431869  0.77263803  0.79313737  1
  S2-  S176  1  0.58173269  -0.00908230  0.29065403  1
  S2-  S177  1  0.66618750  -0.00411022  0.85060249  1
  S2-  S178  1  0.61375672  0.16001098  0.34430001  1
  S2-  S179  1  0.72188851  0.24768060  0.84995486  1
  S2-  S180  1  0.61999208  0.37664190  0.35381577  1
  S2-  S181  1  0.64239798  0.50080383  0.84965535  1
  S2-  S182  1  0.62294430  0.82646022  0.35135804  1
  S2-  S183  1  0.55350320  0.76047806  0.84873716  1
  S2-  S184  1  0.78858262  -0.00742363  0.34482014  1
  S2-  S185  1  0.87843576  0.09488146  0.84679753  1
  S2-  S186  1  0.86734771  0.23950760  0.34698723  1
  S2-  S187  1  0.91299035  0.26902250  0.77704597  1
  S2-  S188  1  0.98901743  0.48788339  0.36306290  1
  S2-  S189  1  0.89471203  0.43741911  0.85508727  1
  S2-  S190  1  0.88892866  0.76995780  0.34788361  1
  S2-  S191  1  0.88262001  0.86312563  0.86095903  1
  S2-  S192  1  0.00269440  0.13031401  0.45598131  1
  S2-  S193  1  0.00621910  0.11532349  0.95320460  1
  S2-  S194  1  0.00008115  0.37583816  0.45909010  1
  S2-  S195  1  0.00190352  0.36721568  0.96013134  1
  S2-  S196  1  -0.00220311  0.63094421  0.45971252  1
  S2-  S197  1  0.00450281  0.62318826  0.94794234  1
  S2-  S198  1  -0.00337508  0.87512504  0.45206453  1
  S2-  S199  1  0.00997698  0.87145773  0.95601750  1
  S2-  S200  1  0.24949568  0.12749846  0.45250135  1
  S2-  S201  1  0.25593489  0.11950200  0.95018170  1
  S2-  S202  1  0.24917272  0.38192858  0.44885799  1
  S2-  S203  1  0.24955923  0.36898571  0.96081329  1
  S2-  S204  1  0.25596402  0.62512322  0.45412311  1
  S2-  S205  1  0.25375292  0.61934709  0.95397685  1
  S2-  S206  1  0.25566444  0.87788577  0.46005875  1
  S2-  S207  1  0.25962783  0.86928498  0.95189207  1
  S2-  S208  1  0.50081959  0.12851040  0.45051197  1
  S2-  S209  1  0.50714600  0.12022732  0.95380334  1
  S2-  S210  1  0.49685771  0.37846186  0.45155693  1
  S2-  S211  1  0.51059872  0.36822472  0.95578519  1
  S2-  S212  1  0.50386266  0.62695000  0.45224322  1
  S2-  S213  1  0.50429343  0.62155621  0.95457757  1
  S2-  S214  1  0.50571393  0.87830749  0.44899991  1
  S2-  S215  1  0.50423991  0.87059985  0.95703651  1
  S2-  S216  1  0.74966717  0.12271376  0.44940399  1
  S2-  S217  1  0.75165839  0.11639673  0.95763556  1
  S2-  S218  1  0.75404888  0.38082211  0.45108795  1
  S2-  S219  1  0.75669382  0.36766284  0.95285837  1
  S2-  S220  1  0.75094379  0.62798039  0.46128620  1
  S2-  S221  1  0.75589505  0.62213480  0.95616113  1
  S2-  S222  1  0.75225780  0.87706743  0.45091061  1
  S2-  S223  1  0.74954257  0.87002161  0.95810103  1
  S2-  S224  1  0.13042285  -0.00495711  0.04481553  1
  S2-  S225  1  0.12364454  0.00670009  0.53804181  1
  S2-  S226  1  0.12587283  0.24205675  0.05208729  1
  S2-  S227  1  0.12838720  0.25389760  0.55027343  1
  S2-  S228  1  0.12825217  0.49274272  0.05069628  1
  S2-  S229  1  0.12541118  0.50146991  0.54023764  1
  S2-  S230  1  0.13123980  0.74830769  0.04637890  1
  S2-  S231  1  0.12420004  0.75336538  0.54341014  1
  S2-  S232  1  0.38268837  -0.00249158  0.05243708  1
  S2-  S233  1  0.38042157  0.00296881  0.54487664  1
  S2-  S234  1  0.38189194  0.24165251  0.04565567  1
  S2-  S235  1  0.37470433  0.25528373  0.54354356  1
  S2-  S236  1  0.38034797  0.49315621  0.04481911  1
  S2-  S237  1  0.37965752  0.50102608  0.54327860  1
  S2-  S238  1  0.37800451  0.74591122  0.05119671  1
  S2-  S239  1  0.38232791  0.75045137  0.54728479  1
  S2-  S240  1  0.62476128  -0.00511924  0.05073054  1
  S2-  S241  1  0.62357596  0.00148822  0.54252400  1
  S2-  S242  1  0.63045510  0.24471648  0.04115475  1
  S2-  S243  1  0.62870223  0.25408165  0.54188136  1
  S2-  S244  1  0.62954240  0.49577657  0.05193338  1
  S2-  S245  1  0.62635958  0.49811273  0.53846474  1
  S2-  S246  1  0.62671945  0.74308580  0.04619095  1
  S2-  S247  1  0.62663722  0.75478934  0.54209242  1
  S2-  S248  1  0.87818976  -0.00765827  0.04149274  1
  S2-  S249  1  0.87635458  0.00731353  0.54302408  1
  S2-  S250  1  0.87783861  0.24238617  0.05781000  1
  S2-  S251  1  0.87232547  0.24811780  0.55253755  1
  S2-  S252  1  0.87687753  0.49361934  0.05380798  1
  S2-  S253  1  0.87506971  0.50222819  0.54725014  1
  S2-  S254  1  0.87889831  0.74710207  0.04433958  1
  S2-  S255  1  0.87447808  0.75415716  0.54949097  1
