# generated using pymatgen
data_La6Ce7Pr13Nd19Sm19(BiS2)64
_symmetry_space_group_name_H-M   'P 1'
_cell_length_a   16.10294862
_cell_length_b   16.06272157
_cell_length_c   27.27185766
_cell_angle_alpha   90.26017638
_cell_angle_beta   89.92396384
_cell_angle_gamma   90.03021974
_symmetry_Int_Tables_number   1
_chemical_formula_structural   La6Ce7Pr13Nd19Sm19(BiS2)64
_chemical_formula_sum   'La6 Ce7 Pr13 Nd19 Sm19 Bi64 S128'
_cell_volume   7053.98190474
_cell_formula_units_Z   1
loop_
 _symmetry_equiv_pos_site_id
 _symmetry_equiv_pos_as_xyz
  1  'x, y, z'
loop_
 _atom_type_symbol
 _atom_type_oxidation_number
  La3+  3.0
  Ce3+  3.0
  Pr3+  3.0
  Nd3+  3.0
  Sm3+  3.0
  Bi2+  2.0
  S2-  -2.0
loop_
 _atom_site_type_symbol
 _atom_site_label
 _atom_site_symmetry_multiplicity
 _atom_site_fract_x
 _atom_site_fract_y
 _atom_site_fract_z
 _atom_site_occupancy
  La3+  La0  1  0.50351063  0.38291526  0.58017973  1
  La3+  La1  1  0.87976695  0.24642591  0.93707129  1
  La3+  La2  1  0.50848616  0.85984385  0.07369156  1
  La3+  La3  1  0.63794741  0.75538841  0.90254733  1
  La3+  La4  1  0.26017162  0.86599726  0.07423580  1
  La3+  La5  1  0.24061505  0.63147519  0.56792201  1
  Ce3+  Ce6  1  0.51093527  0.62281463  0.04029731  1
  Ce3+  Ce7  1  0.61305562  0.75198242  0.44173305  1
  Ce3+  Ce8  1  0.13128832  0.50114465  0.94330426  1
  Ce3+  Ce9  1  0.38168084  0.74579736  0.93071715  1
  Ce3+  Ce10  1  0.49853780  0.12432814  0.55474420  1
  Ce3+  Ce11  1  0.86960030  0.50501745  0.43800597  1
  Ce3+  Ce12  1  0.63145453  0.24962481  0.94571064  1
  Pr3+  Pr13  1  0.23546868  0.89272917  0.59277872  1
  Pr3+  Pr14  1  0.38448722  -0.00844954  0.94158522  1
  Pr3+  Pr15  1  0.13598942  0.75345865  0.93001297  1
  Pr3+  Pr16  1  0.75302123  0.86658798  0.07757357  1
  Pr3+  Pr17  1  0.74793854  0.87896911  0.55614634  1
  Pr3+  Pr18  1  0.64039193  0.48598851  0.90330271  1
  Pr3+  Pr19  1  0.00949139  0.62915491  0.07735688  1
  Pr3+  Pr20  1  0.11826574  0.75449752  0.42637991  1
  Pr3+  Pr21  1  0.50869279  0.37793245  0.05997419  1
  Pr3+  Pr22  1  0.01307206  0.87689244  0.07701078  1
  Pr3+  Pr23  1  0.87008770  0.00140337  0.43759305  1
  Pr3+  Pr24  1  0.62148506  0.25768652  0.42705026  1
  Pr3+  Pr25  1  0.37303071  0.25354459  0.44975644  1
  Nd3+  Nd26  1  0.86906277  0.25687978  0.42914686  1
  Nd3+  Nd27  1  0.12789122  0.50184055  0.42895774  1
  Nd3+  Nd28  1  0.87034407  0.74476699  0.42250222  1
  Nd3+  Nd29  1  0.75235072  0.37816013  0.56598058  1
  Nd3+  Nd30  1  0.13413303  0.24525559  0.93677554  1
  Nd3+  Nd31  1  0.74374819  0.63076004  0.55922854  1
  Nd3+  Nd32  1  0.13001229  0.00085136  0.93615189  1
  Nd3+  Nd33  1  0.48484596  0.64420306  0.58370687  1
  Nd3+  Nd34  1  0.36618279  0.75543902  0.44596167  1
  Nd3+  Nd35  1  0.25648659  0.37611152  0.06789129  1
  Nd3+  Nd36  1  0.00618726  0.37316395  0.05423998  1
  Nd3+  Nd37  1  0.37542010  0.50488554  0.44303748  1
  Nd3+  Nd38  1  0.00707198  0.12311873  0.06992567  1
  Nd3+  Nd39  1  0.88179319  0.50352373  0.94248454  1
  Nd3+  Nd40  1  0.49449744  0.88843568  0.56825709  1
  Nd3+  Nd41  1  0.50828931  0.12124300  0.06072596  1
  Nd3+  Nd42  1  0.25671599  0.12318300  0.05924722  1
  Nd3+  Nd43  1  0.61966382  -0.00500319  0.42392012  1
  Nd3+  Nd44  1  0.37299726  0.49334711  0.92430166  1
  Sm3+  Sm45  1  0.38471926  0.24941359  0.94672373  1
  Sm3+  Sm46  1  0.63208784  -0.00843650  0.94655991  1
  Sm3+  Sm47  1  0.88497917  0.74777989  0.94521868  1
  Sm3+  Sm48  1  0.75825943  0.37546125  0.06162237  1
  Sm3+  Sm49  1  0.37028434  0.00062828  0.43768055  1
  Sm3+  Sm50  1  0.75599517  0.62763220  0.05546807  1
  Sm3+  Sm51  1  0.26064535  0.61871702  0.06255407  1
  Sm3+  Sm52  1  0.12132097  0.25495047  0.44735221  1
  Sm3+  Sm53  1  -0.00478049  0.12893591  0.54942535  1
  Sm3+  Sm54  1  0.88097977  -0.00806984  0.94889839  1
  Sm3+  Sm55  1  0.00076720  0.63146996  0.55674528  1
  Sm3+  Sm56  1  -0.00754156  0.37941264  0.55712875  1
  Sm3+  Sm57  1  0.75674636  0.12111009  0.05743021  1
  Sm3+  Sm58  1  0.24247930  0.12824252  0.55633014  1
  Sm3+  Sm59  1  0.74539243  0.12965022  0.54834565  1
  Sm3+  Sm60  1  0.24627742  0.37998521  0.56227277  1
  Sm3+  Sm61  1  0.61394642  0.50301925  0.44332611  1
  Sm3+  Sm62  1  -0.00266322  0.87859222  0.55491703  1
  Sm3+  Sm63  1  0.12106031  0.00406942  0.43454637  1
  Bi2+  Bi64  1  0.02886558  0.17532445  0.28130122  1
  Bi2+  Bi65  1  -0.08919992  0.06284632  0.75872529  1
  Bi2+  Bi66  1  -0.03753344  0.36432415  0.28060965  1
  Bi2+  Bi67  1  0.00962109  0.39258261  0.79910160  1
  Bi2+  Bi68  1  -0.04597823  0.59234669  0.27184833  1
  Bi2+  Bi69  1  0.00740599  0.65236174  0.83545084  1
  Bi2+  Bi70  1  -0.00982688  0.89355593  0.29070110  1
  Bi2+  Bi71  1  0.00308648  0.83740849  0.79096899  1
  Bi2+  Bi72  1  0.28459935  0.14689904  0.27721635  1
  Bi2+  Bi73  1  0.20102800  0.13115418  0.77928215  1
  Bi2+  Bi74  1  0.26322230  0.33559382  0.30496635  1
  Bi2+  Bi75  1  0.19580584  0.32555246  0.81171558  1
  Bi2+  Bi76  1  0.20401454  0.57056026  0.28505676  1
  Bi2+  Bi77  1  0.18232292  0.61152053  0.79048671  1
  Bi2+  Bi78  1  0.26280511  0.86870669  0.31058762  1
  Bi2+  Bi79  1  0.25586514  0.86958385  0.79595337  1
  Bi2+  Bi80  1  0.46969584  0.20843581  0.24296431  1
  Bi2+  Bi81  1  0.52240781  0.12206104  0.79283502  1
  Bi2+  Bi82  1  0.49730530  0.40813312  0.30244546  1
  Bi2+  Bi83  1  0.50021386  0.36099148  0.79497184  1
  Bi2+  Bi84  1  0.47806848  0.62781944  0.27918833  1
  Bi2+  Bi85  1  0.49455119  0.63167807  0.79223655  1
  Bi2+  Bi86  1  0.49919818  0.92628582  0.30153771  1
  Bi2+  Bi87  1  0.49656745  0.92402646  0.78687632  1
  Bi2+  Bi88  1  0.76603533  0.16358249  0.25309667  1
  Bi2+  Bi89  1  0.72665485  0.11239813  0.79454025  1
  Bi2+  Bi90  1  0.77897705  0.40512289  0.30642461  1
  Bi2+  Bi91  1  0.78298541  0.34682967  0.79470448  1
  Bi2+  Bi92  1  0.72084683  0.69128393  0.31123549  1
  Bi2+  Bi93  1  0.82003178  0.63767557  0.79365366  1
  Bi2+  Bi94  1  0.75949706  0.88584523  0.29363641  1
  Bi2+  Bi95  1  0.77330632  0.90548551  0.79693770  1
  Bi2+  Bi96  1  0.12050778  0.00638023  0.21489457  1
  Bi2+  Bi97  1  0.10791090  0.01170193  0.70588268  1
  Bi2+  Bi98  1  0.13399334  0.20234296  0.18299345  1
  Bi2+  Bi99  1  0.08671425  0.26782266  0.71990888  1
  Bi2+  Bi100  1  0.15002522  0.43605738  0.20689556  1
  Bi2+  Bi101  1  0.09446748  0.48484150  0.70505167  1
  Bi2+  Bi102  1  0.11846459  0.73549883  0.20542620  1
  Bi2+  Bi103  1  0.11597937  0.74273898  0.71316316  1
  Bi2+  Bi104  1  0.38201341  0.01202782  0.21493810  1
  Bi2+  Bi105  1  0.38664619  0.04016774  0.71488275  1
  Bi2+  Bi106  1  0.31198354  0.29730230  0.18957142  1
  Bi2+  Bi107  1  0.36976504  0.22950913  0.74333390  1
  Bi2+  Bi108  1  0.40046904  0.48381023  0.21276590  1
  Bi2+  Bi109  1  0.33743027  0.48489580  0.71837024  1
  Bi2+  Bi110  1  0.38571181  0.74219402  0.20768809  1
  Bi2+  Bi111  1  0.38898726  0.73389736  0.72365080  1
  Bi2+  Bi112  1  0.62772275  0.02409658  0.22497199  1
  Bi2+  Bi113  1  0.63478243  0.01140635  0.70692112  1
  Bi2+  Bi114  1  0.63522241  0.29604514  0.21433625  1
  Bi2+  Bi115  1  0.64077049  0.21418073  0.70966586  1
  Bi2+  Bi116  1  0.65557489  0.55096483  0.24144506  1
  Bi2+  Bi117  1  0.67085704  0.48800893  0.70739855  1
  Bi2+  Bi118  1  0.61754855  0.75344755  0.20299699  1
  Bi2+  Bi119  1  0.64397293  0.73374395  0.69961959  1
  Bi2+  Bi120  1  0.85428412  -0.01604549  0.21088587  1
  Bi2+  Bi121  1  0.88087912  -0.11164422  0.69934046  1
  Bi2+  Bi122  1  0.92455328  0.23686435  0.19253751  1
  Bi2+  Bi123  1  0.89244657  0.22779729  0.69554282  1
  Bi2+  Bi124  1  0.83239781  0.49132395  0.20627072  1
  Bi2+  Bi125  1  0.90198136  0.48715539  0.71730886  1
  Bi2+  Bi126  1  0.85606589  0.75203818  0.22640240  1
  Bi2+  Bi127  1  0.92026729  0.69261237  0.69918555  1
  S2-  S128  1  -0.01192922  0.01458625  0.14871085  1
  S2-  S129  1  0.00997018  0.12218615  0.64669665  1
  S2-  S130  1  0.01888359  0.37288553  0.15266593  1
  S2-  S131  1  -0.11532430  0.37069110  0.63586805  1
  S2-  S132  1  0.08052304  0.58660967  0.17076295  1
  S2-  S133  1  0.10651084  0.62705200  0.63628150  1
  S2-  S134  1  -0.02029249  0.75796976  0.15117884  1
  S2-  S135  1  0.07887437  0.88410379  0.64184455  1
  S2-  S136  1  0.25304975  0.06980278  0.15363691  1
  S2-  S137  1  0.24361187  0.05024413  0.64342104  1
  S2-  S138  1  0.28055343  0.49776778  0.13869637  1
  S2-  S139  1  0.22748359  0.40172159  0.65917459  1
  S2-  S140  1  0.26091142  0.71571440  0.14698931  1
  S2-  S141  1  0.34322261  0.61911370  0.65230137  1
  S2-  S142  1  0.14414008  0.88115276  0.15234761  1
  S2-  S143  1  0.28020160  0.83963533  0.68953220  1
  S2-  S144  1  0.50813301  0.10486076  0.15978839  1
  S2-  S145  1  0.49803598  0.02496807  0.63659129  1
  S2-  S146  1  0.52676535  0.39676475  0.15968514  1
  S2-  S147  1  0.44552327  0.39090973  0.67902334  1
  S2-  S148  1  0.50235672  0.68308656  0.13368301  1
  S2-  S149  1  0.55768694  0.58494665  0.67158960  1
  S2-  S150  1  0.38953099  0.88272576  0.14990875  1
  S2-  S151  1  0.50020610  0.78519172  0.64915199  1
  S2-  S152  1  0.74628461  0.09052303  0.15385373  1
  S2-  S153  1  0.76115574  0.14009072  0.64622408  1
  S2-  S154  1  0.77155097  0.34384548  0.15763533  1
  S2-  S155  1  0.64689767  0.35723906  0.64438153  1
  S2-  S156  1  0.75375464  0.71882914  0.14196071  1
  S2-  S157  1  0.75997439  0.62090592  0.65856899  1
  S2-  S158  1  0.62582640  0.89166439  0.15185987  1
  S2-  S159  1  0.71515704  0.87729434  0.65529415  1
  S2-  S160  1  0.12499353  -0.02290754  0.33736779  1
  S2-  S161  1  0.12588926  -0.11088891  0.85648102  1
  S2-  S162  1  0.12646063  0.27064857  0.35067410  1
  S2-  S163  1  0.11351224  0.12807234  0.86408753  1
  S2-  S164  1  0.06003801  0.51552966  0.33458023  1
  S2-  S165  1  0.21875255  0.48131978  0.86048792  1
  S2-  S166  1  0.20460302  0.72456729  0.33661095  1
  S2-  S167  1  0.26383446  0.73103114  0.85530439  1
  S2-  S168  1  0.35311655  0.01953242  0.33958011  1
  S2-  S169  1  0.35100296  -0.02028399  0.84181305  1
  S2-  S170  1  0.41791192  0.28081088  0.35463355  1
  S2-  S171  1  0.37372434  0.27144821  0.84974494  1
  S2-  S172  1  0.26791758  0.49074886  0.36120118  1
  S2-  S173  1  0.40763414  0.49290224  0.82359783  1
  S2-  S174  1  0.39703519  0.79963885  0.34869931  1
  S2-  S175  1  0.47826504  0.77335222  0.85000862  1
  S2-  S176  1  0.59552245  0.05956615  0.32990513  1
  S2-  S177  1  0.63442852  -0.07958637  0.85658106  1
  S2-  S178  1  0.63146688  0.39325400  0.36345348  1
  S2-  S179  1  0.63912903  0.31808750  0.85649598  1
  S2-  S180  1  0.49337838  0.54481646  0.37027373  1
  S2-  S181  1  0.60195436  0.49839409  0.80206557  1
  S2-  S182  1  0.61390593  0.85095369  0.36008552  1
  S2-  S183  1  0.65305803  0.70309209  0.79668267  1
  S2-  S184  1  0.86897095  0.00119831  0.33744807  1
  S2-  S185  1  0.90459736  -0.01244532  0.85102029  1
  S2-  S186  1  0.77293707  0.24359117  0.34710709  1
  S2-  S187  1  0.89965753  0.26196545  0.83736463  1
  S2-  S188  1  0.85331831  0.60342589  0.35735314  1
  S2-  S189  1  0.79989176  0.48900630  0.85434585  1
  S2-  S190  1  0.99199454  0.76928252  0.35131371  1
  S2-  S191  1  0.80600724  0.77006046  0.85907121  1
  S2-  S192  1  -0.00418784  0.13084003  0.44394265  1
  S2-  S193  1  0.00021294  0.12190350  0.96336083  1
  S2-  S194  1  -0.00443360  0.37794795  0.45139392  1
  S2-  S195  1  0.00674513  0.37314931  0.94837185  1
  S2-  S196  1  -0.00091024  0.62540246  0.45356192  1
  S2-  S197  1  0.00674651  0.62457366  0.96319078  1
  S2-  S198  1  -0.00390802  0.88229609  0.45232046  1
  S2-  S199  1  0.00480731  0.87229376  0.96052272  1
  S2-  S200  1  0.24429308  0.12879291  0.45023368  1
  S2-  S201  1  0.26399036  0.12488937  0.95354494  1
  S2-  S202  1  0.24577091  0.37431903  0.45954942  1
  S2-  S203  1  0.25772431  0.36758078  0.96178799  1
  S2-  S204  1  0.24494599  0.62908917  0.45882145  1
  S2-  S205  1  0.25686691  0.61985799  0.95757870  1
  S2-  S206  1  0.24329836  0.88313960  0.44522332  1
  S2-  S207  1  0.25741724  0.87450958  0.96034547  1
  S2-  S208  1  0.49699876  0.12483637  0.44889464  1
  S2-  S209  1  0.50894725  0.12255642  0.95306886  1
  S2-  S210  1  0.49647174  0.37812402  0.46789338  1
  S2-  S211  1  0.50745896  0.37613950  0.95231691  1
  S2-  S212  1  0.49092859  0.63695169  0.47448216  1
  S2-  S213  1  0.51481528  0.61085782  0.93477251  1
  S2-  S214  1  0.49151735  0.88170942  0.46072636  1
  S2-  S215  1  0.50963600  0.87071253  0.96006559  1
  S2-  S216  1  0.74278071  0.12578569  0.44480299  1
  S2-  S217  1  0.75505586  0.11842252  0.95185716  1
  S2-  S218  1  0.74925925  0.38035344  0.45979298  1
  S2-  S219  1  0.75673824  0.37565499  0.95842799  1
  S2-  S220  1  0.73748889  0.62848796  0.45483829  1
  S2-  S221  1  0.75351024  0.62372662  0.95139065  1
  S2-  S222  1  0.75177969  0.87120557  0.45031326  1
  S2-  S223  1  0.75775892  0.87358922  0.96359903  1
  S2-  S224  1  0.13192649  0.00331118  0.04347652  1
  S2-  S225  1  0.11906753  0.00630493  0.53877685  1
  S2-  S226  1  0.13130294  0.24856552  0.04470796  1
  S2-  S227  1  0.11877975  0.25538195  0.55230435  1
  S2-  S228  1  0.12913540  0.49778185  0.04791304  1
  S2-  S229  1  0.11799254  0.49581178  0.53963427  1
  S2-  S230  1  0.13319455  0.74385169  0.04364517  1
  S2-  S231  1  0.11977502  0.76062124  0.53801498  1
  S2-  S232  1  0.38426834  0.00050313  0.04732937  1
  S2-  S233  1  0.36326946  0.00547755  0.54126588  1
  S2-  S234  1  0.38427723  0.24893080  0.05196264  1
  S2-  S235  1  0.36907619  0.25075990  0.55882606  1
  S2-  S236  1  0.38499678  0.49733265  0.03448654  1
  S2-  S237  1  0.36913784  0.50036662  0.55058072  1
  S2-  S238  1  0.38141223  0.74122058  0.03671818  1
  S2-  S239  1  0.35631242  0.77242677  0.55266324  1
  S2-  S240  1  0.63256080  -0.00115209  0.04861141  1
  S2-  S241  1  0.62606520  0.00378030  0.53502715  1
  S2-  S242  1  0.63488855  0.24840190  0.05227290  1
  S2-  S243  1  0.62233374  0.24853339  0.53796356  1
  S2-  S244  1  0.63840754  0.49989359  0.05488611  1
  S2-  S245  1  0.62411461  0.50565421  0.54838103  1
  S2-  S246  1  0.63488024  0.74545030  0.03753838  1
  S2-  S247  1  0.62139659  0.75698079  0.54760868  1
  S2-  S248  1  0.87575558  -0.00399818  0.05121050  1
  S2-  S249  1  0.87349161  0.00555744  0.54564691  1
  S2-  S250  1  0.87936389  0.24688529  0.04618144  1
  S2-  S251  1  0.87277929  0.24953303  0.53531061  1
  S2-  S252  1  0.88218316  0.50128556  0.05022980  1
  S2-  S253  1  0.87508788  0.51037272  0.54410151  1
  S2-  S254  1  0.88260037  0.74961485  0.04609818  1
  S2-  S255  1  0.87553585  0.75255142  0.54371142  1
