# generated using pymatgen
data_La6Ce7Pr13Nd19Sm19(BiS2)64
_symmetry_space_group_name_H-M   'P 1'
_cell_length_a   16.00061866
_cell_length_b   16.04528320
_cell_length_c   27.50408289
_cell_angle_alpha   90.12933314
_cell_angle_beta   90.37402618
_cell_angle_gamma   90.06807233
_symmetry_Int_Tables_number   1
_chemical_formula_structural   La6Ce7Pr13Nd19Sm19(BiS2)64
_chemical_formula_sum   'La6 Ce7 Pr13 Nd19 Sm19 Bi64 S128'
_cell_volume   7061.07225441
_cell_formula_units_Z   1
loop_
 _symmetry_equiv_pos_site_id
 _symmetry_equiv_pos_as_xyz
  1  'x, y, z'
loop_
 _atom_type_symbol
 _atom_type_oxidation_number
  La3+  3.0
  Ce3+  3.0
  Pr3+  3.0
  Nd3+  3.0
  Sm3+  3.0
  Bi2+  2.0
  S2-  -2.0
loop_
 _atom_site_type_symbol
 _atom_site_label
 _atom_site_symmetry_multiplicity
 _atom_site_fract_x
 _atom_site_fract_y
 _atom_site_fract_z
 _atom_site_occupancy
  La3+  La0  1  0.88102826  0.00029619  0.93218974  1
  La3+  La1  1  0.88851893  -0.00108602  0.38973975  1
  La3+  La2  1  0.51178047  0.62193507  0.07611700  1
  La3+  La3  1  0.76685181  0.12710607  0.07538012  1
  La3+  La4  1  0.87879318  0.26563671  0.88190531  1
  La3+  La5  1  0.50249612  0.36397383  0.08707969  1
  Ce3+  Ce6  1  0.51803732  0.11912043  0.07066761  1
  Ce3+  Ce7  1  0.74653592  0.62701087  0.56261180  1
  Ce3+  Ce8  1  0.26122814  0.37126528  0.05516296  1
  Ce3+  Ce9  1  0.12776740  0.24499555  0.93698586  1
  Ce3+  Ce10  1  0.38966231  0.24727395  0.94087358  1
  Ce3+  Ce11  1  0.01254476  0.87102640  0.05525140  1
  Ce3+  Ce12  1  0.38828354  0.73500847  0.92753460  1
  Pr3+  Pr13  1  0.01059216  0.12053053  0.06067316  1
  Pr3+  Pr14  1  0.26114470  0.12075221  0.05337041  1
  Pr3+  Pr15  1  0.49468239  0.37370334  0.55707180  1
  Pr3+  Pr16  1  0.86337110  0.25460786  0.42316237  1
  Pr3+  Pr17  1  0.49251436  0.61778386  0.57396721  1
  Pr3+  Pr18  1  0.61905574  0.24623268  0.43088818  1
  Pr3+  Pr19  1  0.25756321  0.87500891  0.06580776  1
  Pr3+  Pr20  1  0.36639799  0.51181516  0.42196949  1
  Pr3+  Pr21  1  0.36794229  -0.00162057  0.44071415  1
  Pr3+  Pr22  1  0.24926829  0.87072713  0.59126025  1
  Pr3+  Pr23  1  -0.00231153  0.37623984  0.55739951  1
  Pr3+  Pr24  1  0.49757956  0.88210566  0.57394123  1
  Pr3+  Pr25  1  0.13462669  -0.01192287  0.92293802  1
  Nd3+  Nd26  1  0.62107864  -0.00289540  0.43544354  1
  Nd3+  Nd27  1  0.11913330  0.50222369  0.43293187  1
  Nd3+  Nd28  1  0.11675475  0.75500790  0.43905498  1
  Nd3+  Nd29  1  0.38507973  -0.00728539  0.93997116  1
  Nd3+  Nd30  1  -0.00326512  0.12730133  0.55443372  1
  Nd3+  Nd31  1  0.24732073  0.37890288  0.55015891  1
  Nd3+  Nd32  1  0.76334807  0.62102722  0.07824271  1
  Nd3+  Nd33  1  0.14474760  0.74137554  0.92774612  1
  Nd3+  Nd34  1  0.76346857  0.86941085  0.05998617  1
  Nd3+  Nd35  1  0.37484226  0.25756947  0.41908929  1
  Nd3+  Nd36  1  0.63452001  0.73963961  0.93941665  1
  Nd3+  Nd37  1  0.13450168  0.49897829  0.93827065  1
  Nd3+  Nd38  1  0.49610546  0.12552704  0.56159011  1
  Nd3+  Nd39  1  0.12258925  0.24929337  0.42802132  1
  Nd3+  Nd40  1  0.01637564  0.62416137  0.06577603  1
  Nd3+  Nd41  1  0.51049469  0.86864818  0.05735523  1
  Nd3+  Nd42  1  0.24669922  0.62844218  0.56742413  1
  Nd3+  Nd43  1  0.36891713  0.75548749  0.43891179  1
  Nd3+  Nd44  1  0.24609408  0.12658017  0.56300161  1
  Sm3+  Sm45  1  0.86821215  0.50158803  0.44508824  1
  Sm3+  Sm46  1  0.88535094  0.74974379  0.93705162  1
  Sm3+  Sm47  1  0.86713539  0.75507682  0.44392943  1
  Sm3+  Sm48  1  0.74625988  0.37473168  0.55532172  1
  Sm3+  Sm49  1  0.74980761  0.12654021  0.55026238  1
  Sm3+  Sm50  1  0.76205825  0.36678027  0.05609107  1
  Sm3+  Sm51  1  0.26411496  0.62404374  0.06858735  1
  Sm3+  Sm52  1  0.74803713  0.87989223  0.55835273  1
  Sm3+  Sm53  1  0.11977891  0.00060710  0.44599746  1
  Sm3+  Sm54  1  0.63175498  0.24474750  0.93742177  1
  Sm3+  Sm55  1  0.88090152  0.49983744  0.94465349  1
  Sm3+  Sm56  1  0.63473755  -0.00175096  0.94635093  1
  Sm3+  Sm57  1  0.38981127  0.49465070  0.94512388  1
  Sm3+  Sm58  1  0.61769774  0.75221545  0.45233878  1
  Sm3+  Sm59  1  0.01066968  0.37118996  0.05293346  1
  Sm3+  Sm60  1  0.63436674  0.49369956  0.95409144  1
  Sm3+  Sm61  1  0.61828240  0.50482821  0.44019715  1
  Sm3+  Sm62  1  -0.00502560  0.87889937  0.56034891  1
  Sm3+  Sm63  1  -0.00330829  0.62790814  0.55275878  1
  Bi2+  Bi64  1  0.05190623  0.18981866  0.29251090  1
  Bi2+  Bi65  1  0.00091358  0.15535452  0.77879526  1
  Bi2+  Bi66  1  0.03643256  0.37816056  0.32605890  1
  Bi2+  Bi67  1  0.02887696  0.48970217  0.80159416  1
  Bi2+  Bi68  1  0.04958261  0.57324655  0.29789951  1
  Bi2+  Bi69  1  -0.05396014  0.67422167  0.79265273  1
  Bi2+  Bi70  1  0.01275229  0.77059275  0.29335610  1
  Bi2+  Bi71  1  -0.01590124  0.92632593  0.79602458  1
  Bi2+  Bi72  1  0.30166432  0.07491751  0.31092167  1
  Bi2+  Bi73  1  0.30293302  0.18370381  0.73410484  1
  Bi2+  Bi74  1  0.22434993  0.33997399  0.27455486  1
  Bi2+  Bi75  1  0.27849836  0.35428520  0.79468291  1
  Bi2+  Bi76  1  0.25856305  0.63651579  0.29049472  1
  Bi2+  Bi77  1  0.24834484  0.55152325  0.78938154  1
  Bi2+  Bi78  1  0.26786580  0.88455639  0.28879940  1
  Bi2+  Bi79  1  0.23286604  0.89059833  0.79592769  1
  Bi2+  Bi80  1  0.45522264  0.14084358  0.25197106  1
  Bi2+  Bi81  1  0.47666263  0.13243226  0.78351647  1
  Bi2+  Bi82  1  0.54413937  0.35191451  0.30548007  1
  Bi2+  Bi83  1  0.47656462  0.37911351  0.79847250  1
  Bi2+  Bi84  1  0.46003824  0.55111823  0.28785324  1
  Bi2+  Bi85  1  0.51284735  0.60159257  0.80310663  1
  Bi2+  Bi86  1  0.50172452  0.85127106  0.28961501  1
  Bi2+  Bi87  1  0.45799731  0.86584513  0.79706690  1
  Bi2+  Bi88  1  0.74431626  0.13832753  0.29401002  1
  Bi2+  Bi89  1  0.73828906  0.11787581  0.78881429  1
  Bi2+  Bi90  1  0.84907648  0.36862138  0.27987322  1
  Bi2+  Bi91  1  0.74318232  0.48135560  0.79228675  1
  Bi2+  Bi92  1  0.85862442  0.63572682  0.30665847  1
  Bi2+  Bi93  1  0.76736700  0.64890187  0.84811238  1
  Bi2+  Bi94  1  0.73060999  0.87413545  0.29995419  1
  Bi2+  Bi95  1  0.71376479  0.80615941  0.78752802  1
  Bi2+  Bi96  1  0.12571160  0.01432667  0.26510846  1
  Bi2+  Bi97  1  0.09405342  0.03226822  0.69375673  1
  Bi2+  Bi98  1  0.09878656  0.23075379  0.18403526  1
  Bi2+  Bi99  1  0.10543574  0.35518225  0.73157675  1
  Bi2+  Bi100  1  0.10683325  0.45845250  0.21072947  1
  Bi2+  Bi101  1  0.14301314  0.52986299  0.68703004  1
  Bi2+  Bi102  1  0.11685054  0.75608941  0.20082175  1
  Bi2+  Bi103  1  0.10058171  0.71084354  0.72221594  1
  Bi2+  Bi104  1  0.37006441  -0.01589574  0.20369209  1
  Bi2+  Bi105  1  0.38118988  0.00739932  0.69316916  1
  Bi2+  Bi106  1  0.29354607  0.21312178  0.19342887  1
  Bi2+  Bi107  1  0.46819185  0.22815282  0.67726622  1
  Bi2+  Bi108  1  0.30412857  0.49779388  0.21223263  1
  Bi2+  Bi109  1  0.37305473  0.47551114  0.70559792  1
  Bi2+  Bi110  1  0.40702445  0.75023207  0.20787201  1
  Bi2+  Bi111  1  0.40202233  0.72247231  0.72438166  1
  Bi2+  Bi112  1  0.61652196  -0.03516473  0.20910509  1
  Bi2+  Bi113  1  0.60735760  -0.03455233  0.75366274  1
  Bi2+  Bi114  1  0.63657079  0.25039150  0.19911020  1
  Bi2+  Bi115  1  0.61481645  0.26199718  0.75046202  1
  Bi2+  Bi116  1  0.66056189  0.51785624  0.22384399  1
  Bi2+  Bi117  1  0.63927747  0.50783744  0.69907282  1
  Bi2+  Bi118  1  0.62723684  0.70814498  0.24917894  1
  Bi2+  Bi119  1  0.59756572  0.70014453  0.71553404  1
  Bi2+  Bi120  1  0.92124689  -0.05310243  0.19951064  1
  Bi2+  Bi121  1  0.83921401  0.00779690  0.68218813  1
  Bi2+  Bi122  1  0.90372746  0.23266117  0.20468720  1
  Bi2+  Bi123  1  0.84899780  0.26230228  0.67884228  1
  Bi2+  Bi124  1  0.84851730  0.51858956  0.20832178  1
  Bi2+  Bi125  1  0.88045992  0.54106503  0.71522618  1
  Bi2+  Bi126  1  0.82598794  0.74299027  0.21185971  1
  Bi2+  Bi127  1  0.86889718  0.81502210  0.71863918  1
  S2-  S128  1  -0.09211385  0.09489755  0.14466677  1
  S2-  S129  1  -0.03504549  0.13107157  0.65197468  1
  S2-  S130  1  0.00025347  0.37061781  0.15125865  1
  S2-  S131  1  -0.00851032  0.36095155  0.65613917  1
  S2-  S132  1  -0.09821308  0.64210198  0.14198059  1
  S2-  S133  1  -0.00496667  0.61718155  0.65016395  1
  S2-  S134  1  0.06645811  0.89211201  0.14771291  1
  S2-  S135  1  -0.00934296  0.89504299  0.65865820  1
  S2-  S136  1  0.25062556  0.05882235  0.14743119  1
  S2-  S137  1  0.18800856  0.15351793  0.65517890  1
  S2-  S138  1  0.33607550  0.36968354  0.14319566  1
  S2-  S139  1  0.24596088  0.39828101  0.64890793  1
  S2-  S140  1  0.14012112  0.62894865  0.14104122  1
  S2-  S141  1  0.19541036  0.73086636  0.64748823  1
  S2-  S142  1  0.28104065  0.82501502  0.16223722  1
  S2-  S143  1  0.21825470  0.93068617  0.68930798  1
  S2-  S144  1  0.48722898  0.21482956  0.15044697  1
  S2-  S145  1  0.51852815  0.02250255  0.64161726  1
  S2-  S146  1  0.56012894  0.40874402  0.18228224  1
  S2-  S147  1  0.50755320  0.46828828  0.64078464  1
  S2-  S148  1  0.38513218  0.61609903  0.14702009  1
  S2-  S149  1  0.36498806  0.61309910  0.64496941  1
  S2-  S150  1  0.52748335  0.86015800  0.15643107  1
  S2-  S151  1  0.39643167  0.84859520  0.65336086  1
  S2-  S152  1  0.64879246  0.09321664  0.14992623  1
  S2-  S153  1  0.73838096  0.12977296  0.64870373  1
  S2-  S154  1  0.76367751  0.28556106  0.14375815  1
  S2-  S155  1  0.73807465  0.37449973  0.65247052  1
  S2-  S156  1  0.63765232  0.64198018  0.15006231  1
  S2-  S157  1  0.75764008  0.62678712  0.65948550  1
  S2-  S158  1  0.77064647  0.89139674  0.15915607  1
  S2-  S159  1  0.73006419  0.89332337  0.65462687  1
  S2-  S160  1  0.05844951  -0.01397768  0.35517915  1
  S2-  S161  1  0.11854327  0.03824925  0.82361132  1
  S2-  S162  1  0.24343776  0.23129560  0.35406845  1
  S2-  S163  1  0.05364681  0.25817148  0.84957530  1
  S2-  S164  1  0.22143737  0.51893149  0.35408150  1
  S2-  S165  1  0.13067884  0.60248222  0.85900591  1
  S2-  S166  1  0.16948624  0.76652114  0.34480864  1
  S2-  S167  1  0.09823645  0.84541989  0.84976004  1
  S2-  S168  1  0.39185031  -0.11778791  0.36534897  1
  S2-  S169  1  0.35601323  -0.01068579  0.84159164  1
  S2-  S170  1  0.50214870  0.21316366  0.35208360  1
  S2-  S171  1  0.49669308  0.24249850  0.86521948  1
  S2-  S172  1  0.40271054  0.39344936  0.34603931  1
  S2-  S173  1  0.37568118  0.58125484  0.86148948  1
  S2-  S174  1  0.39538441  0.65097612  0.35787830  1
  S2-  S175  1  0.27955612  0.77164124  0.85347352  1
  S2-  S176  1  0.64671121  0.01576792  0.33808486  1
  S2-  S177  1  0.64567326  0.00796570  0.84823134  1
  S2-  S178  1  0.72077566  0.27135545  0.34870510  1
  S2-  S179  1  0.71031510  0.24782210  0.84823938  1
  S2-  S180  1  0.60086317  0.50621267  0.34275720  1
  S2-  S181  1  0.59652579  0.47423493  0.85817659  1
  S2-  S182  1  0.61970164  0.76283163  0.35451372  1
  S2-  S183  1  0.52350648  0.74785392  0.86097924  1
  S2-  S184  1  0.85041094  -0.00462313  0.28107415  1
  S2-  S185  1  0.88183111  0.09492001  0.84590654  1
  S2-  S186  1  0.89329679  0.15595973  0.34271018  1
  S2-  S187  1  0.88079114  0.26882172  0.77243748  1
  S2-  S188  1  0.82261620  0.48484040  0.35235178  1
  S2-  S189  1  0.88161844  0.43782273  0.85311133  1
  S2-  S190  1  0.87126911  0.82896731  0.35589440  1
  S2-  S191  1  0.87578383  0.86982932  0.85971394  1
  S2-  S192  1  -0.00364776  0.12642568  0.44998870  1
  S2-  S193  1  0.01602917  0.11618468  0.95349106  1
  S2-  S194  1  -0.00711251  0.37574758  0.45110977  1
  S2-  S195  1  0.00703895  0.37589613  0.95130509  1
  S2-  S196  1  -0.00990612  0.62765403  0.44798158  1
  S2-  S197  1  0.00429094  0.62292970  0.95662686  1
  S2-  S198  1  -0.00975675  0.87985110  0.45727109  1
  S2-  S199  1  0.01140022  0.86729892  0.95446889  1
  S2-  S200  1  0.24352307  0.12439834  0.45649967  1
  S2-  S201  1  0.26009816  0.12116607  0.94526640  1
  S2-  S202  1  0.24425044  0.37641338  0.44732914  1
  S2-  S203  1  0.25974581  0.37226358  0.94770991  1
  S2-  S204  1  0.23937961  0.63262997  0.45952632  1
  S2-  S205  1  0.26303851  0.61637829  0.96375280  1
  S2-  S206  1  0.23908830  0.87705595  0.45780570  1
  S2-  S207  1  0.26131097  0.87266511  0.95783215  1
  S2-  S208  1  0.49360692  0.12112054  0.45704889  1
  S2-  S209  1  0.50993001  0.11672925  0.96125260  1
  S2-  S210  1  0.50042941  0.37887099  0.45308039  1
  S2-  S211  1  0.51031693  0.37211918  0.96600141  1
  S2-  S212  1  0.49928425  0.62805035  0.46373735  1
  S2-  S213  1  0.51296721  0.61589879  0.96629510  1
  S2-  S214  1  0.49935749  0.87681670  0.46662842  1
  S2-  S215  1  0.51108141  0.87155746  0.95422731  1
  S2-  S216  1  0.74983139  0.11888682  0.44629403  1
  S2-  S217  1  0.75286985  0.12221561  0.95819759  1
  S2-  S218  1  0.74148948  0.37978294  0.45342949  1
  S2-  S219  1  0.75873683  0.37090285  0.95363055  1
  S2-  S220  1  0.74498620  0.62837808  0.45509632  1
  S2-  S221  1  0.75891366  0.61923511  0.96952515  1
  S2-  S222  1  0.74389342  0.87550752  0.45524203  1
  S2-  S223  1  0.75301782  0.86827266  0.95579661  1
  S2-  S224  1  0.13527958  -0.00334987  0.03633131  1
  S2-  S225  1  0.12223854  -0.00168559  0.55094958  1
  S2-  S226  1  0.13558134  0.24714886  0.04317402  1
  S2-  S227  1  0.12263566  0.25205971  0.53815285  1
  S2-  S228  1  0.13654188  0.49492738  0.04358699  1
  S2-  S229  1  0.11932459  0.50435298  0.54012861  1
  S2-  S230  1  0.13867637  0.74774924  0.03919115  1
  S2-  S231  1  0.11410951  0.75513112  0.54369082  1
  S2-  S232  1  0.38890416  -0.00408231  0.04684600  1
  S2-  S233  1  0.36478482  -0.00063262  0.54724485  1
  S2-  S234  1  0.38524687  0.24347237  0.04268673  1
  S2-  S235  1  0.36926178  0.24974296  0.54200935  1
  S2-  S236  1  0.38538926  0.49538799  0.04728390  1
  S2-  S237  1  0.36989367  0.50048512  0.53509862  1
  S2-  S238  1  0.38360590  0.74853801  0.04473583  1
  S2-  S239  1  0.36961494  0.75284692  0.54481404  1
  S2-  S240  1  0.63859034  -0.00862865  0.04802549  1
  S2-  S241  1  0.62742064  0.00363617  0.54079438  1
  S2-  S242  1  0.63288774  0.24755745  0.04486276  1
  S2-  S243  1  0.62280240  0.24945541  0.54210638  1
  S2-  S244  1  0.63787004  0.48894714  0.05805776  1
  S2-  S245  1  0.62544103  0.50106324  0.54379420  1
  S2-  S246  1  0.63841215  0.74670657  0.04577501  1
  S2-  S247  1  0.62075469  0.75228377  0.55720875  1
  S2-  S248  1  0.88537502  -0.00693063  0.04030709  1
  S2-  S249  1  0.87116552  0.00191656  0.54853314  1
  S2-  S250  1  0.89092318  0.24910037  0.04611607  1
  S2-  S251  1  0.87023133  0.25306991  0.53656970  1
  S2-  S252  1  0.88652945  0.49369153  0.04855995  1
  S2-  S253  1  0.87068883  0.50159011  0.54904391  1
  S2-  S254  1  0.88749799  0.74724791  0.04047388  1
  S2-  S255  1  0.87180941  0.75363003  0.54922308  1
