# generated using pymatgen
data_La6Ce7Pr13Nd19Sm19(BiS2)64
_symmetry_space_group_name_H-M   'P 1'
_cell_length_a   16.02199471
_cell_length_b   15.98564782
_cell_length_c   27.39976467
_cell_angle_alpha   90.07519169
_cell_angle_beta   90.04567573
_cell_angle_gamma   90.01208632
_symmetry_Int_Tables_number   1
_chemical_formula_structural   La6Ce7Pr13Nd19Sm19(BiS2)64
_chemical_formula_sum   'La6 Ce7 Pr13 Nd19 Sm19 Bi64 S128'
_cell_volume   7017.67313221
_cell_formula_units_Z   1
loop_
 _symmetry_equiv_pos_site_id
 _symmetry_equiv_pos_as_xyz
  1  'x, y, z'
loop_
 _atom_type_symbol
 _atom_type_oxidation_number
  La3+  3.0
  Ce3+  3.0
  Pr3+  3.0
  Nd3+  3.0
  Sm3+  3.0
  Bi2+  2.0
  S2-  -2.0
loop_
 _atom_site_type_symbol
 _atom_site_label
 _atom_site_symmetry_multiplicity
 _atom_site_fract_x
 _atom_site_fract_y
 _atom_site_fract_z
 _atom_site_occupancy
  La3+  La0  1  0.89237754  0.23317538  0.89972329  1
  La3+  La1  1  0.00170937  0.86239518  0.11042217  1
  La3+  La2  1  0.38483225  0.27450681  0.39616646  1
  La3+  La3  1  0.25991622  0.65068316  0.56922078  1
  La3+  La4  1  0.76768650  0.37439482  0.07727324  1
  La3+  La5  1  0.75497467  0.39598449  0.59749487  1
  Ce3+  Ce6  1  0.51430639  0.10493293  0.07561330  1
  Ce3+  Ce7  1  0.38726819  0.76934801  0.43822828  1
  Ce3+  Ce8  1  0.76308374  0.64454270  0.55612031  1
  Ce3+  Ce9  1  0.64159948  0.23989838  0.95607847  1
  Ce3+  Ce10  1  0.14244776  0.02349598  0.43818322  1
  Ce3+  Ce11  1  0.38773831  -0.00817094  0.93332575  1
  Ce3+  Ce12  1  0.88916244  0.73740373  0.93053724  1
  Pr3+  Pr13  1  0.01001627  0.39721716  0.56455106  1
  Pr3+  Pr14  1  0.00946336  0.11840241  0.06797870  1
  Pr3+  Pr15  1  0.50626335  0.37297727  0.07613518  1
  Pr3+  Pr16  1  0.13498684  0.77380277  0.43815416  1
  Pr3+  Pr17  1  0.38675861  0.52445738  0.43437048  1
  Pr3+  Pr18  1  0.51011627  0.86364171  0.05560128  1
  Pr3+  Pr19  1  0.88221368  0.77701897  0.42748828  1
  Pr3+  Pr20  1  0.51224649  0.89908234  0.56965688  1
  Pr3+  Pr21  1  0.51266280  0.65036414  0.56861405  1
  Pr3+  Pr22  1  0.63745458  0.27325677  0.43123046  1
  Pr3+  Pr23  1  0.01491151  0.14975763  0.56052995  1
  Pr3+  Pr24  1  0.88286021  0.27281280  0.43517841  1
  Pr3+  Pr25  1  0.63575210  0.48578178  0.93560655  1
  Nd3+  Nd26  1  0.51147470  0.15430071  0.54922063  1
  Nd3+  Nd27  1  0.76619746  0.12318364  0.08216521  1
  Nd3+  Nd28  1  0.01597166  0.61867642  0.06442501  1
  Nd3+  Nd29  1  0.39187001  0.23773144  0.93707484  1
  Nd3+  Nd30  1  0.63325691  0.74293520  0.93683089  1
  Nd3+  Nd31  1  0.51028461  0.40484113  0.56480345  1
  Nd3+  Nd32  1  0.26094003  0.86425036  0.06394774  1
  Nd3+  Nd33  1  0.13609442  0.74174798  0.93975260  1
  Nd3+  Nd34  1  0.26386370  0.14900202  0.56491413  1
  Nd3+  Nd35  1  0.13893599  0.52038859  0.44145615  1
  Nd3+  Nd36  1  0.88370056  0.52210294  0.43396797  1
  Nd3+  Nd37  1  0.00550927  0.64784381  0.55574925  1
  Nd3+  Nd38  1  0.89129450  0.02276180  0.42920075  1
  Nd3+  Nd39  1  0.76435730  0.14417628  0.56868686  1
  Nd3+  Nd40  1  0.14107446  0.27470244  0.43969453  1
  Nd3+  Nd41  1  0.26561766  0.61899101  0.05891912  1
  Nd3+  Nd42  1  0.25779933  0.40407596  0.57630295  1
  Nd3+  Nd43  1  0.88804735  0.49193759  0.93121282  1
  Nd3+  Nd44  1  0.01100554  0.36631498  0.06091924  1
  Sm3+  Sm45  1  0.63299167  0.52014506  0.44035454  1
  Sm3+  Sm46  1  0.37245866  0.73905356  0.91445364  1
  Sm3+  Sm47  1  0.38686360  0.48795101  0.92913784  1
  Sm3+  Sm48  1  0.76689685  0.86357655  0.05362094  1
  Sm3+  Sm49  1  0.38104143  0.02162550  0.44122133  1
  Sm3+  Sm50  1  0.88817452  -0.00735277  0.94741580  1
  Sm3+  Sm51  1  0.13361213  -0.00937783  0.95114237  1
  Sm3+  Sm52  1  0.63546305  0.77566671  0.45041039  1
  Sm3+  Sm53  1  0.00793020  0.90028844  0.56118272  1
  Sm3+  Sm54  1  0.25795529  0.89476488  0.56851721  1
  Sm3+  Sm55  1  0.26424393  0.11557098  0.06118789  1
  Sm3+  Sm56  1  0.13305561  0.23962142  0.94355564  1
  Sm3+  Sm57  1  0.63482137  0.02307372  0.43861091  1
  Sm3+  Sm58  1  0.26586077  0.36590397  0.05596134  1
  Sm3+  Sm59  1  0.76950746  0.90273078  0.56519709  1
  Sm3+  Sm60  1  0.76513539  0.61685394  0.05267336  1
  Sm3+  Sm61  1  0.50982283  0.61749238  0.05316867  1
  Sm3+  Sm62  1  0.13537302  0.48839727  0.94472096  1
  Sm3+  Sm63  1  0.64111354  -0.00369723  0.94548918  1
  Bi2+  Bi64  1  -0.01763439  0.13159007  0.29920733  1
  Bi2+  Bi65  1  0.00410912  0.01610184  0.78034229  1
  Bi2+  Bi66  1  -0.01049313  0.32870908  0.30613375  1
  Bi2+  Bi67  1  0.03906052  0.37906296  0.79421804  1
  Bi2+  Bi68  1  0.00135526  0.55933072  0.29445060  1
  Bi2+  Bi69  1  0.03887611  0.64170752  0.79681510  1
  Bi2+  Bi70  1  -0.00271530  0.86202972  0.30139501  1
  Bi2+  Bi71  1  -0.03749929  0.82309914  0.79941246  1
  Bi2+  Bi72  1  0.20374533  0.13034386  0.29808709  1
  Bi2+  Bi73  1  0.25241870  0.13323663  0.80927637  1
  Bi2+  Bi74  1  0.23566147  0.41239677  0.28395313  1
  Bi2+  Bi75  1  0.26367030  0.33460982  0.78074026  1
  Bi2+  Bi76  1  0.27761591  0.63376166  0.28242962  1
  Bi2+  Bi77  1  0.24215544  0.61892555  0.79102811  1
  Bi2+  Bi78  1  0.27975816  0.86689384  0.29753345  1
  Bi2+  Bi79  1  0.22368582  0.91301656  0.78129870  1
  Bi2+  Bi80  1  0.45138745  0.02073460  0.28941211  1
  Bi2+  Bi81  1  0.42640770  0.10819513  0.75523651  1
  Bi2+  Bi82  1  0.49867844  0.40336057  0.28307071  1
  Bi2+  Bi83  1  0.49895898  0.34982438  0.78473281  1
  Bi2+  Bi84  1  0.46535194  0.67237833  0.24549552  1
  Bi2+  Bi85  1  0.47580563  0.68685440  0.77567720  1
  Bi2+  Bi86  1  0.47425988  0.83080717  0.32057373  1
  Bi2+  Bi87  1  0.49911945  0.90736484  0.78709353  1
  Bi2+  Bi88  1  0.78511337  0.11678935  0.29790123  1
  Bi2+  Bi89  1  0.73018658  0.10100696  0.80628621  1
  Bi2+  Bi90  1  0.72381853  0.40412203  0.30184213  1
  Bi2+  Bi91  1  0.72382033  0.36204772  0.81972122  1
  Bi2+  Bi92  1  0.66713635  0.65167896  0.23750185  1
  Bi2+  Bi93  1  0.75215082  0.66898166  0.79658918  1
  Bi2+  Bi94  1  0.76039225  0.80278225  0.29579511  1
  Bi2+  Bi95  1  0.76279292  0.86857628  0.79273911  1
  Bi2+  Bi96  1  0.17301036  -0.01730808  0.22031015  1
  Bi2+  Bi97  1  0.11150971  -0.04622179  0.68637576  1
  Bi2+  Bi98  1  0.09129814  0.23454449  0.21793422  1
  Bi2+  Bi99  1  0.10928699  0.21383425  0.74641764  1
  Bi2+  Bi100  1  0.07871419  0.43250520  0.21508187  1
  Bi2+  Bi101  1  0.13041439  0.51002095  0.70314158  1
  Bi2+  Bi102  1  0.14422090  0.71156899  0.21323464  1
  Bi2+  Bi103  1  0.10621723  0.76400516  0.71451093  1
  Bi2+  Bi104  1  0.36696152  -0.07696885  0.19852554  1
  Bi2+  Bi105  1  0.30619875  -0.00269803  0.68404304  1
  Bi2+  Bi106  1  0.34211185  0.22446351  0.21071184  1
  Bi2+  Bi107  1  0.32958564  0.24309480  0.68519135  1
  Bi2+  Bi108  1  0.34004295  0.52163300  0.19111492  1
  Bi2+  Bi109  1  0.38125399  0.43326798  0.70663323  1
  Bi2+  Bi110  1  0.39208500  0.74139902  0.14329150  1
  Bi2+  Bi111  1  0.36537050  0.80870831  0.71426156  1
  Bi2+  Bi112  1  0.61941691  -0.06866233  0.26018395  1
  Bi2+  Bi113  1  0.58251457  -0.01936563  0.69454297  1
  Bi2+  Bi114  1  0.61541389  0.19266974  0.21557670  1
  Bi2+  Bi115  1  0.60299064  0.24219612  0.71306933  1
  Bi2+  Bi116  1  0.62447151  0.46631412  0.19969711  1
  Bi2+  Bi117  1  0.61817529  0.51776202  0.70879993  1
  Bi2+  Bi118  1  0.58240814  0.79844224  0.17538479  1
  Bi2+  Bi119  1  0.63443037  0.78757749  0.70875312  1
  Bi2+  Bi120  1  0.83387702  -0.00086732  0.20965351  1
  Bi2+  Bi121  1  0.85803557  -0.00245639  0.70557609  1
  Bi2+  Bi122  1  0.87298058  0.25782102  0.21405316  1
  Bi2+  Bi123  1  0.88954326  0.25446816  0.70492123  1
  Bi2+  Bi124  1  0.87302416  0.51509776  0.21196248  1
  Bi2+  Bi125  1  0.88477867  0.53288535  0.70833724  1
  Bi2+  Bi126  1  0.84747318  0.71539275  0.20634592  1
  Bi2+  Bi127  1  0.83422257  0.75470605  0.70488865  1
  S2-  S128  1  -0.09531649  0.11606565  0.14998555  1
  S2-  S129  1  -0.06691499  0.12819985  0.64809619  1
  S2-  S130  1  -0.07740131  0.38756983  0.14643178  1
  S2-  S131  1  -0.09007628  0.40206205  0.64907753  1
  S2-  S132  1  -0.00131156  0.69992496  0.15294609  1
  S2-  S133  1  0.01353738  0.62367299  0.65456363  1
  S2-  S134  1  0.00019823  0.94076426  0.20667679  1
  S2-  S135  1  -0.10288865  0.87467433  0.63627058  1
  S2-  S136  1  0.24332644  0.11572208  0.15904132  1
  S2-  S137  1  0.18141412  0.16572570  0.65219744  1
  S2-  S138  1  0.30945359  0.36773085  0.15085624  1
  S2-  S139  1  0.12416895  0.38526954  0.64524964  1
  S2-  S140  1  0.19170172  0.59835449  0.14999977  1
  S2-  S141  1  0.27061368  0.53593449  0.64855074  1
  S2-  S142  1  0.16828046  0.85024917  0.15080532  1
  S2-  S143  1  0.24456067  0.77358153  0.64342360  1
  S2-  S144  1  0.46542432  0.15088026  0.16790415  1
  S2-  S145  1  0.52799586  0.12941206  0.64782770  1
  S2-  S146  1  0.53139254  0.33379798  0.17754143  1
  S2-  S147  1  0.59997408  0.37277079  0.65085138  1
  S2-  S148  1  0.49527579  0.52596138  0.13660124  1
  S2-  S149  1  0.49686997  0.53908980  0.64677271  1
  S2-  S150  1  0.50197087  0.95799629  0.14019466  1
  S2-  S151  1  0.49648760  0.77547948  0.64348020  1
  S2-  S152  1  0.68336822  0.06989660  0.16702824  1
  S2-  S153  1  0.74918825  0.23980915  0.65373122  1
  S2-  S154  1  0.74005202  0.26869362  0.15926688  1
  S2-  S155  1  0.76290918  0.42664424  0.73545367  1
  S2-  S156  1  0.75804733  0.52738177  0.13671600  1
  S2-  S157  1  0.74855105  0.56675569  0.64421775  1
  S2-  S158  1  0.82622844  0.85980415  0.14609802  1
  S2-  S159  1  0.73261494  1.01393776  0.64066267  1
  S2-  S160  1  0.03520470  0.00543882  0.35974554  1
  S2-  S161  1  0.14105880  0.00638480  0.85230803  1
  S2-  S162  1  0.21630331  0.28251163  0.35030605  1
  S2-  S163  1  0.05590872  0.24052624  0.85488364  1
  S2-  S164  1  0.15217289  0.53994955  0.34278631  1
  S2-  S165  1  0.14259829  0.49664166  0.84664872  1
  S2-  S166  1  0.13864133  0.79104778  0.33772560  1
  S2-  S167  1  0.22178861  0.74292363  0.85281770  1
  S2-  S168  1  0.26478785  0.00990984  0.36600798  1
  S2-  S169  1  0.40247863  0.11643027  0.86195545  1
  S2-  S170  1  0.37853021  0.17091466  0.30792802  1
  S2-  S171  1  0.38777475  0.35858570  0.86070214  1
  S2-  S172  1  0.37260670  0.43065600  0.34666460  1
  S2-  S173  1  0.38435105  0.60005003  0.85099516  1
  S2-  S174  1  0.38332595  0.65679291  0.36276748  1
  S2-  S175  1  0.38296036  0.88056369  0.85629548  1
  S2-  S176  1  0.64266742  0.04480988  0.34096359  1
  S2-  S177  1  0.63695874  -0.03418473  0.84834573  1
  S2-  S178  1  0.54351776  0.28632815  0.34318639  1
  S2-  S179  1  0.63938949  0.21294790  0.85779059  1
  S2-  S180  1  0.60573075  0.50623222  0.34254913  1
  S2-  S181  1  0.60180281  0.47243766  0.83640311  1
  S2-  S182  1  0.62639429  0.75614858  0.35381883  1
  S2-  S183  1  0.59842310  0.71570958  0.84101647  1
  S2-  S184  1  0.85525220  -0.09282352  0.35612739  1
  S2-  S185  1  0.88051025  0.06151608  0.85800414  1
  S2-  S186  1  0.76726422  0.26395594  0.35696314  1
  S2-  S187  1  0.83687642  0.22351625  0.79702132  1
  S2-  S188  1  0.83996935  0.50706938  0.33672390  1
  S2-  S189  1  0.89445778  0.39510279  0.84871973  1
  S2-  S190  1  0.93439890  0.71506353  0.33536664  1
  S2-  S191  1  0.89239657  0.61961254  0.85586570  1
  S2-  S192  1  0.01382427  0.15178171  0.45326231  1
  S2-  S193  1  0.01125931  0.11713494  0.96144018  1
  S2-  S194  1  0.01038616  0.39734381  0.45070752  1
  S2-  S195  1  0.01205487  0.36442894  0.95694983  1
  S2-  S196  1  0.01057930  0.64608204  0.45010653  1
  S2-  S197  1  0.01644163  0.61454365  0.95685771  1
  S2-  S198  1  0.01065804  0.89638907  0.45888619  1
  S2-  S199  1  0.01095842  0.86711368  0.94174430  1
  S2-  S200  1  0.26984055  0.15461272  0.45790182  1
  S2-  S201  1  0.25645301  0.11741418  0.95789196  1
  S2-  S202  1  0.26312574  0.39846947  0.45959756  1
  S2-  S203  1  0.25680379  0.36239956  0.95298423  1
  S2-  S204  1  0.25661308  0.64927184  0.45998140  1
  S2-  S205  1  0.25883099  0.61080142  0.95381712  1
  S2-  S206  1  0.26235962  0.89295994  0.46386244  1
  S2-  S207  1  0.25713098  0.86923433  0.95794013  1
  S2-  S208  1  0.50466440  0.14530556  0.44405435  1
  S2-  S209  1  0.51642068  0.11352697  0.96666816  1
  S2-  S210  1  0.50891492  0.39591645  0.45611885  1
  S2-  S211  1  0.51156182  0.36417314  0.96210497  1
  S2-  S212  1  0.51621782  0.64963545  0.46148508  1
  S2-  S213  1  0.51074716  0.61447988  0.95027277  1
  S2-  S214  1  0.50966899  0.90014621  0.45791972  1
  S2-  S215  1  0.51635646  0.86976068  0.95097002  1
  S2-  S216  1  0.76165420  0.14045797  0.45636439  1
  S2-  S217  1  0.76674533  0.11592473  0.96410091  1
  S2-  S218  1  0.75924995  0.40209885  0.45007094  1
  S2-  S219  1  0.76597516  0.36444695  0.95507331  1
  S2-  S220  1  0.75783517  0.64771380  0.44854932  1
  S2-  S221  1  0.75766010  0.61615102  0.95062415  1
  S2-  S222  1  0.75572354  0.90112321  0.46010598  1
  S2-  S223  1  0.76416753  0.86582848  0.94915676  1
  S2-  S224  1  0.13498929  -0.00863752  0.05514289  1
  S2-  S225  1  0.13765817  0.01981801  0.54635121  1
  S2-  S226  1  0.13924136  0.24246482  0.05125182  1
  S2-  S227  1  0.14070599  0.27380478  0.54273032  1
  S2-  S228  1  0.13944561  0.48837163  0.04857848  1
  S2-  S229  1  0.13229762  0.52551107  0.54484538  1
  S2-  S230  1  0.13552705  0.74233489  0.04417498  1
  S2-  S231  1  0.12737984  0.77615932  0.54520327  1
  S2-  S232  1  0.38090706  -0.00880306  0.04208886  1
  S2-  S233  1  0.38616423  0.02111013  0.54592835  1
  S2-  S234  1  0.38693140  0.23964537  0.04746509  1
  S2-  S235  1  0.38464493  0.27781421  0.56073297  1
  S2-  S236  1  0.38337321  0.49196850  0.03522106  1
  S2-  S237  1  0.38478475  0.52510197  0.54175515  1
  S2-  S238  1  0.38517407  0.74040466  0.02676319  1
  S2-  S239  1  0.38503966  0.77696314  0.54308947  1
  S2-  S240  1  0.64718805  -0.01276136  0.04860350  1
  S2-  S241  1  0.63155490  0.02376358  0.54086105  1
  S2-  S242  1  0.63230525  0.24318054  0.05843251  1
  S2-  S243  1  0.63841344  0.27277352  0.54052257  1
  S2-  S244  1  0.63555724  0.49384024  0.04107357  1
  S2-  S245  1  0.63833513  0.52187890  0.54339210  1
  S2-  S246  1  0.64003843  0.73827870  0.04343217  1
  S2-  S247  1  0.64462763  0.77715108  0.55373168  1
  S2-  S248  1  0.89497771  -0.01776348  0.05012413  1
  S2-  S249  1  0.88996982  0.02389650  0.53707114  1
  S2-  S250  1  0.88696443  0.24444677  0.05068270  1
  S2-  S251  1  0.88426526  0.27199985  0.54203242  1
  S2-  S252  1  0.89210284  0.49708228  0.03830258  1
  S2-  S253  1  0.88457228  0.52024536  0.54046003  1
  S2-  S254  1  0.89031274  0.73945790  0.03957735  1
  S2-  S255  1  0.88385416  0.77167800  0.53561921  1
