# generated using pymatgen
data_La6Ce7Pr13Nd19Sm19(BiS2)64
_symmetry_space_group_name_H-M   'P 1'
_cell_length_a   16.04375996
_cell_length_b   16.03143769
_cell_length_c   27.39260419
_cell_angle_alpha   89.97108960
_cell_angle_beta   89.91188027
_cell_angle_gamma   89.92919217
_symmetry_Int_Tables_number   1
_chemical_formula_structural   La6Ce7Pr13Nd19Sm19(BiS2)64
_chemical_formula_sum   'La6 Ce7 Pr13 Nd19 Sm19 Bi64 S128'
_cell_volume   7045.48750326
_cell_formula_units_Z   1
loop_
 _symmetry_equiv_pos_site_id
 _symmetry_equiv_pos_as_xyz
  1  'x, y, z'
loop_
 _atom_type_symbol
 _atom_type_oxidation_number
  La3+  3.0
  Ce3+  3.0
  Pr3+  3.0
  Nd3+  3.0
  Sm3+  3.0
  Bi2+  2.0
  S2-  -2.0
loop_
 _atom_site_type_symbol
 _atom_site_label
 _atom_site_symmetry_multiplicity
 _atom_site_fract_x
 _atom_site_fract_y
 _atom_site_fract_z
 _atom_site_occupancy
  La3+  La0  1  0.74987390  0.63183217  0.08797536  1
  La3+  La1  1  0.48225565  0.36807685  0.10448710  1
  La3+  La2  1  0.25156017  0.38887640  0.57922641  1
  La3+  La3  1  -0.00169980  0.61944047  0.59454673  1
  La3+  La4  1  0.36943306  -0.00837891  0.92376937  1
  La3+  La5  1  0.62777454  0.48366404  0.38965616  1
  Ce3+  Ce6  1  0.37752401  0.25834727  0.44427445  1
  Ce3+  Ce7  1  0.24035990  0.62616105  0.05758730  1
  Ce3+  Ce8  1  -0.01097829  0.37512108  0.06263203  1
  Ce3+  Ce9  1  0.74871421  0.63641584  0.56525813  1
  Ce3+  Ce10  1  0.75021923  0.38192953  0.56290528  1
  Ce3+  Ce11  1  0.12777770  0.50425706  0.43487481  1
  Ce3+  Ce12  1  -0.00009021  0.13295296  0.55530569  1
  Pr3+  Pr13  1  0.86294449  0.75235582  0.93374670  1
  Pr3+  Pr14  1  0.50250564  0.63255929  0.55573840  1
  Pr3+  Pr15  1  0.75762100  0.87818150  0.56542726  1
  Pr3+  Pr16  1  0.12731040  0.25877644  0.44070234  1
  Pr3+  Pr17  1  0.73478076  0.13039984  0.07081647  1
  Pr3+  Pr18  1  0.12495506  0.75487407  0.43075330  1
  Pr3+  Pr19  1  0.62421572  0.00194034  0.43189833  1
  Pr3+  Pr20  1  0.11162377  0.25954340  0.91360647  1
  Pr3+  Pr21  1  0.61908643  0.75034683  0.42451482  1
  Pr3+  Pr22  1  0.24891942  0.63091404  0.55966068  1
  Pr3+  Pr23  1  0.36353781  0.25655672  0.92903614  1
  Pr3+  Pr24  1  0.48391894  0.87359612  0.07283080  1
  Pr3+  Pr25  1  0.85806752  0.25255493  0.93142517  1
  Nd3+  Nd26  1  0.36428379  0.74694812  0.93165195  1
  Nd3+  Nd27  1  0.86306728  0.50658410  0.94342576  1
  Nd3+  Nd28  1  -0.00741079  0.12986911  0.05321649  1
  Nd3+  Nd29  1  0.24806476  0.87668844  0.56213930  1
  Nd3+  Nd30  1  0.75144143  0.12450951  0.56556243  1
  Nd3+  Nd31  1  0.62308182  0.25431793  0.45151621  1
  Nd3+  Nd32  1  0.11418057  0.74906545  0.90679544  1
  Nd3+  Nd33  1  0.87014382  0.25924699  0.43768497  1
  Nd3+  Nd34  1  0.11370165  0.50221483  0.93260375  1
  Nd3+  Nd35  1  0.37259138  0.75493484  0.42930097  1
  Nd3+  Nd36  1  0.87075772  0.75313252  0.43825212  1
  Nd3+  Nd37  1  0.50171662  0.87262835  0.56268839  1
  Nd3+  Nd38  1  -0.00755818  0.63027246  0.05951549  1
  Nd3+  Nd39  1  0.25091128  0.13219887  0.56080127  1
  Nd3+  Nd40  1  0.23287586  0.37133561  0.06613036  1
  Nd3+  Nd41  1  0.48080938  0.62621396  0.08129551  1
  Nd3+  Nd42  1  0.86231570  0.00222078  0.94929844  1
  Nd3+  Nd43  1  0.61539906  0.74346855  0.94203916  1
  Nd3+  Nd44  1  0.73671148  0.87621044  0.06785824  1
  Sm3+  Sm45  1  0.37402565  0.00428557  0.44407868  1
  Sm3+  Sm46  1  0.12437217  0.00652685  0.44746565  1
  Sm3+  Sm47  1  0.49913140  0.37902539  0.56371180  1
  Sm3+  Sm48  1  0.86907376  0.50884054  0.44036518  1
  Sm3+  Sm49  1  0.61664768  0.25665332  0.94326701  1
  Sm3+  Sm50  1  0.37331918  0.50324650  0.43654083  1
  Sm3+  Sm51  1  0.36528231  0.50193423  0.95021040  1
  Sm3+  Sm52  1  -0.00065615  0.87684061  0.55351931  1
  Sm3+  Sm53  1  0.61459721  -0.00167502  0.94666532  1
  Sm3+  Sm54  1  0.87457862  0.00784724  0.43818143  1
  Sm3+  Sm55  1  -0.00200947  0.38252420  0.55515064  1
  Sm3+  Sm56  1  0.50139397  0.11823650  0.56921077  1
  Sm3+  Sm57  1  0.61282481  0.50578633  0.96106314  1
  Sm3+  Sm58  1  0.24229564  0.87895921  0.05600334  1
  Sm3+  Sm59  1  0.11572961  0.00114635  0.93860170  1
  Sm3+  Sm60  1  0.48461193  0.13033327  0.04687973  1
  Sm3+  Sm61  1  0.24078363  0.13083877  0.04545971  1
  Sm3+  Sm62  1  0.74630947  0.37434496  0.06976741  1
  Sm3+  Sm63  1  -0.00822358  0.87723128  0.05512628  1
  Bi2+  Bi64  1  0.00761604  0.00042326  0.27520626  1
  Bi2+  Bi65  1  -0.02575382  0.11227372  0.80227596  1
  Bi2+  Bi66  1  -0.03078265  0.32309884  0.28718830  1
  Bi2+  Bi67  1  -0.09384414  0.31707396  0.74730397  1
  Bi2+  Bi68  1  0.04602327  0.58549446  0.30118626  1
  Bi2+  Bi69  1  -0.00420510  0.63155577  0.78630817  1
  Bi2+  Bi70  1  0.03922402  0.78873822  0.29751712  1
  Bi2+  Bi71  1  -0.02655473  0.85703657  0.76257676  1
  Bi2+  Bi72  1  0.21490231  0.08646374  0.26592426  1
  Bi2+  Bi73  1  0.22170897  0.12050927  0.79019754  1
  Bi2+  Bi74  1  0.22831080  0.35540673  0.29765453  1
  Bi2+  Bi75  1  0.26278596  0.41828820  0.81107435  1
  Bi2+  Bi76  1  0.24905657  0.61897348  0.28988439  1
  Bi2+  Bi77  1  0.26056007  0.61345582  0.73677607  1
  Bi2+  Bi78  1  0.24526918  0.89192992  0.29033822  1
  Bi2+  Bi79  1  0.28797315  0.89214098  0.80167261  1
  Bi2+  Bi80  1  0.48267737  0.09106987  0.29848343  1
  Bi2+  Bi81  1  0.51758356  0.16753101  0.76576381  1
  Bi2+  Bi82  1  0.48658557  0.35577991  0.29259543  1
  Bi2+  Bi83  1  0.47776457  0.34967194  0.80108955  1
  Bi2+  Bi84  1  0.50941437  0.62282933  0.28303768  1
  Bi2+  Bi85  1  0.48544116  0.63423504  0.80236169  1
  Bi2+  Bi86  1  0.49699372  0.88281182  0.28351300  1
  Bi2+  Bi87  1  0.53201242  0.89379329  0.77825259  1
  Bi2+  Bi88  1  0.67470831  0.05578951  0.30358833  1
  Bi2+  Bi89  1  0.77771293  0.13863290  0.80049249  1
  Bi2+  Bi90  1  0.77330695  0.32013826  0.30485242  1
  Bi2+  Bi91  1  0.66983346  0.40614531  0.80387306  1
  Bi2+  Bi92  1  0.77254427  0.61512060  0.28228433  1
  Bi2+  Bi93  1  0.74397184  0.62229091  0.81510085  1
  Bi2+  Bi94  1  0.77455215  0.86653931  0.29176780  1
  Bi2+  Bi95  1  0.73345939  0.90739720  0.79663525  1
  Bi2+  Bi96  1  0.14415939  -0.05761583  0.19779897  1
  Bi2+  Bi97  1  0.11521376  -0.01759106  0.73308104  1
  Bi2+  Bi98  1  0.09474959  0.22048819  0.20200347  1
  Bi2+  Bi99  1  0.07178775  0.22138765  0.72685726  1
  Bi2+  Bi100  1  0.13373334  0.48374932  0.21184598  1
  Bi2+  Bi101  1  0.12720103  0.46658036  0.71349747  1
  Bi2+  Bi102  1  0.12497571  0.69267252  0.20929447  1
  Bi2+  Bi103  1  0.16524455  0.79186641  0.70729285  1
  Bi2+  Bi104  1  0.45379191  0.01052921  0.19414922  1
  Bi2+  Bi105  1  0.38614143  0.03100739  0.69686940  1
  Bi2+  Bi106  1  0.33232293  0.21560970  0.20868372  1
  Bi2+  Bi107  1  0.33153730  0.26663737  0.70348314  1
  Bi2+  Bi108  1  0.34900132  0.50810624  0.20960475  1
  Bi2+  Bi109  1  0.42906406  0.50272506  0.72350515  1
  Bi2+  Bi110  1  0.36648784  0.77427169  0.20455196  1
  Bi2+  Bi111  1  0.38358211  0.75800535  0.71038554  1
  Bi2+  Bi112  1  0.65528472  -0.00543963  0.17074615  1
  Bi2+  Bi113  1  0.63407442  0.02891308  0.71510271  1
  Bi2+  Bi114  1  0.62018803  0.17639616  0.21928274  1
  Bi2+  Bi115  1  0.61130449  0.31420062  0.71013404  1
  Bi2+  Bi116  1  0.69864638  0.42007584  0.20437060  1
  Bi2+  Bi117  1  0.62461243  0.53825159  0.71449465  1
  Bi2+  Bi118  1  0.63881202  0.80729792  0.21579274  1
  Bi2+  Bi119  1  0.62544058  0.73789214  0.73448345  1
  Bi2+  Bi120  1  0.83269694  0.01793766  0.21920737  1
  Bi2+  Bi121  1  0.89478210  0.01044237  0.70029052  1
  Bi2+  Bi122  1  0.85209078  0.21436916  0.21555443  1
  Bi2+  Bi123  1  0.77389506  0.20234022  0.69269768  1
  Bi2+  Bi124  1  0.93309608  0.48410003  0.21579364  1
  Bi2+  Bi125  1  0.81882721  0.48924134  0.72476365  1
  Bi2+  Bi126  1  0.92163267  0.76326004  0.20467230  1
  Bi2+  Bi127  1  0.83600223  0.75421743  0.70343741  1
  S2-  S128  1  -0.02363209  0.14617889  0.15173484  1
  S2-  S129  1  -0.01034511  0.13670067  0.65187565  1
  S2-  S130  1  0.10288070  0.35436396  0.13753051  1
  S2-  S131  1  0.02102103  0.45995211  0.64173313  1
  S2-  S132  1  -0.08450563  0.62227933  0.14895780  1
  S2-  S133  1  0.05002893  0.67829669  0.68732125  1
  S2-  S134  1  -0.00199839  0.89396340  0.15259703  1
  S2-  S135  1  -0.07582540  0.87097570  0.64105643  1
  S2-  S136  1  0.21930641  0.14155823  0.14298466  1
  S2-  S137  1  0.26221606  0.11982653  0.65996792  1
  S2-  S138  1  0.32635721  0.35510553  0.15339386  1
  S2-  S139  1  0.18792799  0.32127210  0.66796854  1
  S2-  S140  1  0.31837363  0.64227580  0.14374153  1
  S2-  S141  1  0.23580987  0.53850243  0.64430482  1
  S2-  S142  1  0.34229248  0.89902955  0.13730709  1
  S2-  S143  1  0.29922527  0.89021242  0.65695395  1
  S2-  S144  1  0.45490910  0.16703098  0.14046429  1
  S2-  S145  1  0.46922793  0.17768313  0.66193388  1
  S2-  S146  1  0.54593559  0.32747728  0.19947912  1
  S2-  S147  1  0.39962520  0.38952388  0.64422246  1
  S2-  S148  1  0.48873404  0.51820237  0.16186418  1
  S2-  S149  1  0.48459496  0.74289876  0.63472705  1
  S2-  S150  1  0.50657592  0.75475340  0.15207351  1
  S2-  S151  1  0.51831424  0.98379382  0.63934817  1
  S2-  S152  1  0.72681279  0.25034208  0.14402207  1
  S2-  S153  1  0.75049830  0.00455742  0.63990968  1
  S2-  S154  1  0.87810275  0.38988332  0.14107859  1
  S2-  S155  1  0.82191232  0.36477362  0.65183684  1
  S2-  S156  1  0.71071815  0.57664567  0.18406969  1
  S2-  S157  1  0.84636533  0.60944640  0.64875283  1
  S2-  S158  1  0.76855871  0.78289574  0.14971641  1
  S2-  S159  1  0.71136881  0.76576381  0.63964449  1
  S2-  S160  1  0.13661186  0.00769690  0.35077082  1
  S2-  S161  1  0.14077638  -0.02531599  0.84257175  1
  S2-  S162  1  0.11435729  0.26284194  0.34022312  1
  S2-  S163  1  0.11652698  0.40243839  0.84818175  1
  S2-  S164  1  0.24646188  0.48847386  0.36360298  1
  S2-  S165  1  0.11114581  0.60563878  0.84722192  1
  S2-  S166  1  0.24596846  0.75519831  0.35622373  1
  S2-  S167  1  0.25460572  0.75756259  0.84838223  1
  S2-  S168  1  0.37923860  -0.02773526  0.34810169  1
  S2-  S169  1  0.36098836  0.05896075  0.82732975  1
  S2-  S170  1  0.35675564  0.27226177  0.34716323  1
  S2-  S171  1  0.25660651  0.25727330  0.84831181  1
  S2-  S172  1  0.46040865  0.49846608  0.34975245  1
  S2-  S173  1  0.36539434  0.54698876  0.85483282  1
  S2-  S174  1  0.47078261  0.74078791  0.34529155  1
  S2-  S175  1  0.42750563  0.85774565  0.85861819  1
  S2-  S176  1  0.63542010  -0.11388616  0.35621047  1
  S2-  S177  1  0.61952170  -0.00199681  0.84914964  1
  S2-  S178  1  0.61314173  0.30695586  0.35706542  1
  S2-  S179  1  0.72104020  0.25738317  0.86359664  1
  S2-  S180  1  0.61094230  0.47553356  0.27932888  1
  S2-  S181  1  0.60280861  0.59933694  0.87552825  1
  S2-  S182  1  0.64640114  0.64379256  0.34285451  1
  S2-  S183  1  0.73234320  0.76957827  0.86436876  1
  S2-  S184  1  0.88765299  -0.03484582  0.34423014  1
  S2-  S185  1  0.85850981  -0.00447130  0.85077203  1
  S2-  S186  1  0.87224377  0.20059138  0.34491089  1
  S2-  S187  1  0.96377483  0.26103714  0.85014274  1
  S2-  S188  1  0.80044913  0.48576758  0.35041040  1
  S2-  S189  1  0.88508963  0.53480616  0.84483403  1
  S2-  S190  1  0.84602596  0.72418383  0.33980621  1
  S2-  S191  1  0.96820952  0.76711673  0.84789964  1
  S2-  S192  1  -0.00013955  0.13172923  0.44901301  1
  S2-  S193  1  -0.00961801  0.12380832  0.94848332  1
  S2-  S194  1  -0.00409135  0.38262048  0.44826883  1
  S2-  S195  1  -0.01561745  0.37990293  0.95516878  1
  S2-  S196  1  -0.00098488  0.62854854  0.43957356  1
  S2-  S197  1  -0.00793311  0.63139646  0.95523981  1
  S2-  S198  1  0.00041429  0.88118735  0.44954033  1
  S2-  S199  1  -0.00690306  0.87920198  0.95165657  1
  S2-  S200  1  0.24998274  0.12926908  0.45350908  1
  S2-  S201  1  0.23958014  0.12344240  0.94326905  1
  S2-  S202  1  0.25230190  0.37775941  0.46593172  1
  S2-  S203  1  0.24063811  0.38028702  0.95673099  1
  S2-  S204  1  0.24804061  0.63013493  0.45563294  1
  S2-  S205  1  0.23749186  0.62667734  0.95491811  1
  S2-  S206  1  0.24627091  0.88389248  0.45636822  1
  S2-  S207  1  0.23500709  0.87373483  0.95343942  1
  S2-  S208  1  0.49896987  0.12742545  0.45689928  1
  S2-  S209  1  0.49344487  0.12958502  0.94216598  1
  S2-  S210  1  0.50251112  0.38338540  0.46046008  1
  S2-  S211  1  0.49339451  0.38121860  0.94426388  1
  S2-  S212  1  0.49589579  0.62637154  0.45214516  1
  S2-  S213  1  0.48381794  0.62647059  0.97154718  1
  S2-  S214  1  0.49452282  0.88135065  0.45541787  1
  S2-  S215  1  0.49684337  0.87375509  0.96521075  1
  S2-  S216  1  0.74940628  0.12918709  0.45568096  1
  S2-  S217  1  0.73412769  0.12455735  0.96312417  1
  S2-  S218  1  0.74489142  0.38290187  0.45800868  1
  S2-  S219  1  0.73730887  0.38324042  0.96349166  1
  S2-  S220  1  0.74825471  0.62839122  0.45635374  1
  S2-  S221  1  0.74144895  0.62662423  0.97075037  1
  S2-  S222  1  0.75652935  0.88287789  0.45615760  1
  S2-  S223  1  0.73766798  0.87965126  0.96341495  1
  S2-  S224  1  0.11713246  0.00288678  0.04359372  1
  S2-  S225  1  0.12383753  0.00375562  0.55294065  1
  S2-  S226  1  0.11437917  0.24856320  0.02954664  1
  S2-  S227  1  0.12404899  0.25881362  0.54797359  1
  S2-  S228  1  0.11372505  0.50368529  0.04413175  1
  S2-  S229  1  0.11883187  0.50933820  0.53865068  1
  S2-  S230  1  0.11754294  0.75666428  0.05727311  1
  S2-  S231  1  0.11968615  0.75189478  0.54686566  1
  S2-  S232  1  0.36292000  0.00688663  0.03353533  1
  S2-  S233  1  0.37114421  0.00326013  0.54698623  1
  S2-  S234  1  0.36338986  0.25433151  0.03570382  1
  S2-  S235  1  0.37993126  0.24945913  0.54867007  1
  S2-  S236  1  0.36406341  0.49336235  0.05187015  1
  S2-  S237  1  0.37840945  0.50810713  0.54267785  1
  S2-  S238  1  0.35999898  0.75380877  0.03946380  1
  S2-  S239  1  0.36905542  0.75593083  0.53663881  1
  S2-  S240  1  0.60831172  0.00491774  0.05039311  1
  S2-  S241  1  0.62734083  0.00457492  0.53768637  1
  S2-  S242  1  0.60549505  0.25776543  0.04586153  1
  S2-  S243  1  0.62324701  0.25063466  0.55765884  1
  S2-  S244  1  0.61760163  0.49647405  0.06231253  1
  S2-  S245  1  0.62303211  0.50350946  0.56662819  1
  S2-  S246  1  0.61693046  0.74872901  0.05043201  1
  S2-  S247  1  0.62594842  0.75713210  0.53185851  1
  S2-  S248  1  0.86431528  0.00331224  0.05482209  1
  S2-  S249  1  0.88084324  0.00674503  0.54051847  1
  S2-  S250  1  0.86308088  0.24780825  0.03942666  1
  S2-  S251  1  0.87338837  0.25503820  0.54409024  1
  S2-  S252  1  0.86465834  0.50544147  0.04650783  1
  S2-  S253  1  0.87561324  0.50537292  0.54257514  1
  S2-  S254  1  0.86981804  0.75739793  0.04211525  1
  S2-  S255  1  0.88509108  0.74663351  0.54228933  1
