# generated using pymatgen
data_La6Ce7Pr13Nd19Sm19(BiS2)64
_symmetry_space_group_name_H-M   'P 1'
_cell_length_a   15.94580725
_cell_length_b   16.03172388
_cell_length_c   27.62850225
_cell_angle_alpha   89.76761394
_cell_angle_beta   90.40226968
_cell_angle_gamma   89.95625399
_symmetry_Int_Tables_number   1
_chemical_formula_structural   La6Ce7Pr13Nd19Sm19(BiS2)64
_chemical_formula_sum   'La6 Ce7 Pr13 Nd19 Sm19 Bi64 S128'
_cell_volume   7062.68219167
_cell_formula_units_Z   1
loop_
 _symmetry_equiv_pos_site_id
 _symmetry_equiv_pos_as_xyz
  1  'x, y, z'
loop_
 _atom_type_symbol
 _atom_type_oxidation_number
  La3+  3.0
  Ce3+  3.0
  Pr3+  3.0
  Nd3+  3.0
  Sm3+  3.0
  Bi2+  2.0
  S2-  -2.0
loop_
 _atom_site_type_symbol
 _atom_site_label
 _atom_site_symmetry_multiplicity
 _atom_site_fract_x
 _atom_site_fract_y
 _atom_site_fract_z
 _atom_site_occupancy
  La3+  La0  1  0.11951502  0.25680175  0.38344008  1
  La3+  La1  1  0.74746414  0.10330377  0.59868667  1
  La3+  La2  1  0.62050671  -0.01438613  0.43176836  1
  La3+  La3  1  0.02927625  0.63531234  0.07758803  1
  La3+  La4  1  0.11711962  -0.00872098  0.42367207  1
  La3+  La5  1  0.91124162  0.00296199  0.90326913  1
  Ce3+  Ce6  1  0.50086634  0.86516159  0.56438212  1
  Ce3+  Ce7  1  0.24837464  0.35792222  0.55928391  1
  Ce3+  Ce8  1  0.50100725  0.35973077  0.56938504  1
  Ce3+  Ce9  1  0.90423581  0.50982569  0.94584619  1
  Ce3+  Ce10  1  0.15197024  0.25608731  0.94889990  1
  Ce3+  Ce11  1  0.12275100  0.48424028  0.44772947  1
  Ce3+  Ce12  1  -0.00093474  0.10348142  0.57187537  1
  Pr3+  Pr13  1  0.53268295  0.88072351  0.06300910  1
  Pr3+  Pr14  1  0.49042934  0.11105263  0.57378551  1
  Pr3+  Pr15  1  0.37653257  -0.01208429  0.42781348  1
  Pr3+  Pr16  1  0.24905226  0.61326803  0.56336556  1
  Pr3+  Pr17  1  0.77598595  0.63157217  0.07303445  1
  Pr3+  Pr18  1  0.74709158  0.35968063  0.56053869  1
  Pr3+  Pr19  1  0.11993446  0.73719472  0.43080360  1
  Pr3+  Pr20  1  0.02892110  0.38117264  0.07179053  1
  Pr3+  Pr21  1  0.39076963  0.50685775  0.92015711  1
  Pr3+  Pr22  1  0.49640567  0.61100748  0.58134355  1
  Pr3+  Pr23  1  0.65593891  0.75816831  0.93224936  1
  Pr3+  Pr24  1  0.40679821  0.76126136  0.92354705  1
  Pr3+  Pr25  1  0.52472429  0.38215658  0.05992461  1
  Nd3+  Nd26  1  -0.00288122  0.35514460  0.56095859  1
  Nd3+  Nd27  1  0.62088407  0.73221001  0.43146523  1
  Nd3+  Nd28  1  0.77607257  0.37659450  0.07144206  1
  Nd3+  Nd29  1  0.14294477  0.50932361  0.93798774  1
  Nd3+  Nd30  1  0.77832365  0.13081287  0.05276926  1
  Nd3+  Nd31  1  0.15201344  0.76108816  0.94842823  1
  Nd3+  Nd32  1  0.37202692  0.48318459  0.44405867  1
  Nd3+  Nd33  1  0.62297235  0.48773955  0.43367548  1
  Nd3+  Nd34  1  0.00002814  0.86223978  0.56608726  1
  Nd3+  Nd35  1  0.37962933  0.23831422  0.43265288  1
  Nd3+  Nd36  1  0.27670273  0.38522443  0.06478938  1
  Nd3+  Nd37  1  -0.00217403  0.61588136  0.57058295  1
  Nd3+  Nd38  1  0.66337333  0.27022171  0.91655098  1
  Nd3+  Nd39  1  0.15350593  0.00863206  0.94683762  1
  Nd3+  Nd40  1  0.24816691  0.11121805  0.54696178  1
  Nd3+  Nd41  1  0.40333813  0.26106203  0.92819321  1
  Nd3+  Nd42  1  0.37470313  0.73470409  0.44106764  1
  Nd3+  Nd43  1  0.29009368  0.13310858  0.07046004  1
  Nd3+  Nd44  1  0.40517434  0.01126713  0.93203482  1
  Sm3+  Sm45  1  0.74471608  0.86176060  0.55834397  1
  Sm3+  Sm46  1  0.87674808  0.23252513  0.44434219  1
  Sm3+  Sm47  1  0.74559359  0.61167871  0.55595414  1
  Sm3+  Sm48  1  0.87603432  0.48445205  0.44773359  1
  Sm3+  Sm49  1  0.65500018  0.01134206  0.93756871  1
  Sm3+  Sm50  1  0.90396813  0.25740256  0.94280893  1
  Sm3+  Sm51  1  0.53333041  0.13790812  0.04983101  1
  Sm3+  Sm52  1  0.52519189  0.63061529  0.05680013  1
  Sm3+  Sm53  1  0.02815520  0.12812619  0.06249175  1
  Sm3+  Sm54  1  0.87294623  -0.01178836  0.44841671  1
  Sm3+  Sm55  1  0.90395339  0.76121052  0.94774721  1
  Sm3+  Sm56  1  0.62105681  0.23572563  0.44590682  1
  Sm3+  Sm57  1  0.29117913  0.88418515  0.06570052  1
  Sm3+  Sm58  1  0.25027679  0.86254095  0.54997183  1
  Sm3+  Sm59  1  0.87495341  0.73611754  0.44494675  1
  Sm3+  Sm60  1  0.77577909  0.88281320  0.05833990  1
  Sm3+  Sm61  1  0.65439809  0.50727798  0.94343062  1
  Sm3+  Sm62  1  0.28180851  0.63362073  0.06115030  1
  Sm3+  Sm63  1  0.03425477  0.88733664  0.06926652  1
  Bi2+  Bi64  1  -0.04426072  0.10420863  0.28924021  1
  Bi2+  Bi65  1  0.01558792  0.15675931  0.80325168  1
  Bi2+  Bi66  1  -0.04033232  0.49128401  0.27201161  1
  Bi2+  Bi67  1  0.07000688  0.33447688  0.75317811  1
  Bi2+  Bi68  1  0.00722242  0.66095755  0.32279450  1
  Bi2+  Bi69  1  -0.06483035  0.63491211  0.83189959  1
  Bi2+  Bi70  1  -0.02521826  0.85414657  0.29502326  1
  Bi2+  Bi71  1  0.01082816  0.79524441  0.77794286  1
  Bi2+  Bi72  1  0.23595059  0.11601912  0.28101910  1
  Bi2+  Bi73  1  0.27698338  0.11896881  0.78036747  1
  Bi2+  Bi74  1  0.25728781  0.38664589  0.29480632  1
  Bi2+  Bi75  1  0.27034140  0.34659868  0.80387625  1
  Bi2+  Bi76  1  0.20631298  0.65111944  0.29957173  1
  Bi2+  Bi77  1  0.22255281  0.62906504  0.79684340  1
  Bi2+  Bi78  1  0.24705819  0.84635612  0.28661976  1
  Bi2+  Bi79  1  0.27449386  0.84260761  0.78159861  1
  Bi2+  Bi80  1  0.47106229  0.12350089  0.23828980  1
  Bi2+  Bi81  1  0.52261348  0.08842290  0.79463668  1
  Bi2+  Bi82  1  0.50369161  0.39077435  0.29259686  1
  Bi2+  Bi83  1  0.47526389  0.45437174  0.74476252  1
  Bi2+  Bi84  1  0.50097731  0.65534806  0.28281431  1
  Bi2+  Bi85  1  0.50915367  0.63143228  0.78957926  1
  Bi2+  Bi86  1  0.49434929  0.89990953  0.29908749  1
  Bi2+  Bi87  1  0.49751281  0.88834809  0.78380288  1
  Bi2+  Bi88  1  0.71137362  0.11187772  0.29291060  1
  Bi2+  Bi89  1  0.74853823  0.14323107  0.79173964  1
  Bi2+  Bi90  1  0.67399742  0.30858924  0.32216878  1
  Bi2+  Bi91  1  0.80627272  0.40025639  0.79407594  1
  Bi2+  Bi92  1  0.73823349  0.55946769  0.28691981  1
  Bi2+  Bi93  1  0.73307056  0.58072792  0.82669589  1
  Bi2+  Bi94  1  0.73961854  0.83831114  0.28317421  1
  Bi2+  Bi95  1  0.75951224  0.77382796  0.80994423  1
  Bi2+  Bi96  1  0.08772491  -0.01710543  0.19951499  1
  Bi2+  Bi97  1  0.13330722  -0.01986622  0.76260186  1
  Bi2+  Bi98  1  0.07464075  0.25812997  0.18791680  1
  Bi2+  Bi99  1  0.12481825  0.15857862  0.70915473  1
  Bi2+  Bi100  1  0.12975099  0.52061340  0.21731930  1
  Bi2+  Bi101  1  0.08617154  0.53792563  0.70870732  1
  Bi2+  Bi102  1  0.07319461  0.71576933  0.21482509  1
  Bi2+  Bi103  1  0.13976809  0.72421359  0.70065688  1
  Bi2+  Bi104  1  0.33817739  -0.01478431  0.19768455  1
  Bi2+  Bi105  1  0.36755894  -0.01721707  0.69719280  1
  Bi2+  Bi106  1  0.35146375  0.25531729  0.19366555  1
  Bi2+  Bi107  1  0.37101098  0.23473845  0.70648883  1
  Bi2+  Bi108  1  0.39936252  0.52232140  0.21162150  1
  Bi2+  Bi109  1  0.28448716  0.49092423  0.71300587  1
  Bi2+  Bi110  1  0.34408519  0.71429466  0.21973811  1
  Bi2+  Bi111  1  0.38098502  0.74266571  0.70405294  1
  Bi2+  Bi112  1  0.62549007  0.01089798  0.19971513  1
  Bi2+  Bi113  1  0.64061268  -0.03866161  0.71561075  1
  Bi2+  Bi114  1  0.62967179  0.23973423  0.20863968  1
  Bi2+  Bi115  1  0.62220620  0.28594143  0.71871385  1
  Bi2+  Bi116  1  0.59734515  0.49847493  0.20818434  1
  Bi2+  Bi117  1  0.63434038  0.55735457  0.71000993  1
  Bi2+  Bi118  1  0.60986955  0.75687736  0.20619147  1
  Bi2+  Bi119  1  0.64306685  0.76082645  0.71677076  1
  Bi2+  Bi120  1  0.81874329  -0.00941815  0.22857500  1
  Bi2+  Bi121  1  0.90921750  -0.00464840  0.70456140  1
  Bi2+  Bi122  1  0.84378925  0.26333104  0.26641319  1
  Bi2+  Bi123  1  0.88664694  0.29263105  0.71075461  1
  Bi2+  Bi124  1  0.80658688  0.43397526  0.20621962  1
  Bi2+  Bi125  1  0.88885848  0.55037776  0.73117705  1
  Bi2+  Bi126  1  0.80181830  0.70036406  0.21303122  1
  Bi2+  Bi127  1  0.85554506  0.74517493  0.71002470  1
  S2-  S128  1  -0.00731454  0.11404588  0.15828016  1
  S2-  S129  1  -0.10341700  0.13637669  0.65513321  1
  S2-  S130  1  -0.09478438  0.34692689  0.14496674  1
  S2-  S131  1  -0.00304560  0.38456307  0.65791707  1
  S2-  S132  1  -0.10056149  0.62446469  0.14862640  1
  S2-  S133  1  -0.00083754  0.74048033  0.64081260  1
  S2-  S134  1  -0.00611153  0.86095090  0.16420908  1
  S2-  S135  1  0.02890598  0.97320340  0.64228744  1
  S2-  S136  1  0.22142750  0.14541456  0.16497287  1
  S2-  S137  1  0.33106163  0.10905432  0.63649310  1
  S2-  S138  1  0.15740766  0.39033766  0.14552800  1
  S2-  S139  1  0.26891158  0.34725952  0.65588034  1
  S2-  S140  1  0.16820321  0.63633795  0.14254277  1
  S2-  S141  1  0.34930485  0.61339781  0.64619686  1
  S2-  S142  1  0.20346832  0.90004549  0.15288336  1
  S2-  S143  1  0.27248888  0.85612526  0.64698440  1
  S2-  S144  1  0.44092447  0.14120740  0.13272828  1
  S2-  S145  1  0.50620172  0.24420260  0.64560242  1
  S2-  S146  1  0.40122320  0.38240938  0.13764541  1
  S2-  S147  1  0.52078028  0.47157525  0.64566868  1
  S2-  S148  1  0.40533673  0.63693033  0.13295169  1
  S2-  S149  1  0.51881125  0.75364635  0.64187960  1
  S2-  S150  1  0.41692538  0.88858407  0.13924818  1
  S2-  S151  1  0.51243503  0.97808059  0.64224684  1
  S2-  S152  1  0.71093189  0.13674390  0.14457916  1
  S2-  S153  1  0.67890135  0.13891442  0.69269743  1
  S2-  S154  1  0.64057830  0.36731580  0.13951983  1
  S2-  S155  1  0.74186604  0.35261900  0.66080472  1
  S2-  S156  1  0.63515635  0.62865585  0.13844942  1
  S2-  S157  1  0.77779372  0.61004712  0.65177573  1
  S2-  S158  1  0.66672737  0.87679611  0.13507726  1
  S2-  S159  1  0.76517151  0.93898550  0.64770438  1
  S2-  S160  1  0.10973339  0.09375791  0.34013223  1
  S2-  S161  1  0.07480276  0.01156758  0.85811283  1
  S2-  S162  1  0.12602731  0.27361155  0.27435576  1
  S2-  S163  1  0.12578904  0.26505876  0.85309068  1
  S2-  S164  1  0.13040603  0.43081893  0.35619864  1
  S2-  S165  1  0.23393881  0.48892829  0.85382829  1
  S2-  S166  1  0.11115239  0.85683813  0.35356803  1
  S2-  S167  1  0.13652098  0.75240066  0.85027144  1
  S2-  S168  1  0.29187111  -0.01625521  0.33439560  1
  S2-  S169  1  0.37099447  -0.10156964  0.85688370  1
  S2-  S170  1  0.29124034  0.24341491  0.34452061  1
  S2-  S171  1  0.39325418  0.13213124  0.85754696  1
  S2-  S172  1  0.38316062  0.47752090  0.34516609  1
  S2-  S173  1  0.41266648  0.37520351  0.85074537  1
  S2-  S174  1  0.41392095  0.76713852  0.34641322  1
  S2-  S175  1  0.37408035  0.64022898  0.85103977  1
  S2-  S176  1  0.50207283  0.02482083  0.35596126  1
  S2-  S177  1  0.66683430  0.01333512  0.84034623  1
  S2-  S178  1  0.51812165  0.25909096  0.36512610  1
  S2-  S179  1  0.59505579  0.22871031  0.82227413  1
  S2-  S180  1  0.61935003  0.60590694  0.35850654  1
  S2-  S181  1  0.66742547  0.42352681  0.85748633  1
  S2-  S182  1  0.62806327  0.85458612  0.35793590  1
  S2-  S183  1  0.54757005  0.76783132  0.85285781  1
  S2-  S184  1  0.92121258  -0.01928919  0.35438116  1
  S2-  S185  1  0.87290470  0.04093343  0.80388465  1
  S2-  S186  1  0.94275732  0.24345087  0.35415805  1
  S2-  S187  1  0.81811750  0.26116174  0.85701669  1
  S2-  S188  1  0.85417433  0.47804440  0.35142031  1
  S2-  S189  1  1.00752614  0.49597455  0.86852589  1
  S2-  S190  1  0.85628963  0.74599121  0.34825742  1
  S2-  S191  1  0.90596898  0.84198980  0.85968073  1
  S2-  S192  1  -0.00475757  0.11053350  0.46164631  1
  S2-  S193  1  0.02246207  0.12944419  0.95834801  1
  S2-  S194  1  -0.00123482  0.35873403  0.45710408  1
  S2-  S195  1  0.02598317  0.37713531  0.96569974  1
  S2-  S196  1  -0.00306932  0.61047730  0.46250789  1
  S2-  S197  1  0.02575060  0.63995665  0.96779352  1
  S2-  S198  1  -0.00541898  0.85943982  0.45992759  1
  S2-  S199  1  0.02555174  0.88758094  0.96411000  1
  S2-  S200  1  0.24977374  0.11447601  0.44537837  1
  S2-  S201  1  0.27666442  0.13290381  0.95935305  1
  S2-  S202  1  0.24536624  0.35709962  0.45531018  1
  S2-  S203  1  0.27234637  0.38130898  0.95861537  1
  S2-  S204  1  0.24676031  0.61119717  0.45414113  1
  S2-  S205  1  0.27137492  0.63450494  0.95760000  1
  S2-  S206  1  0.24959081  0.85984639  0.44767789  1
  S2-  S207  1  0.27659825  0.88557306  0.96064681  1
  S2-  S208  1  0.49902138  0.11482250  0.46397001  1
  S2-  S209  1  0.53849046  0.13983214  0.94771556  1
  S2-  S210  1  0.50262579  0.36688802  0.46316634  1
  S2-  S211  1  0.53141425  0.38372749  0.95343715  1
  S2-  S212  1  0.49594586  0.60800520  0.45780066  1
  S2-  S213  1  0.53084557  0.62866052  0.95160941  1
  S2-  S214  1  0.49788876  0.85805379  0.45819166  1
  S2-  S215  1  0.53324665  0.88883377  0.95428247  1
  S2-  S216  1  0.74866777  0.11357148  0.44072172  1
  S2-  S217  1  0.78765755  0.12378196  0.94888123  1
  S2-  S218  1  0.74956973  0.36117822  0.45508974  1
  S2-  S219  1  0.78400523  0.38341742  0.96250173  1
  S2-  S220  1  0.75358080  0.60958752  0.45392130  1
  S2-  S221  1  0.78068941  0.63562403  0.96062634  1
  S2-  S222  1  0.75214029  0.85944782  0.45624374  1
  S2-  S223  1  0.77968597  0.88855919  0.95557071  1
  S2-  S224  1  0.15821514  0.01080804  0.05078672  1
  S2-  S225  1  0.12749791  -0.01571274  0.53589592  1
  S2-  S226  1  0.15410588  0.25000392  0.05189833  1
  S2-  S227  1  0.12217825  0.23245238  0.56231908  1
  S2-  S228  1  0.15300313  0.51078080  0.04369018  1
  S2-  S229  1  0.12060856  0.48746833  0.55409178  1
  S2-  S230  1  0.15782987  0.76681953  0.05142933  1
  S2-  S231  1  0.12567169  0.73697690  0.53991648  1
  S2-  S232  1  0.40934291  0.01145383  0.03650029  1
  S2-  S233  1  0.37206361  -0.01628725  0.53535268  1
  S2-  S234  1  0.40235596  0.25754754  0.03364017  1
  S2-  S235  1  0.37328946  0.24036791  0.53932008  1
  S2-  S236  1  0.40080707  0.50894363  0.03363506  1
  S2-  S237  1  0.37196649  0.48517305  0.54748212  1
  S2-  S238  1  0.40569838  0.75847267  0.03388196  1
  S2-  S239  1  0.37373208  0.73700264  0.54372823  1
  S2-  S240  1  0.65202097  0.01022582  0.04004124  1
  S2-  S241  1  0.63115437  -0.00919174  0.54226698  1
  S2-  S242  1  0.65661962  0.25691005  0.03335744  1
  S2-  S243  1  0.63192650  0.22720485  0.54847932  1
  S2-  S244  1  0.65515156  0.50490419  0.04377286  1
  S2-  S245  1  0.62614370  0.48917758  0.54110597  1
  S2-  S246  1  0.65489999  0.75489145  0.03706309  1
  S2-  S247  1  0.62654255  0.73424483  0.54008042  1
  S2-  S248  1  0.90118411  0.00374133  0.05816484  1
  S2-  S249  1  0.86863247  -0.01358648  0.54797889  1
  S2-  S250  1  0.90499997  0.25008182  0.04384304  1
  S2-  S251  1  0.86918069  0.23204708  0.54795610  1
  S2-  S252  1  0.90105431  0.50475575  0.04958351  1
  S2-  S253  1  0.87507341  0.48856064  0.55164689  1
  S2-  S254  1  0.90327222  0.76580859  0.05101981  1
  S2-  S255  1  0.86823908  0.73709711  0.54717212  1
