# generated using pymatgen
data_La6Ce7Pr13Nd19Sm19(BiS2)64
_symmetry_space_group_name_H-M   'P 1'
_cell_length_a   16.09863618
_cell_length_b   16.11010805
_cell_length_c   27.22042993
_cell_angle_alpha   90.06936403
_cell_angle_beta   90.24546578
_cell_angle_gamma   90.06828107
_symmetry_Int_Tables_number   1
_chemical_formula_structural   La6Ce7Pr13Nd19Sm19(BiS2)64
_chemical_formula_sum   'La6 Ce7 Pr13 Nd19 Sm19 Bi64 S128'
_cell_volume   7059.56439892
_cell_formula_units_Z   1
loop_
 _symmetry_equiv_pos_site_id
 _symmetry_equiv_pos_as_xyz
  1  'x, y, z'
loop_
 _atom_type_symbol
 _atom_type_oxidation_number
  La3+  3.0
  Ce3+  3.0
  Pr3+  3.0
  Nd3+  3.0
  Sm3+  3.0
  Bi2+  2.0
  S2-  -2.0
loop_
 _atom_site_type_symbol
 _atom_site_label
 _atom_site_symmetry_multiplicity
 _atom_site_fract_x
 _atom_site_fract_y
 _atom_site_fract_z
 _atom_site_occupancy
  La3+  La0  1  0.24058493  0.63426010  0.57759414  1
  La3+  La1  1  0.36068101  0.24793142  0.41025855  1
  La3+  La2  1  0.75528967  0.36078640  0.10656650  1
  La3+  La3  1  -0.00927526  0.13662939  0.61687698  1
  La3+  La4  1  0.49629610  0.86820330  0.57243870  1
  La3+  La5  1  0.48679808  0.37827278  0.55061379  1
  Ce3+  Ce6  1  0.13264163  -0.01440125  0.94192702  1
  Ce3+  Ce7  1  0.75892740  0.61275391  0.06197149  1
  Ce3+  Ce8  1  -0.00609291  0.63163250  0.56740398  1
  Ce3+  Ce9  1  -0.01246789  0.88643772  0.56316356  1
  Ce3+  Ce10  1  0.50676716  0.11690543  0.06048004  1
  Ce3+  Ce11  1  0.50762033  0.61455575  0.05818154  1
  Ce3+  Ce12  1  0.36693887  0.00469501  0.44316349  1
  Pr3+  Pr13  1  0.73631311  0.13098672  0.56533539  1
  Pr3+  Pr14  1  0.11474520  0.50548690  0.44012170  1
  Pr3+  Pr15  1  0.63479550  0.48450349  0.94849632  1
  Pr3+  Pr16  1  0.73980557  0.38002852  0.55991010  1
  Pr3+  Pr17  1  0.35471561  0.51427678  0.42488615  1
  Pr3+  Pr18  1  0.86487373  0.50467601  0.44194674  1
  Pr3+  Pr19  1  0.48791317  0.61724499  0.57672232  1
  Pr3+  Pr20  1  0.76557776  0.10769398  0.07480321  1
  Pr3+  Pr21  1  0.76328237  0.86096118  0.07289526  1
  Pr3+  Pr22  1  0.88154889  -0.01611369  0.93714603  1
  Pr3+  Pr23  1  0.39047213  0.73015112  0.91347047  1
  Pr3+  Pr24  1  0.24429173  0.13073622  0.56843157  1
  Pr3+  Pr25  1  0.13146238  0.48783077  0.93905639  1
  Nd3+  Nd26  1  0.86458509  0.00848384  0.43733511  1
  Nd3+  Nd27  1  0.11428231  0.00874619  0.44618641  1
  Nd3+  Nd28  1  0.00603769  0.11300142  0.06070667  1
  Nd3+  Nd29  1  0.63260582  -0.01262347  0.94752318  1
  Nd3+  Nd30  1  -0.00044657  0.36211176  0.05805171  1
  Nd3+  Nd31  1  0.36434348  0.75603060  0.43961982  1
  Nd3+  Nd32  1  0.61375134  0.00488104  0.43603693  1
  Nd3+  Nd33  1  0.26891860  0.62244412  0.07419261  1
  Nd3+  Nd34  1  0.74355143  0.88203234  0.55558622  1
  Nd3+  Nd35  1  0.63432011  0.23847482  0.95119853  1
  Nd3+  Nd36  1  0.86382661  0.25577500  0.43817057  1
  Nd3+  Nd37  1  0.13767112  0.73446286  0.94149907  1
  Nd3+  Nd38  1  0.01139092  0.86152485  0.06799639  1
  Nd3+  Nd39  1  0.12749169  0.23815007  0.94058985  1
  Nd3+  Nd40  1  0.88114265  0.74012676  0.93075610  1
  Nd3+  Nd41  1  -0.00857323  0.37547662  0.56383006  1
  Nd3+  Nd42  1  0.86784443  0.23113319  0.92240161  1
  Nd3+  Nd43  1  0.86497609  0.75610678  0.43845851  1
  Nd3+  Nd44  1  0.38266620  0.24169699  0.93468401  1
  Sm3+  Sm45  1  0.24016304  0.37724157  0.55325312  1
  Sm3+  Sm46  1  0.24323793  0.87873548  0.55861669  1
  Sm3+  Sm47  1  0.50338947  0.36376306  0.06981905  1
  Sm3+  Sm48  1  0.11355318  0.75796023  0.44612036  1
  Sm3+  Sm49  1  0.25849106  0.11627447  0.05311137  1
  Sm3+  Sm50  1  0.63221185  0.73735583  0.94055003  1
  Sm3+  Sm51  1  0.11406909  0.25272708  0.44587460  1
  Sm3+  Sm52  1  0.61178815  0.75426299  0.44101494  1
  Sm3+  Sm53  1  0.38163006  0.48383044  0.93564385  1
  Sm3+  Sm54  1  0.87901542  0.48587480  0.94200923  1
  Sm3+  Sm55  1  0.50598316  0.86170594  0.05549920  1
  Sm3+  Sm56  1  0.00597808  0.61153207  0.05150250  1
  Sm3+  Sm57  1  0.25526562  0.36802170  0.06051289  1
  Sm3+  Sm58  1  0.61460584  0.25430595  0.43117371  1
  Sm3+  Sm59  1  0.49298813  0.12968845  0.55756386  1
  Sm3+  Sm60  1  0.38168170  -0.01199941  0.94140444  1
  Sm3+  Sm61  1  0.60917151  0.50450271  0.43522779  1
  Sm3+  Sm62  1  0.74251607  0.62871259  0.54869851  1
  Sm3+  Sm63  1  0.26118197  0.86120007  0.05457374  1
  Bi2+  Bi64  1  0.00557343  0.07327502  0.27677446  1
  Bi2+  Bi65  1  0.02178126  0.13933114  0.81927867  1
  Bi2+  Bi66  1  0.00407146  0.37091290  0.29586649  1
  Bi2+  Bi67  1  0.01889885  0.40008546  0.81404356  1
  Bi2+  Bi68  1  0.01349845  0.64493448  0.25362499  1
  Bi2+  Bi69  1  -0.01648941  0.66581111  0.79525350  1
  Bi2+  Bi70  1  0.02595134  0.84816304  0.28986473  1
  Bi2+  Bi71  1  -0.01515461  0.85975183  0.76549949  1
  Bi2+  Bi72  1  0.21000908  0.10280843  0.29846769  1
  Bi2+  Bi73  1  0.31701067  0.14849046  0.79467466  1
  Bi2+  Bi74  1  0.25522581  0.38065796  0.29578584  1
  Bi2+  Bi75  1  0.31810556  0.34967529  0.73212621  1
  Bi2+  Bi76  1  0.24551194  0.63762538  0.29121046  1
  Bi2+  Bi77  1  0.25733986  0.63478671  0.80003167  1
  Bi2+  Bi78  1  0.24859329  0.84404606  0.28915828  1
  Bi2+  Bi79  1  0.24906924  0.89030805  0.80655367  1
  Bi2+  Bi80  1  0.45901483  0.03253039  0.27539510  1
  Bi2+  Bi81  1  0.51543937  0.15657805  0.78075272  1
  Bi2+  Bi82  1  0.51069763  0.38968377  0.27945358  1
  Bi2+  Bi83  1  0.50751213  0.35532172  0.79583556  1
  Bi2+  Bi84  1  0.51024723  0.68649804  0.29052975  1
  Bi2+  Bi85  1  0.59974953  0.61905534  0.77214168  1
  Bi2+  Bi86  1  0.43389433  0.86327152  0.32507998  1
  Bi2+  Bi87  1  0.57321407  0.86755984  0.78510810  1
  Bi2+  Bi88  1  0.74118734  0.10466322  0.29780218  1
  Bi2+  Bi89  1  0.72410263  0.11793401  0.79438037  1
  Bi2+  Bi90  1  0.74944411  0.37778552  0.31204350  1
  Bi2+  Bi91  1  0.72559991  0.39307951  0.80424870  1
  Bi2+  Bi92  1  0.80195357  0.64451026  0.28967870  1
  Bi2+  Bi93  1  0.78502046  0.66058026  0.80799415  1
  Bi2+  Bi94  1  0.73867862  0.83677852  0.27456581  1
  Bi2+  Bi95  1  0.76321739  0.85530898  0.80422863  1
  Bi2+  Bi96  1  0.07955857  -0.02730585  0.18217029  1
  Bi2+  Bi97  1  0.18578602  0.03391640  0.73729815  1
  Bi2+  Bi98  1  0.10331272  0.23453277  0.24083293  1
  Bi2+  Bi99  1  0.13767115  0.29082185  0.71160915  1
  Bi2+  Bi100  1  0.10108282  0.47584825  0.21903219  1
  Bi2+  Bi101  1  0.08742454  0.52822846  0.73601507  1
  Bi2+  Bi102  1  0.11559674  0.78170142  0.19442399  1
  Bi2+  Bi103  1  0.12548984  0.76037252  0.70768559  1
  Bi2+  Bi104  1  0.27582058  -0.00823818  0.21157919  1
  Bi2+  Bi105  1  0.36889102  0.01910780  0.71164428  1
  Bi2+  Bi106  1  0.35706694  0.22570926  0.20404132  1
  Bi2+  Bi107  1  0.39086580  0.20131231  0.66895880  1
  Bi2+  Bi108  1  0.36516990  0.49139926  0.19503543  1
  Bi2+  Bi109  1  0.45080813  0.51001838  0.72727124  1
  Bi2+  Bi110  1  0.39027777  0.77137707  0.21122042  1
  Bi2+  Bi111  1  0.40198621  0.75062483  0.70029920  1
  Bi2+  Bi112  1  0.60750897  -0.05106319  0.21829501  1
  Bi2+  Bi113  1  0.61144179  0.01472416  0.71341664  1
  Bi2+  Bi114  1  0.59830730  0.23943366  0.21803578  1
  Bi2+  Bi115  1  0.57128126  0.27904271  0.69041516  1
  Bi2+  Bi116  1  0.64488608  0.58261969  0.23117184  1
  Bi2+  Bi117  1  0.70233172  0.48148308  0.70779183  1
  Bi2+  Bi118  1  0.59381067  0.75658117  0.18101084  1
  Bi2+  Bi119  1  0.73866434  0.76166986  0.70393294  1
  Bi2+  Bi120  1  0.87750304  -0.02416283  0.20538088  1
  Bi2+  Bi121  1  0.85888221  -0.00251538  0.71152713  1
  Bi2+  Bi122  1  0.86086440  0.23317876  0.21254439  1
  Bi2+  Bi123  1  0.85977556  0.26160190  0.72083413  1
  Bi2+  Bi124  1  0.89936753  0.49651554  0.20956743  1
  Bi2+  Bi125  1  0.89592178  0.55267101  0.71039522  1
  Bi2+  Bi126  1  0.78789667  0.72014042  0.18202054  1
  Bi2+  Bi127  1  0.93343949  0.74681660  0.67610701  1
  S2-  S128  1  -0.08610124  0.12098631  0.14511345  1
  S2-  S129  1  -0.02970957  0.13018515  0.72800810  1
  S2-  S130  1  -0.08036178  0.35130244  0.14687157  1
  S2-  S131  1  -0.01612038  0.30796066  0.65588307  1
  S2-  S132  1  -0.01220437  0.60481308  0.14882346  1
  S2-  S133  1  0.10727935  0.61777972  0.64513940  1
  S2-  S134  1  -0.10096266  0.83839190  0.14336652  1
  S2-  S135  1  -0.01222109  0.96756015  0.64931340  1
  S2-  S136  1  0.25373572  0.13171301  0.15082108  1
  S2-  S137  1  0.15709514  0.14415747  0.65671874  1
  S2-  S138  1  0.28334535  0.34771235  0.15751537  1
  S2-  S139  1  0.21347999  0.39716645  0.65036926  1
  S2-  S140  1  0.22219395  0.55178809  0.16308180  1
  S2-  S141  1  0.36017903  0.60808032  0.65157239  1
  S2-  S142  1  0.26483342  0.77035394  0.13786004  1
  S2-  S143  1  0.25508910  0.80503531  0.64872658  1
  S2-  S144  1  0.49023180  0.14675077  0.15678484  1
  S2-  S145  1  0.60148378  0.13087750  0.63598019  1
  S2-  S146  1  0.51063307  0.38315555  0.16935429  1
  S2-  S147  1  0.51220317  0.44096880  0.64432086  1
  S2-  S148  1  0.41861992  0.61278415  0.14096001  1
  S2-  S149  1  0.53340058  0.73090215  0.64906257  1
  S2-  S150  1  0.47742713  0.89141792  0.15191121  1
  S2-  S151  1  0.47704174  0.91511449  0.66936288  1
  S2-  S152  1  0.71962632  0.19484534  0.15903402  1
  S2-  S153  1  0.82397151  0.13358674  0.65378392  1
  S2-  S154  1  0.73037678  0.35506786  0.21602719  1
  S2-  S155  1  0.73858257  0.32704749  0.65585839  1
  S2-  S156  1  0.75416070  0.52896219  0.14907733  1
  S2-  S157  1  0.74496378  0.60999668  0.64584620  1
  S2-  S158  1  0.73789605  0.97954305  0.14909427  1
  S2-  S159  1  0.72656077  0.91682737  0.65297740  1
  S2-  S160  1  0.10220272  -0.01400154  0.34703439  1
  S2-  S161  1  0.11711119  -0.00094133  0.84492466  1
  S2-  S162  1  0.13687429  0.27450463  0.34841536  1
  S2-  S163  1  0.13151298  0.26921760  0.84213290  1
  S2-  S164  1  0.19610907  0.51544039  0.35166347  1
  S2-  S165  1  0.16279901  0.50526284  0.83993274  1
  S2-  S166  1  0.13466730  0.73965041  0.34925876  1
  S2-  S167  1  0.15079835  0.75396997  0.84320826  1
  S2-  S168  1  0.35316802  0.08851128  0.35747140  1
  S2-  S169  1  0.37337457  -0.00275364  0.84392772  1
  S2-  S170  1  0.38546594  0.27308756  0.30721426  1
  S2-  S171  1  0.38062604  0.36001193  0.86299512  1
  S2-  S172  1  0.39568021  0.46212745  0.32908903  1
  S2-  S173  1  0.37740025  0.58423430  0.85530203  1
  S2-  S174  1  0.36452614  0.65580279  0.35772450  1
  S2-  S175  1  0.36283391  0.77538557  0.81056127  1
  S2-  S176  1  0.60326201  0.04695948  0.33925962  1
  S2-  S177  1  0.64067065  -0.01273575  0.84862372  1
  S2-  S178  1  0.61232204  0.26997978  0.33211768  1
  S2-  S179  1  0.70702487  0.24025139  0.85998879  1
  S2-  S180  1  0.62946189  0.49578862  0.33764402  1
  S2-  S181  1  0.60921421  0.48985595  0.84838687  1
  S2-  S182  1  0.62989760  0.78075883  0.34426219  1
  S2-  S183  1  0.55825148  0.73651988  0.85165141  1
  S2-  S184  1  0.83523881  -0.00408194  0.33854394  1
  S2-  S185  1  0.86532298  0.08856723  0.85607568  1
  S2-  S186  1  0.84046642  0.23474969  0.33909250  1
  S2-  S187  1  0.91378774  0.27701699  0.82397264  1
  S2-  S188  1  0.89130252  0.47076721  0.34496669  1
  S2-  S189  1  0.86784871  0.47553231  0.84361497  1
  S2-  S190  1  0.89259170  0.76829642  0.34124598  1
  S2-  S191  1  0.90690952  0.86515321  0.86166439  1
  S2-  S192  1  -0.01021528  0.13287786  0.44088521  1
  S2-  S193  1  0.00704899  0.11255182  0.95489811  1
  S2-  S194  1  -0.00847756  0.37770933  0.45566230  1
  S2-  S195  1  0.00198698  0.36176670  0.95164894  1
  S2-  S196  1  -0.00910675  0.63197379  0.45469777  1
  S2-  S197  1  0.00408300  0.61311406  0.94597216  1
  S2-  S198  1  -0.01138464  0.88195920  0.45406264  1
  S2-  S199  1  0.01456041  0.85864421  0.96154914  1
  S2-  S200  1  0.23865190  0.13205974  0.45871696  1
  S2-  S201  1  0.25795721  0.11533062  0.94825400  1
  S2-  S202  1  0.24203766  0.37485338  0.44931303  1
  S2-  S203  1  0.25211142  0.36186807  0.95697355  1
  S2-  S204  1  0.23407384  0.63631821  0.46319863  1
  S2-  S205  1  0.25871589  0.61018354  0.95921943  1
  S2-  S206  1  0.23958066  0.88110571  0.45300513  1
  S2-  S207  1  0.26219412  0.86114051  0.95001404  1
  S2-  S208  1  0.49186186  0.13352303  0.45196389  1
  S2-  S209  1  0.50545676  0.11449063  0.95145938  1
  S2-  S210  1  0.48780532  0.37648245  0.44158431  1
  S2-  S211  1  0.50906243  0.36137743  0.96268431  1
  S2-  S212  1  0.49298647  0.62917852  0.45698445  1
  S2-  S213  1  0.51013915  0.61043585  0.95450461  1
  S2-  S214  1  0.49200625  0.87855261  0.45893057  1
  S2-  S215  1  0.50470242  0.86356912  0.95013833  1
  S2-  S216  1  0.73678719  0.13132322  0.45197156  1
  S2-  S217  1  0.75396795  0.10982285  0.96537019  1
  S2-  S218  1  0.73559153  0.38104546  0.45124118  1
  S2-  S219  1  0.76029202  0.36296828  0.95579821  1
  S2-  S220  1  0.73709166  0.62986333  0.44368869  1
  S2-  S221  1  0.75748866  0.61442109  0.95275015  1
  S2-  S222  1  0.73880685  0.87948009  0.44878513  1
  S2-  S223  1  0.75361367  0.85952215  0.95895902  1
  S2-  S224  1  0.13796574  -0.01160234  0.04839234  1
  S2-  S225  1  0.12130108  0.00367460  0.55100361  1
  S2-  S226  1  0.13179037  0.24022811  0.04941716  1
  S2-  S227  1  0.11402914  0.25236211  0.54882342  1
  S2-  S228  1  0.12841448  0.48671229  0.04696858  1
  S2-  S229  1  0.11484112  0.49957326  0.54507823  1
  S2-  S230  1  0.13153814  0.73396974  0.04651278  1
  S2-  S231  1  0.11198034  0.76264738  0.54920273  1
  S2-  S232  1  0.38008720  -0.01070661  0.04675098  1
  S2-  S233  1  0.36899841  0.00272008  0.55108283  1
  S2-  S234  1  0.37897547  0.24248588  0.04298508  1
  S2-  S235  1  0.36403105  0.25301439  0.53795289  1
  S2-  S236  1  0.38138810  0.48435701  0.04347520  1
  S2-  S237  1  0.35985882  0.50203399  0.53816552  1
  S2-  S238  1  0.38712172  0.74149262  0.03444108  1
  S2-  S239  1  0.36792910  0.75372127  0.54471918  1
  S2-  S240  1  0.62558635  -0.01251737  0.05112541  1
  S2-  S241  1  0.61298137  0.00068676  0.54193527  1
  S2-  S242  1  0.63083821  0.24569867  0.05541800  1
  S2-  S243  1  0.61430132  0.25727171  0.53669868  1
  S2-  S244  1  0.62928605  0.48327357  0.05497952  1
  S2-  S245  1  0.61795854  0.50675215  0.54038466  1
  S2-  S246  1  0.63265340  0.74009791  0.04582353  1
  S2-  S247  1  0.62362888  0.75078854  0.54370470  1
  S2-  S248  1  0.88907038  -0.01723228  0.04395148  1
  S2-  S249  1  0.86384997  0.00934608  0.54334272  1
  S2-  S250  1  0.88048569  0.23708682  0.04075342  1
  S2-  S251  1  0.86537340  0.25527795  0.54428209  1
  S2-  S252  1  0.88040865  0.48843799  0.04580519  1
  S2-  S253  1  0.86838552  0.50396281  0.54937890  1
  S2-  S254  1  0.88470238  0.73433185  0.03741942  1
  S2-  S255  1  0.86483449  0.75399299  0.54468199  1
