# generated using pymatgen
data_La6Ce7Pr13Nd19Sm19(BiS2)64
_symmetry_space_group_name_H-M   'P 1'
_cell_length_a   16.08978051
_cell_length_b   16.05306040
_cell_length_c   27.33889166
_cell_angle_alpha   89.96648101
_cell_angle_beta   89.79041625
_cell_angle_gamma   90.03396349
_symmetry_Int_Tables_number   1
_chemical_formula_structural   La6Ce7Pr13Nd19Sm19(BiS2)64
_chemical_formula_sum   'La6 Ce7 Pr13 Nd19 Sm19 Bi64 S128'
_cell_volume   7061.31859829
_cell_formula_units_Z   1
loop_
 _symmetry_equiv_pos_site_id
 _symmetry_equiv_pos_as_xyz
  1  'x, y, z'
loop_
 _atom_type_symbol
 _atom_type_oxidation_number
  La3+  3.0
  Ce3+  3.0
  Pr3+  3.0
  Nd3+  3.0
  Sm3+  3.0
  Bi2+  2.0
  S2-  -2.0
loop_
 _atom_site_type_symbol
 _atom_site_label
 _atom_site_symmetry_multiplicity
 _atom_site_fract_x
 _atom_site_fract_y
 _atom_site_fract_z
 _atom_site_occupancy
  La3+  La0  1  -0.00282826  0.87831043  0.10723965  1
  La3+  La1  1  0.11200883  0.48843076  0.43793746  1
  La3+  La2  1  -0.01657204  0.34942257  0.58476185  1
  La3+  La3  1  -0.01995988  0.61621535  0.58895479  1
  La3+  La4  1  0.87222865  0.49651770  0.91675707  1
  La3+  La5  1  -0.00272926  0.60354668  0.07511738  1
  Ce3+  Ce6  1  0.23516545  0.35888616  0.55981616  1
  Ce3+  Ce7  1  0.12507384  0.73473880  0.95755236  1
  Ce3+  Ce8  1  -0.00005480  0.36574902  0.04413458  1
  Ce3+  Ce9  1  0.74079180  0.60630195  0.56053059  1
  Ce3+  Ce10  1  0.73990996  0.35480666  0.55871374  1
  Ce3+  Ce11  1  0.49928746  0.85749713  0.07288069  1
  Ce3+  Ce12  1  0.61336335  -0.02181140  0.41852130  1
  Pr3+  Pr13  1  0.86942037  0.48124721  0.43887835  1
  Pr3+  Pr14  1  0.87597309  0.23308155  0.92766852  1
  Pr3+  Pr15  1  0.37685338  0.73160195  0.94784231  1
  Pr3+  Pr16  1  0.24656978  0.60059112  0.08175736  1
  Pr3+  Pr17  1  0.11532385  0.23819970  0.42759768  1
  Pr3+  Pr18  1  0.48997878  0.85708580  0.55596065  1
  Pr3+  Pr19  1  0.49978851  0.59994179  0.07226576  1
  Pr3+  Pr20  1  0.61279947  0.23273536  0.42509216  1
  Pr3+  Pr21  1  0.10154953  0.75401300  0.39453427  1
  Pr3+  Pr22  1  0.48837578  0.35014628  0.56826499  1
  Pr3+  Pr23  1  0.75485718  0.35471977  0.06172491  1
  Pr3+  Pr24  1  0.23501962  0.85556095  0.55667163  1
  Pr3+  Pr25  1  0.61307310  0.48133154  0.43600383  1
  Nd3+  Nd26  1  0.37709929  0.47860459  0.93691537  1
  Nd3+  Nd27  1  0.50077590  0.11161881  0.07070736  1
  Nd3+  Nd28  1  0.23329302  0.60854734  0.56189130  1
  Nd3+  Nd29  1  0.86850271  0.72364980  0.43153164  1
  Nd3+  Nd30  1  0.12625994  0.23925713  0.92916215  1
  Nd3+  Nd31  1  0.37693176  0.23427038  0.93265545  1
  Nd3+  Nd32  1  0.87512998  -0.01868197  0.93632179  1
  Nd3+  Nd33  1  0.50005201  0.35430555  0.06407467  1
  Nd3+  Nd34  1  0.36394187  0.48184015  0.44252379  1
  Nd3+  Nd35  1  0.87650655  0.73390603  0.94888468  1
  Nd3+  Nd36  1  0.25351482  0.85947936  0.07312035  1
  Nd3+  Nd37  1  0.23528776  0.10981434  0.56170720  1
  Nd3+  Nd38  1  0.24834567  0.35599754  0.06480092  1
  Nd3+  Nd39  1  0.62694428  0.23161600  0.93797946  1
  Nd3+  Nd40  1  -0.01787079  0.85914598  0.56463877  1
  Nd3+  Nd41  1  0.36135505  0.73112181  0.43687018  1
  Nd3+  Nd42  1  0.36225387  0.23078321  0.43890107  1
  Nd3+  Nd43  1  0.13496889  0.50018476  0.92859995  1
  Nd3+  Nd44  1  0.75549520  0.60083756  0.07388677  1
  Sm3+  Sm45  1  0.36197445  -0.01917155  0.44644880  1
  Sm3+  Sm46  1  0.24697980  0.11408799  0.05328801  1
  Sm3+  Sm47  1  0.75607656  0.11136244  0.06216005  1
  Sm3+  Sm48  1  0.73714330  0.10796071  0.54605876  1
  Sm3+  Sm49  1  0.75334471  0.85886467  0.06279808  1
  Sm3+  Sm50  1  0.86598068  0.23794469  0.43197032  1
  Sm3+  Sm51  1  0.62726125  0.48178180  0.94111820  1
  Sm3+  Sm52  1  0.11247120  -0.01663025  0.44588342  1
  Sm3+  Sm53  1  0.86798083  -0.01975547  0.43672161  1
  Sm3+  Sm54  1  -0.01455902  0.11112544  0.55021257  1
  Sm3+  Sm55  1  0.49049172  0.10909618  0.55434570  1
  Sm3+  Sm56  1  0.62494217  -0.01620192  0.95253272  1
  Sm3+  Sm57  1  0.48630762  0.60518217  0.56152060  1
  Sm3+  Sm58  1  0.61414152  0.72796149  0.43298895  1
  Sm3+  Sm59  1  0.62438755  0.73224642  0.95625580  1
  Sm3+  Sm60  1  0.12781590  -0.01927066  0.94136724  1
  Sm3+  Sm61  1  0.73696323  0.85907498  0.54663286  1
  Sm3+  Sm62  1  0.37738744  -0.01646422  0.94834813  1
  Sm3+  Sm63  1  0.00065584  0.10837857  0.04816542  1
  Bi2+  Bi64  1  0.03952809  0.16732056  0.29933266  1
  Bi2+  Bi65  1  -0.02378808  0.08615211  0.76872843  1
  Bi2+  Bi66  1  -0.00007111  0.36832308  0.28771059  1
  Bi2+  Bi67  1  0.00114484  0.33305041  0.79013721  1
  Bi2+  Bi68  1  -0.01656793  0.63486880  0.28748426  1
  Bi2+  Bi69  1  0.01242498  0.60311034  0.79825640  1
  Bi2+  Bi70  1  -0.01397608  0.90519633  0.28319400  1
  Bi2+  Bi71  1  0.03684001  0.86562929  0.79786797  1
  Bi2+  Bi72  1  0.23599184  0.18124246  0.31777139  1
  Bi2+  Bi73  1  0.32541027  0.10207925  0.78770310  1
  Bi2+  Bi74  1  0.27804757  0.37055650  0.29804171  1
  Bi2+  Bi75  1  0.25124113  0.38335053  0.80274699  1
  Bi2+  Bi76  1  0.26072815  0.62423639  0.29969857  1
  Bi2+  Bi77  1  0.25386735  0.65770350  0.79592874  1
  Bi2+  Bi78  1  0.24527130  0.98848116  0.28882275  1
  Bi2+  Bi79  1  0.23614826  0.90737720  0.78386025  1
  Bi2+  Bi80  1  0.48946307  0.15225027  0.28288726  1
  Bi2+  Bi81  1  0.50965889  0.16849167  0.79450830  1
  Bi2+  Bi82  1  0.56244602  0.39047793  0.26048295  1
  Bi2+  Bi83  1  0.51142811  0.44629525  0.80655490  1
  Bi2+  Bi84  1  0.54117014  0.70027812  0.29233717  1
  Bi2+  Bi85  1  0.50931384  0.63807620  0.80063620  1
  Bi2+  Bi86  1  0.52872399  0.94643713  0.29323663  1
  Bi2+  Bi87  1  0.49773252  0.89397772  0.79746656  1
  Bi2+  Bi88  1  0.77293686  0.15612827  0.29272354  1
  Bi2+  Bi89  1  0.69278431  0.08799914  0.78097856  1
  Bi2+  Bi90  1  0.74647411  0.35007239  0.28656685  1
  Bi2+  Bi91  1  0.72516326  0.35109862  0.78259950  1
  Bi2+  Bi92  1  0.74539932  0.61745993  0.28320881  1
  Bi2+  Bi93  1  0.74692314  0.62751737  0.79587293  1
  Bi2+  Bi94  1  0.74443943  0.94280269  0.27286628  1
  Bi2+  Bi95  1  0.76870252  0.90507607  0.80365203  1
  Bi2+  Bi96  1  0.11720217  0.05458223  0.21264093  1
  Bi2+  Bi97  1  0.09790218  -0.01712967  0.69691878  1
  Bi2+  Bi98  1  0.10403610  0.26517663  0.20130924  1
  Bi2+  Bi99  1  0.16245085  0.16010147  0.73278279  1
  Bi2+  Bi100  1  0.12479786  0.46898083  0.20331573  1
  Bi2+  Bi101  1  0.15374828  0.48452550  0.70402784  1
  Bi2+  Bi102  1  0.15428128  0.76088082  0.20405369  1
  Bi2+  Bi103  1  0.13707836  0.78169635  0.71307971  1
  Bi2+  Bi104  1  0.39020520  0.03827529  0.19903286  1
  Bi2+  Bi105  1  0.46112545  0.02177691  0.71435368  1
  Bi2+  Bi106  1  0.35215278  0.23115590  0.21160638  1
  Bi2+  Bi107  1  0.37005119  0.27224881  0.69481467  1
  Bi2+  Bi108  1  0.39046679  0.54437338  0.20539807  1
  Bi2+  Bi109  1  0.39407139  0.53283978  0.71577759  1
  Bi2+  Bi110  1  0.38739011  0.84206990  0.24159507  1
  Bi2+  Bi111  1  0.38612234  0.75697562  0.69467096  1
  Bi2+  Bi112  1  0.59144222  0.03042029  0.18737825  1
  Bi2+  Bi113  1  0.64948186  -0.03420281  0.69415928  1
  Bi2+  Bi114  1  0.62928031  0.22569919  0.20522900  1
  Bi2+  Bi115  1  0.62710700  0.23334562  0.70868953  1
  Bi2+  Bi116  1  0.63331950  0.54275338  0.20009827  1
  Bi2+  Bi117  1  0.64413953  0.50455823  0.73037743  1
  Bi2+  Bi118  1  0.58335061  0.82663494  0.19430200  1
  Bi2+  Bi119  1  0.63601728  0.78006823  0.75313578  1
  Bi2+  Bi120  1  0.84164924  0.05423456  0.19895045  1
  Bi2+  Bi121  1  0.90237254  -0.01938957  0.68113901  1
  Bi2+  Bi122  1  0.90073694  0.24447323  0.21208655  1
  Bi2+  Bi123  1  0.86683196  0.20483128  0.69805186  1
  Bi2+  Bi124  1  0.88129976  0.50733211  0.20731306  1
  Bi2+  Bi125  1  0.87995958  0.48401958  0.70325595  1
  Bi2+  Bi126  1  0.76474405  0.76919303  0.21317706  1
  Bi2+  Bi127  1  0.88658148  0.80602110  0.73093247  1
  S2-  S128  1  -0.00784478  0.05257171  0.14149632  1
  S2-  S129  1  -0.00654616  0.18918493  0.63704406  1
  S2-  S130  1  -0.00895389  0.43574398  0.13415738  1
  S2-  S131  1  0.02763689  0.38146956  0.68800445  1
  S2-  S132  1  0.11026729  0.61066644  0.15452273  1
  S2-  S133  1  0.02569700  0.58092138  0.69098449  1
  S2-  S134  1  -0.00313325  0.80023893  0.20234926  1
  S2-  S135  1  -0.01350574  0.77034341  0.65010797  1
  S2-  S136  1  0.23884288  0.21849252  0.13341005  1
  S2-  S137  1  0.27545649  0.13148684  0.65802509  1
  S2-  S138  1  0.26869186  0.45517153  0.14912036  1
  S2-  S139  1  0.24131873  0.34891642  0.65789153  1
  S2-  S140  1  0.30334440  0.66779046  0.17379123  1
  S2-  S141  1  0.25902387  0.60940500  0.66112770  1
  S2-  S142  1  0.16089192  0.90619858  0.15438166  1
  S2-  S143  1  0.26372726  0.85642374  0.65560900  1
  S2-  S144  1  0.48526252  0.23686657  0.14027846  1
  S2-  S145  1  0.50119402  0.20717910  0.63514909  1
  S2-  S146  1  0.49717411  0.46426274  0.14207765  1
  S2-  S147  1  0.45974637  0.41305517  0.66272391  1
  S2-  S148  1  0.51235572  0.66502513  0.16967122  1
  S2-  S149  1  0.49354748  0.64448187  0.65686047  1
  S2-  S150  1  0.38152066  0.87377021  0.14606498  1
  S2-  S151  1  0.48709058  0.86985810  0.65597283  1
  S2-  S152  1  0.76554277  0.22740161  0.13604571  1
  S2-  S153  1  0.73583816  0.14330557  0.64267539  1
  S2-  S154  1  0.75066173  0.46317046  0.14333867  1
  S2-  S155  1  0.82799583  0.35367896  0.64366032  1
  S2-  S156  1  0.87112719  0.63476991  0.14883253  1
  S2-  S157  1  0.82365260  0.60451768  0.64647660  1
  S2-  S158  1  0.82691484  0.89246462  0.14851747  1
  S2-  S159  1  0.75809418  0.86705141  0.64383680  1
  S2-  S160  1  0.09868422  -0.06957536  0.35419789  1
  S2-  S161  1  0.12904240  -0.00615480  0.84368529  1
  S2-  S162  1  0.12627507  0.37106277  0.35712677  1
  S2-  S163  1  0.14507448  0.24562779  0.83006945  1
  S2-  S164  1  0.11235770  0.59148816  0.34931789  1
  S2-  S165  1  0.10045060  0.45869412  0.83051753  1
  S2-  S166  1  0.18950368  0.76747564  0.30312500  1
  S2-  S167  1  0.12528145  0.67459493  0.86500229  1
  S2-  S168  1  0.37645997  -0.02211278  0.34967826  1
  S2-  S169  1  0.36938356  -0.04048473  0.85199062  1
  S2-  S170  1  0.39959496  0.26392977  0.34402841  1
  S2-  S171  1  0.37918676  0.34784554  0.85665963  1
  S2-  S172  1  0.36376373  0.49341651  0.34223522  1
  S2-  S173  1  0.27819883  0.52553610  0.85985391  1
  S2-  S174  1  0.39152049  0.72535595  0.33834892  1
  S2-  S175  1  0.37328813  0.72716195  0.84643761  1
  S2-  S176  1  0.61685497  0.10860441  0.35094274  1
  S2-  S177  1  0.61690430  -0.01906457  0.85503729  1
  S2-  S178  1  0.60818227  0.36694382  0.35657864  1
  S2-  S179  1  0.60774812  0.30106808  0.84739318  1
  S2-  S180  1  0.61301322  0.60492087  0.35974198  1
  S2-  S181  1  0.72247215  0.50088014  0.86035161  1
  S2-  S182  1  0.61541625  0.83610874  0.35371006  1
  S2-  S183  1  0.63215197  0.72290766  0.85849517  1
  S2-  S184  1  0.86765130  -0.00337918  0.33881640  1
  S2-  S185  1  0.86513762  0.03559252  0.84282293  1
  S2-  S186  1  0.86996970  0.35882532  0.36034011  1
  S2-  S187  1  0.86036311  0.26482929  0.82939413  1
  S2-  S188  1  0.87262307  0.58850694  0.35512698  1
  S2-  S189  1  0.91233729  0.46811432  0.81117417  1
  S2-  S190  1  0.94710186  0.77540946  0.34351276  1
  S2-  S191  1  0.88469124  0.65971514  0.85827687  1
  S2-  S192  1  -0.01116154  0.10963934  0.44557953  1
  S2-  S193  1  0.00384011  0.10705864  0.94343105  1
  S2-  S194  1  -0.00849330  0.35408344  0.46134710  1
  S2-  S195  1  0.00047851  0.36391451  0.93847058  1
  S2-  S196  1  -0.00548321  0.61424946  0.45830997  1
  S2-  S197  1  0.00137421  0.60903174  0.96289712  1
  S2-  S198  1  -0.01024567  0.85875219  0.45813429  1
  S2-  S199  1  0.00114551  0.86055332  0.94370689  1
  S2-  S200  1  0.23702832  0.10485157  0.45392592  1
  S2-  S201  1  0.25112868  0.10896014  0.94788784  1
  S2-  S202  1  0.24147777  0.35774416  0.45570373  1
  S2-  S203  1  0.24798898  0.35760961  0.95536349  1
  S2-  S204  1  0.24162687  0.60847842  0.45549531  1
  S2-  S205  1  0.25284070  0.61354718  0.97056010  1
  S2-  S206  1  0.23496009  0.85620574  0.44959482  1
  S2-  S207  1  0.25318899  0.86094294  0.96058535  1
  S2-  S208  1  0.48569196  0.10436199  0.45119808  1
  S2-  S209  1  0.50004709  0.10818464  0.95585526  1
  S2-  S210  1  0.48542481  0.35603884  0.45943804  1
  S2-  S211  1  0.50510210  0.35700364  0.95777902  1
  S2-  S212  1  0.48636031  0.60906206  0.45708681  1
  S2-  S213  1  0.50329800  0.60501544  0.95923044  1
  S2-  S214  1  0.48585661  0.85622113  0.45106605  1
  S2-  S215  1  0.50167687  0.86051479  0.96392121  1
  S2-  S216  1  0.74665502  0.10720586  0.44410714  1
  S2-  S217  1  0.75049208  0.10726267  0.95516992  1
  S2-  S218  1  0.73886024  0.35644656  0.45565061  1
  S2-  S219  1  0.75131157  0.35546343  0.95201734  1
  S2-  S220  1  0.73849169  0.60661846  0.45732245  1
  S2-  S221  1  0.74759577  0.61413270  0.96591979  1
  S2-  S222  1  0.74605932  0.85616355  0.44415167  1
  S2-  S223  1  0.74780408  0.85879172  0.95762551  1
  S2-  S224  1  0.12626975  -0.01199368  0.04364824  1
  S2-  S225  1  0.10901760  -0.01455688  0.55043456  1
  S2-  S226  1  0.11932323  0.23318146  0.03493772  1
  S2-  S227  1  0.11452856  0.23187179  0.53928043  1
  S2-  S228  1  0.12954341  0.48102719  0.03905491  1
  S2-  S229  1  0.10719737  0.48403902  0.55492945  1
  S2-  S230  1  0.11791362  0.74758215  0.06033845  1
  S2-  S231  1  0.11172305  0.73293865  0.55559891  1
  S2-  S232  1  0.37314451  -0.00682752  0.04995245  1
  S2-  S233  1  0.36402814  -0.01432937  0.55102501  1
  S2-  S234  1  0.37486829  0.23051646  0.03633499  1
  S2-  S235  1  0.36026991  0.23008993  0.54343596  1
  S2-  S236  1  0.37401086  0.47776906  0.04184677  1
  S2-  S237  1  0.36312404  0.48398377  0.54950471  1
  S2-  S238  1  0.37878710  0.73000711  0.05353553  1
  S2-  S239  1  0.36394094  0.73123880  0.54476812  1
  S2-  S240  1  0.62872386  -0.01378106  0.05603534  1
  S2-  S241  1  0.61355515  -0.01544036  0.53593590  1
  S2-  S242  1  0.62700864  0.22814495  0.04206595  1
  S2-  S243  1  0.61594767  0.23072755  0.53354575  1
  S2-  S244  1  0.62781109  0.47975633  0.04304854  1
  S2-  S245  1  0.61166010  0.48225067  0.55067461  1
  S2-  S246  1  0.63027094  0.73165462  0.06014038  1
  S2-  S247  1  0.61462658  0.73179884  0.54263626  1
  S2-  S248  1  0.87577306  -0.01441373  0.04098330  1
  S2-  S249  1  0.86171702  -0.01439046  0.54079167  1
  S2-  S250  1  0.88168680  0.23139418  0.03501578  1
  S2-  S251  1  0.86125487  0.23027764  0.53540991  1
  S2-  S252  1  0.87196172  0.48322321  0.03280931  1
  S2-  S253  1  0.86568227  0.48195714  0.54518917  1
  S2-  S254  1  0.88098102  0.74556910  0.05125792  1
  S2-  S255  1  0.85970977  0.73651609  0.54041894  1
