# generated using pymatgen
data_La6Ce7Pr13Nd19Sm19(BiS2)64
_symmetry_space_group_name_H-M   'P 1'
_cell_length_a   16.09338871
_cell_length_b   16.10799739
_cell_length_c   27.21528104
_cell_angle_alpha   89.89251798
_cell_angle_beta   89.84183075
_cell_angle_gamma   89.94475541
_symmetry_Int_Tables_number   1
_chemical_formula_structural   La6Ce7Pr13Nd19Sm19(BiS2)64
_chemical_formula_sum   'La6 Ce7 Pr13 Nd19 Sm19 Bi64 S128'
_cell_volume   7055.03636003
_cell_formula_units_Z   1
loop_
 _symmetry_equiv_pos_site_id
 _symmetry_equiv_pos_as_xyz
  1  'x, y, z'
loop_
 _atom_type_symbol
 _atom_type_oxidation_number
  La3+  3.0
  Ce3+  3.0
  Pr3+  3.0
  Nd3+  3.0
  Sm3+  3.0
  Bi2+  2.0
  S2-  -2.0
loop_
 _atom_site_type_symbol
 _atom_site_label
 _atom_site_symmetry_multiplicity
 _atom_site_fract_x
 _atom_site_fract_y
 _atom_site_fract_z
 _atom_site_occupancy
  La3+  La0  1  0.75921013  0.33880232  0.59480538  1
  La3+  La1  1  0.87164450  0.74202142  0.90720735  1
  La3+  La2  1  0.14627982  0.25554574  0.39078786  1
  La3+  La3  1  0.14093242  0.74312995  0.90971910  1
  La3+  La4  1  0.89041785  -0.00017823  0.92413622  1
  La3+  La5  1  0.12878328  -0.01634400  0.41398832  1
  Ce3+  Ce6  1  0.25032914  0.60643873  0.56069613  1
  Ce3+  Ce7  1  0.37541465  -0.00531065  0.93530070  1
  Ce3+  Ce8  1  0.12497379  0.48680120  0.44449895  1
  Ce3+  Ce9  1  0.50908430  0.36668801  0.06135391  1
  Ce3+  Ce10  1  0.37879104  0.73387074  0.44238386  1
  Ce3+  Ce11  1  0.75767699  0.61713476  0.05633529  1
  Ce3+  Ce12  1  0.00477781  0.36724466  0.05952124  1
  Pr3+  Pr13  1  0.74370392  0.60393107  0.58820841  1
  Pr3+  Pr14  1  0.25355212  0.61247540  0.06324574  1
  Pr3+  Pr15  1  0.63439821  0.23653079  0.43579869  1
  Pr3+  Pr16  1  0.00742115  0.85407509  0.58006289  1
  Pr3+  Pr17  1  0.49976049  0.10779406  0.55131007  1
  Pr3+  Pr18  1  0.00849218  0.86245694  0.05602357  1
  Pr3+  Pr19  1  0.49910943  0.60312438  0.57165109  1
  Pr3+  Pr20  1  0.13465339  -0.00732113  0.93811288  1
  Pr3+  Pr21  1  0.86797924  -0.03181347  0.40660525  1
  Pr3+  Pr22  1  0.88218196  0.49289034  0.93398300  1
  Pr3+  Pr23  1  0.88488692  0.24404290  0.93788634  1
  Pr3+  Pr24  1  0.00081177  0.10083690  0.54352741  1
  Pr3+  Pr25  1  0.62611850  -0.01664230  0.43651247  1
  Nd3+  Nd26  1  0.87982774  0.23602588  0.43055519  1
  Nd3+  Nd27  1  0.25297675  0.11177504  0.07224402  1
  Nd3+  Nd28  1  0.63122729  0.74351076  0.93761279  1
  Nd3+  Nd29  1  -0.00330811  0.10874111  0.07918273  1
  Nd3+  Nd30  1  0.25565801  0.36703065  0.06061611  1
  Nd3+  Nd31  1  0.13177290  0.49590091  0.93381131  1
  Nd3+  Nd32  1  0.38038099  0.24282122  0.94842648  1
  Nd3+  Nd33  1  0.63210876  -0.00677051  0.94347569  1
  Nd3+  Nd34  1  0.12371901  0.73878070  0.43794761  1
  Nd3+  Nd35  1  0.37679360  -0.02256546  0.43002445  1
  Nd3+  Nd36  1  0.26301388  0.85982373  0.06909251  1
  Nd3+  Nd37  1  0.76084321  0.86498637  0.05474348  1
  Nd3+  Nd38  1  0.50359153  0.86707464  0.05536554  1
  Nd3+  Nd39  1  0.25090047  0.85509520  0.56218003  1
  Nd3+  Nd40  1  0.50017007  0.35308626  0.55835506  1
  Nd3+  Nd41  1  0.87282816  0.73811251  0.45370637  1
  Nd3+  Nd42  1  0.74265063  0.86237104  0.58017051  1
  Nd3+  Nd43  1  0.50616538  0.11647480  0.06052583  1
  Nd3+  Nd44  1  0.24503584  0.10479985  0.54935131  1
  Sm3+  Sm45  1  0.50759183  0.61425550  0.05114081  1
  Sm3+  Sm46  1  0.00615500  0.62386860  0.05133893  1
  Sm3+  Sm47  1  0.38076050  0.74134832  0.94008284  1
  Sm3+  Sm48  1  -0.00131675  0.61095020  0.56240865  1
  Sm3+  Sm49  1  0.63118454  0.49185307  0.93763452  1
  Sm3+  Sm50  1  0.87364719  0.48411289  0.45806526  1
  Sm3+  Sm51  1  0.62908815  0.73411769  0.45261571  1
  Sm3+  Sm52  1  0.24333089  0.35378999  0.56285173  1
  Sm3+  Sm53  1  0.75585857  0.10504992  0.55309054  1
  Sm3+  Sm54  1  0.37836947  0.48614787  0.44825082  1
  Sm3+  Sm55  1  0.63152615  0.48417231  0.45725544  1
  Sm3+  Sm56  1  0.00493821  0.35066061  0.56242924  1
  Sm3+  Sm57  1  0.49858570  0.85938615  0.56512083  1
  Sm3+  Sm58  1  0.75772242  0.11521931  0.05846996  1
  Sm3+  Sm59  1  0.63123877  0.24193259  0.94337225  1
  Sm3+  Sm60  1  0.75696143  0.36839050  0.05423336  1
  Sm3+  Sm61  1  0.38134571  0.49114997  0.94216415  1
  Sm3+  Sm62  1  0.37646252  0.23689749  0.44216482  1
  Sm3+  Sm63  1  0.13161164  0.24052267  0.95105779  1
  Bi2+  Bi64  1  -0.01428498  0.16183398  0.27540810  1
  Bi2+  Bi65  1  0.00148794  0.15745932  0.79630635  1
  Bi2+  Bi66  1  -0.00875942  0.42646255  0.29621426  1
  Bi2+  Bi67  1  -0.08293292  0.36495720  0.82016948  1
  Bi2+  Bi68  1  0.02860657  0.64206046  0.28010430  1
  Bi2+  Bi69  1  -0.00311677  0.53979212  0.78857426  1
  Bi2+  Bi70  1  -0.00657518  0.89644562  0.29248954  1
  Bi2+  Bi71  1  -0.01433671  0.91112861  0.78461012  1
  Bi2+  Bi72  1  0.29913143  0.13722177  0.27859747  1
  Bi2+  Bi73  1  0.25632599  0.13589228  0.79400194  1
  Bi2+  Bi74  1  0.26323465  0.48566656  0.28145578  1
  Bi2+  Bi75  1  0.22993794  0.41121993  0.79501001  1
  Bi2+  Bi76  1  0.21974955  0.67258594  0.31301118  1
  Bi2+  Bi77  1  0.27214096  0.60585835  0.79046275  1
  Bi2+  Bi78  1  0.26820904  0.87119096  0.29414076  1
  Bi2+  Bi79  1  0.27171689  0.87539768  0.78470787  1
  Bi2+  Bi80  1  0.61236156  0.15057187  0.31384916  1
  Bi2+  Bi81  1  0.44556577  0.08235785  0.80478357  1
  Bi2+  Bi82  1  0.53798588  0.42537176  0.28708637  1
  Bi2+  Bi83  1  0.43349597  0.36927942  0.78993091  1
  Bi2+  Bi84  1  0.42326620  0.66219625  0.31831883  1
  Bi2+  Bi85  1  0.46049402  0.64770626  0.77590149  1
  Bi2+  Bi86  1  0.52887535  0.97368911  0.31269449  1
  Bi2+  Bi87  1  0.47663973  0.88653790  0.78739195  1
  Bi2+  Bi88  1  0.73283342  0.17652802  0.21862901  1
  Bi2+  Bi89  1  0.72086651  0.12321504  0.79506541  1
  Bi2+  Bi90  1  0.73073575  0.36858019  0.29006684  1
  Bi2+  Bi91  1  0.72472461  0.36951100  0.78421399  1
  Bi2+  Bi92  1  0.76624653  0.58811689  0.30452227  1
  Bi2+  Bi93  1  0.73429245  0.61289191  0.78773563  1
  Bi2+  Bi94  1  0.75506931  0.82340779  0.29226300  1
  Bi2+  Bi95  1  0.71728813  0.88160051  0.77905535  1
  Bi2+  Bi96  1  0.13011302  0.03062315  0.20171597  1
  Bi2+  Bi97  1  0.11444800  0.02057498  0.69123862  1
  Bi2+  Bi98  1  0.15013820  0.29337249  0.19507017  1
  Bi2+  Bi99  1  0.14440507  0.26878238  0.73290902  1
  Bi2+  Bi100  1  0.14721523  0.55784901  0.19888550  1
  Bi2+  Bi101  1  0.10838955  0.46831193  0.70623481  1
  Bi2+  Bi102  1  0.12102941  0.76762075  0.19953279  1
  Bi2+  Bi103  1  0.13667400  0.73651784  0.71343659  1
  Bi2+  Bi104  1  0.41623332  -0.01581794  0.21789112  1
  Bi2+  Bi105  1  0.36211380  -0.00401322  0.70116017  1
  Bi2+  Bi106  1  0.45844710  0.24482362  0.27538054  1
  Bi2+  Bi107  1  0.34045414  0.29407516  0.69766657  1
  Bi2+  Bi108  1  0.41833519  0.52183979  0.21132601  1
  Bi2+  Bi109  1  0.30100000  0.48928752  0.67892943  1
  Bi2+  Bi110  1  0.38846170  0.76727477  0.22211054  1
  Bi2+  Bi111  1  0.39170645  0.80239872  0.68775669  1
  Bi2+  Bi112  1  0.61132662  0.01902545  0.21027954  1
  Bi2+  Bi113  1  0.59475624  0.02271589  0.71288095  1
  Bi2+  Bi114  1  0.59063888  0.29616439  0.18723786  1
  Bi2+  Bi115  1  0.52563943  0.21297374  0.73037047  1
  Bi2+  Bi116  1  0.62502545  0.57542514  0.21870348  1
  Bi2+  Bi117  1  0.49150326  0.49782192  0.70300628  1
  Bi2+  Bi118  1  0.57520283  0.75324105  0.26299192  1
  Bi2+  Bi119  1  0.58005861  0.75673700  0.71356443  1
  Bi2+  Bi120  1  0.86976356  -0.01763445  0.20392940  1
  Bi2+  Bi121  1  0.85881709  0.04730235  0.68203416  1
  Bi2+  Bi122  1  0.86409106  0.35736266  0.20594839  1
  Bi2+  Bi123  1  0.85964003  0.24291292  0.72992095  1
  Bi2+  Bi124  1  0.89078675  0.55625174  0.21171798  1
  Bi2+  Bi125  1  0.87319603  0.47150733  0.70798703  1
  Bi2+  Bi126  1  0.86375941  0.75085431  0.20197014  1
  Bi2+  Bi127  1  0.89393648  0.75607692  0.71142364  1
  S2-  S128  1  0.03684499  0.17293496  0.17227117  1
  S2-  S129  1  0.00075011  0.11972819  0.64625839  1
  S2-  S130  1  0.02165253  0.38612694  0.15593138  1
  S2-  S131  1  -0.08803549  0.33793767  0.64766198  1
  S2-  S132  1  -0.00248764  0.73302522  0.13036593  1
  S2-  S133  1  0.01909100  0.68642368  0.65157473  1
  S2-  S134  1  -0.00006236  0.96477670  0.14317068  1
  S2-  S135  1  -0.02641382  0.91785704  0.67625673  1
  S2-  S136  1  0.25257825  0.15181952  0.17044647  1
  S2-  S137  1  0.23953918  0.09486664  0.65026180  1
  S2-  S138  1  0.23812088  0.42768225  0.15201510  1
  S2-  S139  1  0.12796800  0.33684984  0.63641154  1
  S2-  S140  1  0.25218253  0.68281515  0.15545575  1
  S2-  S141  1  0.24471312  0.65853145  0.65385206  1
  S2-  S142  1  0.20611154  0.91054354  0.16050692  1
  S2-  S143  1  0.15575835  0.86740873  0.64536003  1
  S2-  S144  1  0.48995944  0.11050247  0.15939873  1
  S2-  S145  1  0.48271528  0.09594916  0.65071450  1
  S2-  S146  1  0.45139723  0.37478035  0.15337237  1
  S2-  S147  1  0.51606573  0.33293897  0.65595319  1
  S2-  S148  1  0.50534220  0.62491244  0.14898852  1
  S2-  S149  1  0.59824351  0.61005970  0.65374372  1
  S2-  S150  1  0.40998069  0.86200305  0.13853417  1
  S2-  S151  1  0.59575931  0.88609439  0.64383753  1
  S2-  S152  1  0.84310813  0.11723952  0.14269152  1
  S2-  S153  1  0.75123945  0.17137629  0.64480436  1
  S2-  S154  1  0.72162062  0.39580968  0.14900230  1
  S2-  S155  1  0.72093909  0.42088263  0.68328924  1
  S2-  S156  1  0.75065438  0.64109751  0.15330800  1
  S2-  S157  1  0.79766559  0.63488677  0.68527439  1
  S2-  S158  1  0.76740490  0.87602080  0.15498356  1
  S2-  S159  1  0.78416403  0.88549796  0.67966186  1
  S2-  S160  1  0.08297713  0.02993426  0.31073247  1
  S2-  S161  1  0.03326544  0.01838795  0.85587113  1
  S2-  S162  1  0.15194984  0.22375630  0.28699729  1
  S2-  S163  1  0.13420813  0.21856566  0.85376774  1
  S2-  S164  1  0.14021586  0.42247303  0.35337593  1
  S2-  S165  1  0.12710637  0.59564542  0.85118982  1
  S2-  S166  1  0.11961833  0.83596427  0.35428278  1
  S2-  S167  1  0.12422262  0.81755188  0.81188509  1
  S2-  S168  1  0.27691645  0.00853490  0.34849431  1
  S2-  S169  1  0.25903261  -0.00001931  0.86201406  1
  S2-  S170  1  0.32077369  0.25789289  0.35077715  1
  S2-  S171  1  0.37602309  0.23114990  0.84949041  1
  S2-  S172  1  0.39491625  0.49391215  0.35092367  1
  S2-  S173  1  0.40400651  0.51815914  0.84616639  1
  S2-  S174  1  0.39295837  0.83526378  0.36273822  1
  S2-  S175  1  0.30109950  0.74509827  0.85408231  1
  S2-  S176  1  0.71270192  -0.05339153  0.35194029  1
  S2-  S177  1  0.63628527  -0.00266726  0.84435933  1
  S2-  S178  1  0.75101509  0.24975314  0.35987246  1
  S2-  S179  1  0.64309906  0.24196190  0.84484139  1
  S2-  S180  1  0.65013252  0.48470140  0.35933695  1
  S2-  S181  1  0.64746328  0.49683150  0.83887268  1
  S2-  S182  1  0.66341145  0.71354397  0.35645012  1
  S2-  S183  1  0.70536383  0.74721292  0.84717949  1
  S2-  S184  1  0.88229852  0.03614072  0.30758444  1
  S2-  S185  1  0.83779497  -0.06472700  0.83264421  1
  S2-  S186  1  0.97890745  0.26892580  0.34885602  1
  S2-  S187  1  0.86168616  0.14437620  0.85688712  1
  S2-  S188  1  0.88319614  0.49718835  0.35859032  1
  S2-  S189  1  0.85530292  0.58660358  0.84947025  1
  S2-  S190  1  0.88737460  0.80580241  0.36045694  1
  S2-  S191  1  0.93426389  0.76035187  0.81009742  1
  S2-  S192  1  -0.00919683  0.09458770  0.43700809  1
  S2-  S193  1  0.00917546  0.12334396  0.96628287  1
  S2-  S194  1  0.00049325  0.36602288  0.45816506  1
  S2-  S195  1  0.01096552  0.36926497  0.95221051  1
  S2-  S196  1  -0.00157368  0.61231370  0.45673907  1
  S2-  S197  1  0.00434468  0.62112467  0.94845077  1
  S2-  S198  1  -0.00184941  0.85912673  0.46177456  1
  S2-  S199  1  0.00947903  0.85928897  0.94420717  1
  S2-  S200  1  0.24928099  0.11723363  0.44539754  1
  S2-  S201  1  0.25638376  0.12214364  0.96409029  1
  S2-  S202  1  0.25416293  0.36319328  0.45812428  1
  S2-  S203  1  0.25518785  0.36904586  0.95271223  1
  S2-  S204  1  0.25282886  0.60972931  0.45311303  1
  S2-  S205  1  0.26082921  0.61397399  0.95493266  1
  S2-  S206  1  0.25205933  0.85688149  0.45673511  1
  S2-  S207  1  0.26067105  0.86385113  0.95954673  1
  S2-  S208  1  0.49815171  0.11154463  0.44493709  1
  S2-  S209  1  0.50664343  0.11856927  0.95362341  1
  S2-  S210  1  0.50330944  0.36074014  0.45130205  1
  S2-  S211  1  0.50752658  0.36751544  0.95163224  1
  S2-  S212  1  0.50529259  0.60784249  0.46299878  1
  S2-  S213  1  0.50687087  0.61692129  0.94622696  1
  S2-  S214  1  0.50631882  0.85779331  0.46190041  1
  S2-  S215  1  0.50422283  0.86762142  0.94861371  1
  S2-  S216  1  0.75746375  0.10204599  0.44969172  1
  S2-  S217  1  0.75236967  0.11934103  0.95604653  1
  S2-  S218  1  0.75362441  0.36262885  0.46544051  1
  S2-  S219  1  0.75389453  0.36740674  0.94891536  1
  S2-  S220  1  0.75018195  0.60969113  0.47219700  1
  S2-  S221  1  0.75079279  0.61525981  0.95216481  1
  S2-  S222  1  0.74830850  0.85842774  0.46756330  1
  S2-  S223  1  0.75521095  0.86921708  0.94935320  1
  S2-  S224  1  0.13475700  -0.01002187  0.04558113  1
  S2-  S225  1  0.12723185  -0.02181570  0.53658833  1
  S2-  S226  1  0.13097028  0.24119949  0.05529952  1
  S2-  S227  1  0.12491683  0.22863237  0.53625123  1
  S2-  S228  1  0.12642094  0.49420389  0.04075286  1
  S2-  S229  1  0.12225744  0.48772002  0.54942891  1
  S2-  S230  1  0.13685199  0.73978968  0.03743879  1
  S2-  S231  1  0.12620424  0.73043876  0.54295820  1
  S2-  S232  1  0.38043874  -0.00453522  0.04361000  1
  S2-  S233  1  0.37514644  -0.01959679  0.54169460  1
  S2-  S234  1  0.37930489  0.24046436  0.05412664  1
  S2-  S235  1  0.37040271  0.23288797  0.54723150  1
  S2-  S236  1  0.38305006  0.49151570  0.04618732  1
  S2-  S237  1  0.37360045  0.47713935  0.55243955  1
  S2-  S238  1  0.38411108  0.73415498  0.04248840  1
  S2-  S239  1  0.37940339  0.73247369  0.54956335  1
  S2-  S240  1  0.63164593  -0.00923701  0.05035731  1
  S2-  S241  1  0.62713920  -0.01150753  0.54337036  1
  S2-  S242  1  0.63493176  0.24052800  0.04864215  1
  S2-  S243  1  0.62765118  0.23091098  0.54305205  1
  S2-  S244  1  0.63119873  0.49222499  0.04310878  1
  S2-  S245  1  0.62806314  0.47278952  0.56011355  1
  S2-  S246  1  0.62841401  0.74259271  0.04485128  1
  S2-  S247  1  0.62308233  0.73357938  0.55529822  1
  S2-  S248  1  0.87835004  -0.00978051  0.03656019  1
  S2-  S249  1  0.87294316  -0.02232421  0.55659956  1
  S2-  S250  1  0.87805457  0.24500382  0.04561602  1
  S2-  S251  1  0.87841236  0.23002159  0.53830631  1
  S2-  S252  1  0.88240529  0.49374897  0.04475656  1
  S2-  S253  1  0.87664314  0.48642523  0.56116860  1
  S2-  S254  1  0.87704274  0.74039005  0.03184608  1
  S2-  S255  1  0.86998601  0.73391319  0.56024843  1
