# generated using pymatgen
data_La6Ce7Pr13Nd19Sm19(BiS2)64
_symmetry_space_group_name_H-M   'P 1'
_cell_length_a   16.03818365
_cell_length_b   15.93126201
_cell_length_c   27.45946950
_cell_angle_alpha   89.77431723
_cell_angle_beta   90.46777769
_cell_angle_gamma   89.88869765
_symmetry_Int_Tables_number   1
_chemical_formula_structural   La6Ce7Pr13Nd19Sm19(BiS2)64
_chemical_formula_sum   'La6 Ce7 Pr13 Nd19 Sm19 Bi64 S128'
_cell_volume   7015.82608756
_cell_formula_units_Z   1
loop_
 _symmetry_equiv_pos_site_id
 _symmetry_equiv_pos_as_xyz
  1  'x, y, z'
loop_
 _atom_type_symbol
 _atom_type_oxidation_number
  La3+  3.0
  Ce3+  3.0
  Pr3+  3.0
  Nd3+  3.0
  Sm3+  3.0
  Bi2+  2.0
  S2-  -2.0
loop_
 _atom_site_type_symbol
 _atom_site_label
 _atom_site_symmetry_multiplicity
 _atom_site_fract_x
 _atom_site_fract_y
 _atom_site_fract_z
 _atom_site_occupancy
  La3+  La0  1  0.37357341  0.00555400  0.39465954  1
  La3+  La1  1  0.02491117  0.62411977  0.59937990  1
  La3+  La2  1  0.72853785  0.11729245  0.09593137  1
  La3+  La3  1  0.76545712  0.62746302  0.60004573  1
  La3+  La4  1  0.50830484  0.11479427  0.60347506  1
  La3+  La5  1  -0.01079245  0.37185941  0.09749535  1
  Ce3+  Ce6  1  0.23118948  0.10552110  0.06639310  1
  Ce3+  Ce7  1  0.73241402  0.36119559  0.05782831  1
  Ce3+  Ce8  1  0.84732247  0.48633805  0.92944764  1
  Ce3+  Ce9  1  0.88594783  0.00140584  0.44831663  1
  Ce3+  Ce10  1  0.51450295  0.37138646  0.56224316  1
  Ce3+  Ce11  1  0.13709266  0.74966754  0.44023534  1
  Ce3+  Ce12  1  -0.02023327  0.10222616  0.06596712  1
  Pr3+  Pr13  1  0.60372560  0.23396342  0.93407603  1
  Pr3+  Pr14  1  0.59929429  0.48856550  0.93197443  1
  Pr3+  Pr15  1  0.89174184  0.25571996  0.41988881  1
  Pr3+  Pr16  1  0.35700147  -0.01130549  0.93437300  1
  Pr3+  Pr17  1  0.51280077  0.86842041  0.56427516  1
  Pr3+  Pr18  1  0.34151796  0.23523767  0.93002301  1
  Pr3+  Pr19  1  0.22905743  0.86299842  0.06257285  1
  Pr3+  Pr20  1  0.48145094  0.61387667  0.06600080  1
  Pr3+  Pr21  1  0.88386536  0.74559733  0.44337771  1
  Pr3+  Pr22  1  0.47475157  0.11338170  0.07612564  1
  Pr3+  Pr23  1  0.22921507  0.61434632  0.06393299  1
  Pr3+  Pr24  1  0.35171257  0.48942812  0.92825614  1
  Pr3+  Pr25  1  0.26559450  0.87224173  0.55646498  1
  Nd3+  Nd26  1  0.62891900  0.24459300  0.43280765  1
  Nd3+  Nd27  1  0.51457298  0.62188923  0.56606540  1
  Nd3+  Nd28  1  0.60296272  0.73833632  0.93198157  1
  Nd3+  Nd29  1  0.48282909  0.86240664  0.06393095  1
  Nd3+  Nd30  1  0.84802477  0.73688503  0.91950485  1
  Nd3+  Nd31  1  0.39299210  0.73983859  0.42570421  1
  Nd3+  Nd32  1  0.10341525  0.73691344  0.92920753  1
  Nd3+  Nd33  1  0.62804316  0.00034730  0.43791469  1
  Nd3+  Nd34  1  0.26116874  0.11813477  0.56812132  1
  Nd3+  Nd35  1  0.13451632  0.49759931  0.43863766  1
  Nd3+  Nd36  1  0.13650259  0.24542654  0.44447516  1
  Nd3+  Nd37  1  0.88361589  0.49853300  0.44556189  1
  Nd3+  Nd38  1  -0.02367765  0.86370973  0.04871127  1
  Nd3+  Nd39  1  0.00548665  0.37166251  0.56653381  1
  Nd3+  Nd40  1  0.60458518  -0.00959274  0.93815880  1
  Nd3+  Nd41  1  0.00859625  0.12438203  0.56818504  1
  Nd3+  Nd42  1  0.75745931  0.12499055  0.56032078  1
  Nd3+  Nd43  1  0.23490988  0.36267388  0.06454379  1
  Nd3+  Nd44  1  0.10513187  -0.01303518  0.92005321  1
  Sm3+  Sm45  1  0.10291578  0.23954719  0.95017360  1
  Sm3+  Sm46  1  0.10209558  0.49222363  0.93625557  1
  Sm3+  Sm47  1  0.73264916  0.61325045  0.05671153  1
  Sm3+  Sm48  1  -0.02133717  0.61291672  0.05313526  1
  Sm3+  Sm49  1  0.63406994  0.49279932  0.44127099  1
  Sm3+  Sm50  1  0.35810892  0.73919997  0.93647861  1
  Sm3+  Sm51  1  0.38532819  0.49965883  0.44442517  1
  Sm3+  Sm52  1  0.85768045  0.23865417  0.94859868  1
  Sm3+  Sm53  1  0.63463966  0.75517712  0.43657942  1
  Sm3+  Sm54  1  0.76094667  0.86921720  0.55930176  1
  Sm3+  Sm55  1  0.38470668  0.23992197  0.45140359  1
  Sm3+  Sm56  1  0.48121921  0.36017799  0.04968562  1
  Sm3+  Sm57  1  0.26112417  0.37191036  0.55577132  1
  Sm3+  Sm58  1  0.76065781  0.37167258  0.55680602  1
  Sm3+  Sm59  1  0.00966029  0.86819589  0.56304238  1
  Sm3+  Sm60  1  0.73031754  0.86016710  0.05887970  1
  Sm3+  Sm61  1  0.13440043  -0.00354136  0.44129119  1
  Sm3+  Sm62  1  0.26214997  0.62236707  0.56112026  1
  Sm3+  Sm63  1  0.85253075  -0.00802057  0.93134627  1
  Bi2+  Bi64  1  -0.01655002  0.13601250  0.29684868  1
  Bi2+  Bi65  1  -0.01380412  0.16028752  0.79980500  1
  Bi2+  Bi66  1  0.00500506  0.38997310  0.29372497  1
  Bi2+  Bi67  1  0.02939619  0.35791850  0.78931059  1
  Bi2+  Bi68  1  -0.07161174  0.60203922  0.22665664  1
  Bi2+  Bi69  1  0.01402808  0.62849617  0.78773166  1
  Bi2+  Bi70  1  -0.01429126  0.84976828  0.29604096  1
  Bi2+  Bi71  1  0.09334865  0.92246865  0.76069401  1
  Bi2+  Bi72  1  0.23818025  0.22299012  0.28665491  1
  Bi2+  Bi73  1  0.18564050  0.12536438  0.78536364  1
  Bi2+  Bi74  1  0.25481722  0.41992250  0.29529431  1
  Bi2+  Bi75  1  0.21284442  0.41178132  0.82663856  1
  Bi2+  Bi76  1  0.31912885  0.60961895  0.25904547  1
  Bi2+  Bi77  1  0.29588531  0.67015717  0.79787469  1
  Bi2+  Bi78  1  0.23253838  0.86263531  0.28541602  1
  Bi2+  Bi79  1  0.27982277  0.86729617  0.80707655  1
  Bi2+  Bi80  1  0.49714718  0.17258473  0.29229640  1
  Bi2+  Bi81  1  0.50275876  0.13448304  0.79085463  1
  Bi2+  Bi82  1  0.46898894  0.37145663  0.30300323  1
  Bi2+  Bi83  1  0.38997307  0.39850782  0.78217136  1
  Bi2+  Bi84  1  0.50455898  0.56655393  0.29849249  1
  Bi2+  Bi85  1  0.56251999  0.62534248  0.81115786  1
  Bi2+  Bi86  1  0.52601345  0.84502165  0.29869175  1
  Bi2+  Bi87  1  0.54192627  0.87791432  0.79340317  1
  Bi2+  Bi88  1  0.76275445  0.03339504  0.32504305  1
  Bi2+  Bi89  1  0.72992037  0.12438822  0.79731700  1
  Bi2+  Bi90  1  0.73463846  0.44002568  0.28991215  1
  Bi2+  Bi91  1  0.80339757  0.32566822  0.76383898  1
  Bi2+  Bi92  1  0.75158621  0.63489481  0.28937640  1
  Bi2+  Bi93  1  0.76530159  0.59853084  0.79174900  1
  Bi2+  Bi94  1  0.80074021  0.81947644  0.25251595  1
  Bi2+  Bi95  1  0.83013541  0.94482022  0.78253721  1
  Bi2+  Bi96  1  0.14528104  0.04710276  0.25425312  1
  Bi2+  Bi97  1  0.12435723  0.05281478  0.67487007  1
  Bi2+  Bi98  1  0.09094649  0.22855876  0.21202297  1
  Bi2+  Bi99  1  0.11258012  0.24837454  0.70437198  1
  Bi2+  Bi100  1  0.16382036  0.51722994  0.19561283  1
  Bi2+  Bi101  1  0.16479221  0.47157676  0.71977955  1
  Bi2+  Bi102  1  0.09394390  0.71524752  0.23975695  1
  Bi2+  Bi103  1  0.16416961  0.75463000  0.71689271  1
  Bi2+  Bi104  1  0.34386889  0.03018231  0.20346043  1
  Bi2+  Bi105  1  0.36956182  -0.03332325  0.71485242  1
  Bi2+  Bi106  1  0.35625552  0.32068562  0.20820409  1
  Bi2+  Bi107  1  0.32415326  0.25085171  0.71821371  1
  Bi2+  Bi108  1  0.35091411  0.50917673  0.15692162  1
  Bi2+  Bi109  1  0.34155019  0.56008884  0.70508017  1
  Bi2+  Bi110  1  0.34835981  0.77802557  0.20348506  1
  Bi2+  Bi111  1  0.40843647  0.76747225  0.71772116  1
  Bi2+  Bi112  1  0.60322087  -0.01259819  0.20418334  1
  Bi2+  Bi113  1  0.65328477  -0.02038876  0.71917938  1
  Bi2+  Bi114  1  0.60866493  0.34538773  0.21831416  1
  Bi2+  Bi115  1  0.63918512  0.28840427  0.69603889  1
  Bi2+  Bi116  1  0.55096333  0.53449382  0.18573053  1
  Bi2+  Bi117  1  0.53643303  0.56672923  0.70553841  1
  Bi2+  Bi118  1  0.62125976  0.72460065  0.20702367  1
  Bi2+  Bi119  1  0.64524700  0.77776153  0.71773873  1
  Bi2+  Bi120  1  0.88167165  -0.01314730  0.20106049  1
  Bi2+  Bi121  1  0.93580066  -0.00910842  0.68724077  1
  Bi2+  Bi122  1  0.83000469  0.23973919  0.22511820  1
  Bi2+  Bi123  1  0.85683826  0.16932823  0.69692232  1
  Bi2+  Bi124  1  0.75160220  0.54899578  0.18180391  1
  Bi2+  Bi125  1  0.90919078  0.45701052  0.71289892  1
  Bi2+  Bi126  1  0.94723678  0.78042485  0.17252902  1
  Bi2+  Bi127  1  0.89888661  0.77241815  0.71930762  1
  S2-  S128  1  -0.11362841  0.13459980  0.14935012  1
  S2-  S129  1  -0.02119009  0.24596622  0.63990654  1
  S2-  S130  1  -0.06231350  0.34987959  0.19739588  1
  S2-  S131  1  0.03621093  0.46497882  0.64911698  1
  S2-  S132  1  0.01014092  0.53982995  0.14204528  1
  S2-  S133  1  -0.10145878  0.62096936  0.67056284  1
  S2-  S134  1  -0.00507987  0.95611764  0.13444183  1
  S2-  S135  1  0.02447991  0.78841457  0.65047410  1
  S2-  S136  1  0.33473138  0.15813205  0.14341384  1
  S2-  S137  1  0.33828893  0.10416277  0.65756964  1
  S2-  S138  1  0.14606326  0.36050452  0.15100163  1
  S2-  S139  1  0.26297804  0.36465472  0.65321317  1
  S2-  S140  1  0.22812683  0.73879595  0.13891026  1
  S2-  S141  1  0.18602443  0.62377287  0.64907139  1
  S2-  S142  1  0.21986698  0.98248172  0.13884471  1
  S2-  S143  1  0.27888378  0.84713152  0.65650668  1
  S2-  S144  1  0.58461390  0.12363905  0.15539244  1
  S2-  S145  1  0.49891692  0.20726470  0.69408964  1
  S2-  S146  1  0.48960169  0.32195382  0.14575726  1
  S2-  S147  1  0.53426450  0.40866041  0.65551421  1
  S2-  S148  1  0.48341690  0.73892816  0.14047057  1
  S2-  S149  1  0.52380940  0.74077470  0.63998546  1
  S2-  S150  1  0.46039876  0.96397430  0.14657821  1
  S2-  S151  1  0.51747651  0.96163044  0.65473479  1
  S2-  S152  1  0.72694523  0.08955047  0.24076651  1
  S2-  S153  1  0.68086170  0.13316495  0.64901491  1
  S2-  S154  1  0.73004564  0.28853160  0.14713184  1
  S2-  S155  1  0.78009267  0.37849052  0.65427541  1
  S2-  S156  1  0.73255150  0.72874098  0.13173062  1
  S2-  S157  1  0.69767163  0.58365148  0.69210044  1
  S2-  S158  1  0.73349464  0.95419404  0.14325421  1
  S2-  S159  1  0.76401243  0.79445420  0.64883012  1
  S2-  S160  1  0.20506036  0.00613369  0.35219132  1
  S2-  S161  1  0.24693585  0.02043598  0.85591685  1
  S2-  S162  1  0.04400932  0.25792754  0.36019663  1
  S2-  S163  1  0.19015072  0.24409269  0.86450140  1
  S2-  S164  1  0.11226542  0.49134978  0.33934304  1
  S2-  S165  1  0.11986132  0.60638145  0.85901631  1
  S2-  S166  1  0.14300129  0.74995116  0.34211776  1
  S2-  S167  1  0.12004832  0.84921906  0.85095886  1
  S2-  S168  1  0.45061780  0.01565486  0.29536566  1
  S2-  S169  1  0.48460709  -0.00255474  0.85738174  1
  S2-  S170  1  0.36484708  0.18097322  0.35870608  1
  S2-  S171  1  0.40218823  0.23591772  0.83361221  1
  S2-  S172  1  0.36849991  0.59556683  0.36256430  1
  S2-  S173  1  0.47398857  0.49347596  0.85405527  1
  S2-  S174  1  0.37122210  0.84442698  0.34615650  1
  S2-  S175  1  0.47343465  0.74666862  0.86008825  1
  S2-  S176  1  0.65448085  -0.10655330  0.35658833  1
  S2-  S177  1  0.72600049  -0.01788173  0.86005181  1
  S2-  S178  1  0.62236971  0.12472055  0.35751150  1
  S2-  S179  1  0.61446056  0.23844913  0.83202950  1
  S2-  S180  1  0.63075921  0.38112381  0.36186272  1
  S2-  S181  1  0.70635100  0.48489487  0.85095705  1
  S2-  S182  1  0.54696863  0.71195112  0.35463597  1
  S2-  S183  1  0.71058482  0.72473390  0.85091915  1
  S2-  S184  1  0.93479219  -0.00923788  0.35486354  1
  S2-  S185  1  0.96424520  0.01479432  0.85246313  1
  S2-  S186  1  0.82832864  0.19964273  0.33036670  1
  S2-  S187  1  0.84717791  0.23726116  0.84896117  1
  S2-  S188  1  0.88287597  0.41777287  0.35586586  1
  S2-  S189  1  0.90387420  0.52557380  0.83848459  1
  S2-  S190  1  0.87377848  0.74834824  0.34237111  1
  S2-  S191  1  0.92292633  0.74958504  0.82543939  1
  S2-  S192  1  0.01320772  0.12249680  0.46098113  1
  S2-  S193  1  -0.01911916  0.11701142  0.95815039  1
  S2-  S194  1  0.01273647  0.37538126  0.46160300  1
  S2-  S195  1  -0.01745748  0.36611657  0.94211058  1
  S2-  S196  1  0.01047937  0.62148391  0.44352286  1
  S2-  S197  1  -0.02643757  0.61228718  0.95079326  1
  S2-  S198  1  0.01074232  0.87206882  0.45799018  1
  S2-  S199  1  -0.02719142  0.85961901  0.94549991  1
  S2-  S200  1  0.25787770  0.11826583  0.46165367  1
  S2-  S201  1  0.22395202  0.11177311  0.96135648  1
  S2-  S202  1  0.26294410  0.37173699  0.45108016  1
  S2-  S203  1  0.22654257  0.36953065  0.95992338  1
  S2-  S204  1  0.25819691  0.62252564  0.45831010  1
  S2-  S205  1  0.23463533  0.61558332  0.95682814  1
  S2-  S206  1  0.26253858  0.87531971  0.45171735  1
  S2-  S207  1  0.23418749  0.85764462  0.95428142  1
  S2-  S208  1  0.50027193  0.11734871  0.45239217  1
  S2-  S209  1  0.47753762  0.11702740  0.95747433  1
  S2-  S210  1  0.50304646  0.37179187  0.45774796  1
  S2-  S211  1  0.47439583  0.35849273  0.94768386  1
  S2-  S212  1  0.51437308  0.61616605  0.46176988  1
  S2-  S213  1  0.47638277  0.61206260  0.95912973  1
  S2-  S214  1  0.50626884  0.87240926  0.45507006  1
  S2-  S215  1  0.48158349  0.86293364  0.95882337  1
  S2-  S216  1  0.76120633  0.12556507  0.45495809  1
  S2-  S217  1  0.73407255  0.11820232  0.95280740  1
  S2-  S218  1  0.75978858  0.36953752  0.45530778  1
  S2-  S219  1  0.72819778  0.35983476  0.95294095  1
  S2-  S220  1  0.75322650  0.62011935  0.43963434  1
  S2-  S221  1  0.72872429  0.61071195  0.95514772  1
  S2-  S222  1  0.76259635  0.87441865  0.45783574  1
  S2-  S223  1  0.73119209  0.86140419  0.95462003  1
  S2-  S224  1  0.10386580  -0.01617460  0.02976565  1
  S2-  S225  1  0.13198907  -0.00575600  0.54704355  1
  S2-  S226  1  0.10375761  0.23768497  0.05297070  1
  S2-  S227  1  0.13833477  0.24785584  0.54889803  1
  S2-  S228  1  0.10535789  0.48674758  0.03938088  1
  S2-  S229  1  0.13935435  0.49765656  0.54422954  1
  S2-  S230  1  0.09995649  0.73539808  0.03718999  1
  S2-  S231  1  0.13586314  0.74603273  0.54489608  1
  S2-  S232  1  0.35646078  -0.01329251  0.03993164  1
  S2-  S233  1  0.38853326  -0.00227124  0.55411882  1
  S2-  S234  1  0.35417769  0.24165486  0.03740215  1
  S2-  S235  1  0.38745950  0.24497445  0.55523299  1
  S2-  S236  1  0.35649399  0.48670268  0.03794543  1
  S2-  S237  1  0.38581097  0.49770155  0.54955392  1
  S2-  S238  1  0.35640132  0.73694053  0.03857898  1
  S2-  S239  1  0.38572897  0.74142460  0.54119217  1
  S2-  S240  1  0.60733405  -0.01163732  0.04345357  1
  S2-  S241  1  0.63811535  -0.00503766  0.54639209  1
  S2-  S242  1  0.60656290  0.23740410  0.04128933  1
  S2-  S243  1  0.63340868  0.24790545  0.54254081  1
  S2-  S244  1  0.60616445  0.48681116  0.04397905  1
  S2-  S245  1  0.64268531  0.50128550  0.54735525  1
  S2-  S246  1  0.60637674  0.73520243  0.03673700  1
  S2-  S247  1  0.64562810  0.74052290  0.54106230  1
  S2-  S248  1  0.85025008  -0.01148268  0.03764340  1
  S2-  S249  1  0.88459539  -0.00433263  0.55357901  1
  S2-  S250  1  0.87019163  0.25027549  0.04948632  1
  S2-  S251  1  0.88141110  0.24721905  0.53701447  1
  S2-  S252  1  0.85821336  0.48619668  0.04476972  1
  S2-  S253  1  0.88125246  0.50273957  0.55093677  1
  S2-  S254  1  0.85596971  0.73467373  0.03238760  1
  S2-  S255  1  0.88748814  0.74228316  0.54878136  1
