# generated using pymatgen
data_La6Ce7Pr13Nd19Sm19(BiS2)64
_symmetry_space_group_name_H-M   'P 1'
_cell_length_a   16.10185246
_cell_length_b   16.14445924
_cell_length_c   27.28669374
_cell_angle_alpha   90.02937552
_cell_angle_beta   90.18439799
_cell_angle_gamma   90.01701289
_symmetry_Int_Tables_number   1
_chemical_formula_structural   La6Ce7Pr13Nd19Sm19(BiS2)64
_chemical_formula_sum   'La6 Ce7 Pr13 Nd19 Sm19 Bi64 S128'
_cell_volume   7093.29360752
_cell_formula_units_Z   1
loop_
 _symmetry_equiv_pos_site_id
 _symmetry_equiv_pos_as_xyz
  1  'x, y, z'
loop_
 _atom_type_symbol
 _atom_type_oxidation_number
  La3+  3.0
  Ce3+  3.0
  Pr3+  3.0
  Nd3+  3.0
  Sm3+  3.0
  Bi2+  2.0
  S2-  -2.0
loop_
 _atom_site_type_symbol
 _atom_site_label
 _atom_site_symmetry_multiplicity
 _atom_site_fract_x
 _atom_site_fract_y
 _atom_site_fract_z
 _atom_site_occupancy
  La3+  La0  1  0.62400083  0.73990057  0.88226930  1
  La3+  La1  1  0.01786372  0.87251896  0.06646299  1
  La3+  La2  1  0.01673568  0.36641273  0.09782092  1
  La3+  La3  1  0.85655516  0.50205141  0.41066907  1
  La3+  La4  1  0.88502112  0.75568140  0.37880651  1
  La3+  La5  1  0.64405141  -0.00268334  0.92178478  1
  Ce3+  Ce6  1  0.51352907  0.37323284  0.05602500  1
  Ce3+  Ce7  1  0.88685088  -0.00328502  0.93808027  1
  Ce3+  Ce8  1  -0.00809524  0.62782125  0.55106918  1
  Ce3+  Ce9  1  0.13252205  0.74583614  0.92840709  1
  Ce3+  Ce10  1  0.24391607  0.87419825  0.56162418  1
  Ce3+  Ce11  1  0.86731579  -0.00624270  0.44367872  1
  Ce3+  Ce12  1  0.12089051  0.74751031  0.44033387  1
  Pr3+  Pr13  1  0.24289701  0.61881446  0.57063478  1
  Pr3+  Pr14  1  0.49214965  0.37276909  0.56935382  1
  Pr3+  Pr15  1  0.74611847  0.37643850  0.56271514  1
  Pr3+  Pr16  1  0.49508497  0.88633210  0.57766414  1
  Pr3+  Pr17  1  0.37908813  0.74715054  0.92425771  1
  Pr3+  Pr18  1  0.26322689  0.37376749  0.06733571  1
  Pr3+  Pr19  1  0.74603542  0.62983874  0.56037615  1
  Pr3+  Pr20  1  0.51223497  0.62977498  0.05786216  1
  Pr3+  Pr21  1  0.13277058  -0.00184094  0.93192480  1
  Pr3+  Pr22  1  0.26247127  0.62383992  0.05848055  1
  Pr3+  Pr23  1  0.13633304  0.25332493  0.93725279  1
  Pr3+  Pr24  1  0.37319458  0.75072543  0.44072017  1
  Pr3+  Pr25  1  0.63629804  0.24746227  0.92941197  1
  Nd3+  Nd26  1  0.74452338  0.87778654  0.56322906  1
  Nd3+  Nd27  1  0.76374413  0.62398989  0.06635675  1
  Nd3+  Nd28  1  0.12111653  0.25568682  0.42999749  1
  Nd3+  Nd29  1  0.87318403  0.25212108  0.42405038  1
  Nd3+  Nd30  1  0.76234860  0.87684467  0.06212340  1
  Nd3+  Nd31  1  0.51436396  0.12172761  0.06010388  1
  Nd3+  Nd32  1  0.62159217  0.75246904  0.43532151  1
  Nd3+  Nd33  1  0.61877319  0.25162581  0.44824080  1
  Nd3+  Nd34  1  0.36794178  0.25321926  0.43007880  1
  Nd3+  Nd35  1  0.38782525  0.49949028  0.93951955  1
  Nd3+  Nd36  1  -0.00269367  0.12749616  0.55776353  1
  Nd3+  Nd37  1  0.13313291  0.49733056  0.94794326  1
  Nd3+  Nd38  1  0.61678994  0.00240751  0.44285728  1
  Nd3+  Nd39  1  0.37124866  0.00120910  0.44844779  1
  Nd3+  Nd40  1  0.38835087  -0.00349971  0.93936768  1
  Nd3+  Nd41  1  0.11711572  -0.00279254  0.43879280  1
  Nd3+  Nd42  1  0.01472601  0.12349059  0.06211671  1
  Nd3+  Nd43  1  0.26111073  0.12224928  0.05556213  1
  Nd3+  Nd44  1  -0.00726437  0.37657283  0.55526029  1
  Sm3+  Sm45  1  0.87995149  0.74711236  0.94236418  1
  Sm3+  Sm46  1  0.75970660  0.37236311  0.06252088  1
  Sm3+  Sm47  1  0.24225520  0.12808596  0.55301947  1
  Sm3+  Sm48  1  0.24385507  0.37443672  0.56052724  1
  Sm3+  Sm49  1  0.74730724  0.12626713  0.55597974  1
  Sm3+  Sm50  1  0.26008598  0.87179069  0.05561828  1
  Sm3+  Sm51  1  0.88528600  0.49576401  0.95124435  1
  Sm3+  Sm52  1  0.76258802  0.12347329  0.05506502  1
  Sm3+  Sm53  1  0.01087791  0.62295480  0.05930035  1
  Sm3+  Sm54  1  0.37055334  0.50132624  0.45043551  1
  Sm3+  Sm55  1  0.38721956  0.24876479  0.94804184  1
  Sm3+  Sm56  1  -0.00427258  0.87480115  0.55640239  1
  Sm3+  Sm57  1  0.88737360  0.25197444  0.94799905  1
  Sm3+  Sm58  1  0.63754446  0.50217419  0.94526848  1
  Sm3+  Sm59  1  0.11777254  0.50377193  0.43906517  1
  Sm3+  Sm60  1  0.62044857  0.50049631  0.44810190  1
  Sm3+  Sm61  1  0.51509672  0.87160988  0.04927976  1
  Sm3+  Sm62  1  0.49497001  0.62820835  0.56411911  1
  Sm3+  Sm63  1  0.49033396  0.13070706  0.56450434  1
  Bi2+  Bi64  1  0.02432987  0.10559656  0.28055205  1
  Bi2+  Bi65  1  -0.03508986  0.14729511  0.78889367  1
  Bi2+  Bi66  1  -0.01208665  0.36017685  0.29086695  1
  Bi2+  Bi67  1  0.00589974  0.36577681  0.82256496  1
  Bi2+  Bi68  1  0.11796969  0.59754651  0.28488239  1
  Bi2+  Bi69  1  0.02310594  0.68533827  0.81366329  1
  Bi2+  Bi70  1  0.03208446  0.89354529  0.28553310  1
  Bi2+  Bi71  1  0.01445602  0.88156114  0.81061213  1
  Bi2+  Bi72  1  0.28702542  0.13774015  0.27888159  1
  Bi2+  Bi73  1  0.25327281  0.16866486  0.78538200  1
  Bi2+  Bi74  1  0.29775957  0.38502525  0.29399622  1
  Bi2+  Bi75  1  0.23599638  0.34665203  0.73785965  1
  Bi2+  Bi76  1  0.25531266  0.71191700  0.32801455  1
  Bi2+  Bi77  1  0.19594291  0.59963130  0.80025833  1
  Bi2+  Bi78  1  0.27622068  0.86424091  0.25668907  1
  Bi2+  Bi79  1  0.22191701  0.86302442  0.77622932  1
  Bi2+  Bi80  1  0.46740824  0.12348144  0.32330635  1
  Bi2+  Bi81  1  0.48091905  0.14053250  0.80484923  1
  Bi2+  Bi82  1  0.48761416  0.31697706  0.32156451  1
  Bi2+  Bi83  1  0.48101491  0.35349549  0.80634968  1
  Bi2+  Bi84  1  0.42980198  0.63236128  0.29407747  1
  Bi2+  Bi85  1  0.48349202  0.57393910  0.79228317  1
  Bi2+  Bi86  1  0.48206190  0.87750598  0.29481732  1
  Bi2+  Bi87  1  0.47829615  0.89013986  0.78191067  1
  Bi2+  Bi88  1  0.75296886  0.15760474  0.28873842  1
  Bi2+  Bi89  1  0.73790003  0.16971497  0.75843393  1
  Bi2+  Bi90  1  0.71890444  0.35298009  0.24865606  1
  Bi2+  Bi91  1  0.67426313  0.34347617  0.81126039  1
  Bi2+  Bi92  1  0.73054602  0.61240257  0.28364466  1
  Bi2+  Bi93  1  0.77008099  0.60070247  0.79459940  1
  Bi2+  Bi94  1  0.74151155  0.88196719  0.28886584  1
  Bi2+  Bi95  1  0.76808993  0.87271800  0.78982898  1
  Bi2+  Bi96  1  0.08410328  0.00169167  0.18882114  1
  Bi2+  Bi97  1  0.14225047  -0.02099965  0.69657418  1
  Bi2+  Bi98  1  0.14430840  0.22265817  0.21293010  1
  Bi2+  Bi99  1  0.09502174  0.22148544  0.70106590  1
  Bi2+  Bi100  1  0.23033036  0.50220435  0.20950195  1
  Bi2+  Bi101  1  0.10569730  0.49062902  0.70644808  1
  Bi2+  Bi102  1  0.12552891  0.75303162  0.21336800  1
  Bi2+  Bi103  1  0.09772880  0.74086891  0.70982920  1
  Bi2+  Bi104  1  0.38681604  0.00860288  0.21322805  1
  Bi2+  Bi105  1  0.37735712  0.08564224  0.71369241  1
  Bi2+  Bi106  1  0.37675093  0.27198008  0.20988662  1
  Bi2+  Bi107  1  0.39095021  0.26685115  0.66866153  1
  Bi2+  Bi108  1  0.42104300  0.46460294  0.19317112  1
  Bi2+  Bi109  1  0.39002961  0.46007570  0.71552506  1
  Bi2+  Bi110  1  0.38137173  0.72648359  0.19718865  1
  Bi2+  Bi111  1  0.36686222  0.73729995  0.70986077  1
  Bi2+  Bi112  1  0.59856219  0.04256195  0.24915433  1
  Bi2+  Bi113  1  0.64799910  0.01756828  0.70530226  1
  Bi2+  Bi114  1  0.57198606  0.22908877  0.21073653  1
  Bi2+  Bi115  1  0.57744795  0.26336472  0.71453833  1
  Bi2+  Bi116  1  0.56463008  0.48527261  0.27725428  1
  Bi2+  Bi117  1  0.66901517  0.46070783  0.72144421  1
  Bi2+  Bi118  1  0.60383829  0.75772142  0.18931862  1
  Bi2+  Bi119  1  0.62784827  0.74346868  0.67975397  1
  Bi2+  Bi120  1  0.86732121  0.04269922  0.21878361  1
  Bi2+  Bi121  1  0.94126742  -0.01182110  0.72468201  1
  Bi2+  Bi122  1  0.85612985  0.24378954  0.20091748  1
  Bi2+  Bi123  1  0.88403747  0.28915401  0.71957142  1
  Bi2+  Bi124  1  0.87527749  0.53939450  0.21087453  1
  Bi2+  Bi125  1  0.92253758  0.49863181  0.74981033  1
  Bi2+  Bi126  1  0.85261093  0.76865110  0.17862382  1
  Bi2+  Bi127  1  0.88921893  0.68678231  0.71622508  1
  S2-  S128  1  0.00602472  0.21141380  0.14820951  1
  S2-  S129  1  -0.02278179  0.12097878  0.65577451  1
  S2-  S130  1  -0.01376972  0.43242094  0.19238266  1
  S2-  S131  1  0.01789434  0.36009550  0.65357453  1
  S2-  S132  1  -0.02318768  0.64565529  0.15522401  1
  S2-  S133  1  0.01221531  0.61754544  0.64882892  1
  S2-  S134  1  -0.06946215  0.91195896  0.15207644  1
  S2-  S135  1  0.01468842  0.87423065  0.65443292  1
  S2-  S136  1  0.21265913  0.09903246  0.14936836  1
  S2-  S137  1  0.20958868  0.11919454  0.64897786  1
  S2-  S138  1  0.17268522  0.35965272  0.15214166  1
  S2-  S139  1  0.23960578  0.46574381  0.64386062  1
  S2-  S140  1  0.23475249  0.65337330  0.15574962  1
  S2-  S141  1  0.24154175  0.66983084  0.66721905  1
  S2-  S142  1  0.15670461  0.86667909  0.13457195  1
  S2-  S143  1  0.26737749  0.88764616  0.65821203  1
  S2-  S144  1  0.50974421  0.07822540  0.15599964  1
  S2-  S145  1  0.50565357  0.03949637  0.64645241  1
  S2-  S146  1  0.54930488  0.36791726  0.15046890  1
  S2-  S147  1  0.53319253  0.44069175  0.65951242  1
  S2-  S148  1  0.50677640  0.61800197  0.15811999  1
  S2-  S149  1  0.48247803  0.64645984  0.66188270  1
  S2-  S150  1  0.48518669  0.84378867  0.14594744  1
  S2-  S151  1  0.48750070  0.84735841  0.67727180  1
  S2-  S152  1  0.75933677  0.12069475  0.15293433  1
  S2-  S153  1  0.74108856  0.12318865  0.65384663  1
  S2-  S154  1  0.77760176  0.39876842  0.15950805  1
  S2-  S155  1  0.77625167  0.37534473  0.66195726  1
  S2-  S156  1  0.73800922  0.63213644  0.16631186  1
  S2-  S157  1  0.75107211  0.62432710  0.66207009  1
  S2-  S158  1  0.70896308  0.87050463  0.15955750  1
  S2-  S159  1  0.73087136  0.88677663  0.66329524  1
  S2-  S160  1  0.12778363  -0.00355117  0.33936972  1
  S2-  S161  1  0.14658801  -0.01218598  0.83198465  1
  S2-  S162  1  0.00803825  0.23165045  0.35498247  1
  S2-  S163  1  0.10924421  0.22125724  0.83987047  1
  S2-  S164  1  0.09904903  0.45736540  0.34473982  1
  S2-  S165  1  0.13457194  0.45301598  0.85169529  1
  S2-  S166  1  0.05735008  0.76055762  0.34957022  1
  S2-  S167  1  0.24416900  0.74552969  0.85249532  1
  S2-  S168  1  0.38050532  -0.02237818  0.35099961  1
  S2-  S169  1  0.39069439  -0.02007694  0.84043040  1
  S2-  S170  1  0.24621682  0.25161676  0.35777628  1
  S2-  S171  1  0.35346895  0.26270571  0.85241083  1
  S2-  S172  1  0.35753103  0.51163536  0.35282906  1
  S2-  S173  1  0.35169224  0.53642753  0.84384294  1
  S2-  S174  1  0.49109074  0.75629502  0.36478886  1
  S2-  S175  1  0.46382273  0.73667370  0.83493334  1
  S2-  S176  1  0.61964378  -0.04255002  0.34665150  1
  S2-  S177  1  0.61668802  -0.09674763  0.83723680  1
  S2-  S178  1  0.64540448  0.24544415  0.35070653  1
  S2-  S179  1  0.62281703  0.13006758  0.85312160  1
  S2-  S180  1  0.68292690  0.50490913  0.35697459  1
  S2-  S181  1  0.63071906  0.56514130  0.85382252  1
  S2-  S182  1  0.71274540  0.74709617  0.34755499  1
  S2-  S183  1  0.65161660  0.73668044  0.77232769  1
  S2-  S184  1  0.86222434  -0.06947096  0.35365527  1
  S2-  S185  1  0.80744690  -0.01172968  0.85142085  1
  S2-  S186  1  0.85674152  0.36492374  0.34553406  1
  S2-  S187  1  0.87382457  0.24864111  0.85052050  1
  S2-  S188  1  0.88056544  0.59903413  0.32778634  1
  S2-  S189  1  0.87678432  0.48852221  0.85353576  1
  S2-  S190  1  0.88299419  0.78779999  0.27039272  1
  S2-  S191  1  0.79843951  0.74395358  0.85615921  1
  S2-  S192  1  -0.00724422  0.12087174  0.45279851  1
  S2-  S193  1  0.00987645  0.12636385  0.95344698  1
  S2-  S194  1  -0.00861901  0.38130199  0.45100909  1
  S2-  S195  1  0.00938892  0.37342148  0.96131943  1
  S2-  S196  1  -0.00890085  0.62434421  0.44556016  1
  S2-  S197  1  0.00625298  0.62154209  0.95408079  1
  S2-  S198  1  -0.00642315  0.87107267  0.45267818  1
  S2-  S199  1  0.00839478  0.86910692  0.95302840  1
  S2-  S200  1  0.24281573  0.12285543  0.45014316  1
  S2-  S201  1  0.26248349  0.12347825  0.94880065  1
  S2-  S202  1  0.24439687  0.38171565  0.45653232  1
  S2-  S203  1  0.26398125  0.37466506  0.95925002  1
  S2-  S204  1  0.24595874  0.62278484  0.46077171  1
  S2-  S205  1  0.25902519  0.61929089  0.95355643  1
  S2-  S206  1  0.24553084  0.87584635  0.45334552  1
  S2-  S207  1  0.25829803  0.87625435  0.95180564  1
  S2-  S208  1  0.49216123  0.12969143  0.45941686  1
  S2-  S209  1  0.50842346  0.12383997  0.95507417  1
  S2-  S210  1  0.49425629  0.37715737  0.45993849  1
  S2-  S211  1  0.51322695  0.37398257  0.95011030  1
  S2-  S212  1  0.49719449  0.62107680  0.45920151  1
  S2-  S213  1  0.51172697  0.62576489  0.95162093  1
  S2-  S214  1  0.49525330  0.87976291  0.46697198  1
  S2-  S215  1  0.51114936  0.86908764  0.94667477  1
  S2-  S216  1  0.74694727  0.12649725  0.45067768  1
  S2-  S217  1  0.76534278  0.12801484  0.95217454  1
  S2-  S218  1  0.74409684  0.37373992  0.45689885  1
  S2-  S219  1  0.75877541  0.37395184  0.95709528  1
  S2-  S220  1  0.74183991  0.62562187  0.45562345  1
  S2-  S221  1  0.76386934  0.61876283  0.96067797  1
  S2-  S222  1  0.73854681  0.87839693  0.45823520  1
  S2-  S223  1  0.76355244  0.87340284  0.95729576  1
  S2-  S224  1  0.13737599  0.00058545  0.03784001  1
  S2-  S225  1  0.11963501  0.00058978  0.54508302  1
  S2-  S226  1  0.13813432  0.24820735  0.04422576  1
  S2-  S227  1  0.12105774  0.25355037  0.54041979  1
  S2-  S228  1  0.13270774  0.49914006  0.05476013  1
  S2-  S229  1  0.11780051  0.49871403  0.54315478  1
  S2-  S230  1  0.13567953  0.74295340  0.03721269  1
  S2-  S231  1  0.12022417  0.75040784  0.54781724  1
  S2-  S232  1  0.38581573  -0.00520568  0.04668540  1
  S2-  S233  1  0.36567644  0.00661944  0.55294255  1
  S2-  S234  1  0.38749910  0.24618136  0.05319333  1
  S2-  S235  1  0.36545672  0.25075321  0.53853447  1
  S2-  S236  1  0.38823293  0.49860845  0.04741080  1
  S2-  S237  1  0.37414248  0.50088653  0.55345121  1
  S2-  S238  1  0.38364079  0.75217513  0.03839712  1
  S2-  S239  1  0.37139308  0.75000217  0.54989209  1
  S2-  S240  1  0.63715021  -0.00121508  0.04222608  1
  S2-  S241  1  0.62139596  0.00786645  0.54769951  1
  S2-  S242  1  0.63887716  0.24658129  0.04333276  1
  S2-  S243  1  0.62016120  0.24833455  0.55472612  1
  S2-  S244  1  0.63875780  0.50000752  0.05020516  1
  S2-  S245  1  0.61914653  0.50274889  0.55172201  1
  S2-  S246  1  0.63942743  0.75010102  0.05114017  1
  S2-  S247  1  0.61566433  0.75445100  0.54982625  1
  S2-  S248  1  0.88772733  0.00328842  0.04432161  1
  S2-  S249  1  0.87148599  0.00096510  0.55083325  1
  S2-  S250  1  0.88361006  0.25091911  0.05148023  1
  S2-  S251  1  0.87014655  0.24942891  0.54258817  1
  S2-  S252  1  0.88873706  0.49445289  0.05611427  1
  S2-  S253  1  0.86937876  0.50141421  0.55092325  1
  S2-  S254  1  0.88757207  0.74837866  0.04694026  1
  S2-  S255  1  0.87093204  0.75632107  0.55740388  1
