# generated using pymatgen
data_La6Ce7Pr13Nd19Sm19(BiS2)64
_symmetry_space_group_name_H-M   'P 1'
_cell_length_a   16.02959063
_cell_length_b   15.98839870
_cell_length_c   27.42871465
_cell_angle_alpha   90.04883431
_cell_angle_beta   89.89408050
_cell_angle_gamma   89.99353797
_symmetry_Int_Tables_number   1
_chemical_formula_structural   La6Ce7Pr13Nd19Sm19(BiS2)64
_chemical_formula_sum   'La6 Ce7 Pr13 Nd19 Sm19 Bi64 S128'
_cell_volume   7029.62171272
_cell_formula_units_Z   1
loop_
 _symmetry_equiv_pos_site_id
 _symmetry_equiv_pos_as_xyz
  1  'x, y, z'
loop_
 _atom_type_symbol
 _atom_type_oxidation_number
  La3+  3.0
  Ce3+  3.0
  Pr3+  3.0
  Nd3+  3.0
  Sm3+  3.0
  Bi2+  2.0
  S2-  -2.0
loop_
 _atom_site_type_symbol
 _atom_site_label
 _atom_site_symmetry_multiplicity
 _atom_site_fract_x
 _atom_site_fract_y
 _atom_site_fract_z
 _atom_site_occupancy
  La3+  La0  1  0.12147179  0.25280818  0.89314657  1
  La3+  La1  1  0.87979411  0.50397727  0.38312713  1
  La3+  La2  1  0.75345321  0.41337399  0.56801672  1
  La3+  La3  1  0.00707981  0.37751899  0.10494274  1
  La3+  La4  1  0.25320602  0.87469697  0.08124942  1
  La3+  La5  1  0.38711001  0.28735955  0.42638874  1
  Ce3+  Ce6  1  0.50614990  0.36988525  0.04591945  1
  Ce3+  Ce7  1  0.25217191  0.65855606  0.56536787  1
  Ce3+  Ce8  1  0.26837134  0.62134289  0.06999326  1
  Ce3+  Ce9  1  0.12492960  0.53353809  0.44319517  1
  Ce3+  Ce10  1  0.88729501  0.49626168  0.94624816  1
  Ce3+  Ce11  1  0.63484395  0.50175421  0.93351551  1
  Ce3+  Ce12  1  0.51758463  0.62181405  0.06703884  1
  Pr3+  Pr13  1  0.75186868  0.87701374  0.07488636  1
  Pr3+  Pr14  1  0.38299906  0.74731860  0.94286607  1
  Pr3+  Pr15  1  0.38427502  0.24625110  0.89626378  1
  Pr3+  Pr16  1  0.25347385  0.41408073  0.57209319  1
  Pr3+  Pr17  1  0.62541664  0.03167315  0.43698497  1
  Pr3+  Pr18  1  0.50136386  0.16778876  0.56897169  1
  Pr3+  Pr19  1  0.50427023  0.88497489  0.07769243  1
  Pr3+  Pr20  1  0.13464331  -0.00056544  0.93521465  1
  Pr3+  Pr21  1  0.00973825  0.12732718  0.06434907  1
  Pr3+  Pr22  1  0.38100337  0.00208717  0.94173899  1
  Pr3+  Pr23  1  0.75128954  0.15775475  0.56944483  1
  Pr3+  Pr24  1  0.00748963  0.62829704  0.06992973  1
  Pr3+  Pr25  1  0.87942443  0.27152019  0.43499778  1
  Nd3+  Nd26  1  0.75432298  0.91085904  0.57517534  1
  Nd3+  Nd27  1  0.50306325  0.66435418  0.56677579  1
  Nd3+  Nd28  1  0.13313949  0.74865998  0.94103182  1
  Nd3+  Nd29  1  0.13278541  0.28387011  0.44018247  1
  Nd3+  Nd30  1  0.50240707  0.41780340  0.56421293  1
  Nd3+  Nd31  1  0.87787875  0.77757283  0.43550729  1
  Nd3+  Nd32  1  0.25791315  0.16302896  0.56204874  1
  Nd3+  Nd33  1  0.63165453  0.75000616  0.93738465  1
  Nd3+  Nd34  1  0.63073923  0.28819907  0.44150308  1
  Nd3+  Nd35  1  0.13091895  0.50193591  0.93909507  1
  Nd3+  Nd36  1  0.13058120  0.78542897  0.44459029  1
  Nd3+  Nd37  1  0.88470036  0.00003118  0.94464268  1
  Nd3+  Nd38  1  0.00278465  0.16414520  0.56655473  1
  Nd3+  Nd39  1  0.87570313  0.03088775  0.44012800  1
  Nd3+  Nd40  1  0.38017168  0.50058801  0.93158774  1
  Nd3+  Nd41  1  0.63598607  0.53977357  0.43272797  1
  Nd3+  Nd42  1  0.75496351  0.66192479  0.56749024  1
  Nd3+  Nd43  1  0.37820126  0.77947921  0.43272021  1
  Nd3+  Nd44  1  0.63563417  0.25632675  0.92211552  1
  Sm3+  Sm45  1  0.01081866  0.87456217  0.07105894  1
  Sm3+  Sm46  1  0.62935175  0.78221450  0.44259782  1
  Sm3+  Sm47  1  0.13329109  0.03372988  0.44644243  1
  Sm3+  Sm48  1  0.25500700  0.13415191  0.05022456  1
  Sm3+  Sm49  1  0.00001609  0.66068458  0.55997168  1
  Sm3+  Sm50  1  0.50448723  0.13681039  0.06005889  1
  Sm3+  Sm51  1  0.38071313  0.03653258  0.40830960  1
  Sm3+  Sm52  1  0.75642695  0.62105033  0.05697206  1
  Sm3+  Sm53  1  0.25581683  0.91100270  0.55855597  1
  Sm3+  Sm54  1  0.75581907  0.36586138  0.06956793  1
  Sm3+  Sm55  1  0.88232986  0.75219320  0.94704201  1
  Sm3+  Sm56  1  0.00336904  0.91070559  0.55772003  1
  Sm3+  Sm57  1  0.63036907  0.00256090  0.94721785  1
  Sm3+  Sm58  1  0.88727518  0.25227426  0.94498198  1
  Sm3+  Sm59  1  0.37843090  0.53580777  0.43619940  1
  Sm3+  Sm60  1  0.25497108  0.37209467  0.04553615  1
  Sm3+  Sm61  1  0.75811293  0.13022293  0.05200399  1
  Sm3+  Sm62  1  0.00013343  0.40976556  0.55663457  1
  Sm3+  Sm63  1  0.50086933  0.91242381  0.55676978  1
  Bi2+  Bi64  1  -0.03693518  0.13573290  0.25957672  1
  Bi2+  Bi65  1  -0.02683046  0.09822034  0.79555199  1
  Bi2+  Bi66  1  0.02658930  0.38548201  0.28773672  1
  Bi2+  Bi67  1  -0.00165281  0.38045135  0.79162323  1
  Bi2+  Bi68  1  0.00196562  0.64850482  0.29124684  1
  Bi2+  Bi69  1  -0.02695539  0.62263465  0.80287254  1
  Bi2+  Bi70  1  -0.07862267  0.89843742  0.29247749  1
  Bi2+  Bi71  1  0.08162374  0.86528125  0.81632917  1
  Bi2+  Bi72  1  0.26333747  0.07081440  0.28199379  1
  Bi2+  Bi73  1  0.24245298  0.01381475  0.78407146  1
  Bi2+  Bi74  1  0.27197963  0.31416939  0.29652466  1
  Bi2+  Bi75  1  0.25532399  0.38056395  0.77863579  1
  Bi2+  Bi76  1  0.26321411  0.59920578  0.29125279  1
  Bi2+  Bi77  1  0.23900155  0.62629210  0.79229430  1
  Bi2+  Bi78  1  0.24896516  0.79928189  0.29545070  1
  Bi2+  Bi79  1  0.26575442  0.85924000  0.85347119  1
  Bi2+  Bi80  1  0.56521096  0.10099308  0.25406850  1
  Bi2+  Bi81  1  0.51478631  0.06879024  0.79084416  1
  Bi2+  Bi82  1  0.47233401  0.39239375  0.28184569  1
  Bi2+  Bi83  1  0.52415546  0.36218426  0.78606670  1
  Bi2+  Bi84  1  0.53658786  0.58396514  0.28950264  1
  Bi2+  Bi85  1  0.50641286  0.62163874  0.79205839  1
  Bi2+  Bi86  1  0.52772971  0.88574107  0.30813234  1
  Bi2+  Bi87  1  0.44163215  0.81190879  0.80210912  1
  Bi2+  Bi88  1  0.74743180  0.11397674  0.30663890  1
  Bi2+  Bi89  1  0.76205918  0.18647541  0.78682634  1
  Bi2+  Bi90  1  0.70451079  0.31545143  0.31521411  1
  Bi2+  Bi91  1  0.75553017  0.38378630  0.77039994  1
  Bi2+  Bi92  1  0.73273386  0.72338506  0.28715122  1
  Bi2+  Bi93  1  0.72355468  0.60539561  0.74086107  1
  Bi2+  Bi94  1  0.73346051  0.91322873  0.33364834  1
  Bi2+  Bi95  1  0.72387990  0.76591847  0.81114923  1
  Bi2+  Bi96  1  0.09413363  -0.01737734  0.24902471  1
  Bi2+  Bi97  1  0.10000595  -0.05517045  0.71269633  1
  Bi2+  Bi98  1  0.15936644  0.22186796  0.19042829  1
  Bi2+  Bi99  1  0.12796085  0.22885420  0.68461861  1
  Bi2+  Bi100  1  0.15927612  0.55161856  0.19709152  1
  Bi2+  Bi101  1  0.10600112  0.54304971  0.71299398  1
  Bi2+  Bi102  1  0.10236861  0.78462810  0.21394655  1
  Bi2+  Bi103  1  0.11075425  0.74168514  0.72556951  1
  Bi2+  Bi104  1  0.41342600  -0.01902985  0.22737453  1
  Bi2+  Bi105  1  0.38760479  -0.06564945  0.71598650  1
  Bi2+  Bi106  1  0.38222840  0.19967581  0.18353229  1
  Bi2+  Bi107  1  0.38163096  0.21639451  0.70096510  1
  Bi2+  Bi108  1  0.34723207  0.48310532  0.21076513  1
  Bi2+  Bi109  1  0.37811208  0.55654149  0.71347244  1
  Bi2+  Bi110  1  0.36619300  0.72903027  0.21086946  1
  Bi2+  Bi111  1  0.31769820  0.74734485  0.70706497  1
  Bi2+  Bi112  1  0.70578017  -0.01933449  0.20988069  1
  Bi2+  Bi113  1  0.64905504  -0.08281837  0.75278121  1
  Bi2+  Bi114  1  0.62281239  0.29109713  0.20819984  1
  Bi2+  Bi115  1  0.64876834  0.16534202  0.69810258  1
  Bi2+  Bi116  1  0.64095635  0.48862410  0.21192109  1
  Bi2+  Bi117  1  0.60469369  0.43063524  0.69555765  1
  Bi2+  Bi118  1  0.56315012  0.75335329  0.22822563  1
  Bi2+  Bi119  1  0.58398211  0.74294416  0.70865700  1
  Bi2+  Bi120  1  0.89637766  -0.01023928  0.18777495  1
  Bi2+  Bi121  1  0.82712063  -0.00213787  0.74272493  1
  Bi2+  Bi122  1  0.82535323  0.25633571  0.21889319  1
  Bi2+  Bi123  1  0.88540577  0.24914837  0.70059250  1
  Bi2+  Bi124  1  0.82768136  0.55251524  0.18984645  1
  Bi2+  Bi125  1  0.88611125  0.51020565  0.70848184  1
  Bi2+  Bi126  1  0.84302892  0.79699108  0.20204458  1
  Bi2+  Bi127  1  0.85891237  0.80571202  0.71837227  1
  S2-  S128  1  0.00396946  0.20783056  0.15448515  1
  S2-  S129  1  -0.01054469  0.12392541  0.66307767  1
  S2-  S130  1  0.10356336  0.38472176  0.19285354  1
  S2-  S131  1  0.00671275  0.34410563  0.64827301  1
  S2-  S132  1  -0.00451104  0.54206883  0.15715433  1
  S2-  S133  1  -0.01178425  0.63019460  0.65804243  1
  S2-  S134  1  -0.01742877  0.75564251  0.14432015  1
  S2-  S135  1  -0.02773423  0.88345890  0.65231444  1
  S2-  S136  1  0.25592729  0.09691400  0.14821391  1
  S2-  S137  1  0.26056006  0.12454375  0.66042532  1
  S2-  S138  1  0.28557198  0.30942773  0.13953992  1
  S2-  S139  1  0.26606404  0.33147222  0.66370503  1
  S2-  S140  1  0.22115627  0.71162175  0.14972386  1
  S2-  S141  1  0.24405579  0.54968473  0.64298652  1
  S2-  S142  1  0.12159750  0.91278219  0.14849853  1
  S2-  S143  1  0.24618571  0.89281800  0.65597150  1
  S2-  S144  1  0.50122144  0.06186169  0.15088169  1
  S2-  S145  1  0.50550080  0.10179218  0.66488790  1
  S2-  S146  1  0.50687788  0.27701693  0.12820759  1
  S2-  S147  1  0.50115467  0.31374680  0.64662330  1
  S2-  S148  1  0.40708421  0.59794428  0.14155825  1
  S2-  S149  1  0.50181937  0.54415348  0.64095746  1
  S2-  S150  1  0.38074109  0.87330037  0.15148803  1
  S2-  S151  1  0.50121840  0.85108138  0.64841444  1
  S2-  S152  1  0.73455274  0.21472473  0.13595880  1
  S2-  S153  1  0.74636562  0.03754731  0.64718840  1
  S2-  S154  1  0.84722529  0.39137909  0.15479990  1
  S2-  S155  1  0.75160878  0.28530350  0.64285107  1
  S2-  S156  1  0.66158438  0.61019062  0.13959714  1
  S2-  S157  1  0.74785954  0.54171994  0.64454484  1
  S2-  S158  1  0.62980604  0.86043534  0.14863418  1
  S2-  S159  1  0.75663160  0.78192613  0.64532518  1
  S2-  S160  1  0.15343558  0.01514463  0.35001270  1
  S2-  S161  1  0.12230975  0.08880826  0.84777224  1
  S2-  S162  1  0.12898120  0.27140472  0.33979422  1
  S2-  S163  1  0.11908288  0.26635139  0.77795999  1
  S2-  S164  1  0.06115310  0.51898557  0.35148748  1
  S2-  S165  1  0.13175306  0.41784456  0.84786228  1
  S2-  S166  1  0.10701116  0.76064819  0.34710709  1
  S2-  S167  1  0.11938304  0.63121918  0.86538994  1
  S2-  S168  1  0.36782039  -0.10912336  0.35316170  1
  S2-  S169  1  0.38292609  0.06566721  0.84770345  1
  S2-  S170  1  0.34784241  0.17231897  0.34697023  1
  S2-  S171  1  0.31615353  0.23631070  0.79754614  1
  S2-  S172  1  0.34920090  0.42149148  0.36092345  1
  S2-  S173  1  0.38668780  0.40700256  0.84362969  1
  S2-  S174  1  0.37852338  0.65237687  0.35978004  1
  S2-  S175  1  0.37456002  0.63248042  0.86299987  1
  S2-  S176  1  0.52727617  0.04449453  0.35305882  1
  S2-  S177  1  0.61637172  -0.02253348  0.85087390  1
  S2-  S178  1  0.54063008  0.29123921  0.35615478  1
  S2-  S179  1  0.53599058  0.22009370  0.84093323  1
  S2-  S180  1  0.71272596  0.47386876  0.34884141  1
  S2-  S181  1  0.65450158  0.39800188  0.85354735  1
  S2-  S182  1  0.62210566  0.67657423  0.36259751  1
  S2-  S183  1  0.63328283  0.62995211  0.86210116  1
  S2-  S184  1  0.90098444  0.12264750  0.35610170  1
  S2-  S185  1  0.88605141  -0.01111307  0.84581833  1
  S2-  S186  1  0.90465726  0.34025854  0.34375304  1
  S2-  S187  1  0.95010698  0.24651276  0.85285441  1
  S2-  S188  1  0.89945370  0.51036734  0.27314565  1
  S2-  S189  1  0.89022984  0.49422006  0.84799087  1
  S2-  S190  1  0.87343471  0.67744804  0.35242014  1
  S2-  S191  1  0.89041227  0.74179868  0.84856550  1
  S2-  S192  1  0.01017550  0.15477252  0.45930915  1
  S2-  S193  1  0.00748967  0.12594837  0.95740301  1
  S2-  S194  1  0.00206980  0.40464602  0.45379605  1
  S2-  S195  1  0.01145401  0.37172754  0.95111603  1
  S2-  S196  1  0.00587107  0.66195938  0.45713362  1
  S2-  S197  1  0.00252698  0.62764183  0.96331560  1
  S2-  S198  1  0.00380003  0.90978547  0.45144894  1
  S2-  S199  1  0.00691176  0.87448191  0.96095207  1
  S2-  S200  1  0.25624531  0.15446671  0.45573158  1
  S2-  S201  1  0.25318980  0.13399466  0.94530568  1
  S2-  S202  1  0.24944231  0.41169900  0.46241719  1
  S2-  S203  1  0.25459322  0.37075014  0.94387373  1
  S2-  S204  1  0.24954150  0.65863049  0.45906510  1
  S2-  S205  1  0.25616209  0.62481187  0.96480722  1
  S2-  S206  1  0.25707098  0.91220843  0.45591560  1
  S2-  S207  1  0.25727498  0.87448333  0.96706588  1
  S2-  S208  1  0.50037245  0.15526173  0.45934726  1
  S2-  S209  1  0.51028869  0.12618125  0.95300465  1
  S2-  S210  1  0.50770888  0.41897815  0.45676391  1
  S2-  S211  1  0.50588318  0.37343303  0.94410524  1
  S2-  S212  1  0.50269954  0.66127633  0.46260202  1
  S2-  S213  1  0.50960699  0.62308894  0.96195169  1
  S2-  S214  1  0.50091749  0.90548322  0.45432834  1
  S2-  S215  1  0.50878908  0.87646415  0.95798218  1
  S2-  S216  1  0.74929452  0.15525037  0.45805780  1
  S2-  S217  1  0.75911149  0.12622767  0.94735547  1
  S2-  S218  1  0.76164587  0.40664021  0.45730123  1
  S2-  S219  1  0.76259185  0.37320393  0.95849835  1
  S2-  S220  1  0.75400312  0.66366945  0.46174185  1
  S2-  S221  1  0.76267183  0.62599809  0.95535665  1
  S2-  S222  1  0.75368562  0.90603919  0.46214606  1
  S2-  S223  1  0.75568289  0.87685403  0.95890234  1
  S2-  S224  1  0.13244797  0.00387792  0.04197925  1
  S2-  S225  1  0.12911788  0.03354521  0.55171109  1
  S2-  S226  1  0.12869388  0.25653346  0.05251701  1
  S2-  S227  1  0.12985725  0.28550746  0.54668213  1
  S2-  S228  1  0.13297598  0.49691489  0.05113799  1
  S2-  S229  1  0.12117305  0.53496697  0.54739384  1
  S2-  S230  1  0.13079769  0.75209080  0.04485048  1
  S2-  S231  1  0.12747236  0.78633169  0.55166361  1
  S2-  S232  1  0.38047339  0.00823173  0.04659594  1
  S2-  S233  1  0.37800186  0.03335736  0.55510719  1
  S2-  S234  1  0.37932866  0.24976334  0.02903705  1
  S2-  S235  1  0.37669726  0.29009603  0.54185020  1
  S2-  S236  1  0.38382652  0.49288967  0.03809812  1
  S2-  S237  1  0.37607238  0.53941122  0.54097942  1
  S2-  S238  1  0.39042689  0.75089223  0.04848750  1
  S2-  S239  1  0.37612773  0.78475202  0.54521695  1
  S2-  S240  1  0.63390813  0.00866181  0.04998080  1
  S2-  S241  1  0.62421911  0.03217012  0.54508411  1
  S2-  S242  1  0.63540356  0.24964278  0.02936290  1
  S2-  S243  1  0.62688064  0.28745569  0.54434853  1
  S2-  S244  1  0.63669100  0.49040192  0.04080995  1
  S2-  S245  1  0.62875262  0.54042598  0.54013719  1
  S2-  S246  1  0.63521298  0.75173014  0.04173844  1
  S2-  S247  1  0.62633542  0.78798874  0.54568245  1
  S2-  S248  1  0.88029624  0.00012414  0.05069831  1
  S2-  S249  1  0.88129974  0.03394331  0.54592299  1
  S2-  S250  1  0.88516590  0.25333464  0.04687147  1
  S2-  S251  1  0.87957329  0.28196880  0.54249658  1
  S2-  S252  1  0.87941420  0.49638616  0.04993361  1
  S2-  S253  1  0.88370856  0.53575907  0.55056299  1
  S2-  S254  1  0.87321973  0.75272101  0.04883768  1
  S2-  S255  1  0.88172492  0.78773182  0.54275520  1
