# generated using pymatgen
data_La6Ce7Pr13Nd19Sm19(BiS2)64
_symmetry_space_group_name_H-M   'P 1'
_cell_length_a   16.02548196
_cell_length_b   16.04988650
_cell_length_c   27.42933317
_cell_angle_alpha   90.16804783
_cell_angle_beta   90.00305412
_cell_angle_gamma   90.00987537
_symmetry_Int_Tables_number   1
_chemical_formula_structural   La6Ce7Pr13Nd19Sm19(BiS2)64
_chemical_formula_sum   'La6 Ce7 Pr13 Nd19 Sm19 Bi64 S128'
_cell_volume   7054.99060296
_cell_formula_units_Z   1
loop_
 _symmetry_equiv_pos_site_id
 _symmetry_equiv_pos_as_xyz
  1  'x, y, z'
loop_
 _atom_type_symbol
 _atom_type_oxidation_number
  La3+  3.0
  Ce3+  3.0
  Pr3+  3.0
  Nd3+  3.0
  Sm3+  3.0
  Bi2+  2.0
  S2-  -2.0
loop_
 _atom_site_type_symbol
 _atom_site_label
 _atom_site_symmetry_multiplicity
 _atom_site_fract_x
 _atom_site_fract_y
 _atom_site_fract_z
 _atom_site_occupancy
  La3+  La0  1  0.12225654  0.74652660  0.43386983  1
  La3+  La1  1  0.35852883  0.00912798  0.38235052  1
  La3+  La2  1  0.12763132  0.24385813  0.42662779  1
  La3+  La3  1  0.50397190  0.12436740  0.10632796  1
  La3+  La4  1  0.75755262  0.10692445  0.07686295  1
  La3+  La5  1  0.73698826  0.12181172  0.60649867  1
  Ce3+  Ce6  1  0.12566628  0.48884274  0.44343946  1
  Ce3+  Ce7  1  0.75524659  0.86812079  0.04931382  1
  Ce3+  Ce8  1  0.38393583  -0.00685769  0.94612751  1
  Ce3+  Ce9  1  0.25088752  0.11685162  0.07123445  1
  Ce3+  Ce10  1  0.50419247  0.86520029  0.55483577  1
  Ce3+  Ce11  1  0.75863859  0.61784718  0.06677505  1
  Ce3+  Ce12  1  0.37619643  0.49278828  0.42797110  1
  Pr3+  Pr13  1  0.62978726  0.73413234  0.42946375  1
  Pr3+  Pr14  1  0.50823068  0.87052405  0.07109007  1
  Pr3+  Pr15  1  -0.00303048  0.61343946  0.56456755  1
  Pr3+  Pr16  1  0.25884000  0.36532810  0.05980248  1
  Pr3+  Pr17  1  0.00225096  0.86689633  0.05713773  1
  Pr3+  Pr18  1  0.00627233  0.12505997  0.59353642  1
  Pr3+  Pr19  1  -0.00119791  0.36162240  0.56075677  1
  Pr3+  Pr20  1  0.37248794  0.74143355  0.42760885  1
  Pr3+  Pr21  1  0.62600074  0.73788335  0.93397009  1
  Pr3+  Pr22  1  0.63114998  0.48971955  0.94449749  1
  Pr3+  Pr23  1  0.74129302  0.61734607  0.57651924  1
  Pr3+  Pr24  1  0.25112457  0.85823678  0.56769365  1
  Pr3+  Pr25  1  0.25652535  0.86718861  0.05940897  1
  Nd3+  Nd26  1  0.62671192  0.48914805  0.43740477  1
  Nd3+  Nd27  1  0.75489287  0.86768899  0.56978267  1
  Nd3+  Nd28  1  0.50315991  0.61952747  0.07931232  1
  Nd3+  Nd29  1  0.00355934  0.36602283  0.05352835  1
  Nd3+  Nd30  1  0.62187458  -0.01509236  0.43582146  1
  Nd3+  Nd31  1  0.13269325  0.73729258  0.94082195  1
  Nd3+  Nd32  1  0.63280100  -0.00770254  0.93536970  1
  Nd3+  Nd33  1  0.88212971  0.73470461  0.92984318  1
  Nd3+  Nd34  1  0.00522226  0.86166625  0.57609529  1
  Nd3+  Nd35  1  0.00583633  0.11487735  0.06545439  1
  Nd3+  Nd36  1  0.87638024  0.74214155  0.44207493  1
  Nd3+  Nd37  1  0.25206442  0.36408016  0.55865168  1
  Nd3+  Nd38  1  0.87609122  0.23401027  0.43615326  1
  Nd3+  Nd39  1  0.38445491  0.49120690  0.94159345  1
  Nd3+  Nd40  1  0.75559554  0.36457951  0.05505430  1
  Nd3+  Nd41  1  0.88390205  0.23571723  0.93574950  1
  Nd3+  Nd42  1  0.87350117  0.48881328  0.44387572  1
  Nd3+  Nd43  1  0.89017471  -0.01618060  0.91975473  1
  Nd3+  Nd44  1  0.25423263  0.61740895  0.07019097  1
  Sm3+  Sm45  1  0.12503220  -0.01018644  0.44763375  1
  Sm3+  Sm46  1  0.13331014  0.49138105  0.94465482  1
  Sm3+  Sm47  1  0.38293251  0.74114523  0.94590951  1
  Sm3+  Sm48  1  0.50219442  0.36324949  0.54984765  1
  Sm3+  Sm49  1  0.38237518  0.23809391  0.94719118  1
  Sm3+  Sm50  1  0.87588441  -0.00550235  0.45786066  1
  Sm3+  Sm51  1  0.00453562  0.61707157  0.06754411  1
  Sm3+  Sm52  1  0.13212153  0.24023779  0.94122436  1
  Sm3+  Sm53  1  0.37648490  0.23741407  0.44578375  1
  Sm3+  Sm54  1  0.63341187  0.23846224  0.94517172  1
  Sm3+  Sm55  1  0.50767190  0.36420500  0.06237874  1
  Sm3+  Sm56  1  0.50034485  0.11009197  0.55548283  1
  Sm3+  Sm57  1  0.50243626  0.61472622  0.55396044  1
  Sm3+  Sm58  1  0.62401588  0.23283559  0.43840833  1
  Sm3+  Sm59  1  0.25416687  0.61503980  0.55758678  1
  Sm3+  Sm60  1  0.74966814  0.35793931  0.55333866  1
  Sm3+  Sm61  1  0.13274175  -0.00906200  0.93826047  1
  Sm3+  Sm62  1  0.24906607  0.11354466  0.55738948  1
  Sm3+  Sm63  1  0.88276257  0.49485502  0.93641232  1
  Bi2+  Bi64  1  -0.05391793  0.11027540  0.28118068  1
  Bi2+  Bi65  1  -0.00435615  0.15069158  0.79265087  1
  Bi2+  Bi66  1  -0.03130317  0.36872419  0.30612855  1
  Bi2+  Bi67  1  -0.00853217  0.42831330  0.78342999  1
  Bi2+  Bi68  1  -0.01620135  0.64303848  0.29051907  1
  Bi2+  Bi69  1  0.02349015  0.62048492  0.79536330  1
  Bi2+  Bi70  1  0.02512171  0.91082975  0.30854427  1
  Bi2+  Bi71  1  0.02620092  0.87620388  0.79508530  1
  Bi2+  Bi72  1  0.21142455  0.22511032  0.29078255  1
  Bi2+  Bi73  1  0.24933961  0.09705015  0.79708683  1
  Bi2+  Bi74  1  0.28098119  0.41356887  0.31317873  1
  Bi2+  Bi75  1  0.24286585  0.30521547  0.78925680  1
  Bi2+  Bi76  1  0.27387991  0.60002703  0.27590846  1
  Bi2+  Bi77  1  0.26291140  0.58719070  0.77261575  1
  Bi2+  Bi78  1  0.22182506  0.84503908  0.29005851  1
  Bi2+  Bi79  1  0.25595657  0.86890385  0.78448496  1
  Bi2+  Bi80  1  0.49736071  0.14497357  0.28911151  1
  Bi2+  Bi81  1  0.49917561  0.19228710  0.78534136  1
  Bi2+  Bi82  1  0.47624670  0.39742426  0.30060032  1
  Bi2+  Bi83  1  0.43966040  0.38403502  0.77088842  1
  Bi2+  Bi84  1  0.51868184  0.58820906  0.28185718  1
  Bi2+  Bi85  1  0.48765999  0.57903815  0.78372600  1
  Bi2+  Bi86  1  0.49806777  0.88388313  0.28234612  1
  Bi2+  Bi87  1  0.46840781  0.86215517  0.80063316  1
  Bi2+  Bi88  1  0.74952471  0.16858124  0.28051523  1
  Bi2+  Bi89  1  0.72494891  0.15810065  0.80910288  1
  Bi2+  Bi90  1  0.73326751  0.49250910  0.26971127  1
  Bi2+  Bi91  1  0.71234346  0.40489585  0.79448324  1
  Bi2+  Bi92  1  0.77160716  0.70292285  0.31933486  1
  Bi2+  Bi93  1  0.76482228  0.59916273  0.78112615  1
  Bi2+  Bi94  1  0.78411163  0.89420017  0.29247726  1
  Bi2+  Bi95  1  0.72769241  0.87274699  0.80444543  1
  Bi2+  Bi96  1  0.09798168  0.02816451  0.22492127  1
  Bi2+  Bi97  1  0.14271761  0.00634739  0.71658463  1
  Bi2+  Bi98  1  0.11204268  0.30248664  0.20856648  1
  Bi2+  Bi99  1  0.13558123  0.28053483  0.69803224  1
  Bi2+  Bi100  1  0.10377035  0.52879521  0.22787377  1
  Bi2+  Bi101  1  0.12423587  0.49728123  0.71020458  1
  Bi2+  Bi102  1  0.12159881  0.75057007  0.21055197  1
  Bi2+  Bi103  1  0.15054280  0.74894692  0.70692731  1
  Bi2+  Bi104  1  0.34430848  -0.02930298  0.18614561  1
  Bi2+  Bi105  1  0.35115436  -0.00218781  0.71458974  1
  Bi2+  Bi106  1  0.34183261  0.30564611  0.21835766  1
  Bi2+  Bi107  1  0.34838525  0.19668791  0.70984334  1
  Bi2+  Bi108  1  0.47627945  0.47183895  0.18726892  1
  Bi2+  Bi109  1  0.38308283  0.51444450  0.69014278  1
  Bi2+  Bi110  1  0.39120658  0.72134963  0.21096106  1
  Bi2+  Bi111  1  0.37606375  0.72691212  0.72330842  1
  Bi2+  Bi112  1  0.68283983  0.01372461  0.22176134  1
  Bi2+  Bi113  1  0.59725295  0.00470810  0.70915355  1
  Bi2+  Bi114  1  0.62372050  0.34242879  0.22702685  1
  Bi2+  Bi115  1  0.59182844  0.29168302  0.70121384  1
  Bi2+  Bi116  1  0.64680884  0.58114290  0.18273053  1
  Bi2+  Bi117  1  0.67605279  0.49453929  0.69560762  1
  Bi2+  Bi118  1  0.66546644  0.76450181  0.22092779  1
  Bi2+  Bi119  1  0.61309716  0.74344325  0.70507235  1
  Bi2+  Bi120  1  0.90742742  -0.02329495  0.19548983  1
  Bi2+  Bi121  1  0.85058619  -0.01829817  0.72503474  1
  Bi2+  Bi122  1  0.85579548  0.26065251  0.20287290  1
  Bi2+  Bi123  1  0.85592601  0.35096815  0.71626177  1
  Bi2+  Bi124  1  0.90434858  0.50065547  0.21300676  1
  Bi2+  Bi125  1  0.86967451  0.53946198  0.68052575  1
  Bi2+  Bi126  1  0.86049911  0.74086258  0.21814973  1
  Bi2+  Bi127  1  0.88321585  0.73196630  0.71285248  1
  S2-  S128  1  -0.10670575  0.12690803  0.14244524  1
  S2-  S129  1  -0.04194465  0.08831647  0.69322929  1
  S2-  S130  1  -0.01802585  0.36061208  0.15162804  1
  S2-  S131  1  -0.00987290  0.28121802  0.64845026  1
  S2-  S132  1  0.12388549  0.62017900  0.14097907  1
  S2-  S133  1  0.02237094  0.69623642  0.65167012  1
  S2-  S134  1  0.01974979  0.85025090  0.15669349  1
  S2-  S135  1  -0.08744671  0.87436768  0.66137512  1
  S2-  S136  1  0.12540330  0.11335428  0.14189954  1
  S2-  S137  1  0.16528101  0.13374059  0.64345619  1
  S2-  S138  1  0.23478400  0.38953375  0.15797307  1
  S2-  S139  1  0.24723452  0.40747815  0.65471004  1
  S2-  S140  1  0.36478185  0.59681297  0.14629553  1
  S2-  S141  1  0.27422488  0.71769182  0.63684999  1
  S2-  S142  1  0.26532723  0.81807297  0.15599014  1
  S2-  S143  1  0.13605757  0.88391405  0.64554440  1
  S2-  S144  1  0.34427130  0.12735526  0.15610526  1
  S2-  S145  1  0.56424576  0.12795515  0.64612167  1
  S2-  S146  1  0.50296216  0.29458681  0.15233019  1
  S2-  S147  1  0.48885626  0.38389886  0.64602454  1
  S2-  S148  1  0.51841493  0.75184294  0.14896362  1
  S2-  S149  1  0.58593574  0.61938869  0.64058333  1
  S2-  S150  1  0.50409443  0.96968689  0.15665894  1
  S2-  S151  1  0.52943156  0.86481366  0.65378389  1
  S2-  S152  1  0.65532161  0.13346794  0.15933841  1
  S2-  S153  1  0.73630318  0.11907641  0.71727017  1
  S2-  S154  1  0.74721608  0.35724741  0.15367578  1
  S2-  S155  1  0.74516495  0.29052024  0.64292097  1
  S2-  S156  1  0.88192790  0.61949991  0.13939941  1
  S2-  S157  1  0.74488638  0.74763530  0.64781972  1
  S2-  S158  1  0.76419197  0.93792811  0.13808085  1
  S2-  S159  1  0.72234619  0.96262120  0.65235867  1
  S2-  S160  1  0.18223966  -0.01921261  0.35431453  1
  S2-  S161  1  0.03796805  0.00739026  0.85458840  1
  S2-  S162  1  0.05864236  0.19668496  0.33791053  1
  S2-  S163  1  0.09914963  0.23903414  0.84465033  1
  S2-  S164  1  0.11847984  0.40265004  0.35972591  1
  S2-  S165  1  0.11250562  0.49706641  0.84878864  1
  S2-  S166  1  0.19875634  0.70948521  0.34465500  1
  S2-  S167  1  0.11342658  0.74233589  0.84291297  1
  S2-  S168  1  0.36964584  0.02156357  0.27476186  1
  S2-  S169  1  0.35593617  -0.02362056  0.85038724  1
  S2-  S170  1  0.36726164  0.18455793  0.35302946  1
  S2-  S171  1  0.36064903  0.22146184  0.85080057  1
  S2-  S172  1  0.39398183  0.61104006  0.35462570  1
  S2-  S173  1  0.36356953  0.49496214  0.84402647  1
  S2-  S174  1  0.37047408  0.84415128  0.34502040  1
  S2-  S175  1  0.43564339  0.73225683  0.85371645  1
  S2-  S176  1  0.53642076  0.01102557  0.34880162  1
  S2-  S177  1  0.59901468  -0.02600216  0.83634634  1
  S2-  S178  1  0.61051070  0.22708589  0.34037521  1
  S2-  S179  1  0.61391134  0.27896860  0.85032174  1
  S2-  S180  1  0.65045374  0.58710225  0.35759396  1
  S2-  S181  1  0.61380622  0.52326923  0.84770061  1
  S2-  S182  1  0.59387577  0.79795904  0.33518020  1
  S2-  S183  1  0.66064963  0.73872428  0.83422650  1
  S2-  S184  1  0.89133978  -0.01565775  0.35789928  1
  S2-  S185  1  0.81175790  0.02685563  0.83293395  1
  S2-  S186  1  0.84315386  0.28727347  0.34136404  1
  S2-  S187  1  0.87747561  0.23641803  0.83605555  1
  S2-  S188  1  0.90598940  0.50843268  0.34780820  1
  S2-  S189  1  0.87895589  0.60360804  0.86010431  1
  S2-  S190  1  0.98713369  0.76480866  0.36466016  1
  S2-  S191  1  0.89187887  0.83709325  0.84776332  1
  S2-  S192  1  0.00226027  0.11388080  0.45258104  1
  S2-  S193  1  0.01034310  0.11703478  0.95690119  1
  S2-  S194  1  -0.00394219  0.36302048  0.45623121  1
  S2-  S195  1  0.00660020  0.36816759  0.94802215  1
  S2-  S196  1  -0.00035200  0.61135912  0.45787394  1
  S2-  S197  1  0.00985013  0.61280595  0.96044749  1
  S2-  S198  1  -0.00184254  0.87179298  0.46869876  1
  S2-  S199  1  0.01179486  0.86287370  0.95241252  1
  S2-  S200  1  0.25213514  0.11360647  0.45416473  1
  S2-  S201  1  0.25314639  0.11668271  0.95655961  1
  S2-  S202  1  0.25691212  0.36481295  0.45404659  1
  S2-  S203  1  0.25672120  0.36508673  0.95184384  1
  S2-  S204  1  0.24989847  0.61191216  0.45506935  1
  S2-  S205  1  0.25876832  0.61482813  0.95630529  1
  S2-  S206  1  0.25014627  0.86732565  0.45994298  1
  S2-  S207  1  0.25606720  0.86447255  0.95190818  1
  S2-  S208  1  0.49675955  0.11318653  0.45402947  1
  S2-  S209  1  0.50841858  0.11885288  0.94431489  1
  S2-  S210  1  0.50168916  0.36227412  0.44571088  1
  S2-  S211  1  0.50575166  0.36247096  0.95609715  1
  S2-  S212  1  0.50335044  0.61281945  0.45349322  1
  S2-  S213  1  0.50463620  0.61538365  0.96142777  1
  S2-  S214  1  0.50372396  0.85920650  0.45170577  1
  S2-  S215  1  0.50643131  0.86573695  0.95840034  1
  S2-  S216  1  0.74816970  0.11225462  0.44106469  1
  S2-  S217  1  0.75737167  0.11580287  0.95006662  1
  S2-  S218  1  0.74721026  0.36072887  0.44929373  1
  S2-  S219  1  0.76076380  0.36636911  0.94899675  1
  S2-  S220  1  0.75466198  0.61417887  0.46445511  1
  S2-  S221  1  0.75409348  0.61527127  0.95828687  1
  S2-  S222  1  0.75271415  0.86667622  0.45461745  1
  S2-  S223  1  0.75541264  0.86367137  0.94582283  1
  S2-  S224  1  0.13078018  -0.01148764  0.04131438  1
  S2-  S225  1  0.12112863  -0.00274525  0.54896093  1
  S2-  S226  1  0.12991435  0.24495988  0.04444333  1
  S2-  S227  1  0.12784789  0.24168005  0.53897582  1
  S2-  S228  1  0.13021402  0.48940008  0.04724397  1
  S2-  S229  1  0.12711594  0.49038000  0.55009249  1
  S2-  S230  1  0.13022446  0.74204593  0.04472106  1
  S2-  S231  1  0.12602381  0.73381833  0.54166733  1
  S2-  S232  1  0.38089395  -0.00493299  0.04937696  1
  S2-  S233  1  0.37379325  -0.00883988  0.56173115  1
  S2-  S234  1  0.38437054  0.23990052  0.04920984  1
  S2-  S235  1  0.37693024  0.23780523  0.55068857  1
  S2-  S236  1  0.38473273  0.48903291  0.04603831  1
  S2-  S237  1  0.37848500  0.49033564  0.53931031  1
  S2-  S238  1  0.38088681  0.74163929  0.04763984  1
  S2-  S239  1  0.38225176  0.73678846  0.53799853  1
  S2-  S240  1  0.62831954  -0.00583263  0.04200049  1
  S2-  S241  1  0.62865051  -0.00632362  0.54168087  1
  S2-  S242  1  0.63056281  0.23926487  0.04735866  1
  S2-  S243  1  0.62382526  0.23675704  0.54133831  1
  S2-  S244  1  0.62906347  0.49080380  0.05103825  1
  S2-  S245  1  0.62614471  0.48457117  0.54207115  1
  S2-  S246  1  0.63329633  0.74064952  0.04427425  1
  S2-  S247  1  0.62581423  0.74127333  0.53854559  1
  S2-  S248  1  0.88281828  -0.00920872  0.03293483  1
  S2-  S249  1  0.87635062  0.00297868  0.55979794  1
  S2-  S250  1  0.87947671  0.24123291  0.04098869  1
  S2-  S251  1  0.87251219  0.23353763  0.54362464  1
  S2-  S252  1  0.88026268  0.49090488  0.04019210  1
  S2-  S253  1  0.86956615  0.48573710  0.54978449  1
  S2-  S254  1  0.88067695  0.74135149  0.03843692  1
  S2-  S255  1  0.87561572  0.73986540  0.54725038  1
