# generated using pymatgen
data_La6Ce7Pr13Nd19Sm19(BiS2)64
_symmetry_space_group_name_H-M   'P 1'
_cell_length_a   16.06989854
_cell_length_b   16.07204808
_cell_length_c   27.38909325
_cell_angle_alpha   89.98521606
_cell_angle_beta   90.25104091
_cell_angle_gamma   89.97464699
_symmetry_Int_Tables_number   1
_chemical_formula_structural   La6Ce7Pr13Nd19Sm19(BiS2)64
_chemical_formula_sum   'La6 Ce7 Pr13 Nd19 Sm19 Bi64 S128'
_cell_volume   7073.88159797
_cell_formula_units_Z   1
loop_
 _symmetry_equiv_pos_site_id
 _symmetry_equiv_pos_as_xyz
  1  'x, y, z'
loop_
 _atom_type_symbol
 _atom_type_oxidation_number
  La3+  3.0
  Ce3+  3.0
  Pr3+  3.0
  Nd3+  3.0
  Sm3+  3.0
  Bi2+  2.0
  S2-  -2.0
loop_
 _atom_site_type_symbol
 _atom_site_label
 _atom_site_symmetry_multiplicity
 _atom_site_fract_x
 _atom_site_fract_y
 _atom_site_fract_z
 _atom_site_occupancy
  La3+  La0  1  0.74239991  0.14172781  0.58987050  1
  La3+  La1  1  0.24494615  0.63538121  0.06833109  1
  La3+  La2  1  0.24070482  0.38139046  0.11342498  1
  La3+  La3  1  0.00290856  0.37846895  0.57768413  1
  La3+  La4  1  0.12091064  0.00981665  0.42188686  1
  La3+  La5  1  0.64107949  -0.01099480  0.38512774  1
  Ce3+  Ce6  1  0.49772532  0.88840476  0.56028408  1
  Ce3+  Ce7  1  0.62048433  0.25611042  0.43712757  1
  Ce3+  Ce8  1  0.62420843  0.50531699  0.43181902  1
  Ce3+  Ce9  1  0.11541017  0.75700572  0.93612835  1
  Ce3+  Ce10  1  0.86377415  0.01471388  0.45044395  1
  Ce3+  Ce11  1  0.61625619  0.76206596  0.92157784  1
  Ce3+  Ce12  1  0.12151978  0.26160024  0.93886137  1
  Pr3+  Pr13  1  0.74463832  0.38198812  0.06733688  1
  Pr3+  Pr14  1  0.86653258  0.26151981  0.44369207  1
  Pr3+  Pr15  1  0.74924799  0.63030879  0.57314184  1
  Pr3+  Pr16  1  0.49714635  0.13797716  0.56605043  1
  Pr3+  Pr17  1  0.61663518  0.25266827  0.92255167  1
  Pr3+  Pr18  1  0.10931536  0.52238721  0.42126313  1
  Pr3+  Pr19  1  -0.00225671  0.88947761  0.06284902  1
  Pr3+  Pr20  1  0.49996629  0.88379809  0.05608165  1
  Pr3+  Pr21  1  0.74532445  0.64108913  0.06704006  1
  Pr3+  Pr22  1  0.12313655  0.00982275  0.93150419  1
  Pr3+  Pr23  1  0.86755628  0.76228706  0.44939309  1
  Pr3+  Pr24  1  0.50089565  0.38093275  0.06747780  1
  Pr3+  Pr25  1  0.37328551  0.01328277  0.43403659  1
  Nd3+  Nd26  1  0.00779742  0.63242679  0.57287440  1
  Nd3+  Nd27  1  0.36623473  0.51329030  0.43688126  1
  Nd3+  Nd28  1  0.11898645  0.50552870  0.94078842  1
  Nd3+  Nd29  1  0.36391833  0.75802187  0.93024507  1
  Nd3+  Nd30  1  0.49447573  0.63842731  0.05795201  1
  Nd3+  Nd31  1  0.74634049  0.13087761  0.06165594  1
  Nd3+  Nd32  1  0.37174301  0.76348679  0.43812950  1
  Nd3+  Nd33  1  0.74739006  0.88388869  0.06000962  1
  Nd3+  Nd34  1  0.86542871  0.26903546  0.90767606  1
  Nd3+  Nd35  1  0.24641493  0.89060504  0.56123110  1
  Nd3+  Nd36  1  0.37042181  0.50784176  0.94741708  1
  Nd3+  Nd37  1  0.36810500  0.26187457  0.44281446  1
  Nd3+  Nd38  1  0.74600866  0.88719343  0.56823886  1
  Nd3+  Nd39  1  0.49550694  0.38839517  0.55800350  1
  Nd3+  Nd40  1  0.49453885  0.63528328  0.55153706  1
  Nd3+  Nd41  1  0.11467061  0.26568789  0.43250615  1
  Nd3+  Nd42  1  -0.00267391  0.88819816  0.56135264  1
  Nd3+  Nd43  1  -0.00381885  0.63434169  0.06578824  1
  Nd3+  Nd44  1  0.62277259  0.50870879  0.94650605  1
  Sm3+  Sm45  1  0.87252647  0.75659239  0.93740463  1
  Sm3+  Sm46  1  0.74519415  0.38921557  0.56725921  1
  Sm3+  Sm47  1  0.24739244  0.63808818  0.56138802  1
  Sm3+  Sm48  1  0.24457780  0.13677534  0.06003747  1
  Sm3+  Sm49  1  0.87084006  0.00981730  0.93310779  1
  Sm3+  Sm50  1  0.62184722  0.76118175  0.45045618  1
  Sm3+  Sm51  1  0.24110000  0.38926161  0.55472420  1
  Sm3+  Sm52  1  -0.00396871  0.38098473  0.06070195  1
  Sm3+  Sm53  1  0.62553678  0.00484279  0.93059654  1
  Sm3+  Sm54  1  0.37278269  0.26084381  0.94179266  1
  Sm3+  Sm55  1  0.86863394  0.50585828  0.94773332  1
  Sm3+  Sm56  1  -0.00495917  0.13758048  0.04333891  1
  Sm3+  Sm57  1  0.11768844  0.76191938  0.44508446  1
  Sm3+  Sm58  1  0.24514583  0.13571159  0.55157178  1
  Sm3+  Sm59  1  0.36721579  0.00770336  0.94887549  1
  Sm3+  Sm60  1  0.49721910  0.13394668  0.05331290  1
  Sm3+  Sm61  1  -0.00238791  0.13654297  0.55461059  1
  Sm3+  Sm62  1  0.24669912  0.88180480  0.06203051  1
  Sm3+  Sm63  1  0.87224834  0.51242664  0.44858390  1
  Bi2+  Bi64  1  0.03839309  0.07133020  0.30178169  1
  Bi2+  Bi65  1  0.07854962  0.08424024  0.76517236  1
  Bi2+  Bi66  1  -0.00531386  0.32282201  0.23315614  1
  Bi2+  Bi67  1  0.03009901  0.35795242  0.80806867  1
  Bi2+  Bi68  1  -0.06981353  0.61188975  0.28855079  1
  Bi2+  Bi69  1  -0.05282107  0.58052398  0.81894271  1
  Bi2+  Bi70  1  0.04425751  0.87830460  0.31715065  1
  Bi2+  Bi71  1  -0.00727222  0.83655388  0.77757339  1
  Bi2+  Bi72  1  0.26032615  0.12629127  0.29008595  1
  Bi2+  Bi73  1  0.26350103  0.14198429  0.78995209  1
  Bi2+  Bi74  1  0.28208747  0.36551292  0.31787017  1
  Bi2+  Bi75  1  0.25820535  0.39511866  0.74854204  1
  Bi2+  Bi76  1  0.26145178  0.63111652  0.31487701  1
  Bi2+  Bi77  1  0.32236152  0.64418351  0.77388125  1
  Bi2+  Bi78  1  0.21243561  0.85536755  0.26139265  1
  Bi2+  Bi79  1  0.22653203  0.89560296  0.79603405  1
  Bi2+  Bi80  1  0.51589495  0.13613750  0.29066131  1
  Bi2+  Bi81  1  0.48358880  0.15849948  0.78537482  1
  Bi2+  Bi82  1  0.48925309  0.31511876  0.23880735  1
  Bi2+  Bi83  1  0.44294212  0.39790318  0.78786379  1
  Bi2+  Bi84  1  0.51745605  0.62975740  0.26195374  1
  Bi2+  Bi85  1  0.52164724  0.60714880  0.80513157  1
  Bi2+  Bi86  1  0.50007566  0.86726436  0.29378367  1
  Bi2+  Bi87  1  0.43025088  0.89492016  0.79097276  1
  Bi2+  Bi88  1  0.85642884  0.13900979  0.28461454  1
  Bi2+  Bi89  1  0.74239744  0.12492490  0.79189460  1
  Bi2+  Bi90  1  0.76139340  0.32910868  0.30628052  1
  Bi2+  Bi91  1  0.69919422  0.40395203  0.77287362  1
  Bi2+  Bi92  1  0.75809554  0.55486343  0.32947694  1
  Bi2+  Bi93  1  0.77137676  0.67695259  0.81704460  1
  Bi2+  Bi94  1  0.84949492  0.87219579  0.28604324  1
  Bi2+  Bi95  1  0.74902782  0.87208718  0.78867331  1
  Bi2+  Bi96  1  0.17451750  -0.02994260  0.17088471  1
  Bi2+  Bi97  1  0.14925832  -0.05367438  0.69189470  1
  Bi2+  Bi98  1  0.10749733  0.14605633  0.20284277  1
  Bi2+  Bi99  1  0.15172841  0.23246619  0.70205170  1
  Bi2+  Bi100  1  0.12002289  0.50372819  0.22340745  1
  Bi2+  Bi101  1  0.07803526  0.50656792  0.69918013  1
  Bi2+  Bi102  1  0.05452565  0.75093885  0.22459099  1
  Bi2+  Bi103  1  0.14625690  0.72354601  0.76707178  1
  Bi2+  Bi104  1  0.36043155  -0.03924815  0.20960466  1
  Bi2+  Bi105  1  0.36993714  0.05472756  0.70256660  1
  Bi2+  Bi106  1  0.38736958  0.15359211  0.20010284  1
  Bi2+  Bi107  1  0.37940072  0.25896632  0.70181138  1
  Bi2+  Bi108  1  0.37474405  0.50469699  0.21425719  1
  Bi2+  Bi109  1  0.32320999  0.53797068  0.68192660  1
  Bi2+  Bi110  1  0.37412401  0.74129622  0.20124522  1
  Bi2+  Bi111  1  0.39878291  0.77900537  0.70049934  1
  Bi2+  Bi112  1  0.61968009  -0.03232445  0.18205034  1
  Bi2+  Bi113  1  0.55556419  0.00061054  0.72605134  1
  Bi2+  Bi114  1  0.65944591  0.23751931  0.19826101  1
  Bi2+  Bi115  1  0.62334346  0.25851233  0.71286655  1
  Bi2+  Bi116  1  0.61993458  0.45902019  0.26594466  1
  Bi2+  Bi117  1  0.56987962  0.50842278  0.70403885  1
  Bi2+  Bi118  1  0.69080969  0.71458510  0.27400295  1
  Bi2+  Bi119  1  0.63450617  0.71232486  0.73432945  1
  Bi2+  Bi120  1  0.92226087  -0.00247472  0.21106091  1
  Bi2+  Bi121  1  0.90308958  -0.02970128  0.71008099  1
  Bi2+  Bi122  1  0.84662315  0.26304417  0.16704985  1
  Bi2+  Bi123  1  0.88961719  0.25320858  0.71126950  1
  Bi2+  Bi124  1  0.84032180  0.44260007  0.21601051  1
  Bi2+  Bi125  1  0.83173985  0.51891988  0.72211227  1
  Bi2+  Bi126  1  0.83166225  0.71038398  0.19297650  1
  Bi2+  Bi127  1  0.81841397  0.71857219  0.69964564  1
  S2-  S128  1  -0.03450119  0.12650663  0.13959667  1
  S2-  S129  1  0.00701499  0.20044804  0.64550713  1
  S2-  S130  1  0.06889250  0.38367426  0.15063259  1
  S2-  S131  1  -0.06011343  0.40143757  0.67394146  1
  S2-  S132  1  0.02610144  0.61769695  0.16407235  1
  S2-  S133  1  -0.04597565  0.62264711  0.66767075  1
  S2-  S134  1  -0.04367528  0.84740811  0.15797122  1
  S2-  S135  1  0.01479754  0.85766853  0.65785788  1
  S2-  S136  1  0.24429270  0.21261054  0.14736986  1
  S2-  S137  1  0.22339088  0.09247354  0.64508743  1
  S2-  S138  1  0.24509403  0.38513650  0.22489421  1
  S2-  S139  1  0.15240542  0.38024910  0.63888609  1
  S2-  S140  1  0.24001433  0.54608373  0.15665073  1
  S2-  S141  1  0.15876444  0.61279236  0.64379892  1
  S2-  S142  1  0.25270032  0.76822158  0.13897508  1
  S2-  S143  1  0.25881936  0.82336518  0.65263858  1
  S2-  S144  1  0.55811909  0.11626453  0.14508167  1
  S2-  S145  1  0.59280192  0.13153052  0.65266242  1
  S2-  S146  1  0.40743370  0.37923321  0.15288406  1
  S2-  S147  1  0.50860199  0.36466115  0.65608288  1
  S2-  S148  1  0.48478850  0.61916068  0.15705850  1
  S2-  S149  1  0.46631170  0.62357124  0.64924698  1
  S2-  S150  1  0.48356769  0.85933349  0.15548940  1
  S2-  S151  1  0.52565981  0.87756552  0.65631096  1
  S2-  S152  1  0.75426915  0.00633943  0.13481893  1
  S2-  S153  1  0.81035658  0.09839306  0.68797350  1
  S2-  S154  1  0.62722941  0.37205639  0.14234219  1
  S2-  S155  1  0.75436964  0.29007437  0.64894078  1
  S2-  S156  1  0.76514887  0.56177988  0.15844831  1
  S2-  S157  1  0.71904202  0.50805556  0.64281824  1
  S2-  S158  1  0.71244248  0.77399880  0.13628118  1
  S2-  S159  1  0.77536694  0.88410986  0.66641661  1
  S2-  S160  1  0.25395282  0.00781243  0.35468610  1
  S2-  S161  1  0.06680359  -0.03054929  0.83908890  1
  S2-  S162  1  0.15848943  0.25151538  0.33728917  1
  S2-  S163  1  0.15598700  0.25952959  0.84321377  1
  S2-  S164  1  0.16330913  0.48724048  0.32467684  1
  S2-  S165  1  0.10209344  0.51638447  0.84059097  1
  S2-  S166  1  0.12744118  0.67738800  0.36054281  1
  S2-  S167  1  0.22998411  0.75541203  0.86092824  1
  S2-  S168  1  0.47166881  -0.00312280  0.35017569  1
  S2-  S169  1  0.33030496  0.00719235  0.85348490  1
  S2-  S170  1  0.39754158  0.23712212  0.34592474  1
  S2-  S171  1  0.46927943  0.28181552  0.85966868  1
  S2-  S172  1  0.38458970  0.50879056  0.33862360  1
  S2-  S173  1  0.36946309  0.52373393  0.84790416  1
  S2-  S174  1  0.37316422  0.76554213  0.33910032  1
  S2-  S175  1  0.47642584  0.75829163  0.85380757  1
  S2-  S176  1  0.63277326  -0.02214345  0.27567107  1
  S2-  S177  1  0.61543097  0.10879971  0.85169678  1
  S2-  S178  1  0.63671747  0.15947403  0.35525389  1
  S2-  S179  1  0.72771382  0.27376791  0.84491432  1
  S2-  S180  1  0.61605327  0.38181254  0.36215390  1
  S2-  S181  1  0.63382290  0.49406039  0.84820444  1
  S2-  S182  1  0.63034657  0.81110517  0.35703933  1
  S2-  S183  1  0.63425366  0.89054086  0.85468823  1
  S2-  S184  1  0.81405166  0.00499369  0.35651419  1
  S2-  S185  1  0.83109115  0.00623482  0.83625166  1
  S2-  S186  1  0.90857392  0.26933406  0.34491942  1
  S2-  S187  1  0.93219404  0.22838632  0.81417953  1
  S2-  S188  1  0.95664191  0.50885403  0.36307300  1
  S2-  S189  1  0.88755122  0.43265327  0.85837996  1
  S2-  S190  1  0.88317588  0.74966572  0.34995579  1
  S2-  S191  1  0.98855555  0.74609092  0.86309503  1
  S2-  S192  1  -0.00466009  0.13505633  0.44961377  1
  S2-  S193  1  -0.00693204  0.13647819  0.93904720  1
  S2-  S194  1  -0.00514562  0.38593062  0.46146118  1
  S2-  S195  1  -0.00651111  0.37999820  0.95700403  1
  S2-  S196  1  -0.00699985  0.64114585  0.46529318  1
  S2-  S197  1  -0.00699886  0.62669258  0.96072982  1
  S2-  S198  1  -0.00565696  0.88804107  0.45517777  1
  S2-  S199  1  -0.00567549  0.88875044  0.95514794  1
  S2-  S200  1  0.24138541  0.13980985  0.45016665  1
  S2-  S201  1  0.24739286  0.13674719  0.95430467  1
  S2-  S202  1  0.24036710  0.38995657  0.45017098  1
  S2-  S203  1  0.24861941  0.38302743  0.94458509  1
  S2-  S204  1  0.24608929  0.63974019  0.45787030  1
  S2-  S205  1  0.24251811  0.62953669  0.95871964  1
  S2-  S206  1  0.24345171  0.88265202  0.45414005  1
  S2-  S207  1  0.24285948  0.88557528  0.95917501  1
  S2-  S208  1  0.48988801  0.14036074  0.46063257  1
  S2-  S209  1  0.49077497  0.12836000  0.95154697  1
  S2-  S210  1  0.48918433  0.38829691  0.45408048  1
  S2-  S211  1  0.49776557  0.38590267  0.96036258  1
  S2-  S212  1  0.49785780  0.63589368  0.44533998  1
  S2-  S213  1  0.49544703  0.63258998  0.95312161  1
  S2-  S214  1  0.49920178  0.88445825  0.45561134  1
  S2-  S215  1  0.49088721  0.88967529  0.95132993  1
  S2-  S216  1  0.74620094  0.13698728  0.46448702  1
  S2-  S217  1  0.75231632  0.13432027  0.95182911  1
  S2-  S218  1  0.74901327  0.38970680  0.46157449  1
  S2-  S219  1  0.74602730  0.38268039  0.95840182  1
  S2-  S220  1  0.74454046  0.63523701  0.46340059  1
  S2-  S221  1  0.74929798  0.63431043  0.95580655  1
  S2-  S222  1  0.74133189  0.88721790  0.46187563  1
  S2-  S223  1  0.75445803  0.88206808  0.95254190  1
  S2-  S224  1  0.12141147  0.01369598  0.03938680  1
  S2-  S225  1  0.12021507  0.01227878  0.53710415  1
  S2-  S226  1  0.12058322  0.25941827  0.04423665  1
  S2-  S227  1  0.12420200  0.25724440  0.53882510  1
  S2-  S228  1  0.11795187  0.50546898  0.04739015  1
  S2-  S229  1  0.12400081  0.51288302  0.53704417  1
  S2-  S230  1  0.11594684  0.76180133  0.04418918  1
  S2-  S231  1  0.12322436  0.76348413  0.54827023  1
  S2-  S232  1  0.36906540  0.01041352  0.05341421  1
  S2-  S233  1  0.37140733  0.01289694  0.54519651  1
  S2-  S234  1  0.37284365  0.25516310  0.04429398  1
  S2-  S235  1  0.36572496  0.26372678  0.54996842  1
  S2-  S236  1  0.37255623  0.51026507  0.05083108  1
  S2-  S237  1  0.36696422  0.51102634  0.54344877  1
  S2-  S238  1  0.37198531  0.76299273  0.03739853  1
  S2-  S239  1  0.37058956  0.76181353  0.54454990  1
  S2-  S240  1  0.62114582  0.00959105  0.03465607  1
  S2-  S241  1  0.62379350  0.00956718  0.55845537  1
  S2-  S242  1  0.62243119  0.25225157  0.03814746  1
  S2-  S243  1  0.61993676  0.26634062  0.54591995  1
  S2-  S244  1  0.62088980  0.51497399  0.05036931  1
  S2-  S245  1  0.61750302  0.51170087  0.53930033  1
  S2-  S246  1  0.61905549  0.75935018  0.03119881  1
  S2-  S247  1  0.62361844  0.75688621  0.55543783  1
  S2-  S248  1  0.87481023  0.01127895  0.03634295  1
  S2-  S249  1  0.87220477  0.01427797  0.55705936  1
  S2-  S250  1  0.87048464  0.25851730  0.04270350  1
  S2-  S251  1  0.87300492  0.26045410  0.54939638  1
  S2-  S252  1  0.87252481  0.50627179  0.05175261  1
  S2-  S253  1  0.87793179  0.50963063  0.55271011  1
  S2-  S254  1  0.87561681  0.76023345  0.04136534  1
  S2-  S255  1  0.87352454  0.75930645  0.55560734  1
