# generated using pymatgen
data_La6Ce7Pr13Nd19Sm19(BiS2)64
_symmetry_space_group_name_H-M   'P 1'
_cell_length_a   16.10326820
_cell_length_b   16.10442133
_cell_length_c   27.33363953
_cell_angle_alpha   90.01193915
_cell_angle_beta   89.66581281
_cell_angle_gamma   90.02919424
_symmetry_Int_Tables_number   1
_chemical_formula_structural   La6Ce7Pr13Nd19Sm19(BiS2)64
_chemical_formula_sum   'La6 Ce7 Pr13 Nd19 Sm19 Bi64 S128'
_cell_volume   7088.41539247
_cell_formula_units_Z   1
loop_
 _symmetry_equiv_pos_site_id
 _symmetry_equiv_pos_as_xyz
  1  'x, y, z'
loop_
 _atom_type_symbol
 _atom_type_oxidation_number
  La3+  3.0
  Ce3+  3.0
  Pr3+  3.0
  Nd3+  3.0
  Sm3+  3.0
  Bi2+  2.0
  S2-  -2.0
loop_
 _atom_site_type_symbol
 _atom_site_label
 _atom_site_symmetry_multiplicity
 _atom_site_fract_x
 _atom_site_fract_y
 _atom_site_fract_z
 _atom_site_occupancy
  La3+  La0  1  0.74030753  0.38110424  0.61370354  1
  La3+  La1  1  0.64035768  0.24158900  0.92246887  1
  La3+  La2  1  0.24232397  0.87040988  0.57917527  1
  La3+  La3  1  0.00015824  0.36732223  0.56801022  1
  La3+  La4  1  0.00783930  0.37139625  0.11455614  1
  La3+  La5  1  0.74455559  0.63248030  0.58403123  1
  Ce3+  Ce6  1  0.63398650  0.50261718  0.44380003  1
  Ce3+  Ce7  1  0.00248173  0.87970187  0.55344598  1
  Ce3+  Ce8  1  0.50511995  0.13128680  0.55578628  1
  Ce3+  Ce9  1  0.50207507  0.87869050  0.56420548  1
  Ce3+  Ce10  1  0.88209347  0.25569050  0.94306415  1
  Ce3+  Ce11  1  0.63058615  0.25344133  0.43854797  1
  Ce3+  Ce12  1  0.50458905  0.37745216  0.55462688  1
  Pr3+  Pr13  1  0.13186954  0.00663316  0.93647460  1
  Pr3+  Pr14  1  0.00754906  0.62461517  0.06367032  1
  Pr3+  Pr15  1  0.88534406  0.75622717  0.93891252  1
  Pr3+  Pr16  1  0.12923102  0.25654467  0.94282648  1
  Pr3+  Pr17  1  0.13645624  0.26234126  0.41504682  1
  Pr3+  Pr18  1  0.63313171  0.50257532  0.93537738  1
  Pr3+  Pr19  1  0.88081859  0.00178531  0.42874636  1
  Pr3+  Pr20  1  0.13526898  -0.00240318  0.43027064  1
  Pr3+  Pr21  1  0.75462128  0.87969340  0.56727065  1
  Pr3+  Pr22  1  0.89103848  0.51220867  0.91623101  1
  Pr3+  Pr23  1  0.50523403  0.13347198  0.06481239  1
  Pr3+  Pr24  1  0.63259177  0.75505851  0.93610794  1
  Pr3+  Pr25  1  0.63000049  0.75284114  0.43824444  1
  Nd3+  Nd26  1  0.50873589  0.37805349  0.05952308  1
  Nd3+  Nd27  1  0.37834398  0.25360355  0.43805674  1
  Nd3+  Nd28  1  0.13299030  0.50293385  0.93757026  1
  Nd3+  Nd29  1  0.38427580  0.76491707  0.93080270  1
  Nd3+  Nd30  1  0.37993051  0.01272883  0.92554374  1
  Nd3+  Nd31  1  0.50527519  0.87887536  0.06092215  1
  Nd3+  Nd32  1  0.75937743  0.13184519  0.06817721  1
  Nd3+  Nd33  1  0.00810660  0.12398120  0.07228801  1
  Nd3+  Nd34  1  0.13517361  0.75557322  0.94221149  1
  Nd3+  Nd35  1  0.00079073  0.62346243  0.56253532  1
  Nd3+  Nd36  1  0.25005593  0.12791235  0.55549532  1
  Nd3+  Nd37  1  0.25457476  0.37701061  0.06141522  1
  Nd3+  Nd38  1  0.88083954  0.25567709  0.42984075  1
  Nd3+  Nd39  1  0.13088036  0.74870537  0.43237927  1
  Nd3+  Nd40  1  0.50758441  0.62907155  0.05404222  1
  Nd3+  Nd41  1  0.24826691  0.37602620  0.56076895  1
  Nd3+  Nd42  1  0.25832718  0.87952022  0.05958410  1
  Nd3+  Nd43  1  0.25219581  0.62312041  0.56504426  1
  Nd3+  Nd44  1  0.76411471  0.38239836  0.05867542  1
  Sm3+  Sm45  1  0.37965933  0.50492366  0.44021972  1
  Sm3+  Sm46  1  0.75841982  0.62846253  0.05265629  1
  Sm3+  Sm47  1  0.37843114  -0.00100141  0.44884128  1
  Sm3+  Sm48  1  0.63000838  0.00266590  0.44655988  1
  Sm3+  Sm49  1  0.75709081  0.13265659  0.55431889  1
  Sm3+  Sm50  1  0.37942708  0.75295861  0.45095281  1
  Sm3+  Sm51  1  0.25588674  0.62872301  0.05460053  1
  Sm3+  Sm52  1  0.38222150  0.50438205  0.94434645  1
  Sm3+  Sm53  1  0.25525060  0.13079876  0.05883157  1
  Sm3+  Sm54  1  0.87666771  0.50150863  0.44976517  1
  Sm3+  Sm55  1  0.38852189  0.25798612  0.93313245  1
  Sm3+  Sm56  1  0.50583338  0.62489057  0.55777762  1
  Sm3+  Sm57  1  0.63265002  0.00655681  0.94970396  1
  Sm3+  Sm58  1  0.00936953  0.88130413  0.06646323  1
  Sm3+  Sm59  1  0.87737722  0.75030157  0.44790095  1
  Sm3+  Sm60  1  0.75704783  0.87815296  0.05557172  1
  Sm3+  Sm61  1  0.88240593  0.00461215  0.94535944  1
  Sm3+  Sm62  1  0.00453105  0.12982543  0.54279658  1
  Sm3+  Sm63  1  0.12854738  0.50797350  0.43487244  1
  Bi2+  Bi64  1  -0.03658237  0.11497055  0.29644252  1
  Bi2+  Bi65  1  -0.02705331  0.07371345  0.74466822  1
  Bi2+  Bi66  1  -0.01619401  0.37856263  0.31525175  1
  Bi2+  Bi67  1  0.04812409  0.35194232  0.78372364  1
  Bi2+  Bi68  1  0.00239510  0.64037901  0.29039534  1
  Bi2+  Bi69  1  0.04439996  0.63543149  0.79714661  1
  Bi2+  Bi70  1  -0.00355211  0.83839763  0.29301844  1
  Bi2+  Bi71  1  0.02700247  0.89427398  0.78320675  1
  Bi2+  Bi72  1  0.30758263  0.11165375  0.28251332  1
  Bi2+  Bi73  1  0.24573308  0.14061472  0.79381329  1
  Bi2+  Bi74  1  0.27730274  0.37707265  0.29074546  1
  Bi2+  Bi75  1  0.23312555  0.40111239  0.80118785  1
  Bi2+  Bi76  1  0.24859164  0.69429103  0.28520300  1
  Bi2+  Bi77  1  0.24252769  0.60640818  0.78916043  1
  Bi2+  Bi78  1  0.18586262  0.86464906  0.32217062  1
  Bi2+  Bi79  1  0.27589808  0.84986642  0.80833716  1
  Bi2+  Bi80  1  0.50280671  0.13668436  0.27336144  1
  Bi2+  Bi81  1  0.51653211  0.14801984  0.79098514  1
  Bi2+  Bi82  1  0.47617809  0.33123388  0.29613788  1
  Bi2+  Bi83  1  0.45646787  0.40221990  0.77036590  1
  Bi2+  Bi84  1  0.52185693  0.66283096  0.29341867  1
  Bi2+  Bi85  1  0.42646908  0.59783133  0.73492162  1
  Bi2+  Bi86  1  0.44725939  0.87148622  0.30041943  1
  Bi2+  Bi87  1  0.52957385  0.92915853  0.76324641  1
  Bi2+  Bi88  1  0.71101837  0.08503153  0.29373616  1
  Bi2+  Bi89  1  0.76859829  0.10207837  0.79859812  1
  Bi2+  Bi90  1  0.66995856  0.37856900  0.28206525  1
  Bi2+  Bi91  1  0.69301122  0.37151594  0.81338806  1
  Bi2+  Bi92  1  0.75880605  0.61938329  0.31402160  1
  Bi2+  Bi93  1  0.74755034  0.62768787  0.80604726  1
  Bi2+  Bi94  1  0.74705930  0.80303758  0.24559667  1
  Bi2+  Bi95  1  0.75494955  0.88658445  0.79468529  1
  Bi2+  Bi96  1  0.11210743  -0.02841350  0.22974825  1
  Bi2+  Bi97  1  0.15723040  -0.01729209  0.71001580  1
  Bi2+  Bi98  1  0.13091607  0.24410705  0.21642701  1
  Bi2+  Bi99  1  0.12890619  0.24098930  0.70076432  1
  Bi2+  Bi100  1  0.13410663  0.51452597  0.20727633  1
  Bi2+  Bi101  1  0.15551548  0.50381594  0.70597839  1
  Bi2+  Bi102  1  0.12038567  0.73776454  0.19993112  1
  Bi2+  Bi103  1  0.08265947  0.74782910  0.70265327  1
  Bi2+  Bi104  1  0.31472963  -0.05722003  0.22115159  1
  Bi2+  Bi105  1  0.39086874  0.04650892  0.72638491  1
  Bi2+  Bi106  1  0.37244798  0.21374734  0.18924838  1
  Bi2+  Bi107  1  0.32624844  0.29672969  0.71463516  1
  Bi2+  Bi108  1  0.41749678  0.50644953  0.25220198  1
  Bi2+  Bi109  1  0.34041809  0.47783675  0.66256589  1
  Bi2+  Bi110  1  0.39195934  0.76043860  0.20833142  1
  Bi2+  Bi111  1  0.34534230  0.77102271  0.71445413  1
  Bi2+  Bi112  1  0.60231722  -0.05845716  0.24493163  1
  Bi2+  Bi113  1  0.69220866  0.00740659  0.70862389  1
  Bi2+  Bi114  1  0.58373525  0.27328778  0.19691518  1
  Bi2+  Bi115  1  0.60598872  0.22172799  0.70109035  1
  Bi2+  Bi116  1  0.60374866  0.52084779  0.20005134  1
  Bi2+  Bi117  1  0.61372025  0.50998402  0.70855208  1
  Bi2+  Bi118  1  0.59935387  0.71915134  0.18684947  1
  Bi2+  Bi119  1  0.62226885  0.76819425  0.71498589  1
  Bi2+  Bi120  1  0.86774358  -0.02095308  0.20576647  1
  Bi2+  Bi121  1  0.87198600  -0.02205091  0.66323019  1
  Bi2+  Bi122  1  0.84973470  0.24247258  0.21496713  1
  Bi2+  Bi123  1  0.89271457  0.23579797  0.70766930  1
  Bi2+  Bi124  1  0.79459449  0.50167889  0.22565404  1
  Bi2+  Bi125  1  0.90440281  0.49896116  0.72456238  1
  Bi2+  Bi126  1  0.92435778  0.74480753  0.19983371  1
  Bi2+  Bi127  1  0.88472053  0.80720018  0.72087745  1
  S2-  S128  1  -0.00358105  0.20984816  0.16029630  1
  S2-  S129  1  0.00094705  0.20249436  0.63172641  1
  S2-  S130  1  0.02340577  0.38085258  0.22310699  1
  S2-  S131  1  -0.09572972  0.38423449  0.65554652  1
  S2-  S132  1  0.00252984  0.53898356  0.14972015  1
  S2-  S133  1  -0.00340710  0.60736722  0.66221828  1
  S2-  S134  1  0.00152613  0.98981686  0.14333775  1
  S2-  S135  1  0.09019876  0.88702859  0.63731140  1
  S2-  S136  1  0.22269811  0.13453585  0.15497924  1
  S2-  S137  1  0.21410362  0.11988743  0.65261423  1
  S2-  S138  1  0.18260758  0.37519745  0.15134043  1
  S2-  S139  1  0.13244185  0.38045571  0.63699331  1
  S2-  S140  1  0.22684319  0.62101206  0.15092365  1
  S2-  S141  1  0.22932913  0.72085164  0.64591372  1
  S2-  S142  1  0.19602490  0.88144307  0.15171628  1
  S2-  S143  1  0.31412751  0.92233302  0.66787211  1
  S2-  S144  1  0.51742222  0.11555537  0.16405658  1
  S2-  S145  1  0.48974792  0.13590298  0.65331563  1
  S2-  S146  1  0.44626681  0.35558302  0.15087297  1
  S2-  S147  1  0.56460811  0.37340071  0.64556923  1
  S2-  S148  1  0.46824113  0.61676341  0.14949938  1
  S2-  S149  1  0.58076791  0.63565992  0.64554674  1
  S2-  S150  1  0.51489173  0.87173802  0.15924595  1
  S2-  S151  1  0.53963804  0.87371757  0.65967319  1
  S2-  S152  1  0.77905672  0.12094171  0.16786848  1
  S2-  S153  1  0.75651680  0.20680968  0.64287960  1
  S2-  S154  1  0.83247263  0.37152270  0.15033842  1
  S2-  S155  1  0.71852730  0.36140843  0.72175179  1
  S2-  S156  1  0.74502652  0.60463283  0.14944648  1
  S2-  S157  1  0.77085622  0.54093199  0.67009745  1
  S2-  S158  1  0.76654985  0.88855776  0.15260063  1
  S2-  S159  1  0.75224524  0.77221263  0.64934840  1
  S2-  S160  1  0.10125183  0.02521325  0.33271704  1
  S2-  S161  1  0.21148458  0.00519408  0.84679714  1
  S2-  S162  1  0.07842091  0.22617733  0.31658157  1
  S2-  S163  1  0.11239390  0.22644271  0.84348725  1
  S2-  S164  1  0.13755578  0.41044630  0.35406248  1
  S2-  S165  1  0.03944161  0.50047468  0.85265553  1
  S2-  S166  1  0.12984712  0.62887641  0.35881096  1
  S2-  S167  1  0.11254220  0.78416931  0.84563054  1
  S2-  S168  1  0.35571176  -0.00402318  0.35260089  1
  S2-  S169  1  0.41389634  -0.10008758  0.85283596  1
  S2-  S170  1  0.28510643  0.24398590  0.35475992  1
  S2-  S171  1  0.37943330  0.14620219  0.85857681  1
  S2-  S172  1  0.34482074  0.50642144  0.34536289  1
  S2-  S173  1  0.37500398  0.45908759  0.85081980  1
  S2-  S174  1  0.38433617  0.73110850  0.35376581  1
  S2-  S175  1  0.35768237  0.70417121  0.83927908  1
  S2-  S176  1  0.62205689  -0.01859661  0.35034687  1
  S2-  S177  1  0.63234940  0.08228413  0.86201712  1
  S2-  S178  1  0.65215860  0.22784799  0.34346654  1
  S2-  S179  1  0.53705082  0.29372474  0.84636024  1
  S2-  S180  1  0.62802808  0.51747870  0.34671322  1
  S2-  S181  1  0.61903539  0.53042848  0.83602547  1
  S2-  S182  1  0.64898078  0.75108949  0.33860685  1
  S2-  S183  1  0.64645263  0.75873928  0.83640884  1
  S2-  S184  1  0.84538033  -0.00629640  0.33069545  1
  S2-  S185  1  0.87599456  -0.01730129  0.84867193  1
  S2-  S186  1  0.86727947  0.24563826  0.32795740  1
  S2-  S187  1  0.79221160  0.24411008  0.85789516  1
  S2-  S188  1  0.88295714  0.50247475  0.35027714  1
  S2-  S189  1  0.82875932  0.47342998  0.82164581  1
  S2-  S190  1  0.88383002  0.73570287  0.35035190  1
  S2-  S191  1  0.89103986  0.67178710  0.85149815  1
  S2-  S192  1  0.00732196  0.12831699  0.43967683  1
  S2-  S193  1  0.00477210  0.12693039  0.95667536  1
  S2-  S194  1  0.00235801  0.38063755  0.45346404  1
  S2-  S195  1  0.00426693  0.37959991  0.94740589  1
  S2-  S196  1  -0.00124830  0.62684504  0.45660120  1
  S2-  S197  1  0.01217006  0.63212614  0.95676192  1
  S2-  S198  1  0.00427432  0.87382963  0.44628268  1
  S2-  S199  1  0.00804425  0.88147397  0.95883989  1
  S2-  S200  1  0.25661202  0.12335308  0.45083068  1
  S2-  S201  1  0.25608593  0.13316925  0.95607475  1
  S2-  S202  1  0.25841906  0.38359837  0.45623255  1
  S2-  S203  1  0.25933042  0.37743993  0.95396651  1
  S2-  S204  1  0.25885448  0.62791882  0.45907768  1
  S2-  S205  1  0.25885219  0.62907653  0.94993630  1
  S2-  S206  1  0.25594312  0.87329759  0.46164770  1
  S2-  S207  1  0.25864735  0.88312884  0.95437154  1
  S2-  S208  1  0.50214902  0.12479900  0.44833062  1
  S2-  S209  1  0.50675235  0.13020970  0.95933429  1
  S2-  S210  1  0.50260462  0.37924300  0.44750957  1
  S2-  S211  1  0.50673998  0.38068277  0.95486757  1
  S2-  S212  1  0.50382233  0.62741728  0.45371455  1
  S2-  S213  1  0.50370227  0.63034093  0.94682942  1
  S2-  S214  1  0.50407134  0.87823771  0.45675661  1
  S2-  S215  1  0.51130021  0.88438905  0.95579461  1
  S2-  S216  1  0.75468707  0.12566872  0.44874370  1
  S2-  S217  1  0.76140741  0.12410115  0.96301811  1
  S2-  S218  1  0.75545921  0.37709387  0.44175545  1
  S2-  S219  1  0.75858801  0.38162817  0.95247771  1
  S2-  S220  1  0.75479520  0.62921247  0.45975986  1
  S2-  S221  1  0.75766978  0.62972580  0.94918018  1
  S2-  S222  1  0.75515113  0.87863567  0.45533645  1
  S2-  S223  1  0.75656327  0.88151361  0.95160559  1
  S2-  S224  1  0.13406300  0.00385183  0.04359231  1
  S2-  S225  1  0.12663136  0.00555917  0.53762254  1
  S2-  S226  1  0.12857494  0.25253708  0.04910221  1
  S2-  S227  1  0.13142304  0.25038594  0.52931294  1
  S2-  S228  1  0.13563591  0.50381284  0.04228750  1
  S2-  S229  1  0.12699185  0.50484242  0.54069221  1
  S2-  S230  1  0.13139073  0.75516748  0.04774942  1
  S2-  S231  1  0.12337095  0.74727874  0.53815463  1
  S2-  S232  1  0.38055361  0.00611873  0.05001066  1
  S2-  S233  1  0.37745185  0.00386834  0.55224536  1
  S2-  S234  1  0.37959174  0.25404596  0.03993012  1
  S2-  S235  1  0.37620873  0.25387057  0.54541358  1
  S2-  S236  1  0.37992434  0.50365416  0.04788691  1
  S2-  S237  1  0.38034291  0.50307945  0.54441719  1
  S2-  S238  1  0.38111905  0.75334612  0.04252694  1
  S2-  S239  1  0.38207364  0.74848095  0.55496279  1
  S2-  S240  1  0.63290976  0.00364930  0.05415243  1
  S2-  S241  1  0.63185553  0.00637690  0.55135291  1
  S2-  S242  1  0.63570386  0.25544269  0.04868256  1
  S2-  S243  1  0.63119584  0.25420149  0.54267538  1
  S2-  S244  1  0.63271330  0.50397215  0.04360322  1
  S2-  S245  1  0.63141321  0.49995586  0.54831119  1
  S2-  S246  1  0.63281571  0.75455981  0.04373256  1
  S2-  S247  1  0.62557921  0.75612631  0.54408794  1
  S2-  S248  1  0.87945009  0.00125467  0.04792509  1
  S2-  S249  1  0.87884650  0.00672683  0.53616079  1
  S2-  S250  1  0.88534535  0.25216817  0.04827288  1
  S2-  S251  1  0.87742260  0.24963935  0.53370824  1
  S2-  S252  1  0.87896432  0.50952975  0.03909581  1
  S2-  S253  1  0.87154776  0.50253939  0.55276334  1
  S2-  S254  1  0.88226918  0.75590230  0.04674911  1
  S2-  S255  1  0.88004785  0.75287000  0.55128127  1
