# generated using pymatgen
data_La6Ce7Pr13Nd19Sm19(BiS2)64
_symmetry_space_group_name_H-M   'P 1'
_cell_length_a   16.05341528
_cell_length_b   16.06897216
_cell_length_c   27.37294623
_cell_angle_alpha   90.26800736
_cell_angle_beta   90.05987128
_cell_angle_gamma   89.93207514
_symmetry_Int_Tables_number   1
_chemical_formula_structural   La6Ce7Pr13Nd19Sm19(BiS2)64
_chemical_formula_sum   'La6 Ce7 Pr13 Nd19 Sm19 Bi64 S128'
_cell_volume   7061.09073245
_cell_formula_units_Z   1
loop_
 _symmetry_equiv_pos_site_id
 _symmetry_equiv_pos_as_xyz
  1  'x, y, z'
loop_
 _atom_type_symbol
 _atom_type_oxidation_number
  La3+  3.0
  Ce3+  3.0
  Pr3+  3.0
  Nd3+  3.0
  Sm3+  3.0
  Bi2+  2.0
  S2-  -2.0
loop_
 _atom_site_type_symbol
 _atom_site_label
 _atom_site_symmetry_multiplicity
 _atom_site_fract_x
 _atom_site_fract_y
 _atom_site_fract_z
 _atom_site_occupancy
  La3+  La0  1  0.48934427  0.15038330  0.59248556  1
  La3+  La1  1  0.86512329  0.25794589  0.42933543  1
  La3+  La2  1  0.63868876  0.77177284  0.41282261  1
  La3+  La3  1  0.11563393  0.00704401  0.42991663  1
  La3+  La4  1  0.75914965  0.88589776  0.58995372  1
  La3+  La5  1  0.37669547  0.49272672  0.38055355  1
  Ce3+  Ce6  1  0.37166732  0.00218273  0.42588763  1
  Ce3+  Ce7  1  0.62514479  0.25675094  0.44469532  1
  Ce3+  Ce8  1  0.75542640  0.63154155  0.57688022  1
  Ce3+  Ce9  1  0.87246682  0.75954333  0.45326938  1
  Ce3+  Ce10  1  0.73427957  0.87833746  0.06366173  1
  Ce3+  Ce11  1  0.73797646  0.62513934  0.05764768  1
  Ce3+  Ce12  1  0.48780482  0.88146052  0.06541737  1
  Pr3+  Pr13  1  0.01419861  0.88514549  0.57478793  1
  Pr3+  Pr14  1  0.75726969  0.14020916  0.58086191  1
  Pr3+  Pr15  1  0.48844526  0.37417746  0.06890643  1
  Pr3+  Pr16  1  0.85774655  0.24425248  0.93608424  1
  Pr3+  Pr17  1  0.12414554  0.75348846  0.43674437  1
  Pr3+  Pr18  1  0.25134855  0.13440829  0.55461624  1
  Pr3+  Pr19  1  0.11373364  0.24884466  0.93981323  1
  Pr3+  Pr20  1  0.62437390  0.51451073  0.43555211  1
  Pr3+  Pr21  1  0.60855939  0.50137279  0.93960956  1
  Pr3+  Pr22  1  0.73659409  0.12912772  0.06309840  1
  Pr3+  Pr23  1  0.50254900  0.88559479  0.56142805  1
  Pr3+  Pr24  1  0.64450224  -0.00343140  0.88330612  1
  Pr3+  Pr25  1  0.12553679  0.50818882  0.43487604  1
  Nd3+  Nd26  1  0.23786500  0.38168468  0.05708955  1
  Nd3+  Nd27  1  0.86320918  0.50081725  0.93457911  1
  Nd3+  Nd28  1  0.10746571  0.50120463  0.93424310  1
  Nd3+  Nd29  1  0.49325947  0.62641428  0.08754185  1
  Nd3+  Nd30  1  0.62527653  0.00912026  0.45426666  1
  Nd3+  Nd31  1  0.36827186  0.74855474  0.94419311  1
  Nd3+  Nd32  1  -0.00967021  0.62460496  0.06800642  1
  Nd3+  Nd33  1  0.86856934  0.51294146  0.43971834  1
  Nd3+  Nd34  1  0.23759637  0.12179201  0.06453253  1
  Nd3+  Nd35  1  0.11787042  -0.00151909  0.92706289  1
  Nd3+  Nd36  1  0.25474804  0.63275311  0.56253178  1
  Nd3+  Nd37  1  0.23952996  0.63442547  0.07577643  1
  Nd3+  Nd38  1  0.00459467  0.63297942  0.57012278  1
  Nd3+  Nd39  1  0.37265310  0.25474660  0.42798666  1
  Nd3+  Nd40  1  0.35726623  0.51051420  0.93622526  1
  Nd3+  Nd41  1  0.11574009  0.74800319  0.94031422  1
  Nd3+  Nd42  1  0.37675159  0.75588405  0.43050517  1
  Nd3+  Nd43  1  0.36977618  -0.00405310  0.92756336  1
  Nd3+  Nd44  1  -0.00184136  0.38448148  0.55732127  1
  Sm3+  Sm45  1  -0.00999027  0.87717692  0.05236673  1
  Sm3+  Sm46  1  -0.01139780  0.37550043  0.05610762  1
  Sm3+  Sm47  1  0.48715222  0.12538118  0.06332138  1
  Sm3+  Sm48  1  0.23946375  0.87997366  0.06077284  1
  Sm3+  Sm49  1  0.25510195  0.88685114  0.55294388  1
  Sm3+  Sm50  1  0.60374490  0.25495636  0.93720536  1
  Sm3+  Sm51  1  0.49750109  0.38597706  0.55020476  1
  Sm3+  Sm52  1  0.73952989  0.37639820  0.05932741  1
  Sm3+  Sm53  1  -0.01066851  0.12477184  0.05393534  1
  Sm3+  Sm54  1  0.74839431  0.38605689  0.56886903  1
  Sm3+  Sm55  1  0.25468319  0.38418851  0.55128409  1
  Sm3+  Sm56  1  0.12246520  0.25830802  0.44496095  1
  Sm3+  Sm57  1  0.86078239  -0.00037287  0.94707660  1
  Sm3+  Sm58  1  0.85983209  0.75243131  0.94660126  1
  Sm3+  Sm59  1  -0.00013673  0.13550700  0.56080127  1
  Sm3+  Sm60  1  0.87279377  0.00391887  0.44836027  1
  Sm3+  Sm61  1  0.61043797  0.75360732  0.94410797  1
  Sm3+  Sm62  1  0.49888787  0.63646386  0.55341347  1
  Sm3+  Sm63  1  0.36158107  0.24981638  0.94262988  1
  Bi2+  Bi64  1  0.06981932  0.11492650  0.30690462  1
  Bi2+  Bi65  1  0.01628088  0.11844422  0.79319943  1
  Bi2+  Bi66  1  -0.00001855  0.46051463  0.31713187  1
  Bi2+  Bi67  1  0.07753456  0.38015704  0.76965338  1
  Bi2+  Bi68  1  -0.01433176  0.65247481  0.30870340  1
  Bi2+  Bi69  1  0.01809731  0.58420149  0.77658603  1
  Bi2+  Bi70  1  -0.03284060  0.89843677  0.27856989  1
  Bi2+  Bi71  1  0.03431164  0.92113858  0.79354044  1
  Bi2+  Bi72  1  0.34269244  0.10761200  0.29646323  1
  Bi2+  Bi73  1  0.26037326  0.17979773  0.80132050  1
  Bi2+  Bi74  1  0.23495196  0.33845981  0.28519345  1
  Bi2+  Bi75  1  0.29333429  0.43875629  0.79606539  1
  Bi2+  Bi76  1  0.24068719  0.62826567  0.28784694  1
  Bi2+  Bi77  1  0.25600057  0.69888517  0.81541645  1
  Bi2+  Bi78  1  0.24469571  0.87392165  0.28425770  1
  Bi2+  Bi79  1  0.22476260  0.95032040  0.76501267  1
  Bi2+  Bi80  1  0.54076536  0.10328399  0.29540645  1
  Bi2+  Bi81  1  0.52080024  0.13926766  0.78513392  1
  Bi2+  Bi82  1  0.49229676  0.27591537  0.24599656  1
  Bi2+  Bi83  1  0.48595589  0.39214371  0.79350059  1
  Bi2+  Bi84  1  0.51146773  0.59965741  0.27266440  1
  Bi2+  Bi85  1  0.55103399  0.59206189  0.81954765  1
  Bi2+  Bi86  1  0.51301884  0.89495849  0.29043931  1
  Bi2+  Bi87  1  0.47192965  0.86138188  0.79456930  1
  Bi2+  Bi88  1  0.79623927  0.12589091  0.31254272  1
  Bi2+  Bi89  1  0.78657578  0.13301887  0.79718275  1
  Bi2+  Bi90  1  0.81456935  0.41777126  0.28041886  1
  Bi2+  Bi91  1  0.79217194  0.42740038  0.81054616  1
  Bi2+  Bi92  1  0.79009870  0.64239221  0.29663416  1
  Bi2+  Bi93  1  0.74604497  0.61423649  0.80031247  1
  Bi2+  Bi94  1  0.77302570  0.93195461  0.29752978  1
  Bi2+  Bi95  1  0.75207396  0.81214325  0.78487477  1
  Bi2+  Bi96  1  0.10248755  0.01089825  0.20191371  1
  Bi2+  Bi97  1  0.09769663  0.02957939  0.68574820  1
  Bi2+  Bi98  1  0.14999571  0.20608090  0.21427785  1
  Bi2+  Bi99  1  0.13539810  0.21418304  0.71647671  1
  Bi2+  Bi100  1  0.08874994  0.47965692  0.21104492  1
  Bi2+  Bi101  1  0.17135970  0.52079672  0.71217678  1
  Bi2+  Bi102  1  0.10271025  0.75346164  0.20089107  1
  Bi2+  Bi103  1  0.13534230  0.76931219  0.71100763  1
  Bi2+  Bi104  1  0.35978905  -0.02469656  0.21170806  1
  Bi2+  Bi105  1  0.37579043  0.02150449  0.71078630  1
  Bi2+  Bi106  1  0.34390067  0.18939265  0.18875282  1
  Bi2+  Bi107  1  0.35433081  0.29513427  0.69950941  1
  Bi2+  Bi108  1  0.37218713  0.43636059  0.18312634  1
  Bi2+  Bi109  1  0.38613069  0.51864453  0.70571659  1
  Bi2+  Bi110  1  0.36493884  0.74653585  0.21060644  1
  Bi2+  Bi111  1  0.37872063  0.71756062  0.72838775  1
  Bi2+  Bi112  1  0.61928030  0.00942540  0.20572030  1
  Bi2+  Bi113  1  0.60404359  -0.04945659  0.69329274  1
  Bi2+  Bi114  1  0.67951076  0.21880931  0.23333498  1
  Bi2+  Bi115  1  0.67700002  0.33281170  0.74010360  1
  Bi2+  Bi116  1  0.69682565  0.47761845  0.19502699  1
  Bi2+  Bi117  1  0.58811557  0.50487721  0.71097516  1
  Bi2+  Bi118  1  0.63412658  0.76502742  0.21189789  1
  Bi2+  Bi119  1  0.58254714  0.70912330  0.72565733  1
  Bi2+  Bi120  1  0.88374944  0.04370720  0.21890872  1
  Bi2+  Bi121  1  0.89893685  0.01142896  0.71462684  1
  Bi2+  Bi122  1  0.96265959  0.30095703  0.24332712  1
  Bi2+  Bi123  1  0.87682978  0.27800572  0.70604763  1
  Bi2+  Bi124  1  0.88990440  0.54101995  0.19321646  1
  Bi2+  Bi125  1  0.86331655  0.50824685  0.71003358  1
  Bi2+  Bi126  1  0.90127466  0.73657928  0.21452009  1
  Bi2+  Bi127  1  0.95034244  0.74826444  0.72442200  1
  S2-  S128  1  -0.00712451  0.12729673  0.15107977  1
  S2-  S129  1  -0.08730023  0.15588885  0.64590496  1
  S2-  S130  1  -0.02918604  0.38351633  0.15360974  1
  S2-  S131  1  -0.03167949  0.39381540  0.65484062  1
  S2-  S132  1  0.10484821  0.60964493  0.14406411  1
  S2-  S133  1  -0.11061345  0.64191904  0.64843385  1
  S2-  S134  1  0.02089370  0.87959396  0.14796409  1
  S2-  S135  1  -0.08950241  0.87839529  0.65615991  1
  S2-  S136  1  0.23259669  0.00035406  0.13578160  1
  S2-  S137  1  0.33018430  0.14349687  0.64410778  1
  S2-  S138  1  0.21148366  0.39125103  0.15551040  1
  S2-  S139  1  0.23598355  0.38677942  0.64887509  1
  S2-  S140  1  0.35342468  0.60442768  0.15161511  1
  S2-  S141  1  0.13720732  0.63749842  0.63981457  1
  S2-  S142  1  0.23542312  0.78022060  0.14473190  1
  S2-  S143  1  0.16704398  0.88218199  0.63818842  1
  S2-  S144  1  0.48252506  0.00900696  0.14144309  1
  S2-  S145  1  0.53923055  0.11154881  0.68714915  1
  S2-  S146  1  0.49195318  0.24158375  0.14096739  1
  S2-  S147  1  0.47973469  0.31753335  0.64094450  1
  S2-  S148  1  0.52450180  0.48149163  0.15039012  1
  S2-  S149  1  0.38697009  0.64389193  0.63326196  1
  S2-  S150  1  0.49640571  0.77352407  0.14965116  1
  S2-  S151  1  0.43813800  0.89681804  0.65596040  1
  S2-  S152  1  0.74730132  0.10771785  0.16259573  1
  S2-  S153  1  0.74415605  0.02206166  0.65677152  1
  S2-  S154  1  0.72601995  0.32916139  0.15316693  1
  S2-  S155  1  0.73312014  0.27800944  0.64887973  1
  S2-  S156  1  0.67571060  0.63890901  0.14895492  1
  S2-  S157  1  0.73021663  0.50314280  0.64424308  1
  S2-  S158  1  0.72150429  0.87558624  0.16256244  1
  S2-  S159  1  0.70605486  0.80089532  0.68057734  1
  S2-  S160  1  0.22032445  0.01032641  0.34740848  1
  S2-  S161  1  0.23751479  0.02822258  0.85594636  1
  S2-  S162  1  0.16013759  0.24562307  0.34921422  1
  S2-  S163  1  0.14777605  0.29905801  0.84562500  1
  S2-  S164  1  0.20420790  0.49657462  0.34496632  1
  S2-  S165  1  0.21461771  0.54259169  0.85960794  1
  S2-  S166  1  0.15103139  0.76207331  0.33591007  1
  S2-  S167  1  0.11152977  0.77631935  0.84221371  1
  S2-  S168  1  0.38939821  -0.12054857  0.35457567  1
  S2-  S169  1  0.47746713  0.01150420  0.84749403  1
  S2-  S170  1  0.37920299  0.32686876  0.33744127  1
  S2-  S171  1  0.40068396  0.22970276  0.84586603  1
  S2-  S172  1  0.36563298  0.50753264  0.26926173  1
  S2-  S173  1  0.39911038  0.62996013  0.86461981  1
  S2-  S174  1  0.37074010  0.66074670  0.34496086  1
  S2-  S175  1  0.35132375  0.84006600  0.85685723  1
  S2-  S176  1  0.64209089  -0.06494348  0.36248936  1
  S2-  S177  1  0.64803897  0.01543947  0.77629845  1
  S2-  S178  1  0.72078546  0.25792937  0.36389877  1
  S2-  S179  1  0.64503659  0.17190726  0.85348884  1
  S2-  S180  1  0.54217081  0.50258237  0.34399161  1
  S2-  S181  1  0.59989006  0.38215339  0.86488772  1
  S2-  S182  1  0.58550589  0.73144261  0.31475850  1
  S2-  S183  1  0.61966458  0.82499284  0.85247535  1
  S2-  S184  1  0.97320839  -0.00787004  0.36455413  1
  S2-  S185  1  0.81673563  -0.00356477  0.85303514  1
  S2-  S186  1  0.94205967  0.21871656  0.33832188  1
  S2-  S187  1  0.90658481  0.23351853  0.83928686  1
  S2-  S188  1  0.75658384  0.51795367  0.36254219  1
  S2-  S189  1  0.98276666  0.50357236  0.86116113  1
  S2-  S190  1  0.80020211  0.77728100  0.36445393  1
  S2-  S191  1  0.85239723  0.74267268  0.84808937  1
  S2-  S192  1  -0.00398585  0.13712146  0.45839063  1
  S2-  S193  1  -0.01099320  0.12040500  0.94894492  1
  S2-  S194  1  -0.00300369  0.38254650  0.45032765  1
  S2-  S195  1  -0.01587691  0.36894759  0.95329272  1
  S2-  S196  1  -0.00243364  0.63126100  0.45772008  1
  S2-  S197  1  -0.01616084  0.63140768  0.96035133  1
  S2-  S198  1  0.00010708  0.87844852  0.46316415  1
  S2-  S199  1  -0.01363322  0.87598504  0.94769812  1
  S2-  S200  1  0.24794280  0.13417312  0.44988565  1
  S2-  S201  1  0.23819028  0.12764279  0.95878634  1
  S2-  S202  1  0.24969493  0.37962395  0.44808096  1
  S2-  S203  1  0.23850078  0.37804224  0.95241892  1
  S2-  S204  1  0.24982526  0.63204419  0.45388064  1
  S2-  S205  1  0.23631452  0.62954804  0.96728721  1
  S2-  S206  1  0.24587117  0.88140916  0.45159779  1
  S2-  S207  1  0.23478926  0.87529874  0.95671611  1
  S2-  S208  1  0.49932589  0.13065408  0.43893901  1
  S2-  S209  1  0.48471554  0.13404683  0.95907841  1
  S2-  S210  1  0.49803208  0.38152825  0.44662077  1
  S2-  S211  1  0.47712859  0.37876194  0.96058674  1
  S2-  S212  1  0.51443382  0.65112791  0.45207580  1
  S2-  S213  1  0.49348877  0.62725618  0.96981971  1
  S2-  S214  1  0.50511682  0.88070687  0.45656731  1
  S2-  S215  1  0.49068399  0.87457235  0.95906958  1
  S2-  S216  1  0.75222134  0.12756159  0.46562083  1
  S2-  S217  1  0.73600757  0.12094931  0.95703552  1
  S2-  S218  1  0.74616431  0.38652169  0.46399426  1
  S2-  S219  1  0.74130941  0.37494122  0.95555847  1
  S2-  S220  1  0.74749192  0.63965423  0.46631040  1
  S2-  S221  1  0.73730573  0.62683317  0.95074862  1
  S2-  S222  1  0.74994162  0.88634760  0.47422874  1
  S2-  S223  1  0.73754985  0.87646212  0.95706603  1
  S2-  S224  1  0.10903934  0.00163536  0.03452613  1
  S2-  S225  1  0.12512388  0.01378404  0.53982835  1
  S2-  S226  1  0.11234730  0.25027826  0.04759319  1
  S2-  S227  1  0.12482623  0.26017508  0.54960736  1
  S2-  S228  1  0.10758167  0.49799735  0.04074886  1
  S2-  S229  1  0.12672485  0.50411544  0.54155910  1
  S2-  S230  1  0.10903912  0.75395967  0.04449145  1
  S2-  S231  1  0.13000128  0.75906825  0.54120421  1
  S2-  S232  1  0.36210033  0.00349441  0.03690371  1
  S2-  S233  1  0.37669783  0.01142857  0.53849245  1
  S2-  S234  1  0.35582605  0.25095598  0.04637318  1
  S2-  S235  1  0.37489791  0.25929453  0.53426604  1
  S2-  S236  1  0.36279174  0.50112727  0.04456434  1
  S2-  S237  1  0.37606403  0.50531444  0.54233621  1
  S2-  S238  1  0.36451150  0.75577504  0.04833760  1
  S2-  S239  1  0.37357541  0.76456217  0.53803924  1
  S2-  S240  1  0.61588192  0.00423907  0.05219669  1
  S2-  S241  1  0.61565180  0.02244721  0.55814771  1
  S2-  S242  1  0.61585661  0.25386775  0.04128533  1
  S2-  S243  1  0.62037198  0.25798509  0.54706784  1
  S2-  S244  1  0.61865782  0.49783529  0.04477773  1
  S2-  S245  1  0.61774668  0.50998310  0.54431619  1
  S2-  S246  1  0.61611676  0.75247472  0.04666957  1
  S2-  S247  1  0.62329872  0.75505680  0.56525214  1
  S2-  S248  1  0.86550769  0.00096522  0.05165273  1
  S2-  S249  1  0.88372013  0.00867131  0.55027727  1
  S2-  S250  1  0.86598885  0.25066882  0.04530798  1
  S2-  S251  1  0.87518423  0.26311202  0.54115481  1
  S2-  S252  1  0.86471458  0.49969689  0.04346875  1
  S2-  S253  1  0.87637737  0.50840237  0.54490002  1
  S2-  S254  1  0.86513127  0.75248758  0.05198218  1
  S2-  S255  1  0.88102636  0.76022252  0.55441555  1
