# generated using pymatgen
data_La6Ce7Pr13Nd19Sm19(BiS2)64
_symmetry_space_group_name_H-M   'P 1'
_cell_length_a   16.09783468
_cell_length_b   16.06436722
_cell_length_c   27.27016752
_cell_angle_alpha   89.97791353
_cell_angle_beta   89.92689407
_cell_angle_gamma   89.95978216
_symmetry_Int_Tables_number   1
_chemical_formula_structural   La6Ce7Pr13Nd19Sm19(BiS2)64
_chemical_formula_sum   'La6 Ce7 Pr13 Nd19 Sm19 Bi64 S128'
_cell_volume   7052.09898105
_cell_formula_units_Z   1
loop_
 _symmetry_equiv_pos_site_id
 _symmetry_equiv_pos_as_xyz
  1  'x, y, z'
loop_
 _atom_type_symbol
 _atom_type_oxidation_number
  La3+  3.0
  Ce3+  3.0
  Pr3+  3.0
  Nd3+  3.0
  Sm3+  3.0
  Bi2+  2.0
  S2-  -2.0
loop_
 _atom_site_type_symbol
 _atom_site_label
 _atom_site_symmetry_multiplicity
 _atom_site_fract_x
 _atom_site_fract_y
 _atom_site_fract_z
 _atom_site_occupancy
  La3+  La0  1  0.62775583  -0.01558131  0.44098811  1
  La3+  La1  1  -0.00627964  0.36355403  0.08257235  1
  La3+  La2  1  0.75230361  0.85880036  0.56647592  1
  La3+  La3  1  0.38673287  0.48452784  0.39745784  1
  La3+  La4  1  0.87164782  0.74792814  0.39564170  1
  La3+  La5  1  0.74267261  0.11901655  0.61810815  1
  Ce3+  Ce6  1  0.49498404  0.62193802  0.07055811  1
  Ce3+  Ce7  1  0.37623835  0.25080380  0.94477004  1
  Ce3+  Ce8  1  0.50322909  0.11071892  0.55985718  1
  Ce3+  Ce9  1  0.87707043  0.48615859  0.43004023  1
  Ce3+  Ce10  1  0.62694573  -0.00725017  0.93600326  1
  Ce3+  Ce11  1  0.37633056  -0.00348813  0.94459474  1
  Ce3+  Ce12  1  0.00436795  0.61349026  0.07326136  1
  Pr3+  Pr13  1  0.24964253  0.12349182  0.06530072  1
  Pr3+  Pr14  1  0.12511393  0.25634641  0.94148447  1
  Pr3+  Pr15  1  0.12290858  -0.01481099  0.43380898  1
  Pr3+  Pr16  1  0.50120049  0.35927439  0.56016102  1
  Pr3+  Pr17  1  0.87711403  0.25661926  0.93148537  1
  Pr3+  Pr18  1  0.50039569  0.85371988  0.56762827  1
  Pr3+  Pr19  1  0.49988769  0.60931244  0.55548134  1
  Pr3+  Pr20  1  0.75264366  0.63140254  0.08165310  1
  Pr3+  Pr21  1  0.00638737  0.11380157  0.59513848  1
  Pr3+  Pr22  1  0.12796962  0.00863797  0.91993034  1
  Pr3+  Pr23  1  -0.00077497  0.85891990  0.56108578  1
  Pr3+  Pr24  1  0.37884730  0.48907897  0.93345260  1
  Pr3+  Pr25  1  0.37667591  0.23700408  0.43257613  1
  Nd3+  Nd26  1  0.26240230  0.37269622  0.08592077  1
  Nd3+  Nd27  1  0.75026964  0.36704867  0.06941709  1
  Nd3+  Nd28  1  0.00193174  0.11944066  0.05586369  1
  Nd3+  Nd29  1  0.25216145  0.62138503  0.05875999  1
  Nd3+  Nd30  1  0.62604638  0.48500805  0.43465317  1
  Nd3+  Nd31  1  0.87571341  0.23817862  0.44066489  1
  Nd3+  Nd32  1  0.62019484  0.73498043  0.42733121  1
  Nd3+  Nd33  1  0.12804290  0.74393636  0.94081149  1
  Nd3+  Nd34  1  0.50469567  0.11888021  0.05441694  1
  Nd3+  Nd35  1  0.12732987  0.47856450  0.43154428  1
  Nd3+  Nd36  1  0.62919845  0.25147587  0.93664641  1
  Nd3+  Nd37  1  0.38030174  0.74458264  0.93830321  1
  Nd3+  Nd38  1  0.87691451  0.50031126  0.94761307  1
  Nd3+  Nd39  1  0.87455761  -0.01373273  0.92066086  1
  Nd3+  Nd40  1  0.37486164  0.73832037  0.43045644  1
  Nd3+  Nd41  1  0.75563893  0.36243150  0.56407374  1
  Nd3+  Nd42  1  0.24723818  0.86104680  0.55804334  1
  Nd3+  Nd43  1  0.50225548  0.87145515  0.06451541  1
  Nd3+  Nd44  1  0.24802277  0.35997638  0.55361700  1
  Sm3+  Sm45  1  -0.00161875  0.36099264  0.55808222  1
  Sm3+  Sm46  1  0.75460400  0.11629769  0.05209131  1
  Sm3+  Sm47  1  0.12567345  0.73157780  0.43648432  1
  Sm3+  Sm48  1  0.37542743  -0.01387167  0.45172020  1
  Sm3+  Sm49  1  -0.00218091  0.61519806  0.55373400  1
  Sm3+  Sm50  1  0.62842032  0.23599400  0.44632808  1
  Sm3+  Sm51  1  0.87575336  -0.01343716  0.44981925  1
  Sm3+  Sm52  1  0.24777357  0.87436862  0.05746710  1
  Sm3+  Sm53  1  0.12693954  0.49364240  0.95002644  1
  Sm3+  Sm54  1  0.12491410  0.22818360  0.43409375  1
  Sm3+  Sm55  1  0.75325654  0.61449981  0.55206768  1
  Sm3+  Sm56  1  0.24643776  0.11149828  0.56033180  1
  Sm3+  Sm57  1  0.62800467  0.74736611  0.94796530  1
  Sm3+  Sm58  1  0.76613404  0.88283019  0.07253247  1
  Sm3+  Sm59  1  0.25112196  0.60783311  0.54792459  1
  Sm3+  Sm60  1  0.87924230  0.74536017  0.94335779  1
  Sm3+  Sm61  1  0.50630408  0.36765032  0.06525030  1
  Sm3+  Sm62  1  0.62778110  0.50041525  0.95851355  1
  Sm3+  Sm63  1  0.00433496  0.87257674  0.05264618  1
  Bi2+  Bi64  1  -0.07691539  0.13926851  0.29409433  1
  Bi2+  Bi65  1  0.01715106  0.12519913  0.78935441  1
  Bi2+  Bi66  1  -0.00327017  0.32005542  0.27959953  1
  Bi2+  Bi67  1  -0.00576084  0.38912743  0.79649829  1
  Bi2+  Bi68  1  0.05065263  0.64674897  0.28883879  1
  Bi2+  Bi69  1  -0.04277371  0.59505628  0.82388013  1
  Bi2+  Bi70  1  0.03638478  0.97836626  0.30399232  1
  Bi2+  Bi71  1  -0.01579487  0.78194823  0.78699651  1
  Bi2+  Bi72  1  0.24783631  0.13357196  0.28456671  1
  Bi2+  Bi73  1  0.27160413  0.15645644  0.78519691  1
  Bi2+  Bi74  1  0.22902928  0.39881424  0.29109651  1
  Bi2+  Bi75  1  0.21143225  0.42402756  0.78397021  1
  Bi2+  Bi76  1  0.31590985  0.71867088  0.28465313  1
  Bi2+  Bi77  1  0.16204771  0.60625658  0.81508296  1
  Bi2+  Bi78  1  0.25319796  0.91168008  0.29396845  1
  Bi2+  Bi79  1  0.25268297  0.89863312  0.80965664  1
  Bi2+  Bi80  1  0.44786969  0.11481609  0.29256106  1
  Bi2+  Bi81  1  0.46295952  0.12341561  0.77542061  1
  Bi2+  Bi82  1  0.49912026  0.30868920  0.27864620  1
  Bi2+  Bi83  1  0.48736875  0.41508592  0.80674387  1
  Bi2+  Bi84  1  0.53488053  0.65148035  0.27408851  1
  Bi2+  Bi85  1  0.49986262  0.58457570  0.74488767  1
  Bi2+  Bi86  1  0.50750724  0.89745204  0.29352632  1
  Bi2+  Bi87  1  0.48600374  0.84366743  0.79784454  1
  Bi2+  Bi88  1  0.72218175  0.16400338  0.28384112  1
  Bi2+  Bi89  1  0.74817583  0.13079820  0.82129430  1
  Bi2+  Bi90  1  0.75613799  0.36153494  0.29280916  1
  Bi2+  Bi91  1  0.73719678  0.41750825  0.79417394  1
  Bi2+  Bi92  1  0.75752639  0.61132917  0.28418519  1
  Bi2+  Bi93  1  0.76909220  0.62196191  0.78883242  1
  Bi2+  Bi94  1  0.76593635  0.91570351  0.27988141  1
  Bi2+  Bi95  1  0.72195626  0.81919281  0.79829214  1
  Bi2+  Bi96  1  0.13027286  0.01313345  0.15294941  1
  Bi2+  Bi97  1  0.13776500  -0.02396302  0.70764846  1
  Bi2+  Bi98  1  0.09589385  0.18136696  0.21509292  1
  Bi2+  Bi99  1  0.15749787  0.26279604  0.71398623  1
  Bi2+  Bi100  1  0.14898228  0.57749243  0.20126925  1
  Bi2+  Bi101  1  0.05069249  0.52703344  0.71796211  1
  Bi2+  Bi102  1  0.11086899  0.86185990  0.22283286  1
  Bi2+  Bi103  1  0.11889686  0.71881738  0.70656159  1
  Bi2+  Bi104  1  0.31951743  0.02432299  0.19510164  1
  Bi2+  Bi105  1  0.33775148  -0.00122055  0.72056038  1
  Bi2+  Bi106  1  0.37169946  0.23158080  0.20159866  1
  Bi2+  Bi107  1  0.38099450  0.26115398  0.70811860  1
  Bi2+  Bi108  1  0.38630739  0.51557384  0.20557663  1
  Bi2+  Bi109  1  0.32901264  0.50498450  0.70644635  1
  Bi2+  Bi110  1  0.38591103  0.83450205  0.19914588  1
  Bi2+  Bi111  1  0.30294158  0.68909030  0.74028015  1
  Bi2+  Bi112  1  0.59148815  0.06261853  0.21856009  1
  Bi2+  Bi113  1  0.61044872  -0.00721555  0.71983864  1
  Bi2+  Bi114  1  0.63394601  0.29639470  0.18916910  1
  Bi2+  Bi115  1  0.60048989  0.26027774  0.71491134  1
  Bi2+  Bi116  1  0.61707808  0.47446928  0.24630250  1
  Bi2+  Bi117  1  0.67736337  0.51921906  0.70239587  1
  Bi2+  Bi118  1  0.63624066  0.80174169  0.22497941  1
  Bi2+  Bi119  1  0.60362778  0.74828835  0.70022146  1
  Bi2+  Bi120  1  0.88525786  0.00627056  0.20539488  1
  Bi2+  Bi121  1  0.87729576  -0.02406849  0.71742997  1
  Bi2+  Bi122  1  0.81475755  0.20762130  0.18193517  1
  Bi2+  Bi123  1  0.89115411  0.32110938  0.70749174  1
  Bi2+  Bi124  1  0.90650185  0.47103082  0.22747734  1
  Bi2+  Bi125  1  0.86804698  0.50536042  0.67042078  1
  Bi2+  Bi126  1  0.88631850  0.74293914  0.19996445  1
  Bi2+  Bi127  1  0.86428880  0.72451770  0.70332077  1
  S2-  S128  1  -0.01769323  0.21022564  0.14213835  1
  S2-  S129  1  -0.10473784  0.11941202  0.67349770  1
  S2-  S130  1  0.02060841  0.48989525  0.15220753  1
  S2-  S131  1  0.01943592  0.28587086  0.64586508  1
  S2-  S132  1  0.02808047  0.69479784  0.15995806  1
  S2-  S133  1  -0.00130373  0.72548661  0.63290429  1
  S2-  S134  1  -0.08290476  0.88130675  0.13764423  1
  S2-  S135  1  0.00657529  0.95059130  0.65047986  1
  S2-  S136  1  0.23524052  0.23129706  0.14645429  1
  S2-  S137  1  0.16278691  0.11570966  0.64635755  1
  S2-  S138  1  0.22773454  0.43365078  0.18629802  1
  S2-  S139  1  0.25727312  0.35703336  0.65322487  1
  S2-  S140  1  0.30034889  0.62384714  0.15444418  1
  S2-  S141  1  0.24288459  0.62389502  0.64594620  1
  S2-  S142  1  0.22952757  0.82540793  0.15136251  1
  S2-  S143  1  0.25131238  0.87937622  0.65679504  1
  S2-  S144  1  0.52272140  0.15796894  0.15108556  1
  S2-  S145  1  0.56561209  0.11657678  0.65039737  1
  S2-  S146  1  0.41486121  0.38227082  0.14682774  1
  S2-  S147  1  0.50958850  0.35999757  0.66178128  1
  S2-  S148  1  0.51771504  0.61931577  0.16816604  1
  S2-  S149  1  0.48671465  0.67462389  0.64814069  1
  S2-  S150  1  0.53717799  0.90688222  0.16004617  1
  S2-  S151  1  0.51126112  0.88327000  0.66778809  1
  S2-  S152  1  0.75820382  0.02439637  0.13584501  1
  S2-  S153  1  0.71899048  0.12324054  0.72836302  1
  S2-  S154  1  0.84654247  0.37007230  0.15169498  1
  S2-  S155  1  0.73948986  0.28949781  0.65440070  1
  S2-  S156  1  0.80105644  0.58651528  0.17926296  1
  S2-  S157  1  0.74055268  0.71889071  0.63346951  1
  S2-  S158  1  0.73609961  0.77264191  0.14646546  1
  S2-  S159  1  0.74459138  0.94993686  0.65752198  1
  S2-  S160  1  0.13234840  0.10164524  0.35780374  1
  S2-  S161  1  0.10696322  -0.02541876  0.81822389  1
  S2-  S162  1  0.12907289  0.32054540  0.34971423  1
  S2-  S163  1  0.13766498  0.15939999  0.85719057  1
  S2-  S164  1  0.12273307  0.51306478  0.33336650  1
  S2-  S165  1  0.12044369  0.38866193  0.87035522  1
  S2-  S166  1  0.17145127  0.73975620  0.34163038  1
  S2-  S167  1  0.13525216  0.77672251  0.84322708  1
  S2-  S168  1  0.38302153  -0.02331298  0.35431714  1
  S2-  S169  1  0.40902095  -0.02443087  0.84930024  1
  S2-  S170  1  0.36856134  0.33296394  0.34646308  1
  S2-  S171  1  0.36968078  0.34623983  0.86403572  1
  S2-  S172  1  0.33371271  0.55339245  0.30703054  1
  S2-  S173  1  0.42089820  0.55329994  0.84149802  1
  S2-  S174  1  0.49047201  0.74687878  0.35503463  1
  S2-  S175  1  0.36382174  0.76078022  0.83860268  1
  S2-  S176  1  0.63257711  -0.03231958  0.34040500  1
  S2-  S177  1  0.66423526  -0.02316114  0.84024296  1
  S2-  S178  1  0.62895084  0.27026194  0.35025307  1
  S2-  S179  1  0.62991204  0.24575359  0.83678207  1
  S2-  S180  1  0.54835257  0.50615312  0.34566514  1
  S2-  S181  1  0.62629321  0.47437143  0.86104151  1
  S2-  S182  1  0.71927793  0.73868300  0.34328411  1
  S2-  S183  1  0.59276838  0.74378726  0.85012050  1
  S2-  S184  1  0.87424280  -0.06907797  0.35556887  1
  S2-  S185  1  0.89241223  0.02072600  0.82003171  1
  S2-  S186  1  0.88207912  0.35374242  0.36151729  1
  S2-  S187  1  0.90635416  0.21582976  0.83190830  1
  S2-  S188  1  0.88083713  0.58181891  0.34725918  1
  S2-  S189  1  0.86037017  0.40164760  0.86582512  1
  S2-  S190  1  0.93768056  0.76206636  0.29629569  1
  S2-  S191  1  0.86034115  0.83192400  0.85902518  1
  S2-  S192  1  -0.00422147  0.11139867  0.45054933  1
  S2-  S193  1  -0.00411543  0.12181817  0.94893526  1
  S2-  S194  1  0.00665465  0.35846416  0.45611600  1
  S2-  S195  1  -0.00248956  0.37743771  0.97027738  1
  S2-  S196  1  0.00672598  0.60970565  0.44943614  1
  S2-  S197  1  0.00445373  0.62113627  0.96139209  1
  S2-  S198  1  0.00272841  0.85501376  0.44916627  1
  S2-  S199  1  0.00620418  0.87188873  0.94792166  1
  S2-  S200  1  0.25515686  0.11114784  0.45610513  1
  S2-  S201  1  0.25609188  0.12410253  0.95709847  1
  S2-  S202  1  0.25499103  0.36300484  0.45010331  1
  S2-  S203  1  0.25398084  0.37368644  0.97058693  1
  S2-  S204  1  0.25590600  0.60625752  0.44298477  1
  S2-  S205  1  0.25387621  0.61794376  0.95177638  1
  S2-  S206  1  0.25074327  0.86162639  0.45097459  1
  S2-  S207  1  0.25131667  0.87191076  0.95108837  1
  S2-  S208  1  0.50050866  0.11256390  0.45227898  1
  S2-  S209  1  0.50414455  0.12374148  0.94769407  1
  S2-  S210  1  0.50170896  0.36082364  0.45313162  1
  S2-  S211  1  0.50812884  0.37269007  0.96242514  1
  S2-  S212  1  0.49422537  0.60645970  0.45005552  1
  S2-  S213  1  0.50321579  0.62259521  0.96169360  1
  S2-  S214  1  0.49671510  0.86215921  0.45925091  1
  S2-  S215  1  0.50194984  0.86980687  0.95694647  1
  S2-  S216  1  0.75296313  0.11247740  0.44241993  1
  S2-  S217  1  0.75337913  0.12010612  0.94686876  1
  S2-  S218  1  0.74742799  0.36247510  0.45778313  1
  S2-  S219  1  0.74722825  0.37514865  0.96456885  1
  S2-  S220  1  0.74671556  0.61025105  0.44866954  1
  S2-  S221  1  0.75161390  0.62542466  0.95828372  1
  S2-  S222  1  0.75131157  0.85906890  0.45419252  1
  S2-  S223  1  0.75099322  0.86852382  0.96186685  1
  S2-  S224  1  0.12663862  -0.00335129  0.03115099  1
  S2-  S225  1  0.12606364  -0.01244693  0.54052467  1
  S2-  S226  1  0.12432324  0.24806385  0.04686001  1
  S2-  S227  1  0.12522021  0.23513984  0.53913454  1
  S2-  S228  1  0.13407994  0.49204485  0.05281510  1
  S2-  S229  1  0.12251224  0.48750498  0.54506895  1
  S2-  S230  1  0.12692382  0.74761292  0.04582804  1
  S2-  S231  1  0.12970153  0.73301247  0.53906706  1
  S2-  S232  1  0.37572584  -0.00401466  0.05135527  1
  S2-  S233  1  0.37403859  -0.01293538  0.55594443  1
  S2-  S234  1  0.38210413  0.24504369  0.04842691  1
  S2-  S235  1  0.37364744  0.23412602  0.54525396  1
  S2-  S236  1  0.37988504  0.49664574  0.04556549  1
  S2-  S237  1  0.37401594  0.48434485  0.55088720  1
  S2-  S238  1  0.37403227  0.75074856  0.04611645  1
  S2-  S239  1  0.37056179  0.73541481  0.53952255  1
  S2-  S240  1  0.62707584  -0.00667822  0.04209204  1
  S2-  S241  1  0.62284523  -0.01610442  0.54855431  1
  S2-  S242  1  0.62967278  0.24244243  0.04432877  1
  S2-  S243  1  0.63020968  0.23488087  0.54899202  1
  S2-  S244  1  0.62769910  0.49771433  0.06361221  1
  S2-  S245  1  0.62845552  0.48674087  0.54539419  1
  S2-  S246  1  0.62191686  0.74537368  0.05076098  1
  S2-  S247  1  0.62268488  0.73391796  0.53504024  1
  S2-  S248  1  0.88188830  -0.00277926  0.03044315  1
  S2-  S249  1  0.87602658  -0.00910645  0.55116454  1
  S2-  S250  1  0.86993483  0.24210777  0.03904561  1
  S2-  S251  1  0.87696241  0.23693007  0.54714221  1
  S2-  S252  1  0.86778643  0.50107810  0.05209046  1
  S2-  S253  1  0.87749917  0.48817461  0.53877062  1
  S2-  S254  1  0.88118628  0.74546494  0.04553261  1
  S2-  S255  1  0.87568540  0.73316115  0.53433520  1
