# generated using pymatgen
data_La6Ce7Pr13Nd19Sm19(BiS2)64
_symmetry_space_group_name_H-M   'P 1'
_cell_length_a   16.01593714
_cell_length_b   16.04024896
_cell_length_c   27.35372279
_cell_angle_alpha   90.10354468
_cell_angle_beta   90.33614256
_cell_angle_gamma   90.00670802
_symmetry_Int_Tables_number   1
_chemical_formula_structural   La6Ce7Pr13Nd19Sm19(BiS2)64
_chemical_formula_sum   'La6 Ce7 Pr13 Nd19 Sm19 Bi64 S128'
_cell_volume   7027.02850015
_cell_formula_units_Z   1
loop_
 _symmetry_equiv_pos_site_id
 _symmetry_equiv_pos_as_xyz
  1  'x, y, z'
loop_
 _atom_type_symbol
 _atom_type_oxidation_number
  La3+  3.0
  Ce3+  3.0
  Pr3+  3.0
  Nd3+  3.0
  Sm3+  3.0
  Bi2+  2.0
  S2-  -2.0
loop_
 _atom_site_type_symbol
 _atom_site_label
 _atom_site_symmetry_multiplicity
 _atom_site_fract_x
 _atom_site_fract_y
 _atom_site_fract_z
 _atom_site_occupancy
  La3+  La0  1  0.61747100  0.00295347  0.89753150  1
  La3+  La1  1  0.84568021  0.00254042  0.41925123  1
  La3+  La2  1  -0.00430550  0.35347140  0.61288261  1
  La3+  La3  1  0.50215052  0.88515865  0.07170328  1
  La3+  La4  1  0.74038852  0.38196689  0.56383510  1
  La3+  La5  1  0.85944552  0.25890292  0.39995625  1
  Ce3+  Ce6  1  0.62821467  0.25220478  0.94745404  1
  Ce3+  Ce7  1  0.37753990  0.50636660  0.94077679  1
  Ce3+  Ce8  1  0.85497627  0.74672717  0.43065238  1
  Ce3+  Ce9  1  0.75068216  0.38182793  0.07209306  1
  Ce3+  Ce10  1  0.87177724  0.76166803  0.94482824  1
  Ce3+  Ce11  1  0.11962953  0.75392468  0.92850318  1
  Ce3+  Ce12  1  0.37700673  0.25501155  0.93844167  1
  Pr3+  Pr13  1  -0.01954898  0.87587000  0.54708886  1
  Pr3+  Pr14  1  0.73978338  0.13217983  0.56342386  1
  Pr3+  Pr15  1  0.47547559  0.11980391  0.58340458  1
  Pr3+  Pr16  1  0.75756190  0.13031683  0.07447060  1
  Pr3+  Pr17  1  -0.01570948  0.61885975  0.56056673  1
  Pr3+  Pr18  1  0.60838320  0.75638887  0.43635626  1
  Pr3+  Pr19  1  0.86387487  0.50294712  0.92933979  1
  Pr3+  Pr20  1  -0.00053025  0.62663134  0.05721453  1
  Pr3+  Pr21  1  0.10738845  0.49760523  0.43743958  1
  Pr3+  Pr22  1  0.00425278  0.38787618  0.10507592  1
  Pr3+  Pr23  1  0.37128381  0.00901644  0.94097929  1
  Pr3+  Pr24  1  0.50282906  0.38369354  0.07520560  1
  Pr3+  Pr25  1  0.75212221  0.63075022  0.06030900  1
  Nd3+  Nd26  1  0.49889529  0.63686454  0.07145924  1
  Nd3+  Nd27  1  0.00271992  0.88363694  0.05965425  1
  Nd3+  Nd28  1  0.36016801  0.75483331  0.42990776  1
  Nd3+  Nd29  1  0.60776589  0.24996120  0.44085531  1
  Nd3+  Nd30  1  0.24595498  0.88173823  0.05225084  1
  Nd3+  Nd31  1  0.25043869  0.38223806  0.06077132  1
  Nd3+  Nd32  1  0.85450314  0.50295831  0.42426891  1
  Nd3+  Nd33  1  0.00591120  0.13244927  0.07438364  1
  Nd3+  Nd34  1  -0.01594495  0.13171858  0.55063294  1
  Nd3+  Nd35  1  0.11277096  0.75113405  0.42569050  1
  Nd3+  Nd36  1  0.62162107  0.76054250  0.93685762  1
  Nd3+  Nd37  1  0.23921757  0.38627059  0.56888586  1
  Nd3+  Nd38  1  0.74383986  0.87883418  0.56989946  1
  Nd3+  Nd39  1  0.24654651  0.62965041  0.05100263  1
  Nd3+  Nd40  1  0.60394383  0.49982900  0.43449238  1
  Nd3+  Nd41  1  0.23500673  0.63222173  0.55816081  1
  Nd3+  Nd42  1  0.49043751  0.37760927  0.56971784  1
  Nd3+  Nd43  1  0.24845642  0.13556476  0.06679202  1
  Nd3+  Nd44  1  0.48666771  0.63180383  0.56505000  1
  Sm3+  Sm45  1  0.50192302  0.12870440  0.06370043  1
  Sm3+  Sm46  1  0.10584496  0.00467903  0.44185097  1
  Sm3+  Sm47  1  0.11927939  0.01656303  0.93224507  1
  Sm3+  Sm48  1  0.12327750  0.26425293  0.94386397  1
  Sm3+  Sm49  1  0.35826212  0.00129062  0.44624514  1
  Sm3+  Sm50  1  0.36399945  0.25014893  0.44481646  1
  Sm3+  Sm51  1  0.75146499  0.88627229  0.05638992  1
  Sm3+  Sm52  1  0.62223791  0.50543871  0.94790694  1
  Sm3+  Sm53  1  0.23618075  0.12883844  0.55686650  1
  Sm3+  Sm54  1  0.12144583  0.51117782  0.92923928  1
  Sm3+  Sm55  1  0.22958453  0.87184768  0.55980142  1
  Sm3+  Sm56  1  0.36391704  0.50108743  0.44044756  1
  Sm3+  Sm57  1  0.37644617  0.76000103  0.94332095  1
  Sm3+  Sm58  1  0.87521198  0.01227135  0.93757809  1
  Sm3+  Sm59  1  0.73545713  0.62631942  0.55467040  1
  Sm3+  Sm60  1  0.48536700  0.87085384  0.57057377  1
  Sm3+  Sm61  1  0.87506120  0.25808048  0.95394803  1
  Sm3+  Sm62  1  0.60387307  0.00489260  0.45037603  1
  Sm3+  Sm63  1  0.10702803  0.25465241  0.43952779  1
  Bi2+  Bi64  1  0.01724871  0.09507772  0.29288546  1
  Bi2+  Bi65  1  0.05174351  0.08543695  0.77707065  1
  Bi2+  Bi66  1  0.01781180  0.37051169  0.28482244  1
  Bi2+  Bi67  1  0.00806014  0.34097420  0.82214693  1
  Bi2+  Bi68  1  0.05148154  0.63383924  0.30013263  1
  Bi2+  Bi69  1  0.03777802  0.68149561  0.75475415  1
  Bi2+  Bi70  1  0.10343211  0.82662871  0.29617795  1
  Bi2+  Bi71  1  0.03409754  0.85214689  0.81499594  1
  Bi2+  Bi72  1  0.27448108  0.14987725  0.29562909  1
  Bi2+  Bi73  1  0.26606904  0.12404921  0.81541148  1
  Bi2+  Bi74  1  0.28367602  0.34416411  0.29538361  1
  Bi2+  Bi75  1  0.28149157  0.39711416  0.78364118  1
  Bi2+  Bi76  1  0.32827686  0.61766302  0.26397087  1
  Bi2+  Bi77  1  0.22809135  0.63963253  0.77671811  1
  Bi2+  Bi78  1  0.30658015  0.91953335  0.30124230  1
  Bi2+  Bi79  1  0.21115331  0.93063516  0.80567631  1
  Bi2+  Bi80  1  0.47759467  0.13171497  0.29041786  1
  Bi2+  Bi81  1  0.45518316  0.14327238  0.76979358  1
  Bi2+  Bi82  1  0.48189345  0.36507426  0.29319977  1
  Bi2+  Bi83  1  0.54543033  0.41693606  0.75200778  1
  Bi2+  Bi84  1  0.51706342  0.62538357  0.29312728  1
  Bi2+  Bi85  1  0.46503444  0.61417744  0.79793585  1
  Bi2+  Bi86  1  0.50622351  0.88171207  0.28683427  1
  Bi2+  Bi87  1  0.47874269  0.87362814  0.78975202  1
  Bi2+  Bi88  1  0.72255435  0.10737848  0.29448496  1
  Bi2+  Bi89  1  0.75457987  0.13981118  0.79662285  1
  Bi2+  Bi90  1  0.72955567  0.38452522  0.28740927  1
  Bi2+  Bi91  1  0.76745478  0.36883827  0.81522309  1
  Bi2+  Bi92  1  0.76033124  0.64186037  0.29259478  1
  Bi2+  Bi93  1  0.66418688  0.63999661  0.79487920  1
  Bi2+  Bi94  1  0.70138481  0.84202763  0.26793080  1
  Bi2+  Bi95  1  0.76963889  0.86786370  0.78569217  1
  Bi2+  Bi96  1  0.17364203  -0.00285161  0.21766967  1
  Bi2+  Bi97  1  0.13055872  -0.01895697  0.69119591  1
  Bi2+  Bi98  1  0.18631977  0.25493796  0.20640418  1
  Bi2+  Bi99  1  0.24815040  0.23381816  0.71894161  1
  Bi2+  Bi100  1  0.14875384  0.53791644  0.21334953  1
  Bi2+  Bi101  1  0.14089045  0.49408910  0.71160555  1
  Bi2+  Bi102  1  0.14558935  0.74643830  0.19163487  1
  Bi2+  Bi103  1  0.04801918  0.80389031  0.66580498  1
  Bi2+  Bi104  1  0.35717534  0.06582469  0.20147480  1
  Bi2+  Bi105  1  0.33390151  -0.01090506  0.70799660  1
  Bi2+  Bi106  1  0.37929600  0.25239532  0.15470286  1
  Bi2+  Bi107  1  0.39154450  0.36451380  0.68720621  1
  Bi2+  Bi108  1  0.36857383  0.44558599  0.20808740  1
  Bi2+  Bi109  1  0.40455499  0.56334478  0.69116937  1
  Bi2+  Bi110  1  0.37047647  0.79409881  0.21912364  1
  Bi2+  Bi111  1  0.28511244  0.80102864  0.72523099  1
  Bi2+  Bi112  1  0.62436452  -0.00794545  0.20839995  1
  Bi2+  Bi113  1  0.62699168  0.01459002  0.69440400  1
  Bi2+  Bi114  1  0.56131269  0.24459565  0.20881303  1
  Bi2+  Bi115  1  0.65564050  0.27260503  0.71317151  1
  Bi2+  Bi116  1  0.61003651  0.49593195  0.21807145  1
  Bi2+  Bi117  1  0.61032306  0.56380773  0.68496828  1
  Bi2+  Bi118  1  0.62798016  0.69351512  0.20130613  1
  Bi2+  Bi119  1  0.56699117  0.75593820  0.71664182  1
  Bi2+  Bi120  1  0.87660450  -0.03294173  0.21404085  1
  Bi2+  Bi121  1  0.93451664  -0.05499913  0.72655965  1
  Bi2+  Bi122  1  0.84520559  0.24102620  0.20160462  1
  Bi2+  Bi123  1  0.87475338  0.21546985  0.70832755  1
  Bi2+  Bi124  1  0.88000394  0.53972931  0.21602318  1
  Bi2+  Bi125  1  0.87301165  0.48589695  0.71545995  1
  Bi2+  Bi126  1  0.95722119  0.75588088  0.22589867  1
  Bi2+  Bi127  1  0.83511028  0.69668805  0.74984372  1
  S2-  S128  1  -0.10756424  0.10355962  0.14975684  1
  S2-  S129  1  -0.00583062  0.17852207  0.64703435  1
  S2-  S130  1  0.01008323  0.28504550  0.19087421  1
  S2-  S131  1  -0.01251049  0.34824245  0.72804979  1
  S2-  S132  1  0.00887797  0.55059406  0.14774516  1
  S2-  S133  1  -0.00380090  0.52431678  0.64772534  1
  S2-  S134  1  -0.00972078  0.89524172  0.15933945  1
  S2-  S135  1  -0.11179693  0.87587744  0.63376390  1
  S2-  S136  1  0.13812341  0.11409083  0.14470115  1
  S2-  S137  1  0.31728844  0.12927236  0.64380452  1
  S2-  S138  1  0.16960401  0.40087541  0.14833362  1
  S2-  S139  1  0.16040888  0.34623777  0.65487188  1
  S2-  S140  1  0.25339628  0.62957013  0.14970506  1
  S2-  S141  1  0.24796553  0.53455286  0.64207356  1
  S2-  S142  1  0.24825874  0.87903399  0.15165510  1
  S2-  S143  1  0.21398365  0.75701200  0.63348501  1
  S2-  S144  1  0.49602715  0.01498146  0.14376495  1
  S2-  S145  1  0.53903268  0.17379009  0.67561953  1
  S2-  S146  1  0.63333840  0.37093319  0.14749824  1
  S2-  S147  1  0.61455900  0.38800708  0.64319117  1
  S2-  S148  1  0.48189983  0.51957043  0.14599059  1
  S2-  S149  1  0.45524377  0.74471136  0.64007220  1
  S2-  S150  1  0.49523699  0.76231458  0.14563316  1
  S2-  S151  1  0.47872527  0.97544870  0.64938444  1
  S2-  S152  1  0.69571588  0.15422348  0.17192869  1
  S2-  S153  1  0.76963259  0.09669797  0.66215393  1
  S2-  S154  1  0.84643930  0.39895632  0.15567231  1
  S2-  S155  1  0.82888269  0.36239875  0.65492397  1
  S2-  S156  1  0.78767556  0.63738794  0.15919902  1
  S2-  S157  1  0.77375242  0.58314127  0.64860489  1
  S2-  S158  1  0.75029390  0.89968432  0.15527849  1
  S2-  S159  1  0.66996694  0.86834339  0.66143479  1
  S2-  S160  1  0.12141639  0.00727923  0.34520555  1
  S2-  S161  1  -0.00351161  0.00878298  0.86179929  1
  S2-  S162  1  0.06082142  0.24710379  0.34372065  1
  S2-  S163  1  0.11466353  0.19417149  0.85315666  1
  S2-  S164  1  0.11976534  0.48190119  0.33651042  1
  S2-  S165  1  0.15078557  0.41241744  0.84930183  1
  S2-  S166  1  0.23893600  0.76596274  0.35503777  1
  S2-  S167  1  0.11388537  0.63647856  0.85459225  1
  S2-  S168  1  0.43915830  -0.00312078  0.36009901  1
  S2-  S169  1  0.44908392  -0.00582400  0.85270646  1
  S2-  S170  1  0.47649571  0.23957288  0.36991542  1
  S2-  S171  1  0.40392541  0.23538781  0.84138416  1
  S2-  S172  1  0.47214000  0.49906390  0.36359137  1
  S2-  S173  1  0.40175721  0.47082434  0.84673677  1
  S2-  S174  1  0.48774520  0.75551613  0.36016433  1
  S2-  S175  1  0.39389923  0.75208800  0.84604923  1
  S2-  S176  1  0.68482080  0.00661707  0.36320177  1
  S2-  S177  1  0.60830123  0.06510979  0.79587078  1
  S2-  S178  1  0.69677127  0.25137777  0.35101636  1
  S2-  S179  1  0.64941738  0.26059796  0.84995856  1
  S2-  S180  1  0.70310966  0.50618114  0.35041662  1
  S2-  S181  1  0.69430561  0.49661589  0.85858494  1
  S2-  S182  1  0.73126662  0.77558829  0.36042980  1
  S2-  S183  1  0.62254227  0.84484425  0.84858103  1
  S2-  S184  1  0.89816261  -0.01407946  0.32040317  1
  S2-  S185  1  0.78090391  0.00352047  0.85310021  1
  S2-  S186  1  0.87180538  0.19271232  0.29941759  1
  S2-  S187  1  0.87457910  0.23656041  0.85531890  1
  S2-  S188  1  0.88160148  0.40321939  0.33741503  1
  S2-  S189  1  0.90761529  0.48290581  0.83122311  1
  S2-  S190  1  0.89325549  0.63376741  0.35452167  1
  S2-  S191  1  0.86750489  0.76416087  0.84731023  1
  S2-  S192  1  -0.01925707  0.12902518  0.44384932  1
  S2-  S193  1  0.00131260  0.13744257  0.96419476  1
  S2-  S194  1  -0.01672017  0.37363025  0.44359099  1
  S2-  S195  1  -0.00168708  0.38420017  0.94618139  1
  S2-  S196  1  -0.00911749  0.62747436  0.45394952  1
  S2-  S197  1  -0.00944082  0.62930170  0.95132060  1
  S2-  S198  1  -0.01568624  0.87615843  0.43895007  1
  S2-  S199  1  0.00085719  0.88195659  0.95521843  1
  S2-  S200  1  0.23486958  0.12754877  0.45181807  1
  S2-  S201  1  0.24584108  0.13541109  0.95840576  1
  S2-  S202  1  0.24029646  0.37422797  0.45225757  1
  S2-  S203  1  0.25327835  0.38087927  0.95427744  1
  S2-  S204  1  0.23854057  0.62242867  0.44973123  1
  S2-  S205  1  0.25381265  0.63342058  0.94671597  1
  S2-  S206  1  0.23093641  0.88256213  0.45585148  1
  S2-  S207  1  0.24503218  0.88138235  0.94632769  1
  S2-  S208  1  0.47965342  0.12228283  0.47111832  1
  S2-  S209  1  0.50342710  0.12704668  0.95698141  1
  S2-  S210  1  0.48245475  0.37600875  0.46495448  1
  S2-  S211  1  0.50268818  0.37991125  0.95891649  1
  S2-  S212  1  0.48238591  0.62899546  0.46052392  1
  S2-  S213  1  0.50097625  0.63407972  0.95737858  1
  S2-  S214  1  0.48365377  0.88092654  0.46483835  1
  S2-  S215  1  0.49934977  0.88326799  0.96026758  1
  S2-  S216  1  0.73614294  0.13237611  0.45659891  1
  S2-  S217  1  0.75437067  0.13212728  0.96163689  1
  S2-  S218  1  0.73350999  0.37525214  0.45364893  1
  S2-  S219  1  0.74732261  0.38031525  0.96405856  1
  S2-  S220  1  0.72933456  0.62611358  0.45210010  1
  S2-  S221  1  0.74585336  0.63477071  0.95346270  1
  S2-  S222  1  0.73196838  0.88084572  0.46319372  1
  S2-  S223  1  0.74715320  0.88677499  0.95390976  1
  S2-  S224  1  0.12543597  0.00783356  0.03846354  1
  S2-  S225  1  0.11086548  0.00304603  0.54661169  1
  S2-  S226  1  0.12129830  0.26320004  0.04866568  1
  S2-  S227  1  0.11539651  0.25373131  0.54328946  1
  S2-  S228  1  0.12459151  0.50368440  0.03579968  1
  S2-  S229  1  0.11388202  0.49984014  0.54224437  1
  S2-  S230  1  0.12245172  0.75508477  0.03844942  1
  S2-  S231  1  0.10513172  0.74949651  0.53071179  1
  S2-  S232  1  0.36814727  0.00881739  0.04648186  1
  S2-  S233  1  0.35168108  -0.00599476  0.54817912  1
  S2-  S234  1  0.37735249  0.25611993  0.04227834  1
  S2-  S235  1  0.36017756  0.25581472  0.54799299  1
  S2-  S236  1  0.37464462  0.50736259  0.04529453  1
  S2-  S237  1  0.36623992  0.50373238  0.54333736  1
  S2-  S238  1  0.37044227  0.75679882  0.04623217  1
  S2-  S239  1  0.35649659  0.75578567  0.53549464  1
  S2-  S240  1  0.63079736  0.00927869  0.05201362  1
  S2-  S241  1  0.61252364  0.00292815  0.55318409  1
  S2-  S242  1  0.62371970  0.25048387  0.05138818  1
  S2-  S243  1  0.60774080  0.24918722  0.54881535  1
  S2-  S244  1  0.62445959  0.51152626  0.04952276  1
  S2-  S245  1  0.60821218  0.50777119  0.54158295  1
  S2-  S246  1  0.62946437  0.75853314  0.04467468  1
  S2-  S247  1  0.61382459  0.75398090  0.54695165  1
  S2-  S248  1  0.87902616  0.00487668  0.04307766  1
  S2-  S249  1  0.86108818  0.00710836  0.53413855  1
  S2-  S250  1  0.88317593  0.26123073  0.05719890  1
  S2-  S251  1  0.86626574  0.25635278  0.54921612  1
  S2-  S252  1  0.87526229  0.50355795  0.04178239  1
  S2-  S253  1  0.85719416  0.50650334  0.53403704  1
  S2-  S254  1  0.87662193  0.75923669  0.05170000  1
  S2-  S255  1  0.85960005  0.74517276  0.53836726  1
