# generated using pymatgen
data_La6Ce7Pr13Nd19Sm19(BiS2)64
_symmetry_space_group_name_H-M   'P 1'
_cell_length_a   16.05272579
_cell_length_b   16.09792609
_cell_length_c   27.37881525
_cell_angle_alpha   89.93132065
_cell_angle_beta   89.99754872
_cell_angle_gamma   90.03900276
_symmetry_Int_Tables_number   1
_chemical_formula_structural   La6Ce7Pr13Nd19Sm19(BiS2)64
_chemical_formula_sum   'La6 Ce7 Pr13 Nd19 Sm19 Bi64 S128'
_cell_volume   7075.10605662
_cell_formula_units_Z   1
loop_
 _symmetry_equiv_pos_site_id
 _symmetry_equiv_pos_as_xyz
  1  'x, y, z'
loop_
 _atom_type_symbol
 _atom_type_oxidation_number
  La3+  3.0
  Ce3+  3.0
  Pr3+  3.0
  Nd3+  3.0
  Sm3+  3.0
  Bi2+  2.0
  S2-  -2.0
loop_
 _atom_site_type_symbol
 _atom_site_label
 _atom_site_symmetry_multiplicity
 _atom_site_fract_x
 _atom_site_fract_y
 _atom_site_fract_z
 _atom_site_occupancy
  La3+  La0  1  0.00469521  0.61298982  0.07448557  1
  La3+  La1  1  -0.00264042  0.86034696  0.59614699  1
  La3+  La2  1  0.49580330  0.12905388  0.08994277  1
  La3+  La3  1  0.63084727  -0.00594664  0.38892787  1
  La3+  La4  1  0.85781916  0.00342620  0.88952604  1
  La3+  La5  1  0.26735086  0.60992151  0.10677689  1
  Ce3+  Ce6  1  0.88070586  0.49835395  0.93692758  1
  Ce3+  Ce7  1  0.37919085  0.00190687  0.44329697  1
  Ce3+  Ce8  1  0.13269647  0.24394604  0.93002630  1
  Ce3+  Ce9  1  0.24259458  0.87519019  0.55707299  1
  Ce3+  Ce10  1  0.75756983  0.87022134  0.06188675  1
  Ce3+  Ce11  1  0.36985294  0.25099810  0.43941298  1
  Ce3+  Ce12  1  0.24066936  0.62815878  0.55524859  1
  Pr3+  Pr13  1  0.36294882  0.75493438  0.42958987  1
  Pr3+  Pr14  1  0.86288678  0.24847419  0.44746479  1
  Pr3+  Pr15  1  0.38181647  0.24524242  0.92462291  1
  Pr3+  Pr16  1  0.25222729  0.86536851  0.06505230  1
  Pr3+  Pr17  1  0.11576522  0.75452179  0.43034527  1
  Pr3+  Pr18  1  0.86866046  0.75515296  0.43336949  1
  Pr3+  Pr19  1  0.75613343  0.11958821  0.06367799  1
  Pr3+  Pr20  1  0.13550772  0.74147293  0.93409967  1
  Pr3+  Pr21  1  0.11716451  0.00103276  0.44217359  1
  Pr3+  Pr22  1  0.88733211  0.24351835  0.92779725  1
  Pr3+  Pr23  1  0.13206825  0.49530006  0.94343998  1
  Pr3+  Pr24  1  0.13018199  -0.00691727  0.93105419  1
  Pr3+  Pr25  1  0.61651542  0.50242529  0.42361516  1
  Nd3+  Nd26  1  0.63086932  0.74549489  0.94888072  1
  Nd3+  Nd27  1  0.63058322  0.23501756  0.93349649  1
  Nd3+  Nd28  1  0.86752791  0.50183660  0.43428076  1
  Nd3+  Nd29  1  0.25262609  0.11857118  0.06070521  1
  Nd3+  Nd30  1  0.49473444  0.87428850  0.56702861  1
  Nd3+  Nd31  1  0.50503843  0.61671712  0.06198294  1
  Nd3+  Nd32  1  0.73832290  0.87408102  0.56695336  1
  Nd3+  Nd33  1  0.00539552  0.36226886  0.06307717  1
  Nd3+  Nd34  1  0.11785735  0.25005045  0.44659059  1
  Nd3+  Nd35  1  0.86845242  -0.00085571  0.44437259  1
  Nd3+  Nd36  1  -0.00675295  0.12324000  0.56634598  1
  Nd3+  Nd37  1  0.24085275  0.37848406  0.55678221  1
  Nd3+  Nd38  1  0.49452323  0.12960469  0.56092368  1
  Nd3+  Nd39  1  0.50123751  0.86718630  0.06350287  1
  Nd3+  Nd40  1  0.75314832  0.36439605  0.04977498  1
  Nd3+  Nd41  1  0.36393162  0.50477599  0.43309748  1
  Nd3+  Nd42  1  0.74008159  0.12577188  0.56011764  1
  Nd3+  Nd43  1  0.11067143  0.50186257  0.42802818  1
  Nd3+  Nd44  1  0.61465986  0.25247815  0.42905171  1
  Sm3+  Sm45  1  0.49238473  0.62445049  0.54909547  1
  Sm3+  Sm46  1  -0.00657655  0.62679361  0.55763524  1
  Sm3+  Sm47  1  0.37669244  -0.00675633  0.93873297  1
  Sm3+  Sm48  1  0.75715790  0.61736459  0.06522659  1
  Sm3+  Sm49  1  0.63118972  0.49616373  0.94543020  1
  Sm3+  Sm50  1  0.62766589  -0.00769946  0.95093347  1
  Sm3+  Sm51  1  0.49333575  0.37761630  0.55412213  1
  Sm3+  Sm52  1  0.61678115  0.75516705  0.44091559  1
  Sm3+  Sm53  1  0.24360826  0.12489920  0.55607320  1
  Sm3+  Sm54  1  0.00542700  0.11866354  0.05537209  1
  Sm3+  Sm55  1  0.74179049  0.37802834  0.55799020  1
  Sm3+  Sm56  1  -0.00680911  0.37741622  0.55806321  1
  Sm3+  Sm57  1  0.25538330  0.36678554  0.05884995  1
  Sm3+  Sm58  1  0.37600792  0.74254576  0.94376727  1
  Sm3+  Sm59  1  0.00488008  0.86575152  0.05181069  1
  Sm3+  Sm60  1  0.50280449  0.36745203  0.05322887  1
  Sm3+  Sm61  1  0.38074250  0.49372369  0.94181995  1
  Sm3+  Sm62  1  0.88186092  0.74241242  0.93470700  1
  Sm3+  Sm63  1  0.74428852  0.62541993  0.55134075  1
  Bi2+  Bi64  1  0.01172104  0.12041243  0.28466259  1
  Bi2+  Bi65  1  -0.03254345  0.14656241  0.79054463  1
  Bi2+  Bi66  1  0.04938665  0.36964031  0.28788300  1
  Bi2+  Bi67  1  -0.04567610  0.41520390  0.78106930  1
  Bi2+  Bi68  1  0.03248301  0.61083832  0.29272370  1
  Bi2+  Bi69  1  -0.02368011  0.61239577  0.78059798  1
  Bi2+  Bi70  1  -0.03739024  0.86845365  0.28584848  1
  Bi2+  Bi71  1  -0.00798735  0.87499302  0.79234504  1
  Bi2+  Bi72  1  0.23430188  0.13772590  0.29462181  1
  Bi2+  Bi73  1  0.26387784  0.15208369  0.76029135  1
  Bi2+  Bi74  1  0.24768409  0.34166267  0.28358552  1
  Bi2+  Bi75  1  0.27355928  0.38017090  0.79385132  1
  Bi2+  Bi76  1  0.29885765  0.64775774  0.29768657  1
  Bi2+  Bi77  1  0.19385218  0.62627333  0.80180279  1
  Bi2+  Bi78  1  0.19990754  0.94297968  0.31147317  1
  Bi2+  Bi79  1  0.27257267  0.87933896  0.78975492  1
  Bi2+  Bi80  1  0.49139264  0.13504656  0.28973644  1
  Bi2+  Bi81  1  0.46022528  0.11600788  0.78609066  1
  Bi2+  Bi82  1  0.55986482  0.39897174  0.25704393  1
  Bi2+  Bi83  1  0.57092048  0.36365442  0.78334150  1
  Bi2+  Bi84  1  0.56972898  0.58525936  0.29806645  1
  Bi2+  Bi85  1  0.47982030  0.72457720  0.80720673  1
  Bi2+  Bi86  1  0.49512862  0.87098605  0.28787189  1
  Bi2+  Bi87  1  0.46629736  0.92302627  0.81855663  1
  Bi2+  Bi88  1  0.76824736  0.11996768  0.29042609  1
  Bi2+  Bi89  1  0.65552350  0.13229755  0.80170919  1
  Bi2+  Bi90  1  0.77226701  0.38882066  0.30116678  1
  Bi2+  Bi91  1  0.76550362  0.39133751  0.80272478  1
  Bi2+  Bi92  1  0.76756261  0.58455826  0.30955697  1
  Bi2+  Bi93  1  0.72769450  0.60241498  0.79828023  1
  Bi2+  Bi94  1  0.78519464  0.77961213  0.30715019  1
  Bi2+  Bi95  1  0.72018135  0.85694155  0.78896521  1
  Bi2+  Bi96  1  0.06976861  0.07265155  0.17979858  1
  Bi2+  Bi97  1  0.13768103  0.02293629  0.69833629  1
  Bi2+  Bi98  1  0.16054919  0.24378699  0.18567094  1
  Bi2+  Bi99  1  0.14509993  0.28026758  0.70769160  1
  Bi2+  Bi100  1  0.11945016  0.50439316  0.21476189  1
  Bi2+  Bi101  1  0.12233150  0.47518779  0.69924001  1
  Bi2+  Bi102  1  0.13356391  0.78999360  0.20644085  1
  Bi2+  Bi103  1  0.13606396  0.72684056  0.70269747  1
  Bi2+  Bi104  1  0.31302715  0.00146766  0.22917726  1
  Bi2+  Bi105  1  0.40672204  -0.06021771  0.70478579  1
  Bi2+  Bi106  1  0.35722220  0.25846799  0.19940058  1
  Bi2+  Bi107  1  0.41872737  0.27472256  0.71768186  1
  Bi2+  Bi108  1  0.37490152  0.45355204  0.22135932  1
  Bi2+  Bi109  1  0.37746987  0.56584323  0.76484520  1
  Bi2+  Bi110  1  0.46333832  0.72344528  0.19879926  1
  Bi2+  Bi111  1  0.37453904  0.74717723  0.70781040  1
  Bi2+  Bi112  1  0.64501506  -0.02548573  0.18569178  1
  Bi2+  Bi113  1  0.60048333  -0.03021369  0.72650240  1
  Bi2+  Bi114  1  0.65097421  0.25826814  0.19695310  1
  Bi2+  Bi115  1  0.62686073  0.26568753  0.68689503  1
  Bi2+  Bi116  1  0.66204463  0.53566867  0.19387491  1
  Bi2+  Bi117  1  0.55224497  0.52225832  0.71444376  1
  Bi2+  Bi118  1  0.65482587  0.72638637  0.21890108  1
  Bi2+  Bi119  1  0.59847876  0.72820666  0.70778381  1
  Bi2+  Bi120  1  0.89263215  0.00777893  0.21477841  1
  Bi2+  Bi121  1  0.86799269  0.01726007  0.68477692  1
  Bi2+  Bi122  1  0.89682409  0.27106357  0.24504749  1
  Bi2+  Bi123  1  0.82287498  0.26837559  0.72044086  1
  Bi2+  Bi124  1  0.85310693  0.47445668  0.20183644  1
  Bi2+  Bi125  1  0.84450157  0.52424009  0.70667853  1
  Bi2+  Bi126  1  0.88825207  0.74371912  0.20869217  1
  Bi2+  Bi127  1  0.81866519  0.73189447  0.72188966  1
  S2-  S128  1  0.00611852  0.22874918  0.13325312  1
  S2-  S129  1  0.00716691  0.12456111  0.66538156  1
  S2-  S130  1  -0.00368598  0.45912486  0.14745669  1
  S2-  S131  1  0.01571953  0.36974077  0.65446140  1
  S2-  S132  1  0.11401919  0.64191760  0.15391223  1
  S2-  S133  1  0.00604626  0.70130323  0.64627800  1
  S2-  S134  1  0.00418431  0.83163205  0.15056918  1
  S2-  S135  1  0.00873884  0.91857224  0.69521129  1
  S2-  S136  1  0.34639495  0.11164656  0.14547380  1
  S2-  S137  1  0.25010116  0.13128286  0.65316357  1
  S2-  S138  1  0.25203158  0.44778355  0.14825889  1
  S2-  S139  1  0.25237126  0.38005681  0.65630395  1
  S2-  S140  1  0.29401175  0.70984532  0.19677463  1
  S2-  S141  1  0.21600069  0.60473532  0.65134684  1
  S2-  S142  1  0.22520775  0.90972495  0.16135651  1
  S2-  S143  1  0.17891021  0.87249709  0.64697033  1
  S2-  S144  1  0.55182950  0.10852099  0.18763339  1
  S2-  S145  1  0.50158157  0.15925532  0.65919882  1
  S2-  S146  1  0.50563051  0.29549173  0.14116960  1
  S2-  S147  1  0.49779126  0.39782434  0.65093299  1
  S2-  S148  1  0.43673988  0.57534773  0.15039052  1
  S2-  S149  1  0.48149204  0.63991067  0.64632992  1
  S2-  S150  1  0.49143965  0.88997982  0.16142914  1
  S2-  S151  1  0.61115645  0.86239051  0.64338138  1
  S2-  S152  1  0.76968704  0.09617928  0.16405352  1
  S2-  S153  1  0.74602261  0.13911541  0.65966901  1
  S2-  S154  1  0.76652566  0.33172909  0.14681672  1
  S2-  S155  1  0.75571969  0.38820268  0.65534550  1
  S2-  S156  1  0.86519975  0.61996130  0.14184499  1
  S2-  S157  1  0.74093735  0.63501847  0.64897614  1
  S2-  S158  1  0.75480075  0.83796268  0.15797457  1
  S2-  S159  1  0.83756368  0.86170767  0.64777825  1
  S2-  S160  1  0.03928642  -0.01526802  0.35253331  1
  S2-  S161  1  0.02941629  0.01145212  0.84711143  1
  S2-  S162  1  0.10165267  0.23300565  0.34961732  1
  S2-  S163  1  0.01999951  0.25261992  0.85448950  1
  S2-  S164  1  0.17944607  0.55672340  0.33968779  1
  S2-  S165  1  0.15191584  0.47852250  0.84251863  1
  S2-  S166  1  0.23019711  0.77730573  0.35197330  1
  S2-  S167  1  0.05832441  0.73525275  0.84085701  1
  S2-  S168  1  0.45388387  -0.00141849  0.35445319  1
  S2-  S169  1  0.26404590  -0.00995706  0.86020940  1
  S2-  S170  1  0.42311440  0.24304300  0.34658977  1
  S2-  S171  1  0.25296610  0.24078898  0.85441973  1
  S2-  S172  1  0.40635852  0.52602543  0.33785566  1
  S2-  S173  1  0.38980804  0.44779423  0.84725541  1
  S2-  S174  1  0.42896873  0.74709998  0.33504050  1
  S2-  S175  1  0.27563325  0.74944213  0.86175306  1
  S2-  S176  1  0.62918593  -0.01503608  0.27924849  1
  S2-  S177  1  0.68159171  -0.00322345  0.85727942  1
  S2-  S178  1  0.62667474  0.15700275  0.34482570  1
  S2-  S179  1  0.51802368  0.24501125  0.85639719  1
  S2-  S180  1  0.62334557  0.37521557  0.35506337  1
  S2-  S181  1  0.62184841  0.50060876  0.84834019  1
  S2-  S182  1  0.62618250  0.82535548  0.35265911  1
  S2-  S183  1  0.64463367  0.73878921  0.85017705  1
  S2-  S184  1  0.80057326  0.00214278  0.35331323  1
  S2-  S185  1  0.86775943  0.00177089  0.77961431  1
  S2-  S186  1  0.85173490  0.24461032  0.34806986  1
  S2-  S187  1  0.81633375  0.16941676  0.84486792  1
  S2-  S188  1  0.97799383  0.48794283  0.35701944  1
  S2-  S189  1  0.86973509  0.61238389  0.86314954  1
  S2-  S190  1  0.99145145  0.73929820  0.35685323  1
  S2-  S191  1  0.85925155  0.83750980  0.85278669  1
  S2-  S192  1  -0.00861119  0.12701427  0.45896054  1
  S2-  S193  1  0.00375173  0.11530671  0.95404363  1
  S2-  S194  1  -0.00938830  0.37218133  0.45518036  1
  S2-  S195  1  0.00462187  0.37320050  0.95590583  1
  S2-  S196  1  -0.00974144  0.62501466  0.45615190  1
  S2-  S197  1  0.00616770  0.61848084  0.95959196  1
  S2-  S198  1  -0.00856861  0.87715430  0.45871296  1
  S2-  S199  1  0.00693118  0.86530067  0.95091989  1
  S2-  S200  1  0.24574844  0.12550697  0.45116595  1
  S2-  S201  1  0.25869321  0.11858329  0.95724322  1
  S2-  S202  1  0.24052155  0.37802364  0.44834578  1
  S2-  S203  1  0.25931049  0.37063407  0.95524047  1
  S2-  S204  1  0.23973461  0.62637138  0.45155592  1
  S2-  S205  1  0.26119445  0.61432058  0.95396208  1
  S2-  S206  1  0.24618745  0.88291585  0.45462774  1
  S2-  S207  1  0.25756067  0.86842612  0.96085251  1
  S2-  S208  1  0.49601952  0.12996243  0.45652473  1
  S2-  S209  1  0.50319618  0.11192590  0.95215685  1
  S2-  S210  1  0.48972402  0.38189373  0.45118861  1
  S2-  S211  1  0.50980130  0.37164072  0.95235159  1
  S2-  S212  1  0.49321880  0.62826544  0.44634344  1
  S2-  S213  1  0.50417429  0.61937111  0.95508451  1
  S2-  S214  1  0.49312972  0.87191739  0.46069938  1
  S2-  S215  1  0.50143742  0.86673549  0.95686471  1
  S2-  S216  1  0.73779636  0.12359883  0.45576751  1
  S2-  S217  1  0.75431265  0.11299863  0.95734452  1
  S2-  S218  1  0.74359077  0.38030941  0.45499640  1
  S2-  S219  1  0.75248841  0.36745226  0.94457802  1
  S2-  S220  1  0.74126863  0.62751492  0.44685550  1
  S2-  S221  1  0.75110557  0.61944023  0.96174890  1
  S2-  S222  1  0.74098613  0.87665108  0.45890284  1
  S2-  S223  1  0.75379637  0.87022485  0.95819385  1
  S2-  S224  1  0.12841690  -0.00648793  0.04362862  1
  S2-  S225  1  0.11738711  0.00205748  0.54919514  1
  S2-  S226  1  0.13473432  0.24385363  0.03696581  1
  S2-  S227  1  0.11814521  0.25070569  0.55155656  1
  S2-  S228  1  0.13401242  0.49069500  0.04824280  1
  S2-  S229  1  0.11442677  0.50079811  0.54026568  1
  S2-  S230  1  0.13058087  0.74313892  0.04448494  1
  S2-  S231  1  0.11694076  0.75097138  0.53955233  1
  S2-  S232  1  0.38021335  -0.00770162  0.04467856  1
  S2-  S233  1  0.37033636  0.00221238  0.55145839  1
  S2-  S234  1  0.37945198  0.24543027  0.03845763  1
  S2-  S235  1  0.36619460  0.25360892  0.54713253  1
  S2-  S236  1  0.37981608  0.49030231  0.04496243  1
  S2-  S237  1  0.36800377  0.50104416  0.54224615  1
  S2-  S238  1  0.37667220  0.73768943  0.05125547  1
  S2-  S239  1  0.36900851  0.75046135  0.54372308  1
  S2-  S240  1  0.62309490  -0.00331490  0.05544898  1
  S2-  S241  1  0.61513111  0.00461645  0.55523958  1
  S2-  S242  1  0.62563511  0.23973142  0.03965626  1
  S2-  S243  1  0.61852888  0.25665327  0.54227572  1
  S2-  S244  1  0.62975512  0.49187658  0.05014209  1
  S2-  S245  1  0.61813612  0.50188400  0.54034407  1
  S2-  S246  1  0.62995526  0.74126882  0.05497041  1
  S2-  S247  1  0.61754615  0.74403571  0.54344325  1
  S2-  S248  1  0.88473174  -0.00599996  0.05766948  1
  S2-  S249  1  0.86802240  0.00168788  0.55129944  1
  S2-  S250  1  0.87767604  0.24216804  0.03577227  1
  S2-  S251  1  0.86809875  0.25375431  0.55390689  1
  S2-  S252  1  0.87478605  0.48942920  0.04129726  1
  S2-  S253  1  0.86910964  0.50079097  0.54388729  1
  S2-  S254  1  0.87737481  0.74433283  0.04156743  1
  S2-  S255  1  0.86767318  0.74676286  0.54167708  1
