# generated using pymatgen
data_La6Ce7Pr13Nd19Sm19(BiS2)64
_symmetry_space_group_name_H-M   'P 1'
_cell_length_a   16.06978799
_cell_length_b   16.09690784
_cell_length_c   27.36111019
_cell_angle_alpha   89.86156773
_cell_angle_beta   89.53106840
_cell_angle_gamma   89.99077050
_symmetry_Int_Tables_number   1
_chemical_formula_structural   La6Ce7Pr13Nd19Sm19(BiS2)64
_chemical_formula_sum   'La6 Ce7 Pr13 Nd19 Sm19 Bi64 S128'
_cell_volume   7077.34721082
_cell_formula_units_Z   1
loop_
 _symmetry_equiv_pos_site_id
 _symmetry_equiv_pos_as_xyz
  1  'x, y, z'
loop_
 _atom_type_symbol
 _atom_type_oxidation_number
  La3+  3.0
  Ce3+  3.0
  Pr3+  3.0
  Nd3+  3.0
  Sm3+  3.0
  Bi2+  2.0
  S2-  -2.0
loop_
 _atom_site_type_symbol
 _atom_site_label
 _atom_site_symmetry_multiplicity
 _atom_site_fract_x
 _atom_site_fract_y
 _atom_site_fract_z
 _atom_site_occupancy
  La3+  La0  1  0.75065554  0.37202042  0.08485675  1
  La3+  La1  1  -0.01402621  0.62547680  0.57536117  1
  La3+  La2  1  0.14828260  0.49041300  0.88272731  1
  La3+  La3  1  -0.01562722  0.13681202  0.57057264  1
  La3+  La4  1  0.00730954  0.87015901  0.07467655  1
  La3+  La5  1  0.24654765  0.11873621  0.05586601  1
  Ce3+  Ce6  1  0.24221376  0.63525369  0.55893269  1
  Ce3+  Ce7  1  0.37534763  0.24695210  0.93134445  1
  Ce3+  Ce8  1  0.37610269  -0.00633316  0.94003571  1
  Ce3+  Ce9  1  0.36545998  0.50734931  0.43479559  1
  Ce3+  Ce10  1  0.49111541  0.63596565  0.55000840  1
  Ce3+  Ce11  1  0.86678340  0.25937107  0.42837948  1
  Ce3+  Ce12  1  0.11962534  0.24563731  0.92174437  1
  Pr3+  Pr13  1  0.25299383  0.86064218  0.06937220  1
  Pr3+  Pr14  1  0.24992160  0.61648899  0.05918725  1
  Pr3+  Pr15  1  0.74533502  0.88402552  0.56458902  1
  Pr3+  Pr16  1  0.87831445  0.51238098  0.41627440  1
  Pr3+  Pr17  1  0.88171523  0.49386926  0.93655786  1
  Pr3+  Pr18  1  0.23546084  0.88333586  0.57386718  1
  Pr3+  Pr19  1  0.74353758  0.63545584  0.55223020  1
  Pr3+  Pr20  1  0.61971464  0.76573737  0.43435532  1
  Pr3+  Pr21  1  0.87821651  0.76251052  0.42298021  1
  Pr3+  Pr22  1  0.23240594  0.14210162  0.58557913  1
  Pr3+  Pr23  1  0.49654952  0.40074565  0.58590962  1
  Pr3+  Pr24  1  0.36515349  0.76500655  0.43278816  1
  Pr3+  Pr25  1  0.61987028  0.51193579  0.42896987  1
  Nd3+  Nd26  1  0.50250607  0.61928791  0.06634592  1
  Nd3+  Nd27  1  0.11952009  0.76283279  0.43886987  1
  Nd3+  Nd28  1  0.37605848  0.74225159  0.93618309  1
  Nd3+  Nd29  1  0.12600415  0.74460702  0.93302812  1
  Nd3+  Nd30  1  0.11968532  0.25775075  0.44040737  1
  Nd3+  Nd31  1  0.74287575  0.38784921  0.55667411  1
  Nd3+  Nd32  1  0.49889592  0.36138805  0.06858359  1
  Nd3+  Nd33  1  0.87734419  -0.00777100  0.94736714  1
  Nd3+  Nd34  1  -0.01052181  0.88209208  0.56405501  1
  Nd3+  Nd35  1  0.62699992  -0.00615806  0.94527683  1
  Nd3+  Nd36  1  0.36941080  0.26120789  0.45028878  1
  Nd3+  Nd37  1  0.87344354  0.24630609  0.93726741  1
  Nd3+  Nd38  1  0.48994152  0.13668103  0.56555925  1
  Nd3+  Nd39  1  0.38597742  0.49337295  0.93855666  1
  Nd3+  Nd40  1  0.74989520  0.11822828  0.07184293  1
  Nd3+  Nd41  1  0.00237924  0.36944511  0.05568740  1
  Nd3+  Nd42  1  0.24167990  0.38716006  0.56352018  1
  Nd3+  Nd43  1  0.63061269  0.49204952  0.94118873  1
  Nd3+  Nd44  1  0.12204211  0.51327931  0.42982139  1
  Sm3+  Sm45  1  0.63288871  0.24581420  0.94392021  1
  Sm3+  Sm46  1  0.87286584  0.01369269  0.43244940  1
  Sm3+  Sm47  1  0.24693640  0.36985948  0.04908653  1
  Sm3+  Sm48  1  -0.00935771  0.38711295  0.54732970  1
  Sm3+  Sm49  1  0.12665060  -0.00860121  0.93373735  1
  Sm3+  Sm50  1  0.36544021  0.01375678  0.45206708  1
  Sm3+  Sm51  1  0.74354499  0.13659341  0.55660257  1
  Sm3+  Sm52  1  0.75129061  0.61920653  0.05765101  1
  Sm3+  Sm53  1  0.49998666  0.86944281  0.05738176  1
  Sm3+  Sm54  1  0.12086357  0.01195910  0.44710064  1
  Sm3+  Sm55  1  0.49984430  0.12102291  0.05627181  1
  Sm3+  Sm56  1  0.88015453  0.74487944  0.94602498  1
  Sm3+  Sm57  1  0.48987486  0.88704466  0.55483247  1
  Sm3+  Sm58  1  0.62855202  0.74398865  0.94733995  1
  Sm3+  Sm59  1  0.75107199  0.86853408  0.06004505  1
  Sm3+  Sm60  1  0.00142038  0.61846508  0.05953070  1
  Sm3+  Sm61  1  0.61950319  0.01256537  0.44434982  1
  Sm3+  Sm62  1  0.61628725  0.26182945  0.44509658  1
  Sm3+  Sm63  1  0.00089961  0.12171214  0.05221194  1
  Bi2+  Bi64  1  -0.01037220  0.06467770  0.24226686  1
  Bi2+  Bi65  1  -0.02783263  0.11469387  0.78813960  1
  Bi2+  Bi66  1  -0.02659826  0.26319860  0.30633891  1
  Bi2+  Bi67  1  -0.07546906  0.37152625  0.78689157  1
  Bi2+  Bi68  1  -0.00548124  0.62985339  0.28711667  1
  Bi2+  Bi69  1  0.00174215  0.63075190  0.78710044  1
  Bi2+  Bi70  1  -0.00373974  0.89198740  0.29233281  1
  Bi2+  Bi71  1  -0.01543056  0.87247789  0.79465462  1
  Bi2+  Bi72  1  0.30417435  0.15254813  0.29980074  1
  Bi2+  Bi73  1  0.16455902  0.10193897  0.81733172  1
  Bi2+  Bi74  1  0.24365129  0.37230724  0.29179762  1
  Bi2+  Bi75  1  0.30708167  0.37684924  0.78683015  1
  Bi2+  Bi76  1  0.23007505  0.64196786  0.29003360  1
  Bi2+  Bi77  1  0.26678244  0.63237332  0.77900423  1
  Bi2+  Bi78  1  0.23063492  0.90865533  0.30093327  1
  Bi2+  Bi79  1  0.24021654  0.92802672  0.79488535  1
  Bi2+  Bi80  1  0.48084558  0.06770547  0.28446421  1
  Bi2+  Bi81  1  0.58354126  0.09410937  0.77545123  1
  Bi2+  Bi82  1  0.51174059  0.34956440  0.29255047  1
  Bi2+  Bi83  1  0.56959969  0.36452871  0.80186394  1
  Bi2+  Bi84  1  0.42508065  0.61058865  0.28908422  1
  Bi2+  Bi85  1  0.56469943  0.62918705  0.80244404  1
  Bi2+  Bi86  1  0.47340192  0.79246971  0.31430068  1
  Bi2+  Bi87  1  0.50853324  0.91694219  0.80294668  1
  Bi2+  Bi88  1  0.69948231  0.12235967  0.29459033  1
  Bi2+  Bi89  1  0.77349437  0.15758237  0.77801118  1
  Bi2+  Bi90  1  0.74606743  0.39031946  0.27525271  1
  Bi2+  Bi91  1  0.75039158  0.41665033  0.83749168  1
  Bi2+  Bi92  1  0.73176253  0.63587550  0.27355844  1
  Bi2+  Bi93  1  0.76796977  0.59121205  0.78817431  1
  Bi2+  Bi94  1  0.73267089  0.89301715  0.29002531  1
  Bi2+  Bi95  1  0.73013831  0.86533743  0.78606698  1
  Bi2+  Bi96  1  0.22071993  0.01680783  0.21210896  1
  Bi2+  Bi97  1  0.09598907  -0.00427606  0.72307093  1
  Bi2+  Bi98  1  0.11137643  0.25478136  0.19257793  1
  Bi2+  Bi99  1  0.17555814  0.21943195  0.72246152  1
  Bi2+  Bi100  1  0.19721719  0.50448074  0.21115979  1
  Bi2+  Bi101  1  0.13820363  0.50890574  0.67823208  1
  Bi2+  Bi102  1  0.10328690  0.75439488  0.19023535  1
  Bi2+  Bi103  1  0.17390313  0.75839205  0.69939927  1
  Bi2+  Bi104  1  0.41129098  -0.02752328  0.19231822  1
  Bi2+  Bi105  1  0.41078737  -0.02355591  0.69981558  1
  Bi2+  Bi106  1  0.36771152  0.25280232  0.21202911  1
  Bi2+  Bi107  1  0.42649202  0.20210980  0.73146604  1
  Bi2+  Bi108  1  0.39199542  0.45637528  0.21564109  1
  Bi2+  Bi109  1  0.45530663  0.47193469  0.72849330  1
  Bi2+  Bi110  1  0.34562303  0.76722633  0.22658469  1
  Bi2+  Bi111  1  0.43689945  0.75165912  0.75680093  1
  Bi2+  Bi112  1  0.59573744  0.05858512  0.18669267  1
  Bi2+  Bi113  1  0.66657736  -0.04018235  0.69233931  1
  Bi2+  Bi114  1  0.60782632  0.25626657  0.20697268  1
  Bi2+  Bi115  1  0.66291077  0.27765186  0.71503998  1
  Bi2+  Bi116  1  0.62274141  0.53307151  0.20383827  1
  Bi2+  Bi117  1  0.63710532  0.54548918  0.69983181  1
  Bi2+  Bi118  1  0.58490795  0.84301271  0.22245197  1
  Bi2+  Bi119  1  0.63135022  0.75543277  0.69935801  1
  Bi2+  Bi120  1  0.79778803  0.01946185  0.20811825  1
  Bi2+  Bi121  1  0.85310030  0.00117687  0.70903866  1
  Bi2+  Bi122  1  0.85235046  0.21262687  0.22955337  1
  Bi2+  Bi123  1  0.85746826  0.28395764  0.69302440  1
  Bi2+  Bi124  1  0.95017234  0.47649920  0.21995976  1
  Bi2+  Bi125  1  0.85140396  0.48350644  0.70075135  1
  Bi2+  Bi126  1  0.83354861  0.75653978  0.21069595  1
  Bi2+  Bi127  1  0.82469284  0.74590069  0.71129530  1
  S2-  S128  1  0.02915287  0.12190975  0.14866332  1
  S2-  S129  1  0.09060109  0.14053241  0.65201368  1
  S2-  S130  1  -0.00632920  0.34785010  0.15625413  1
  S2-  S131  1  -0.00979064  0.46221028  0.63521096  1
  S2-  S132  1  0.00472975  0.61669765  0.15945454  1
  S2-  S133  1  0.04933138  0.66366114  0.67380135  1
  S2-  S134  1  -0.04476243  0.84183733  0.17258072  1
  S2-  S135  1  0.09930457  0.88298519  0.64408383  1
  S2-  S136  1  0.24852130  0.15875886  0.15348582  1
  S2-  S137  1  0.30322168  0.11582140  0.67743751  1
  S2-  S138  1  0.21029792  0.37290578  0.14593496  1
  S2-  S139  1  0.20354495  0.34582774  0.65882744  1
  S2-  S140  1  0.25026351  0.72084342  0.14087759  1
  S2-  S141  1  0.26530548  0.62359840  0.65690266  1
  S2-  S142  1  0.14267967  0.90106087  0.14492237  1
  S2-  S143  1  0.31399495  0.86226470  0.66529705  1
  S2-  S144  1  0.47700924  0.22301271  0.13546215  1
  S2-  S145  1  0.52058960  0.11465851  0.66206001  1
  S2-  S146  1  0.60550657  0.39400660  0.14589344  1
  S2-  S147  1  0.42531786  0.33187642  0.67201586  1
  S2-  S148  1  0.48300426  0.58686737  0.16296090  1
  S2-  S149  1  0.49117856  0.56285891  0.63834135  1
  S2-  S150  1  0.47438333  0.81280350  0.14818711  1
  S2-  S151  1  0.52626475  0.87721220  0.64963840  1
  S2-  S152  1  0.75733359  0.22994781  0.14710962  1
  S2-  S153  1  0.84326090  0.13029441  0.63701388  1
  S2-  S154  1  0.80780985  0.44511942  0.18006889  1
  S2-  S155  1  0.64578146  0.39629033  0.64092130  1
  S2-  S156  1  0.72930910  0.64284228  0.15421571  1
  S2-  S157  1  0.83650539  0.62696534  0.63695916  1
  S2-  S158  1  0.73077962  0.86672698  0.15643074  1
  S2-  S159  1  0.86700498  0.87360123  0.63872099  1
  S2-  S160  1  0.10367642  -0.00327771  0.34915271  1
  S2-  S161  1  0.12127609  -0.12589736  0.86074163  1
  S2-  S162  1  0.13050719  0.25640300  0.34011627  1
  S2-  S163  1  0.18030303  0.32517881  0.84053819  1
  S2-  S164  1  0.02234359  0.50779393  0.34607656  1
  S2-  S165  1  0.15630658  0.49558293  0.77146310  1
  S2-  S166  1  0.02225397  0.76344371  0.35340745  1
  S2-  S167  1  0.13050249  0.65823657  0.84403766  1
  S2-  S168  1  0.35362886  0.00885841  0.35433914  1
  S2-  S169  1  0.37825697  0.00783219  0.84212863  1
  S2-  S170  1  0.37195576  0.29409686  0.35244676  1
  S2-  S171  1  0.41055689  0.26137192  0.83454956  1
  S2-  S172  1  0.25397232  0.50537721  0.35921511  1
  S2-  S173  1  0.31593258  0.51604446  0.84718747  1
  S2-  S174  1  0.24012209  0.77381990  0.36209184  1
  S2-  S175  1  0.33706450  0.76048990  0.83980899  1
  S2-  S176  1  0.61654907  -0.01002408  0.34723619  1
  S2-  S177  1  0.66090198  -0.00173527  0.84902956  1
  S2-  S178  1  0.61802161  0.24488957  0.34710750  1
  S2-  S179  1  0.74381407  0.23660107  0.86850458  1
  S2-  S180  1  0.62072812  0.47187676  0.33008881  1
  S2-  S181  1  0.51872572  0.48956671  0.86515839  1
  S2-  S182  1  0.63130269  0.71288407  0.33878343  1
  S2-  S183  1  0.64708936  0.75396198  0.85106564  1
  S2-  S184  1  0.86096749  -0.09916387  0.35582023  1
  S2-  S185  1  0.90533433  -0.01749245  0.84914021  1
  S2-  S186  1  0.88433468  0.13617466  0.36018967  1
  S2-  S187  1  0.97857162  0.24865851  0.85518668  1
  S2-  S188  1  0.84563911  0.37623928  0.34942478  1
  S2-  S189  1  0.97790856  0.50674841  0.84922074  1
  S2-  S190  1  0.85020611  0.64116852  0.34509441  1
  S2-  S191  1  0.91580030  0.74404713  0.84896668  1
  S2-  S192  1  -0.00239103  0.13442412  0.46071782  1
  S2-  S193  1  0.00171506  0.11424863  0.95007956  1
  S2-  S194  1  -0.00268399  0.38226663  0.44643537  1
  S2-  S195  1  0.00405147  0.37218745  0.95210949  1
  S2-  S196  1  -0.00214337  0.63388239  0.45588841  1
  S2-  S197  1  -0.00045401  0.62317495  0.95667534  1
  S2-  S198  1  -0.00253599  0.89249335  0.45818746  1
  S2-  S199  1  -0.00075127  0.86886353  0.96319572  1
  S2-  S200  1  0.24451969  0.13665369  0.46058050  1
  S2-  S201  1  0.24970391  0.11910439  0.94721603  1
  S2-  S202  1  0.24242074  0.38172492  0.45789083  1
  S2-  S203  1  0.25365862  0.37436689  0.94766960  1
  S2-  S204  1  0.24670974  0.63628306  0.45591223  1
  S2-  S205  1  0.25313002  0.61721640  0.95306467  1
  S2-  S206  1  0.24390972  0.89111216  0.46505657  1
  S2-  S207  1  0.25469509  0.86886608  0.95936089  1
  S2-  S208  1  0.49373262  0.13455321  0.45720615  1
  S2-  S209  1  0.50497090  0.12211505  0.95090115  1
  S2-  S210  1  0.49460063  0.38606969  0.45319509  1
  S2-  S211  1  0.50585191  0.36224873  0.96111090  1
  S2-  S212  1  0.49064112  0.63680090  0.44438258  1
  S2-  S213  1  0.50518022  0.62392683  0.95900612  1
  S2-  S214  1  0.49139017  0.89077310  0.45137757  1
  S2-  S215  1  0.50289891  0.86720640  0.95225402  1
  S2-  S216  1  0.73891975  0.13598162  0.45416039  1
  S2-  S217  1  0.75192552  0.11438467  0.96553398  1
  S2-  S218  1  0.73732779  0.38392667  0.45228761  1
  S2-  S219  1  0.75273649  0.37186001  0.96881898  1
  S2-  S220  1  0.74213785  0.63703581  0.44775274  1
  S2-  S221  1  0.75364438  0.62103045  0.95233347  1
  S2-  S222  1  0.74053558  0.88982039  0.45642531  1
  S2-  S223  1  0.75241050  0.86753011  0.95568948  1
  S2-  S224  1  0.12397713  -0.00427182  0.03798320  1
  S2-  S225  1  0.11773503  0.01549220  0.55007811  1
  S2-  S226  1  0.12401441  0.24521627  0.03562759  1
  S2-  S227  1  0.11484500  0.26449897  0.54621196  1
  S2-  S228  1  0.12371967  0.49565503  0.05105917  1
  S2-  S229  1  0.11953716  0.50944616  0.53897769  1
  S2-  S230  1  0.12353492  0.74093676  0.04116559  1
  S2-  S231  1  0.11433441  0.75370372  0.54586669  1
  S2-  S232  1  0.37695101  -0.00629986  0.04790715  1
  S2-  S233  1  0.36483414  0.01222284  0.55611163  1
  S2-  S234  1  0.37006732  0.24483778  0.03688502  1
  S2-  S235  1  0.36658385  0.26062052  0.55554581  1
  S2-  S236  1  0.37706075  0.49047889  0.04825697  1
  S2-  S237  1  0.36748634  0.50763506  0.54184385  1
  S2-  S238  1  0.38127998  0.74124652  0.04170132  1
  S2-  S239  1  0.36899362  0.76271231  0.54386207  1
  S2-  S240  1  0.62399538  -0.00677134  0.05119750  1
  S2-  S241  1  0.61815729  0.01178002  0.54855491  1
  S2-  S242  1  0.62760234  0.23968548  0.04561687  1
  S2-  S243  1  0.61580558  0.25831171  0.54947271  1
  S2-  S244  1  0.62629984  0.49877903  0.04556938  1
  S2-  S245  1  0.61726889  0.51268192  0.53602196  1
  S2-  S246  1  0.62641271  0.74616901  0.05125163  1
  S2-  S247  1  0.61613418  0.76307350  0.54230945  1
  S2-  S248  1  0.87638171  -0.00579488  0.05457019  1
  S2-  S249  1  0.86435940  0.01036160  0.53723399  1
  S2-  S250  1  0.87769714  0.24253515  0.04521845  1
  S2-  S251  1  0.86451878  0.26485650  0.53783121  1
  S2-  S252  1  0.87601426  0.49763812  0.04906793  1
  S2-  S253  1  0.86490574  0.50656020  0.53087199  1
  S2-  S254  1  0.87457632  0.74430571  0.05131827  1
  S2-  S255  1  0.86889358  0.75894411  0.53466167  1
