# generated using pymatgen
data_La6Ce7Pr13Nd19Sm19(BiS2)64
_symmetry_space_group_name_H-M   'P 1'
_cell_length_a   16.07418852
_cell_length_b   16.12228275
_cell_length_c   27.41418568
_cell_angle_alpha   90.13485078
_cell_angle_beta   90.09597536
_cell_angle_gamma   90.07728210
_symmetry_Int_Tables_number   1
_chemical_formula_structural   La6Ce7Pr13Nd19Sm19(BiS2)64
_chemical_formula_sum   'La6 Ce7 Pr13 Nd19 Sm19 Bi64 S128'
_cell_volume   7104.42168671
_cell_formula_units_Z   1
loop_
 _symmetry_equiv_pos_site_id
 _symmetry_equiv_pos_as_xyz
  1  'x, y, z'
loop_
 _atom_type_symbol
 _atom_type_oxidation_number
  La3+  3.0
  Ce3+  3.0
  Pr3+  3.0
  Nd3+  3.0
  Sm3+  3.0
  Bi2+  2.0
  S2-  -2.0
loop_
 _atom_site_type_symbol
 _atom_site_label
 _atom_site_symmetry_multiplicity
 _atom_site_fract_x
 _atom_site_fract_y
 _atom_site_fract_z
 _atom_site_occupancy
  La3+  La0  1  0.74484963  0.61863835  0.10690487  1
  La3+  La1  1  0.51427037  0.87424329  0.59908945  1
  La3+  La2  1  0.75121524  0.87932240  0.07672848  1
  La3+  La3  1  -0.01481785  0.13767392  0.08795630  1
  La3+  La4  1  0.38129535  0.73173770  0.89210644  1
  La3+  La5  1  0.62313757  0.49707562  0.40834580  1
  Ce3+  Ce6  1  0.61829957  0.75257338  0.95327222  1
  Ce3+  Ce7  1  0.25998847  0.87973619  0.55983325  1
  Ce3+  Ce8  1  0.13358178  0.25369938  0.43833590  1
  Ce3+  Ce9  1  0.11754571  0.25316018  0.94540314  1
  Ce3+  Ce10  1  0.37123686  -0.00899464  0.94631993  1
  Ce3+  Ce11  1  0.25834745  0.63151551  0.56008943  1
  Ce3+  Ce12  1  0.62192002  0.00054227  0.94065313  1
  Pr3+  Pr13  1  0.38425682  0.75747688  0.43936335  1
  Pr3+  Pr14  1  0.50058406  0.88151581  0.07425125  1
  Pr3+  Pr15  1  0.50543777  0.12654014  0.55897593  1
  Pr3+  Pr16  1  0.88809127  0.50383244  0.41500544  1
  Pr3+  Pr17  1  0.11708339  0.76664731  0.93429351  1
  Pr3+  Pr18  1  0.48880134  0.63751012  0.08033228  1
  Pr3+  Pr19  1  0.51592024  0.62364864  0.56623711  1
  Pr3+  Pr20  1  0.50777912  0.38005920  0.56473284  1
  Pr3+  Pr21  1  0.62274785  0.51063977  0.94065926  1
  Pr3+  Pr22  1  0.00275474  0.62820086  0.55492379  1
  Pr3+  Pr23  1  0.75727447  0.38317515  0.55203336  1
  Pr3+  Pr24  1  -0.00198771  0.63278142  0.07046570  1
  Pr3+  Pr25  1  0.12952515  0.00336097  0.43878251  1
  Nd3+  Nd26  1  0.88019493  0.75674927  0.43085028  1
  Nd3+  Nd27  1  0.00586511  0.13288208  0.55767657  1
  Nd3+  Nd28  1  0.62910209  0.25387892  0.43857945  1
  Nd3+  Nd29  1  0.63004151  0.76235732  0.42987068  1
  Nd3+  Nd30  1  0.38148353  0.51350682  0.43251829  1
  Nd3+  Nd31  1  0.24385591  0.88467995  0.07263710  1
  Nd3+  Nd32  1  0.88019638  0.25351827  0.43655381  1
  Nd3+  Nd33  1  0.00034591  0.88096592  0.07492699  1
  Nd3+  Nd34  1  0.49692312  0.38537176  0.05664903  1
  Nd3+  Nd35  1  0.24864018  0.63542391  0.06590293  1
  Nd3+  Nd36  1  0.73427650  0.13695650  0.06774151  1
  Nd3+  Nd37  1  0.12893148  0.75569599  0.44442174  1
  Nd3+  Nd38  1  0.25776559  0.38195475  0.55509709  1
  Nd3+  Nd39  1  0.25629225  0.12763934  0.55253339  1
  Nd3+  Nd40  1  0.61993300  0.25575242  0.93354097  1
  Nd3+  Nd41  1  -0.00706097  0.38462756  0.06117640  1
  Nd3+  Nd42  1  0.75982382  0.87617572  0.56595662  1
  Nd3+  Nd43  1  0.12519485  0.51080911  0.94893865  1
  Nd3+  Nd44  1  0.87401934  0.50780453  0.93678561  1
  Sm3+  Sm45  1  0.75329538  0.12727817  0.55137421  1
  Sm3+  Sm46  1  0.24646253  0.13333852  0.05442702  1
  Sm3+  Sm47  1  0.87435703  0.75645004  0.95012931  1
  Sm3+  Sm48  1  0.24670949  0.37911198  0.05637793  1
  Sm3+  Sm49  1  0.38247756  0.25513359  0.43905869  1
  Sm3+  Sm50  1  0.37010552  0.25430891  0.94048079  1
  Sm3+  Sm51  1  0.13056715  0.50491138  0.43778405  1
  Sm3+  Sm52  1  0.49740097  0.13263019  0.05413222  1
  Sm3+  Sm53  1  0.86931692  0.00750024  0.95146148  1
  Sm3+  Sm54  1  0.75218441  0.62809135  0.53869087  1
  Sm3+  Sm55  1  0.74357161  0.38675974  0.05722684  1
  Sm3+  Sm56  1  0.86972293  0.25557756  0.94691727  1
  Sm3+  Sm57  1  0.00250729  0.88170462  0.56137951  1
  Sm3+  Sm58  1  0.88070591  0.00395086  0.44247380  1
  Sm3+  Sm59  1  0.38522441  -0.00093311  0.43430602  1
  Sm3+  Sm60  1  0.62924893  0.00146800  0.43983331  1
  Sm3+  Sm61  1  0.00433278  0.38114632  0.55019585  1
  Sm3+  Sm62  1  0.37266210  0.50666362  0.94374927  1
  Sm3+  Sm63  1  0.11635856  0.00760667  0.95197612  1
  Bi2+  Bi64  1  0.01502941  0.13398509  0.29712748  1
  Bi2+  Bi65  1  0.01809586  0.14995031  0.81382769  1
  Bi2+  Bi66  1  0.06628778  0.38529994  0.28231078  1
  Bi2+  Bi67  1  -0.00478527  0.41759114  0.75353902  1
  Bi2+  Bi68  1  0.04490291  0.65068413  0.28590744  1
  Bi2+  Bi69  1  -0.01410205  0.60678501  0.79963437  1
  Bi2+  Bi70  1  -0.00037736  0.88206180  0.30269217  1
  Bi2+  Bi71  1  -0.03523563  0.87536132  0.80212266  1
  Bi2+  Bi72  1  0.31076381  0.10426904  0.29593616  1
  Bi2+  Bi73  1  0.26545872  0.10532816  0.79213770  1
  Bi2+  Bi74  1  0.26192865  0.40834518  0.29904500  1
  Bi2+  Bi75  1  0.25869547  0.30088090  0.77636137  1
  Bi2+  Bi76  1  0.23915986  0.60471823  0.29284702  1
  Bi2+  Bi77  1  0.18543161  0.60367255  0.78684605  1
  Bi2+  Bi78  1  0.27194489  0.88320576  0.27742637  1
  Bi2+  Bi79  1  0.22156066  0.88202923  0.79972607  1
  Bi2+  Bi80  1  0.50781756  0.09589173  0.32929940  1
  Bi2+  Bi81  1  0.45517066  0.15342507  0.78044880  1
  Bi2+  Bi82  1  0.50332104  0.29509234  0.29294045  1
  Bi2+  Bi83  1  0.53642358  0.35259327  0.78883428  1
  Bi2+  Bi84  1  0.48940309  0.60782331  0.29593273  1
  Bi2+  Bi85  1  0.50163239  0.60424697  0.79419409  1
  Bi2+  Bi86  1  0.50014199  0.90771896  0.29356173  1
  Bi2+  Bi87  1  0.50561224  0.86972702  0.79716159  1
  Bi2+  Bi88  1  0.69478270  0.13357129  0.29108378  1
  Bi2+  Bi89  1  0.75267810  0.06658317  0.79624724  1
  Bi2+  Bi90  1  0.77813377  0.32925047  0.28794903  1
  Bi2+  Bi91  1  0.80041579  0.34046145  0.78919971  1
  Bi2+  Bi92  1  0.75280361  0.65687280  0.28776165  1
  Bi2+  Bi93  1  0.77038168  0.59058639  0.77074372  1
  Bi2+  Bi94  1  0.74788210  0.94571565  0.27936114  1
  Bi2+  Bi95  1  0.78621636  0.78621096  0.78347468  1
  Bi2+  Bi96  1  0.16801199  0.01152259  0.21493433  1
  Bi2+  Bi97  1  0.10482805  0.03829927  0.73527410  1
  Bi2+  Bi98  1  0.21445057  0.26432900  0.22340138  1
  Bi2+  Bi99  1  0.05555803  0.24207665  0.71464985  1
  Bi2+  Bi100  1  0.12273846  0.52309062  0.20717507  1
  Bi2+  Bi101  1  0.14286115  0.50371025  0.69350369  1
  Bi2+  Bi102  1  0.12231006  0.71243943  0.17214978  1
  Bi2+  Bi103  1  0.08536922  0.75605854  0.73923329  1
  Bi2+  Bi104  1  0.37070361  -0.00413779  0.20122952  1
  Bi2+  Bi105  1  0.33655610  0.02394550  0.69287578  1
  Bi2+  Bi106  1  0.40030615  0.20227850  0.20923199  1
  Bi2+  Bi107  1  0.42885697  0.23390065  0.66940519  1
  Bi2+  Bi108  1  0.36611254  0.46793453  0.20759917  1
  Bi2+  Bi109  1  0.38708585  0.40639591  0.71251885  1
  Bi2+  Bi110  1  0.31131803  0.72897844  0.21373696  1
  Bi2+  Bi111  1  0.34530046  0.76355545  0.69186768  1
  Bi2+  Bi112  1  0.57985504  0.02824281  0.21270854  1
  Bi2+  Bi113  1  0.64062914  0.02265633  0.70835226  1
  Bi2+  Bi114  1  0.64345527  0.26666412  0.21011973  1
  Bi2+  Bi115  1  0.60531958  0.21903053  0.71229415  1
  Bi2+  Bi116  1  0.61874437  0.47008495  0.21357396  1
  Bi2+  Bi117  1  0.64311219  0.49535418  0.69896401  1
  Bi2+  Bi118  1  0.59086820  0.77267699  0.20882132  1
  Bi2+  Bi119  1  0.64738611  0.73061723  0.70599335  1
  Bi2+  Bi120  1  0.89854132  0.01391150  0.21942118  1
  Bi2+  Bi121  1  0.90299778  -0.01308164  0.71231883  1
  Bi2+  Bi122  1  0.90226861  0.24031504  0.21527530  1
  Bi2+  Bi123  1  0.85896162  0.17923989  0.72578551  1
  Bi2+  Bi124  1  0.88504652  0.47778313  0.21848685  1
  Bi2+  Bi125  1  0.86295347  0.46688195  0.67667985  1
  Bi2+  Bi126  1  0.93199029  0.74913673  0.20633765  1
  Bi2+  Bi127  1  0.90365266  0.71755249  0.69929966  1
  S2-  S128  1  0.04610346  0.12428101  0.18307784  1
  S2-  S129  1  0.01574600  0.08293783  0.65090703  1
  S2-  S130  1  -0.02583029  0.35531175  0.15816104  1
  S2-  S131  1  -0.03100833  0.34170086  0.64241104  1
  S2-  S132  1  -0.09214914  0.59666790  0.15470162  1
  S2-  S133  1  -0.00687392  0.58614453  0.65120109  1
  S2-  S134  1  -0.11417592  0.89357507  0.15118748  1
  S2-  S135  1  -0.10067616  0.86596871  0.63872008  1
  S2-  S136  1  0.26465780  0.14004295  0.15087314  1
  S2-  S137  1  0.26360004  0.14773778  0.65070948  1
  S2-  S138  1  0.23790524  0.38658620  0.15374410  1
  S2-  S139  1  0.23827455  0.38454923  0.65341116  1
  S2-  S140  1  0.35303725  0.59965553  0.14666925  1
  S2-  S141  1  0.26030055  0.61385082  0.65647108  1
  S2-  S142  1  0.12697621  0.89280497  0.14842188  1
  S2-  S143  1  0.23651969  0.88966293  0.65656240  1
  S2-  S144  1  0.59418339  0.15080258  0.13523844  1
  S2-  S145  1  0.50705247  0.03572507  0.64295622  1
  S2-  S146  1  0.49080044  0.39583027  0.15483073  1
  S2-  S147  1  0.50138995  0.49299818  0.64144731  1
  S2-  S148  1  0.59068783  0.61323360  0.16353353  1
  S2-  S149  1  0.50096169  0.71884352  0.65028084  1
  S2-  S150  1  0.45802979  0.78608797  0.15867381  1
  S2-  S151  1  0.45440382  0.88538647  0.70539685  1
  S2-  S152  1  0.83107488  0.12942357  0.15092682  1
  S2-  S153  1  0.74725925  0.12198018  0.64847555  1
  S2-  S154  1  0.75306937  0.45021801  0.14898827  1
  S2-  S155  1  0.71915763  0.37272085  0.64977884  1
  S2-  S156  1  0.76056249  0.72940745  0.18889741  1
  S2-  S157  1  0.71103621  0.62061195  0.63387041  1
  S2-  S158  1  0.63111959  0.90352765  0.14881184  1
  S2-  S159  1  0.66908381  0.87536387  0.65078388  1
  S2-  S160  1  0.09944272  0.00419287  0.33974723  1
  S2-  S161  1  0.11448963  -0.07364400  0.86564825  1
  S2-  S162  1  0.10889190  0.24256942  0.34195415  1
  S2-  S163  1  0.14598279  0.25733680  0.84968855  1
  S2-  S164  1  0.04059707  0.50745523  0.35427457  1
  S2-  S165  1  0.09600608  0.50198793  0.85180511  1
  S2-  S166  1  0.11407328  0.77495136  0.34659967  1
  S2-  S167  1  0.21544545  0.73702823  0.85317230  1
  S2-  S168  1  0.37650188  -0.12135027  0.36130374  1
  S2-  S169  1  0.37302255  -0.09333104  0.86050749  1
  S2-  S170  1  0.34588998  0.26709603  0.34389824  1
  S2-  S171  1  0.39264661  0.29110670  0.84596080  1
  S2-  S172  1  0.47058839  0.47322952  0.35186323  1
  S2-  S173  1  0.37097681  0.56235624  0.85210180  1
  S2-  S174  1  0.36891906  0.65088253  0.35827398  1
  S2-  S175  1  0.39098759  0.73703916  0.78219821  1
  S2-  S176  1  0.64443397  -0.09339607  0.35827087  1
  S2-  S177  1  0.61280871  -0.01269213  0.84311295  1
  S2-  S178  1  0.63746932  0.33641275  0.35283373  1
  S2-  S179  1  0.66436642  0.26235201  0.83870891  1
  S2-  S180  1  0.64832760  0.52988652  0.30465416  1
  S2-  S181  1  0.58192387  0.49317365  0.84309884  1
  S2-  S182  1  0.60452411  0.71281420  0.33374701  1
  S2-  S183  1  0.55531697  0.73708142  0.86062594  1
  S2-  S184  1  0.87935881  -0.01600124  0.34592885  1
  S2-  S185  1  0.88111874  0.00961651  0.85352943  1
  S2-  S186  1  0.88612994  0.22758302  0.33927220  1
  S2-  S187  1  0.90928926  0.26572063  0.85221271  1
  S2-  S188  1  0.84548962  0.52491351  0.31522998  1
  S2-  S189  1  0.80554116  0.47914094  0.84604186  1
  S2-  S190  1  0.87177950  0.76030627  0.33209234  1
  S2-  S191  1  0.97346397  0.74545018  0.86955018  1
  S2-  S192  1  0.00425148  0.12923245  0.45190471  1
  S2-  S193  1  -0.00838600  0.13186947  0.96316417  1
  S2-  S194  1  0.00684375  0.37651565  0.44767415  1
  S2-  S195  1  -0.00428624  0.38149086  0.95618172  1
  S2-  S196  1  0.00424608  0.63168617  0.44942318  1
  S2-  S197  1  -0.00263984  0.62762255  0.96422367  1
  S2-  S198  1  0.00232383  0.88028840  0.45720457  1
  S2-  S199  1  -0.00912283  0.88657213  0.96955781  1
  S2-  S200  1  0.25977106  0.12671604  0.44633521  1
  S2-  S201  1  0.24831069  0.12696852  0.95043059  1
  S2-  S202  1  0.25697110  0.38220674  0.44891588  1
  S2-  S203  1  0.24814975  0.37963698  0.95189027  1
  S2-  S204  1  0.24922658  0.63055356  0.45459682  1
  S2-  S205  1  0.25094911  0.63091939  0.96061604  1
  S2-  S206  1  0.25212525  0.88044912  0.45481619  1
  S2-  S207  1  0.23792590  0.88749769  0.96893624  1
  S2-  S208  1  0.50466892  0.12832241  0.45265546  1
  S2-  S209  1  0.49373737  0.12934506  0.94954229  1
  S2-  S210  1  0.50348498  0.37411094  0.45761465  1
  S2-  S211  1  0.49470555  0.37994571  0.95124519  1
  S2-  S212  1  0.51231845  0.63033709  0.45352179  1
  S2-  S213  1  0.49230623  0.62880543  0.96352417  1
  S2-  S214  1  0.50861828  0.88243650  0.45703313  1
  S2-  S215  1  0.50119864  0.87968361  0.96655051  1
  S2-  S216  1  0.75476855  0.12721724  0.44656222  1
  S2-  S217  1  0.74518778  0.13256773  0.95606802  1
  S2-  S218  1  0.76111254  0.38205152  0.44529294  1
  S2-  S219  1  0.74584743  0.37970052  0.95374276  1
  S2-  S220  1  0.75607157  0.62727743  0.43469394  1
  S2-  S221  1  0.75164353  0.63471883  0.94305613  1
  S2-  S222  1  0.76087404  0.88079768  0.45741762  1
  S2-  S223  1  0.74956345  0.87887235  0.95978397  1
  S2-  S224  1  0.11698554  0.01809382  0.05436920  1
  S2-  S225  1  0.12819317  0.00233589  0.54576973  1
  S2-  S226  1  0.11955409  0.25583569  0.05339199  1
  S2-  S227  1  0.13094780  0.25707525  0.54514551  1
  S2-  S228  1  0.12396843  0.50434014  0.05421432  1
  S2-  S229  1  0.12958426  0.50317086  0.54210757  1
  S2-  S230  1  0.12173210  0.75681798  0.04471290  1
  S2-  S231  1  0.12606131  0.75680495  0.55103826  1
  S2-  S232  1  0.37246037  0.00957830  0.05294863  1
  S2-  S233  1  0.37916423  0.00363629  0.53923372  1
  S2-  S234  1  0.37281970  0.25632858  0.04619446  1
  S2-  S235  1  0.37958085  0.25493025  0.54237366  1
  S2-  S236  1  0.36857546  0.50167022  0.04616868  1
  S2-  S237  1  0.37978018  0.50593869  0.54015238  1
  S2-  S238  1  0.36494124  0.76273955  0.05536299  1
  S2-  S239  1  0.38355204  0.75616558  0.54686947  1
  S2-  S240  1  0.62145951  0.00825791  0.04410965  1
  S2-  S241  1  0.63377119  0.00234750  0.54246285  1
  S2-  S242  1  0.61965747  0.26342573  0.03920762  1
  S2-  S243  1  0.63175556  0.25299454  0.54441629  1
  S2-  S244  1  0.62094503  0.50935775  0.04737886  1
  S2-  S245  1  0.63286752  0.50082415  0.53074407  1
  S2-  S246  1  0.62908589  0.74739546  0.05721240  1
  S2-  S247  1  0.63346584  0.75543433  0.53874628  1
  S2-  S248  1  0.86851321  0.01227916  0.05239818  1
  S2-  S249  1  0.88064395  0.00828886  0.54575228  1
  S2-  S250  1  0.86522606  0.26158875  0.05052857  1
  S2-  S251  1  0.87803266  0.25177446  0.54175006  1
  S2-  S252  1  0.86798316  0.50659434  0.04312881  1
  S2-  S253  1  0.88121529  0.50485375  0.53035443  1
  S2-  S254  1  0.86998718  0.75008439  0.05329927  1
  S2-  S255  1  0.87873927  0.75056951  0.53792679  1
