# generated using pymatgen
data_La6Ce7Pr13Nd19Sm19(BiS2)64
_symmetry_space_group_name_H-M   'P 1'
_cell_length_a   16.13165168
_cell_length_b   16.12711883
_cell_length_c   27.23729880
_cell_angle_alpha   89.80419075
_cell_angle_beta   89.89751281
_cell_angle_gamma   90.03712696
_symmetry_Int_Tables_number   1
_chemical_formula_structural   La6Ce7Pr13Nd19Sm19(BiS2)64
_chemical_formula_sum   'La6 Ce7 Pr13 Nd19 Sm19 Bi64 S128'
_cell_volume   7085.92144276
_cell_formula_units_Z   1
loop_
 _symmetry_equiv_pos_site_id
 _symmetry_equiv_pos_as_xyz
  1  'x, y, z'
loop_
 _atom_type_symbol
 _atom_type_oxidation_number
  La3+  3.0
  Ce3+  3.0
  Pr3+  3.0
  Nd3+  3.0
  Sm3+  3.0
  Bi2+  2.0
  S2-  -2.0
loop_
 _atom_site_type_symbol
 _atom_site_label
 _atom_site_symmetry_multiplicity
 _atom_site_fract_x
 _atom_site_fract_y
 _atom_site_fract_z
 _atom_site_occupancy
  La3+  La0  1  0.73021974  0.87861574  0.59629738  1
  La3+  La1  1  0.25517653  0.12200294  0.11419766  1
  La3+  La2  1  0.22775351  0.37947375  0.56568503  1
  La3+  La3  1  0.51443152  0.11995128  0.08265876  1
  La3+  La4  1  0.48085466  0.13258031  0.56684656  1
  La3+  La5  1  0.13800248  0.76633796  0.89696622  1
  Ce3+  Ce6  1  0.75644438  0.62845591  0.05730116  1
  Ce3+  Ce7  1  0.13357432  0.50453842  0.93830125  1
  Ce3+  Ce8  1  0.36217886  0.00717898  0.44118777  1
  Ce3+  Ce9  1  0.73030142  0.12868651  0.57223192  1
  Ce3+  Ce10  1  0.11298086  0.00315451  0.44260783  1
  Ce3+  Ce11  1  0.49176456  0.62902590  0.55719135  1
  Ce3+  Ce12  1  0.88125323  0.75764769  0.93200820  1
  Pr3+  Pr13  1  0.72759283  0.61400970  0.59747984  1
  Pr3+  Pr14  1  0.51175248  0.63183580  0.06927938  1
  Pr3+  Pr15  1  0.11196342  0.25024006  0.43132372  1
  Pr3+  Pr16  1  0.22456408  0.12689249  0.57332311  1
  Pr3+  Pr17  1  0.23499624  0.87650175  0.56115899  1
  Pr3+  Pr18  1  0.88099090  0.50641088  0.93311913  1
  Pr3+  Pr19  1  0.62815755  0.00974779  0.93675707  1
  Pr3+  Pr20  1  0.48982732  0.87851662  0.56162485  1
  Pr3+  Pr21  1  0.35932013  0.50546244  0.43741243  1
  Pr3+  Pr22  1  0.86162261  0.50647826  0.44097089  1
  Pr3+  Pr23  1  0.61286947  0.50530814  0.43690138  1
  Pr3+  Pr24  1  0.00599608  0.13753492  0.07337876  1
  Pr3+  Pr25  1  0.50877814  0.37289220  0.06573313  1
  Nd3+  Nd26  1  0.23367540  0.62937266  0.55690463  1
  Nd3+  Nd27  1  0.00993877  0.87759757  0.05412340  1
  Nd3+  Nd28  1  0.61203335  0.25324700  0.43708113  1
  Nd3+  Nd29  1  0.48373514  0.38065661  0.55737774  1
  Nd3+  Nd30  1  0.51236703  0.87542038  0.06900107  1
  Nd3+  Nd31  1  0.61367083  0.75656342  0.44030044  1
  Nd3+  Nd32  1  0.86126322  0.25120425  0.43953164  1
  Nd3+  Nd33  1  0.38141981  0.75735004  0.93963911  1
  Nd3+  Nd34  1  0.10767827  0.75648208  0.43558700  1
  Nd3+  Nd35  1  0.38262072  0.50553299  0.94592022  1
  Nd3+  Nd36  1  -0.01787274  0.87556502  0.56412972  1
  Nd3+  Nd37  1  0.75872698  0.12913243  0.06398141  1
  Nd3+  Nd38  1  0.10837037  0.50636055  0.43786551  1
  Nd3+  Nd39  1  0.35870485  0.25716828  0.43510895  1
  Nd3+  Nd40  1  0.36165011  0.75605462  0.44090936  1
  Nd3+  Nd41  1  -0.01801152  0.63085383  0.56439345  1
  Nd3+  Nd42  1  0.62996753  0.76208619  0.92839686  1
  Nd3+  Nd43  1  0.61259923  0.00592929  0.43954795  1
  Nd3+  Nd44  1  0.88349231  0.00602099  0.94175096  1
  Sm3+  Sm45  1  0.38039627  0.00735619  0.95351078  1
  Sm3+  Sm46  1  0.73724311  0.37720973  0.55792174  1
  Sm3+  Sm47  1  0.00933074  0.62869585  0.04423527  1
  Sm3+  Sm48  1  -0.01864165  0.12644862  0.55549870  1
  Sm3+  Sm49  1  0.25771888  0.37414889  0.06323072  1
  Sm3+  Sm50  1  0.13272856  0.00728326  0.94190814  1
  Sm3+  Sm51  1  0.62882513  0.50593720  0.93963508  1
  Sm3+  Sm52  1  0.38113391  0.25037566  0.95535750  1
  Sm3+  Sm53  1  0.88282781  0.25322787  0.93892318  1
  Sm3+  Sm54  1  0.25531848  0.62843681  0.05376235  1
  Sm3+  Sm55  1  0.00733545  0.37858428  0.05184138  1
  Sm3+  Sm56  1  0.62732861  0.25104129  0.93770970  1
  Sm3+  Sm57  1  0.13477724  0.25244466  0.94566152  1
  Sm3+  Sm58  1  0.75605530  0.37882426  0.04750919  1
  Sm3+  Sm59  1  0.25476096  0.87977036  0.06022031  1
  Sm3+  Sm60  1  -0.01546384  0.37919407  0.55627562  1
  Sm3+  Sm61  1  0.85747633  0.75607527  0.45429350  1
  Sm3+  Sm62  1  0.85946968  0.00286628  0.44404626  1
  Sm3+  Sm63  1  0.76016675  0.87703442  0.05522800  1
  Bi2+  Bi64  1  -0.02280138  0.12985273  0.30030552  1
  Bi2+  Bi65  1  0.00107873  0.15488427  0.79990706  1
  Bi2+  Bi66  1  -0.04379943  0.37200378  0.28298287  1
  Bi2+  Bi67  1  0.00346316  0.35101905  0.77625366  1
  Bi2+  Bi68  1  -0.01148083  0.64217881  0.29896448  1
  Bi2+  Bi69  1  0.02417414  0.55150914  0.77259452  1
  Bi2+  Bi70  1  0.01207344  0.83733797  0.30676641  1
  Bi2+  Bi71  1  0.02050705  0.96081158  0.78217776  1
  Bi2+  Bi72  1  0.24786868  0.12541226  0.31274566  1
  Bi2+  Bi73  1  0.27217006  0.12709649  0.79031565  1
  Bi2+  Bi74  1  0.22768759  0.40791370  0.28327949  1
  Bi2+  Bi75  1  0.22332476  0.32269237  0.78280806  1
  Bi2+  Bi76  1  0.19991844  0.65146160  0.28205528  1
  Bi2+  Bi77  1  0.25570384  0.61458395  0.79597968  1
  Bi2+  Bi78  1  0.22243150  0.87065059  0.24815044  1
  Bi2+  Bi79  1  0.27966763  0.87124626  0.77024795  1
  Bi2+  Bi80  1  0.51037260  0.12287834  0.30356798  1
  Bi2+  Bi81  1  0.47167370  0.11770502  0.80113185  1
  Bi2+  Bi82  1  0.51028166  0.38228596  0.30144255  1
  Bi2+  Bi83  1  0.51116761  0.33507679  0.79530028  1
  Bi2+  Bi84  1  0.47278576  0.62811204  0.28426174  1
  Bi2+  Bi85  1  0.50452736  0.60027353  0.80202518  1
  Bi2+  Bi86  1  0.50459539  0.87068748  0.30909207  1
  Bi2+  Bi87  1  0.48927581  0.89567491  0.78422761  1
  Bi2+  Bi88  1  0.77828470  0.14723198  0.28554393  1
  Bi2+  Bi89  1  0.72849061  0.11378324  0.78628654  1
  Bi2+  Bi90  1  0.77426259  0.40732560  0.23814229  1
  Bi2+  Bi91  1  0.79460801  0.33364251  0.77989777  1
  Bi2+  Bi92  1  0.78135713  0.59984540  0.27706597  1
  Bi2+  Bi93  1  0.76828279  0.60460723  0.80055528  1
  Bi2+  Bi94  1  0.76097617  0.82629891  0.28131199  1
  Bi2+  Bi95  1  0.75183770  0.85881736  0.80571292  1
  Bi2+  Bi96  1  0.04223540  -0.01483096  0.23016864  1
  Bi2+  Bi97  1  0.17744248  0.03315108  0.70811683  1
  Bi2+  Bi98  1  0.07719060  0.24696037  0.21453479  1
  Bi2+  Bi99  1  0.11461305  0.24038692  0.70195317  1
  Bi2+  Bi100  1  0.05422568  0.48924819  0.21695433  1
  Bi2+  Bi101  1  0.17020298  0.48806489  0.69971045  1
  Bi2+  Bi102  1  0.08925045  0.74748728  0.20070906  1
  Bi2+  Bi103  1  0.12528901  0.74444623  0.69552591  1
  Bi2+  Bi104  1  0.37994314  -0.02507254  0.22148169  1
  Bi2+  Bi105  1  0.37883886  0.00413197  0.70829978  1
  Bi2+  Bi106  1  0.36578091  0.28649027  0.21468019  1
  Bi2+  Bi107  1  0.36695641  0.26953789  0.70976021  1
  Bi2+  Bi108  1  0.34248556  0.53224481  0.22024873  1
  Bi2+  Bi109  1  0.43901297  0.46807114  0.71801526  1
  Bi2+  Bi110  1  0.36093713  0.73757547  0.21303479  1
  Bi2+  Bi111  1  0.40999432  0.73193061  0.73980700  1
  Bi2+  Bi112  1  0.64187198  -0.00715237  0.21010879  1
  Bi2+  Bi113  1  0.62534857  0.00809357  0.71131784  1
  Bi2+  Bi114  1  0.61020528  0.27069034  0.19903259  1
  Bi2+  Bi115  1  0.63350627  0.25434688  0.71504718  1
  Bi2+  Bi116  1  0.61297676  0.53690569  0.22580801  1
  Bi2+  Bi117  1  0.63285543  0.46232829  0.73655604  1
  Bi2+  Bi118  1  0.62112401  0.74565050  0.20683540  1
  Bi2+  Bi119  1  0.63026955  0.73577941  0.70871445  1
  Bi2+  Bi120  1  0.83952695  -0.01177461  0.22046504  1
  Bi2+  Bi121  1  0.88904354  0.06894238  0.72207562  1
  Bi2+  Bi122  1  0.87989420  0.17094608  0.18792812  1
  Bi2+  Bi123  1  0.82655126  0.24001406  0.67476845  1
  Bi2+  Bi124  1  0.87406421  0.54439979  0.17617712  1
  Bi2+  Bi125  1  0.88747329  0.41948543  0.68847923  1
  Bi2+  Bi126  1  0.87914041  0.73487028  0.20770433  1
  Bi2+  Bi127  1  0.90573973  0.74813097  0.72078096  1
  S2-  S128  1  0.09746783  0.10507509  0.15739866  1
  S2-  S129  1  0.07679345  0.11527476  0.63715375  1
  S2-  S130  1  -0.00873663  0.29769375  0.13902678  1
  S2-  S131  1  0.08828378  0.37679466  0.63453070  1
  S2-  S132  1  0.03242348  0.60600611  0.14067077  1
  S2-  S133  1  0.00142092  0.62991900  0.66328199  1
  S2-  S134  1  -0.00206381  0.87166419  0.15302431  1
  S2-  S135  1  -0.00006716  0.85583910  0.66257787  1
  S2-  S136  1  0.29288181  0.12564425  0.21697098  1
  S2-  S137  1  0.35384240  0.14168814  0.64247245  1
  S2-  S138  1  0.23895384  0.30022649  0.15178528  1
  S2-  S139  1  0.30276995  0.41549109  0.65553027  1
  S2-  S140  1  0.26628533  0.62738600  0.15114326  1
  S2-  S141  1  0.23500406  0.62790244  0.65681097  1
  S2-  S142  1  0.25570942  0.94617968  0.15137570  1
  S2-  S143  1  0.23141869  0.85537886  0.66128207  1
  S2-  S144  1  0.47363425  0.18280312  0.17788057  1
  S2-  S145  1  0.59405290  0.12945791  0.64371022  1
  S2-  S146  1  0.49063547  0.38561460  0.16595006  1
  S2-  S147  1  0.50556743  0.34083388  0.65268879  1
  S2-  S148  1  0.49216766  0.75430765  0.14239950  1
  S2-  S149  1  0.56805701  0.62974812  0.64470658  1
  S2-  S150  1  0.50420848  0.97707184  0.15162010  1
  S2-  S151  1  0.57569862  0.87162153  0.64930316  1
  S2-  S152  1  0.66278970  0.12855651  0.14707395  1
  S2-  S153  1  0.76752952  0.02401004  0.64992397  1
  S2-  S154  1  0.72834689  0.35980792  0.14338565  1
  S2-  S155  1  0.72499798  0.45494573  0.64476574  1
  S2-  S156  1  0.65159264  0.61923789  0.13655263  1
  S2-  S157  1  0.77771844  0.64218619  0.69533617  1
  S2-  S158  1  0.69897340  0.86754444  0.14674499  1
  S2-  S159  1  0.77650227  0.83817503  0.69890906  1
  S2-  S160  1  0.12062595  0.04054636  0.34742310  1
  S2-  S161  1  0.13377677  -0.07080426  0.85247746  1
  S2-  S162  1  0.16398481  0.27147562  0.33589403  1
  S2-  S163  1  0.14782658  0.20491942  0.85149135  1
  S2-  S164  1  0.14907539  0.51254662  0.34180214  1
  S2-  S165  1  0.14873247  0.50137486  0.84134543  1
  S2-  S166  1  0.17348114  0.78663065  0.34469757  1
  S2-  S167  1  0.10372179  0.70367126  0.80112331  1
  S2-  S168  1  0.37719863  -0.00016619  0.34240906  1
  S2-  S169  1  0.39693152  -0.00741971  0.85566966  1
  S2-  S170  1  0.38748200  0.22576605  0.33812738  1
  S2-  S171  1  0.40531909  0.25331313  0.85812756  1
  S2-  S172  1  0.36975021  0.44250718  0.34454945  1
  S2-  S173  1  0.37784482  0.51805603  0.84670655  1
  S2-  S174  1  0.40232209  0.75687660  0.34388975  1
  S2-  S175  1  0.29796802  0.75705349  0.85204820  1
  S2-  S176  1  0.61107480  0.00660074  0.33875907  1
  S2-  S177  1  0.62035363  -0.10001982  0.85856157  1
  S2-  S178  1  0.60526689  0.24629960  0.33669582  1
  S2-  S179  1  0.61897636  0.13721579  0.86409754  1
  S2-  S180  1  0.62193432  0.48095966  0.33774011  1
  S2-  S181  1  0.64659669  0.49868608  0.84234763  1
  S2-  S182  1  0.62335100  0.76940568  0.34001305  1
  S2-  S183  1  0.65183579  0.71224845  0.83043866  1
  S2-  S184  1  0.86286192  0.02724341  0.34643583  1
  S2-  S185  1  0.87183339  -0.04246198  0.84612992  1
  S2-  S186  1  0.84866966  0.27721590  0.34218045  1
  S2-  S187  1  0.84669443  0.20972986  0.84703334  1
  S2-  S188  1  0.90018875  0.51412887  0.34303858  1
  S2-  S189  1  0.89438223  0.50116681  0.83371252  1
  S2-  S190  1  0.87615585  0.77165977  0.35624319  1
  S2-  S191  1  0.87254935  0.73588525  0.83283772  1
  S2-  S192  1  -0.01500160  0.12665048  0.45174787  1
  S2-  S193  1  0.00761175  0.13125068  0.95754099  1
  S2-  S194  1  -0.01259799  0.37770257  0.45081584  1
  S2-  S195  1  0.00761241  0.37601589  0.94637140  1
  S2-  S196  1  -0.01511859  0.63351282  0.45653855  1
  S2-  S197  1  0.01150980  0.63409074  0.93921497  1
  S2-  S198  1  -0.01570668  0.87974795  0.45672854  1
  S2-  S199  1  0.00944358  0.87842845  0.94886577  1
  S2-  S200  1  0.23746111  0.12948734  0.45898880  1
  S2-  S201  1  0.25716805  0.12860697  0.95425617  1
  S2-  S202  1  0.23236360  0.38089109  0.45378275  1
  S2-  S203  1  0.25885059  0.37677550  0.95582633  1
  S2-  S204  1  0.23459860  0.63227725  0.44954433  1
  S2-  S205  1  0.25469811  0.63087878  0.95009813  1
  S2-  S206  1  0.23786661  0.87872884  0.45398767  1
  S2-  S207  1  0.25607510  0.88220764  0.95606042  1
  S2-  S208  1  0.48670653  0.13167359  0.45567034  1
  S2-  S209  1  0.50297493  0.12990697  0.96841701  1
  S2-  S210  1  0.48729159  0.37853017  0.45057568  1
  S2-  S211  1  0.50718648  0.37783635  0.95657886  1
  S2-  S212  1  0.48729343  0.63034216  0.44957408  1
  S2-  S213  1  0.50739061  0.63117762  0.95475410  1
  S2-  S214  1  0.48758698  0.87992080  0.45472168  1
  S2-  S215  1  0.50175108  0.88047112  0.96129438  1
  S2-  S216  1  0.73736765  0.12879232  0.45529300  1
  S2-  S217  1  0.75987366  0.13120251  0.95842997  1
  S2-  S218  1  0.73820443  0.37831869  0.45117081  1
  S2-  S219  1  0.75393503  0.37592081  0.94260321  1
  S2-  S220  1  0.73805718  0.63173415  0.44380820  1
  S2-  S221  1  0.75379086  0.62913001  0.94906939  1
  S2-  S222  1  0.73751990  0.88099269  0.44993084  1
  S2-  S223  1  0.75952888  0.88097105  0.95296171  1
  S2-  S224  1  0.13122644  0.00430384  0.04597835  1
  S2-  S225  1  0.10738552  -0.00303598  0.54637862  1
  S2-  S226  1  0.13304629  0.25499305  0.04695998  1
  S2-  S227  1  0.10446759  0.25000568  0.53812920  1
  S2-  S228  1  0.13391130  0.49919633  0.04539482  1
  S2-  S229  1  0.10551750  0.50955843  0.54287962  1
  S2-  S230  1  0.13358539  0.75202846  0.04765051  1
  S2-  S231  1  0.10837500  0.75320064  0.54443033  1
  S2-  S232  1  0.37570477  0.00576631  0.05544445  1
  S2-  S233  1  0.36018810  -0.00026602  0.54828690  1
  S2-  S234  1  0.37926978  0.24841317  0.05877011  1
  S2-  S235  1  0.35571597  0.25945216  0.54249434  1
  S2-  S236  1  0.38244194  0.50326088  0.05276924  1
  S2-  S237  1  0.36193769  0.50815522  0.54468266  1
  S2-  S238  1  0.37554892  0.75369252  0.04452450  1
  S2-  S239  1  0.36338076  0.75187413  0.54936977  1
  S2-  S240  1  0.63909332  0.00014416  0.04337901  1
  S2-  S241  1  0.61402682  0.00060831  0.54458532  1
  S2-  S242  1  0.63424192  0.25332324  0.04128089  1
  S2-  S243  1  0.61262632  0.25969948  0.54311670  1
  S2-  S244  1  0.63039290  0.49858230  0.04239988  1
  S2-  S245  1  0.61335640  0.50181981  0.54286084  1
  S2-  S246  1  0.63590574  0.75540183  0.03645860  1
  S2-  S247  1  0.61983625  0.75153672  0.54557522  1
  S2-  S248  1  0.88396471  0.00385021  0.05021381  1
  S2-  S249  1  0.86116303  0.00021947  0.54782295  1
  S2-  S250  1  0.87902891  0.25702481  0.04125180  1
  S2-  S251  1  0.86241459  0.25374164  0.54567244  1
  S2-  S252  1  0.88364727  0.50158889  0.03968894  1
  S2-  S253  1  0.85981166  0.50514712  0.54765136  1
  S2-  S254  1  0.88392541  0.75145373  0.04253559  1
  S2-  S255  1  0.85099953  0.75127297  0.55994387  1
