# generated using pymatgen
data_La6Ce7Pr13Nd19Sm19(BiS2)64
_symmetry_space_group_name_H-M   'P 1'
_cell_length_a   15.95677732
_cell_length_b   16.06700321
_cell_length_c   27.41915959
_cell_angle_alpha   89.85668963
_cell_angle_beta   90.26881757
_cell_angle_gamma   90.13400572
_symmetry_Int_Tables_number   1
_chemical_formula_structural   La6Ce7Pr13Nd19Sm19(BiS2)64
_chemical_formula_sum   'La6 Ce7 Pr13 Nd19 Sm19 Bi64 S128'
_cell_volume   7029.53973137
_cell_formula_units_Z   1
loop_
 _symmetry_equiv_pos_site_id
 _symmetry_equiv_pos_as_xyz
  1  'x, y, z'
loop_
 _atom_type_symbol
 _atom_type_oxidation_number
  La3+  3.0
  Ce3+  3.0
  Pr3+  3.0
  Nd3+  3.0
  Sm3+  3.0
  Bi2+  2.0
  S2-  -2.0
loop_
 _atom_site_type_symbol
 _atom_site_label
 _atom_site_symmetry_multiplicity
 _atom_site_fract_x
 _atom_site_fract_y
 _atom_site_fract_z
 _atom_site_occupancy
  La3+  La0  1  0.11536378  -0.00907081  0.89274917  1
  La3+  La1  1  0.49783103  0.13824233  0.10232281  1
  La3+  La2  1  0.88533378  0.76755834  0.39952663  1
  La3+  La3  1  0.50422778  0.37757930  0.56913648  1
  La3+  La4  1  0.61841380  0.50641248  0.41701236  1
  La3+  La5  1  0.61653124  0.76127018  0.41948602  1
  Ce3+  Ce6  1  0.49865867  0.13021849  0.56725106  1
  Ce3+  Ce7  1  0.37833413  0.51086490  0.93249093  1
  Ce3+  Ce8  1  0.37584392  0.75811672  0.94054126  1
  Ce3+  Ce9  1  0.62219168  0.25244677  0.43248562  1
  Ce3+  Ce10  1  0.24619361  0.14307987  0.07248152  1
  Ce3+  Ce11  1  -0.00286465  0.63240803  0.56197529  1
  Ce3+  Ce12  1  0.74375097  0.87785551  0.55912057  1
  Pr3+  Pr13  1  0.12917360  0.75737473  0.94836092  1
  Pr3+  Pr14  1  0.12994824  0.50588346  0.92209746  1
  Pr3+  Pr15  1  0.62917718  0.00870585  0.94181599  1
  Pr3+  Pr16  1  0.12403008  0.25447197  0.93095333  1
  Pr3+  Pr17  1  0.00349294  0.88236063  0.06975625  1
  Pr3+  Pr18  1  0.12128450  0.25265821  0.42643691  1
  Pr3+  Pr19  1  0.24103192  0.13966449  0.57664302  1
  Pr3+  Pr20  1  0.74897193  0.63434350  0.54566429  1
  Pr3+  Pr21  1  0.37140566  0.50454562  0.43793643  1
  Pr3+  Pr22  1  0.63086985  0.25930635  0.93967250  1
  Pr3+  Pr23  1  0.00222211  0.13314365  0.06877039  1
  Pr3+  Pr24  1  0.12277899  0.00085876  0.43950050  1
  Pr3+  Pr25  1  0.49817949  0.87997856  0.56608043  1
  Nd3+  Nd26  1  0.00242402  0.38839987  0.05550640  1
  Nd3+  Nd27  1  0.86968739  0.50925050  0.92989988  1
  Nd3+  Nd28  1  0.62348568  0.50994704  0.93522832  1
  Nd3+  Nd29  1  -0.00424201  0.37943270  0.55396563  1
  Nd3+  Nd30  1  0.75046429  0.63714390  0.07550450  1
  Nd3+  Nd31  1  0.12228249  0.75585186  0.44470381  1
  Nd3+  Nd32  1  0.25661059  0.62751553  0.06811984  1
  Nd3+  Nd33  1  0.51038361  0.62796657  0.55931320  1
  Nd3+  Nd34  1  0.25428061  0.89070798  0.05712956  1
  Nd3+  Nd35  1  0.87842449  0.76102097  0.94204767  1
  Nd3+  Nd36  1  0.25445714  0.62854379  0.56466506  1
  Nd3+  Nd37  1  0.37511169  0.25318543  0.93387700  1
  Nd3+  Nd38  1  0.37590847  0.01370049  0.94456014  1
  Nd3+  Nd39  1  0.87186453  0.50676007  0.43251678  1
  Nd3+  Nd40  1  0.74553168  0.12864721  0.56408403  1
  Nd3+  Nd41  1  0.50032886  0.63147316  0.06807626  1
  Nd3+  Nd42  1  0.75236815  0.39197420  0.06964064  1
  Nd3+  Nd43  1  0.61710234  0.00375519  0.43184758  1
  Nd3+  Nd44  1  0.37397068  0.25362180  0.43407081  1
  Sm3+  Sm45  1  0.86832975  0.24847989  0.43123465  1
  Sm3+  Sm46  1  0.87766970  0.25822383  0.95179646  1
  Sm3+  Sm47  1  0.00795313  0.87910308  0.57586054  1
  Sm3+  Sm48  1  0.74664234  0.38033253  0.55272645  1
  Sm3+  Sm49  1  0.12014060  0.50763702  0.44744414  1
  Sm3+  Sm50  1  0.74809740  0.13414769  0.06355963  1
  Sm3+  Sm51  1  0.25332356  0.37977482  0.05087617  1
  Sm3+  Sm52  1  0.74748713  0.88111946  0.07088060  1
  Sm3+  Sm53  1  0.00227821  0.63231973  0.05141754  1
  Sm3+  Sm54  1  -0.00147799  0.13096695  0.56127661  1
  Sm3+  Sm55  1  0.62838035  0.75814589  0.94345534  1
  Sm3+  Sm56  1  0.50120390  0.37910932  0.05691867  1
  Sm3+  Sm57  1  0.50465273  0.88467352  0.05797818  1
  Sm3+  Sm58  1  0.25099059  0.37854225  0.55771587  1
  Sm3+  Sm59  1  0.36855028  0.00923681  0.44218831  1
  Sm3+  Sm60  1  0.25237316  0.88246512  0.56966153  1
  Sm3+  Sm61  1  0.87987729  0.00705264  0.94828837  1
  Sm3+  Sm62  1  0.37136282  0.75717673  0.44027227  1
  Sm3+  Sm63  1  0.87369146  -0.00020324  0.45325947  1
  Bi2+  Bi64  1  0.03558698  0.10879318  0.28832441  1
  Bi2+  Bi65  1  -0.14700503  0.16359377  0.67979410  1
  Bi2+  Bi66  1  0.11850344  0.37447227  0.30264389  1
  Bi2+  Bi67  1  -0.03215611  0.34164171  0.79402768  1
  Bi2+  Bi68  1  0.13150277  0.57588973  0.24793871  1
  Bi2+  Bi69  1  -0.04190337  0.53936305  0.80746409  1
  Bi2+  Bi70  1  0.05879654  0.91285388  0.30471547  1
  Bi2+  Bi71  1  -0.05306887  0.83853483  0.79703456  1
  Bi2+  Bi72  1  0.23709183  0.11417468  0.28923091  1
  Bi2+  Bi73  1  0.25010314  0.14116367  0.79839698  1
  Bi2+  Bi74  1  0.31570034  0.37852208  0.28085284  1
  Bi2+  Bi75  1  0.16757984  0.35348275  0.75710618  1
  Bi2+  Bi76  1  0.31238372  0.57095048  0.30863218  1
  Bi2+  Bi77  1  0.13495994  0.61971285  0.79494782  1
  Bi2+  Bi78  1  0.22105870  0.79897214  0.32337504  1
  Bi2+  Bi79  1  0.21064225  0.80427426  0.78200653  1
  Bi2+  Bi80  1  0.58072886  0.12648612  0.30829145  1
  Bi2+  Bi81  1  0.49781632  0.11224250  0.78849792  1
  Bi2+  Bi82  1  0.55116981  0.38451215  0.29226533  1
  Bi2+  Bi83  1  0.47310815  0.37612111  0.79594889  1
  Bi2+  Bi84  1  0.53921734  0.59055419  0.26306786  1
  Bi2+  Bi85  1  0.39101884  0.61097755  0.79694930  1
  Bi2+  Bi86  1  0.52466677  0.89751499  0.29110948  1
  Bi2+  Bi87  1  0.49752052  0.83322668  0.78389483  1
  Bi2+  Bi88  1  0.77782212  0.12438458  0.28600048  1
  Bi2+  Bi89  1  0.76389082  0.16301424  0.78463921  1
  Bi2+  Bi90  1  0.92106986  0.38592444  0.30330939  1
  Bi2+  Bi91  1  0.72056552  0.38725159  0.78443214  1
  Bi2+  Bi92  1  0.76640709  0.58007766  0.29159074  1
  Bi2+  Bi93  1  0.65623648  0.61253395  0.79072206  1
  Bi2+  Bi94  1  0.79816784  0.91507493  0.28559734  1
  Bi2+  Bi95  1  0.77165567  0.97661165  0.82267550  1
  Bi2+  Bi96  1  0.14180892  -0.02117462  0.20240302  1
  Bi2+  Bi97  1  0.07641550  -0.00542430  0.71218008  1
  Bi2+  Bi98  1  0.09735882  0.25242869  0.21385058  1
  Bi2+  Bi99  1  0.02816910  0.18640169  0.73162530  1
  Bi2+  Bi100  1  0.21539515  0.46697885  0.16940740  1
  Bi2+  Bi101  1  0.05422933  0.48852660  0.70579567  1
  Bi2+  Bi102  1  0.20536819  0.74541459  0.21180246  1
  Bi2+  Bi103  1  0.05137471  0.75761092  0.70936748  1
  Bi2+  Bi104  1  0.31417067  -0.05949320  0.25354511  1
  Bi2+  Bi105  1  0.40090809  -0.02282340  0.72407440  1
  Bi2+  Bi106  1  0.36511863  0.23178604  0.21044345  1
  Bi2+  Bi107  1  0.35448177  0.25217122  0.69899699  1
  Bi2+  Bi108  1  0.40226349  0.49404240  0.19639576  1
  Bi2+  Bi109  1  0.29256968  0.49458180  0.72481350  1
  Bi2+  Bi110  1  0.39349372  0.74216269  0.26098969  1
  Bi2+  Bi111  1  0.33524321  0.73379071  0.70296132  1
  Bi2+  Bi112  1  0.71604038  -0.02054855  0.19302954  1
  Bi2+  Bi113  1  0.60220486  -0.01923601  0.71282054  1
  Bi2+  Bi114  1  0.61494662  0.25290551  0.21467269  1
  Bi2+  Bi115  1  0.60855508  0.21751057  0.71706132  1
  Bi2+  Bi116  1  0.66372249  0.47784417  0.19900561  1
  Bi2+  Bi117  1  0.55408706  0.51021454  0.69093380  1
  Bi2+  Bi118  1  0.64336074  0.77162809  0.20461911  1
  Bi2+  Bi119  1  0.59651961  0.73627217  0.70173846  1
  Bi2+  Bi120  1  0.89645668  0.06941924  0.19494025  1
  Bi2+  Bi121  1  0.80574377  -0.02337315  0.71107693  1
  Bi2+  Bi122  1  0.88163325  0.25967951  0.21827829  1
  Bi2+  Bi123  1  0.81014012  0.36658517  0.68262467  1
  Bi2+  Bi124  1  0.94300622  0.49849209  0.20755864  1
  Bi2+  Bi125  1  0.81198024  0.55161233  0.72578375  1
  Bi2+  Bi126  1  0.92423127  0.74714393  0.21073513  1
  Bi2+  Bi127  1  0.78452182  0.74907213  0.74525391  1
  S2-  S128  1  0.11679622  0.12900329  0.14681520  1
  S2-  S129  1  0.09596313  0.12221918  0.64340361  1
  S2-  S130  1  0.00394466  0.37647862  0.15488736  1
  S2-  S131  1  -0.01787762  0.36332579  0.65192958  1
  S2-  S132  1  -0.00497492  0.64268550  0.14937208  1
  S2-  S133  1  -0.02273678  0.62933983  0.65885400  1
  S2-  S134  1  0.00219340  0.87057190  0.17059268  1
  S2-  S135  1  -0.05781228  0.90036954  0.66887204  1
  S2-  S136  1  0.34393880  0.10508123  0.15022222  1
  S2-  S137  1  0.33426543  0.10048220  0.66352204  1
  S2-  S138  1  0.25079566  0.30273083  0.13914857  1
  S2-  S139  1  0.23035070  0.29505431  0.64199815  1
  S2-  S140  1  0.37680517  0.63380779  0.14131950  1
  S2-  S141  1  0.22570918  0.61461158  0.66251511  1
  S2-  S142  1  0.27391522  0.87343181  0.15597573  1
  S2-  S143  1  0.14396894  0.87881864  0.64807934  1
  S2-  S144  1  0.49562799  0.11537238  0.22527897  1
  S2-  S145  1  0.49145901  0.24522147  0.64278917  1
  S2-  S146  1  0.49198576  0.30276786  0.14572801  1
  S2-  S147  1  0.42014464  0.43010412  0.66086858  1
  S2-  S148  1  0.61284345  0.63540343  0.14619619  1
  S2-  S149  1  0.44793955  0.64615051  0.65408265  1
  S2-  S150  1  0.55432054  0.88190397  0.15317914  1
  S2-  S151  1  0.37592807  0.87362234  0.64266134  1
  S2-  S152  1  0.65989494  0.12562406  0.14708226  1
  S2-  S153  1  0.63077330  0.10740991  0.64075501  1
  S2-  S154  1  0.74142983  0.32749522  0.16374173  1
  S2-  S155  1  0.65064243  0.39719469  0.63535759  1
  S2-  S156  1  0.79907535  0.51624480  0.14324554  1
  S2-  S157  1  0.65279710  0.62044346  0.62991997  1
  S2-  S158  1  0.78391566  0.76962027  0.14702480  1
  S2-  S159  1  0.63191683  0.86640449  0.63544816  1
  S2-  S160  1  0.24720495  0.00561507  0.36669868  1
  S2-  S161  1  0.18188034  -0.01903258  0.79179886  1
  S2-  S162  1  0.25560699  0.25104160  0.35607808  1
  S2-  S163  1  0.11477300  0.14942039  0.85021963  1
  S2-  S164  1  0.15032097  0.52806702  0.35217579  1
  S2-  S165  1  0.11702608  0.37288788  0.85206391  1
  S2-  S166  1  0.04613456  0.75969258  0.35437557  1
  S2-  S167  1  0.09624223  0.81942055  0.85743016  1
  S2-  S168  1  0.47694636  0.01485799  0.36031973  1
  S2-  S169  1  0.36724070  0.04773171  0.84634471  1
  S2-  S170  1  0.49849696  0.25687994  0.35778600  1
  S2-  S171  1  0.35188222  0.28563473  0.83433778  1
  S2-  S172  1  0.46698128  0.50202214  0.35327016  1
  S2-  S173  1  0.26618254  0.54058744  0.85672949  1
  S2-  S174  1  0.46022685  0.77682289  0.35580921  1
  S2-  S175  1  0.36086218  0.77736980  0.84348965  1
  S2-  S176  1  0.65521553  -0.10269534  0.35111092  1
  S2-  S177  1  0.60226798  0.00437393  0.84274819  1
  S2-  S178  1  0.74312363  0.22846146  0.36037297  1
  S2-  S179  1  0.60041479  0.30230839  0.84275143  1
  S2-  S180  1  0.70558805  0.44370808  0.33301079  1
  S2-  S181  1  0.49916780  0.51376168  0.85892808  1
  S2-  S182  1  0.63181318  0.64105032  0.34364492  1
  S2-  S183  1  0.60771357  0.74861554  0.84591788  1
  S2-  S184  1  0.90889071  -0.05693608  0.36280107  1
  S2-  S185  1  0.94471042  -0.00688605  0.85731208  1
  S2-  S186  1  0.98435507  0.23776835  0.35835162  1
  S2-  S187  1  0.85280171  0.25836187  0.85484989  1
  S2-  S188  1  0.91126784  0.55499254  0.33947955  1
  S2-  S189  1  0.74177213  0.50076770  0.86023227  1
  S2-  S190  1  0.82753790  0.75156297  0.30118953  1
  S2-  S191  1  0.84900030  0.73436030  0.84576977  1
  S2-  S192  1  -0.00339929  0.12417811  0.45838396  1
  S2-  S193  1  -0.00309365  0.13165249  0.96191807  1
  S2-  S194  1  -0.00248469  0.38307916  0.44950393  1
  S2-  S195  1  -0.00475545  0.38671654  0.95106743  1
  S2-  S196  1  -0.00418738  0.63209860  0.45629473  1
  S2-  S197  1  0.00186380  0.63134736  0.94682189  1
  S2-  S198  1  -0.00133493  0.87562232  0.46776753  1
  S2-  S199  1  0.00312290  0.88512778  0.96334330  1
  S2-  S200  1  0.24414350  0.13213686  0.46369166  1
  S2-  S201  1  0.24958070  0.13226566  0.95627891  1
  S2-  S202  1  0.24328969  0.38330202  0.45405871  1
  S2-  S203  1  0.25397190  0.38113322  0.94957521  1
  S2-  S204  1  0.24735641  0.63102216  0.45743973  1
  S2-  S205  1  0.25371571  0.63470154  0.96185050  1
  S2-  S206  1  0.24926915  0.87725378  0.46501265  1
  S2-  S207  1  0.24887927  0.88961433  0.95020224  1
  S2-  S208  1  0.49687007  0.13002078  0.46094996  1
  S2-  S209  1  0.50537614  0.13483890  0.94639336  1
  S2-  S210  1  0.49728766  0.37903281  0.45681636  1
  S2-  S211  1  0.50089329  0.37937519  0.95456713  1
  S2-  S212  1  0.49319811  0.63336617  0.45357989  1
  S2-  S213  1  0.50265886  0.63859911  0.95975757  1
  S2-  S214  1  0.49053940  0.88382210  0.45999812  1
  S2-  S215  1  0.50249530  0.88318641  0.95249582  1
  S2-  S216  1  0.75062093  0.12043641  0.45887904  1
  S2-  S217  1  0.75572835  0.13227858  0.95839207  1
  S2-  S218  1  0.75281526  0.37923591  0.45088768  1
  S2-  S219  1  0.75389395  0.38301027  0.96201506  1
  S2-  S220  1  0.76167181  0.64248581  0.44118863  1
  S2-  S221  1  0.75059179  0.63757859  0.95930824  1
  S2-  S222  1  0.75686508  0.87393076  0.45542389  1
  S2-  S223  1  0.75331772  0.88203638  0.96178150  1
  S2-  S224  1  0.12675853  0.00642863  0.05316448  1
  S2-  S225  1  0.12357558  0.00428965  0.54546291  1
  S2-  S226  1  0.12065340  0.26286521  0.03889329  1
  S2-  S227  1  0.11712517  0.25816366  0.53696646  1
  S2-  S228  1  0.12861540  0.50993230  0.03788270  1
  S2-  S229  1  0.12456993  0.50340306  0.55185581  1
  S2-  S230  1  0.13140060  0.75600744  0.05448097  1
  S2-  S231  1  0.12696002  0.75163146  0.55110229  1
  S2-  S232  1  0.38567040  0.00988764  0.04859182  1
  S2-  S233  1  0.37018423  0.00954628  0.54650061  1
  S2-  S234  1  0.37981080  0.25486316  0.04016364  1
  S2-  S235  1  0.37073115  0.25694729  0.54060795  1
  S2-  S236  1  0.37829896  0.50227084  0.04104317  1
  S2-  S237  1  0.37418320  0.50423373  0.54427839  1
  S2-  S238  1  0.37858760  0.76337321  0.04561100  1
  S2-  S239  1  0.37418175  0.75117466  0.54323400  1
  S2-  S240  1  0.62800642  0.00711233  0.04697718  1
  S2-  S241  1  0.62386750  0.00368371  0.53668643  1
  S2-  S242  1  0.62755894  0.25811214  0.04592941  1
  S2-  S243  1  0.62920338  0.25284322  0.53855044  1
  S2-  S244  1  0.62336067  0.50598118  0.04334647  1
  S2-  S245  1  0.62803182  0.50419552  0.52622189  1
  S2-  S246  1  0.62659560  0.76163958  0.04560258  1
  S2-  S247  1  0.62188055  0.75695663  0.53038119  1
  S2-  S248  1  0.87169915  0.00591952  0.05472139  1
  S2-  S249  1  0.87574641  0.00349307  0.55625608  1
  S2-  S250  1  0.87536530  0.25923873  0.05611364  1
  S2-  S251  1  0.87187309  0.25273453  0.54104673  1
  S2-  S252  1  0.87971277  0.51321673  0.03633808  1
  S2-  S253  1  0.87119904  0.50532794  0.54311290  1
  S2-  S254  1  0.87941692  0.75709395  0.04576409  1
  S2-  S255  1  0.87412152  0.75877073  0.56309848  1
