# generated using pymatgen
data_La6Ce7Pr13Nd19Sm19(BiS2)64
_symmetry_space_group_name_H-M   'P 1'
_cell_length_a   15.99172704
_cell_length_b   16.01311183
_cell_length_c   27.59612721
_cell_angle_alpha   90.14745236
_cell_angle_beta   90.02099479
_cell_angle_gamma   89.94001483
_symmetry_Int_Tables_number   1
_chemical_formula_structural   La6Ce7Pr13Nd19Sm19(BiS2)64
_chemical_formula_sum   'La6 Ce7 Pr13 Nd19 Sm19 Bi64 S128'
_cell_volume   7066.71437597
_cell_formula_units_Z   1
loop_
 _symmetry_equiv_pos_site_id
 _symmetry_equiv_pos_as_xyz
  1  'x, y, z'
loop_
 _atom_type_symbol
 _atom_type_oxidation_number
  La3+  3.0
  Ce3+  3.0
  Pr3+  3.0
  Nd3+  3.0
  Sm3+  3.0
  Bi2+  2.0
  S2-  -2.0
loop_
 _atom_site_type_symbol
 _atom_site_label
 _atom_site_symmetry_multiplicity
 _atom_site_fract_x
 _atom_site_fract_y
 _atom_site_fract_z
 _atom_site_occupancy
  La3+  La0  1  0.72759794  0.62385355  0.61199309  1
  La3+  La1  1  0.11752574  0.75111978  0.39594636  1
  La3+  La2  1  0.38184688  0.01384599  0.89354993  1
  La3+  La3  1  0.89258986  0.49641586  0.91799560  1
  La3+  La4  1  0.74385855  0.64319750  0.10917365  1
  La3+  La5  1  0.26931966  0.88614975  0.07146005  1
  Ce3+  Ce6  1  0.13794986  0.75727155  0.94118317  1
  Ce3+  Ce7  1  0.87990212  0.75821714  0.44711959  1
  Ce3+  Ce8  1  0.38902231  0.75727845  0.93100121  1
  Ce3+  Ce9  1  0.75206867  0.88151742  0.56620974  1
  Ce3+  Ce10  1  0.50327013  0.63575772  0.55049318  1
  Ce3+  Ce11  1  0.77295574  0.38820180  0.06887747  1
  Ce3+  Ce12  1  0.37681484  0.01020726  0.43378536  1
  Pr3+  Pr13  1  0.64459786  0.51068273  0.93886397  1
  Pr3+  Pr14  1  0.88040143  0.51085178  0.43715214  1
  Pr3+  Pr15  1  0.25175361  0.88293938  0.55498995  1
  Pr3+  Pr16  1  0.89897261  0.76326138  0.90575840  1
  Pr3+  Pr17  1  0.75279483  0.13083643  0.57589651  1
  Pr3+  Pr18  1  0.87547498  0.25680291  0.44222127  1
  Pr3+  Pr19  1  0.49699733  0.13762483  0.56929503  1
  Pr3+  Pr20  1  0.64106694  0.00849117  0.93455927  1
  Pr3+  Pr21  1  0.64045942  0.76347057  0.93244800  1
  Pr3+  Pr22  1  0.00508828  0.88554942  0.56786441  1
  Pr3+  Pr23  1  0.01663537  0.87833109  0.07250630  1
  Pr3+  Pr24  1  0.13859324  0.00096350  0.93669358  1
  Pr3+  Pr25  1  0.14104520  0.25805416  0.93364226  1
  Nd3+  Nd26  1  0.00518256  0.13360789  0.56944712  1
  Nd3+  Nd27  1  0.37990092  0.25594448  0.43039273  1
  Nd3+  Nd28  1  0.25204370  0.38456657  0.55554747  1
  Nd3+  Nd29  1  0.12499130  0.25478470  0.43403859  1
  Nd3+  Nd30  1  0.26471441  0.13151967  0.05903615  1
  Nd3+  Nd31  1  0.63046292  0.76120596  0.43729724  1
  Nd3+  Nd32  1  0.01734210  0.38898204  0.07026360  1
  Nd3+  Nd33  1  0.38783496  0.51059669  0.93023762  1
  Nd3+  Nd34  1  0.76121313  0.38629408  0.56771530  1
  Nd3+  Nd35  1  0.00090979  0.38442293  0.56571908  1
  Nd3+  Nd36  1  0.13757189  0.50663622  0.93869460  1
  Nd3+  Nd37  1  0.37564571  0.50898554  0.44457345  1
  Nd3+  Nd38  1  0.50141689  0.88057477  0.56132789  1
  Nd3+  Nd39  1  0.00328178  0.63158888  0.05462275  1
  Nd3+  Nd40  1  0.88943887  0.00490297  0.94518979  1
  Nd3+  Nd41  1  0.12574516  0.00863398  0.43375196  1
  Nd3+  Nd42  1  0.51248762  0.88331889  0.05443491  1
  Nd3+  Nd43  1  0.38981435  0.25734462  0.94087468  1
  Nd3+  Nd44  1  0.37330553  0.76396895  0.42671565  1
  Sm3+  Sm45  1  0.50623937  0.38793687  0.56114609  1
  Sm3+  Sm46  1  0.25492423  0.13533270  0.56016431  1
  Sm3+  Sm47  1  0.51268505  0.13314155  0.05445370  1
  Sm3+  Sm48  1  0.87893579  0.00714883  0.44699498  1
  Sm3+  Sm49  1  0.01716514  0.13361014  0.05270260  1
  Sm3+  Sm50  1  0.62855413  0.25976868  0.45343767  1
  Sm3+  Sm51  1  0.88779343  0.25678116  0.94513422  1
  Sm3+  Sm52  1  0.76415801  0.13158749  0.06630491  1
  Sm3+  Sm53  1  0.76266670  0.88584863  0.06635886  1
  Sm3+  Sm54  1  0.51636150  0.38797653  0.05510637  1
  Sm3+  Sm55  1  0.51281751  0.63430485  0.05470914  1
  Sm3+  Sm56  1  -0.00370376  0.64051962  0.57047777  1
  Sm3+  Sm57  1  0.24975983  0.63619659  0.55493418  1
  Sm3+  Sm58  1  0.26310126  0.38591998  0.06149699  1
  Sm3+  Sm59  1  0.63960327  0.25708679  0.95095421  1
  Sm3+  Sm60  1  0.62875884  0.51025759  0.43918066  1
  Sm3+  Sm61  1  0.26442732  0.63328180  0.05682010  1
  Sm3+  Sm62  1  0.62706327  0.01009191  0.45038969  1
  Sm3+  Sm63  1  0.12634122  0.51102081  0.44665184  1
  Bi2+  Bi64  1  0.00436913  0.16549505  0.29627102  1
  Bi2+  Bi65  1  -0.07061456  0.12613843  0.79406439  1
  Bi2+  Bi66  1  0.09957214  0.35063943  0.31560585  1
  Bi2+  Bi67  1  0.02024254  0.34303199  0.79264644  1
  Bi2+  Bi68  1  -0.01036960  0.62503284  0.29311642  1
  Bi2+  Bi69  1  0.00198633  0.61482516  0.79621435  1
  Bi2+  Bi70  1  -0.02441193  0.89787068  0.29505097  1
  Bi2+  Bi71  1  0.05055351  0.97059103  0.80959369  1
  Bi2+  Bi72  1  0.27403062  0.16593842  0.26538475  1
  Bi2+  Bi73  1  0.18710906  0.17888380  0.73809569  1
  Bi2+  Bi74  1  0.29695508  0.34637565  0.31314852  1
  Bi2+  Bi75  1  0.25872899  0.42490113  0.82812401  1
  Bi2+  Bi76  1  0.26158214  0.58399254  0.28089002  1
  Bi2+  Bi77  1  0.22943184  0.60981188  0.79410436  1
  Bi2+  Bi78  1  0.25481244  0.86019634  0.28860981  1
  Bi2+  Bi79  1  0.23185205  0.86563656  0.78699970  1
  Bi2+  Bi80  1  0.47732480  0.12838653  0.27961407  1
  Bi2+  Bi81  1  0.50817501  0.18104620  0.78681091  1
  Bi2+  Bi82  1  0.49295195  0.32071143  0.31254621  1
  Bi2+  Bi83  1  0.45862453  0.43793814  0.81168896  1
  Bi2+  Bi84  1  0.46381053  0.61584702  0.28283628  1
  Bi2+  Bi85  1  0.43243761  0.62024080  0.76112564  1
  Bi2+  Bi86  1  0.49725457  0.89670869  0.27850615  1
  Bi2+  Bi87  1  0.51971327  0.85163004  0.79338286  1
  Bi2+  Bi88  1  0.70262051  0.11617408  0.29804842  1
  Bi2+  Bi89  1  0.73721386  0.09946448  0.82441063  1
  Bi2+  Bi90  1  0.76227380  0.31599278  0.28541422  1
  Bi2+  Bi91  1  0.76491755  0.28660035  0.78687530  1
  Bi2+  Bi92  1  0.73814539  0.61623501  0.30386743  1
  Bi2+  Bi93  1  0.70936529  0.62137418  0.81399134  1
  Bi2+  Bi94  1  0.70071774  0.87517972  0.29250305  1
  Bi2+  Bi95  1  0.76965687  0.89973232  0.78585959  1
  Bi2+  Bi96  1  0.10434958  0.00040953  0.19313007  1
  Bi2+  Bi97  1  0.14735001  -0.00625004  0.71158109  1
  Bi2+  Bi98  1  0.11703263  0.25199231  0.21324238  1
  Bi2+  Bi99  1  0.04890111  0.27283334  0.67857133  1
  Bi2+  Bi100  1  0.14711911  0.46131002  0.22576022  1
  Bi2+  Bi101  1  0.11840500  0.45246710  0.72065760  1
  Bi2+  Bi102  1  0.07137041  0.71232973  0.18238959  1
  Bi2+  Bi103  1  0.13387834  0.73244755  0.72134903  1
  Bi2+  Bi104  1  0.38627718  -0.00716190  0.20016066  1
  Bi2+  Bi105  1  0.39567813  0.01728018  0.69848066  1
  Bi2+  Bi106  1  0.40142683  0.24993457  0.19411251  1
  Bi2+  Bi107  1  0.34673406  0.28552227  0.76361248  1
  Bi2+  Bi108  1  0.34866808  0.43953936  0.19800151  1
  Bi2+  Bi109  1  0.32637466  0.48536820  0.70546586  1
  Bi2+  Bi110  1  0.38357304  0.64384849  0.18424083  1
  Bi2+  Bi111  1  0.33498087  0.76218774  0.70314988  1
  Bi2+  Bi112  1  0.63438110  0.00917281  0.20551230  1
  Bi2+  Bi113  1  0.66195360  0.03325837  0.72426260  1
  Bi2+  Bi114  1  0.61477608  0.27425502  0.20992994  1
  Bi2+  Bi115  1  0.67270621  0.22462327  0.69134589  1
  Bi2+  Bi116  1  0.56927138  0.46263415  0.24714576  1
  Bi2+  Bi117  1  0.58058526  0.39519586  0.72103009  1
  Bi2+  Bi118  1  0.55716647  0.78193458  0.19529471  1
  Bi2+  Bi119  1  0.59807916  0.76701190  0.70329536  1
  Bi2+  Bi120  1  0.86594807  0.06279679  0.24365760  1
  Bi2+  Bi121  1  0.89646438  -0.01267763  0.71297841  1
  Bi2+  Bi122  1  0.80114431  0.22235455  0.18766236  1
  Bi2+  Bi123  1  0.87045540  0.18702118  0.68727948  1
  Bi2+  Bi124  1  0.87869411  0.48252978  0.20389540  1
  Bi2+  Bi125  1  0.83533858  0.47699513  0.71500658  1
  Bi2+  Bi126  1  0.83939267  0.81393088  0.22242555  1
  Bi2+  Bi127  1  0.88416040  0.73408167  0.70759624  1
  S2-  S128  1  0.03739892  0.12963179  0.14953186  1
  S2-  S129  1  0.02001169  0.01275433  0.64212023  1
  S2-  S130  1  -0.08935976  0.35551573  0.14784214  1
  S2-  S131  1  -0.10940062  0.37731182  0.64406955  1
  S2-  S132  1  -0.00113923  0.56108690  0.14663395  1
  S2-  S133  1  -0.10009183  0.59731139  0.65098731  1
  S2-  S134  1  -0.03769223  0.91092166  0.16820278  1
  S2-  S135  1  0.01087802  0.77327021  0.64898858  1
  S2-  S136  1  0.25442265  0.03825695  0.14315024  1
  S2-  S137  1  0.30571378  0.13985076  0.65283684  1
  S2-  S138  1  0.15458518  0.37470265  0.13730246  1
  S2-  S139  1  0.22953520  0.37944931  0.65288697  1
  S2-  S140  1  0.22016551  0.63425585  0.15123324  1
  S2-  S141  1  0.24325468  0.64461069  0.65214340  1
  S2-  S142  1  0.15210698  0.85366100  0.14542629  1
  S2-  S143  1  0.27442508  0.90960521  0.65312501  1
  S2-  S144  1  0.50975539  0.09499579  0.14958563  1
  S2-  S145  1  0.52008132  0.11005074  0.66685047  1
  S2-  S146  1  0.50442913  0.40144320  0.15166463  1
  S2-  S147  1  0.47281842  0.35286672  0.65391640  1
  S2-  S148  1  0.57279802  0.63740724  0.14691784  1
  S2-  S149  1  0.54984057  0.63927177  0.64269125  1
  S2-  S150  1  0.41616005  0.86477410  0.13909405  1
  S2-  S151  1  0.50547331  0.88725609  0.66060146  1
  S2-  S152  1  0.75260190  0.01597251  0.13790065  1
  S2-  S153  1  0.75479520  -0.00080771  0.64401632  1
  S2-  S154  1  0.74334866  0.48004589  0.15064732  1
  S2-  S155  1  0.69596406  0.45473206  0.65131349  1
  S2-  S156  1  0.81241929  0.65137621  0.20932870  1
  S2-  S157  1  0.72602914  0.61892394  0.71976215  1
  S2-  S158  1  0.71073150  0.80796497  0.15083075  1
  S2-  S159  1  0.74826333  0.78866025  0.65060236  1
  S2-  S160  1  0.12898988  -0.08649436  0.34856438  1
  S2-  S161  1  0.22086261  0.00991757  0.84842397  1
  S2-  S162  1  0.12497565  0.13486022  0.36145379  1
  S2-  S163  1  0.12703231  0.23465620  0.83426750  1
  S2-  S164  1  0.10980708  0.58014501  0.35789744  1
  S2-  S165  1  0.04280319  0.49202232  0.85614491  1
  S2-  S166  1  0.11055148  0.76030778  0.26840623  1
  S2-  S167  1  0.05687990  0.74776838  0.85533355  1
  S2-  S168  1  0.38302315  -0.10148706  0.35555423  1
  S2-  S169  1  0.46167159  0.02273187  0.79727608  1
  S2-  S170  1  0.37626469  0.12734437  0.36045914  1
  S2-  S171  1  0.37814289  0.18519332  0.85148570  1
  S2-  S172  1  0.37227495  0.50893914  0.34688292  1
  S2-  S173  1  0.37024559  0.63227114  0.85740120  1
  S2-  S174  1  0.27340928  0.73012903  0.34445196  1
  S2-  S175  1  0.37809241  0.85160525  0.84887521  1
  S2-  S176  1  0.61847282  -0.00761061  0.35410908  1
  S2-  S177  1  0.65019675  -0.10403529  0.85811224  1
  S2-  S178  1  0.64112954  0.25440568  0.35738547  1
  S2-  S179  1  0.63179762  0.24117156  0.85439504  1
  S2-  S180  1  0.64875534  0.49811599  0.34230353  1
  S2-  S181  1  0.62875759  0.48084234  0.83994336  1
  S2-  S182  1  0.63379844  0.72735210  0.33957364  1
  S2-  S183  1  0.57000053  0.71389268  0.84229954  1
  S2-  S184  1  0.89566651  0.00506927  0.34897038  1
  S2-  S185  1  0.90014925  -0.07640009  0.85863199  1
  S2-  S186  1  0.89443105  0.28328314  0.34497471  1
  S2-  S187  1  0.87909130  0.33318893  0.85870980  1
  S2-  S188  1  0.88188747  0.52488580  0.33526725  1
  S2-  S189  1  0.85622352  0.52679159  0.81506927  1
  S2-  S190  1  0.94497386  0.75514210  0.35629329  1
  S2-  S191  1  0.84293288  0.74095264  0.80886425  1
  S2-  S192  1  -0.00059146  0.13262663  0.46175828  1
  S2-  S193  1  0.01396510  0.13290079  0.94792470  1
  S2-  S194  1  0.00477376  0.38321607  0.45748518  1
  S2-  S195  1  0.01570505  0.37609220  0.96031296  1
  S2-  S196  1  0.00501907  0.63490381  0.46316793  1
  S2-  S197  1  0.00818475  0.63222466  0.95230965  1
  S2-  S198  1  0.00342867  0.88503228  0.45839120  1
  S2-  S199  1  0.01151160  0.87807686  0.96303315  1
  S2-  S200  1  0.25357543  0.13771104  0.45851484  1
  S2-  S201  1  0.26514609  0.13107639  0.95438238  1
  S2-  S202  1  0.25066216  0.38232421  0.45071794  1
  S2-  S203  1  0.26574517  0.38361226  0.95778995  1
  S2-  S204  1  0.25085381  0.63433579  0.45298487  1
  S2-  S205  1  0.25991027  0.63002869  0.95435862  1
  S2-  S206  1  0.24829002  0.88171315  0.45176806  1
  S2-  S207  1  0.26318089  0.88006105  0.95666541  1
  S2-  S208  1  0.50614144  0.13628008  0.46115217  1
  S2-  S209  1  0.51348268  0.13170644  0.95075361  1
  S2-  S210  1  0.50392101  0.38498138  0.45495392  1
  S2-  S211  1  0.51459255  0.38283371  0.95221296  1
  S2-  S212  1  0.50139357  0.63527961  0.44463787  1
  S2-  S213  1  0.51431250  0.62941013  0.95318671  1
  S2-  S214  1  0.50446861  0.88384943  0.45625503  1
  S2-  S215  1  0.50829569  0.88910304  0.95079631  1
  S2-  S216  1  0.75139817  0.13156548  0.46096818  1
  S2-  S217  1  0.76491373  0.13314548  0.96187962  1
  S2-  S218  1  0.75161423  0.38572879  0.45691690  1
  S2-  S219  1  0.76195183  0.37883705  0.95941866  1
  S2-  S220  1  0.75237473  0.63314774  0.44451239  1
  S2-  S221  1  0.77168771  0.63741576  0.93153031  1
  S2-  S222  1  0.75317610  0.88602059  0.45553888  1
  S2-  S223  1  0.77100601  0.87938947  0.96182733  1
  S2-  S224  1  0.13673952  0.00842368  0.04161614  1
  S2-  S225  1  0.13293943  0.01447634  0.54202780  1
  S2-  S226  1  0.14138533  0.25655910  0.04047860  1
  S2-  S227  1  0.12845791  0.25807003  0.54372573  1
  S2-  S228  1  0.14083240  0.51127876  0.04198603  1
  S2-  S229  1  0.12505007  0.51103646  0.55144610  1
  S2-  S230  1  0.13904509  0.75189645  0.04321110  1
  S2-  S231  1  0.12889456  0.75591606  0.55044005  1
  S2-  S232  1  0.39207487  0.01279962  0.04305202  1
  S2-  S233  1  0.37857085  0.01009849  0.54316331  1
  S2-  S234  1  0.38954447  0.26181075  0.04693616  1
  S2-  S235  1  0.37902132  0.26369309  0.54057573  1
  S2-  S236  1  0.38847506  0.50750124  0.04269087  1
  S2-  S237  1  0.37759303  0.50881342  0.54951856  1
  S2-  S238  1  0.38801070  0.75330703  0.03836640  1
  S2-  S239  1  0.37615591  0.75709936  0.54065675  1
  S2-  S240  1  0.63505593  0.00974635  0.03954948  1
  S2-  S241  1  0.62202844  0.00997807  0.55181501  1
  S2-  S242  1  0.63935039  0.25949628  0.05481065  1
  S2-  S243  1  0.62894875  0.26157877  0.55590616  1
  S2-  S244  1  0.63932145  0.51238459  0.04418837  1
  S2-  S245  1  0.62962155  0.51079926  0.54188438  1
  S2-  S246  1  0.63795406  0.75651137  0.03977655  1
  S2-  S247  1  0.62892274  0.75716306  0.54286650  1
  S2-  S248  1  0.89328328  0.01035679  0.04834281  1
  S2-  S249  1  0.87871441  0.01034768  0.54765851  1
  S2-  S250  1  0.88947162  0.25148701  0.04624240  1
  S2-  S251  1  0.87748711  0.25284214  0.54701446  1
  S2-  S252  1  0.88904046  0.50387131  0.03711879  1
  S2-  S253  1  0.88042234  0.50908136  0.54214080  1
  S2-  S254  1  0.88053412  0.75478283  0.06864433  1
  S2-  S255  1  0.87611893  0.75969013  0.54845498  1
