# generated using pymatgen
data_La6Ce7Pr13Nd19Sm19(BiS2)64
_symmetry_space_group_name_H-M   'P 1'
_cell_length_a   16.10175022
_cell_length_b   16.02005439
_cell_length_c   27.52770901
_cell_angle_alpha   90.02025826
_cell_angle_beta   90.24735079
_cell_angle_gamma   89.99483027
_symmetry_Int_Tables_number   1
_chemical_formula_structural   La6Ce7Pr13Nd19Sm19(BiS2)64
_chemical_formula_sum   'La6 Ce7 Pr13 Nd19 Sm19 Bi64 S128'
_cell_volume   7100.73106830
_cell_formula_units_Z   1
loop_
 _symmetry_equiv_pos_site_id
 _symmetry_equiv_pos_as_xyz
  1  'x, y, z'
loop_
 _atom_type_symbol
 _atom_type_oxidation_number
  La3+  3.0
  Ce3+  3.0
  Pr3+  3.0
  Nd3+  3.0
  Sm3+  3.0
  Bi2+  2.0
  S2-  -2.0
loop_
 _atom_site_type_symbol
 _atom_site_label
 _atom_site_symmetry_multiplicity
 _atom_site_fract_x
 _atom_site_fract_y
 _atom_site_fract_z
 _atom_site_occupancy
  La3+  La0  1  0.87058987  0.71195475  0.92323048  1
  La3+  La1  1  0.24154296  0.38600567  0.61545827  1
  La3+  La2  1  0.63400157  0.75022652  0.38610627  1
  La3+  La3  1  0.38540248  0.21244068  0.91295710  1
  La3+  La4  1  0.49480753  0.59039446  0.09196304  1
  La3+  La5  1  0.50472415  0.37674388  0.57137959  1
  Ce3+  Ce6  1  0.25631602  0.84093218  0.05653044  1
  Ce3+  Ce7  1  0.37510709  -0.03436470  0.92911626  1
  Ce3+  Ce8  1  0.63163411  -0.03591109  0.94435370  1
  Ce3+  Ce9  1  0.75376392  0.09482120  0.06516247  1
  Ce3+  Ce10  1  0.62666141  0.50139035  0.43368935  1
  Ce3+  Ce11  1  0.50339445  0.62888468  0.55134578  1
  Ce3+  Ce12  1  0.12455981  0.46642233  0.93290181  1
  Pr3+  Pr13  1  0.37717405  0.00780933  0.43654646  1
  Pr3+  Pr14  1  0.87420187  0.21955100  0.93471920  1
  Pr3+  Pr15  1  0.75446791  0.87586649  0.56204467  1
  Pr3+  Pr16  1  0.00587981  0.33409027  0.06431322  1
  Pr3+  Pr17  1  0.26303386  0.09248207  0.06107078  1
  Pr3+  Pr18  1  0.00464149  0.58959583  0.06309321  1
  Pr3+  Pr19  1  0.63137763  0.00030006  0.43889766  1
  Pr3+  Pr20  1  0.88493293  0.74673485  0.42439949  1
  Pr3+  Pr21  1  0.00284603  0.83962525  0.05927700  1
  Pr3+  Pr22  1  0.75988760  0.58923387  0.07590073  1
  Pr3+  Pr23  1  0.37905959  0.76079714  0.42601825  1
  Pr3+  Pr24  1  0.49147025  0.33981358  0.07092148  1
  Pr3+  Pr25  1  0.25718803  0.87986525  0.56795359  1
  Nd3+  Nd26  1  0.12801291  0.21627438  0.92658025  1
  Nd3+  Nd27  1  0.87516741  0.46363134  0.94088086  1
  Nd3+  Nd28  1  0.12710749  0.00423598  0.45151037  1
  Nd3+  Nd29  1  0.75301342  0.62953501  0.55481439  1
  Nd3+  Nd30  1  0.12729468  0.71600071  0.93025091  1
  Nd3+  Nd31  1  0.62663039  0.25674425  0.43490644  1
  Nd3+  Nd32  1  0.00510702  0.62810293  0.56332498  1
  Nd3+  Nd33  1  0.75074266  0.34095807  0.07360262  1
  Nd3+  Nd34  1  0.13160241  0.25630601  0.45139437  1
  Nd3+  Nd35  1  0.25724659  0.13141119  0.57200209  1
  Nd3+  Nd36  1  0.62640272  0.21880101  0.93830974  1
  Nd3+  Nd37  1  0.13296275  0.50182375  0.44580106  1
  Nd3+  Nd38  1  0.25800788  0.63273482  0.56151169  1
  Nd3+  Nd39  1  0.50494442  0.87819962  0.55543818  1
  Nd3+  Nd40  1  0.75163074  0.83546368  0.06932019  1
  Nd3+  Nd41  1  0.37988932  0.46640424  0.93511000  1
  Nd3+  Nd42  1  0.88139108  0.25973077  0.43420285  1
  Nd3+  Nd43  1  0.87665631  -0.03475300  0.94785472  1
  Nd3+  Nd44  1  0.62863567  0.71270696  0.94441464  1
  Sm3+  Sm45  1  0.12737283  0.75439578  0.44244383  1
  Sm3+  Sm46  1  0.87813628  0.00105278  0.44749445  1
  Sm3+  Sm47  1  0.25609703  0.33954960  0.04711561  1
  Sm3+  Sm48  1  0.37799698  0.71435827  0.94128775  1
  Sm3+  Sm49  1  0.25242263  0.59013617  0.05697244  1
  Sm3+  Sm50  1  0.62568606  0.46622782  0.95308738  1
  Sm3+  Sm51  1  0.87729006  0.50297580  0.43865310  1
  Sm3+  Sm52  1  0.12761619  -0.03216377  0.93255598  1
  Sm3+  Sm53  1  0.49997908  0.09115799  0.05126704  1
  Sm3+  Sm54  1  0.75085033  0.37830697  0.56289618  1
  Sm3+  Sm55  1  0.00293223  0.13242290  0.55935758  1
  Sm3+  Sm56  1  0.38179657  0.50344511  0.43845894  1
  Sm3+  Sm57  1  0.50613171  0.12975920  0.56315470  1
  Sm3+  Sm58  1  0.37887547  0.25012248  0.44279676  1
  Sm3+  Sm59  1  0.00266779  0.87873350  0.56222140  1
  Sm3+  Sm60  1  0.00282178  0.37961801  0.56461823  1
  Sm3+  Sm61  1  0.50313542  0.84011392  0.05155126  1
  Sm3+  Sm62  1  0.00921950  0.09084630  0.05470939  1
  Sm3+  Sm63  1  0.75448896  0.13157474  0.54980128  1
  Bi2+  Bi64  1  -0.01492627  0.18072989  0.28410210  1
  Bi2+  Bi65  1  -0.10325909  0.20289088  0.79938885  1
  Bi2+  Bi66  1  0.02529489  0.38404251  0.30234112  1
  Bi2+  Bi67  1  -0.00284965  0.37993496  0.74068514  1
  Bi2+  Bi68  1  0.04155221  0.63248009  0.29116983  1
  Bi2+  Bi69  1  -0.05656539  0.56608794  0.76885682  1
  Bi2+  Bi70  1  0.00902625  0.89742121  0.29855519  1
  Bi2+  Bi71  1  0.02208785  0.90396798  0.79849291  1
  Bi2+  Bi72  1  0.25304431  0.22429975  0.29936636  1
  Bi2+  Bi73  1  0.23311105  0.13541567  0.79772846  1
  Bi2+  Bi74  1  0.19837577  0.39874701  0.24147085  1
  Bi2+  Bi75  1  0.23071936  0.43305035  0.81376169  1
  Bi2+  Bi76  1  0.24476464  0.66926079  0.27454074  1
  Bi2+  Bi77  1  0.21054994  0.69067849  0.79285534  1
  Bi2+  Bi78  1  0.21078298  0.85689155  0.29706866  1
  Bi2+  Bi79  1  0.32368390  0.92763523  0.78912185  1
  Bi2+  Bi80  1  0.52773317  0.16356016  0.32538805  1
  Bi2+  Bi81  1  0.51386909  0.04791915  0.70351523  1
  Bi2+  Bi82  1  0.46908496  0.35799526  0.30364904  1
  Bi2+  Bi83  1  0.49866775  0.38015106  0.80803272  1
  Bi2+  Bi84  1  0.51606496  0.61350465  0.28083339  1
  Bi2+  Bi85  1  0.50299373  0.70487980  0.79089826  1
  Bi2+  Bi86  1  0.47348253  0.89413964  0.29121953  1
  Bi2+  Bi87  1  0.52229949  0.90278495  0.78356885  1
  Bi2+  Bi88  1  0.71538196  0.12935088  0.28932255  1
  Bi2+  Bi89  1  0.69628104  0.18053216  0.80592713  1
  Bi2+  Bi90  1  0.75190872  0.32607982  0.29986157  1
  Bi2+  Bi91  1  0.75231066  0.37093079  0.79373061  1
  Bi2+  Bi92  1  0.78051651  0.63510546  0.28867768  1
  Bi2+  Bi93  1  0.75974321  0.62311510  0.78340588  1
  Bi2+  Bi94  1  0.76346017  0.93369272  0.29188476  1
  Bi2+  Bi95  1  0.77913492  0.86819904  0.81107270  1
  Bi2+  Bi96  1  0.15995465  0.04885997  0.25331523  1
  Bi2+  Bi97  1  0.15841961  -0.01654030  0.71857329  1
  Bi2+  Bi98  1  0.08814187  0.25898562  0.19199866  1
  Bi2+  Bi99  1  0.10967051  0.18135190  0.71899077  1
  Bi2+  Bi100  1  0.12648320  0.55949683  0.18153980  1
  Bi2+  Bi101  1  0.11165914  0.58825386  0.71387831  1
  Bi2+  Bi102  1  0.11853632  0.75733549  0.20080821  1
  Bi2+  Bi103  1  0.12614802  0.78628879  0.70560985  1
  Bi2+  Bi104  1  0.32372424  0.00848953  0.19572833  1
  Bi2+  Bi105  1  0.33329188  -0.00284602  0.67283984  1
  Bi2+  Bi106  1  0.37816477  0.24406380  0.21787820  1
  Bi2+  Bi107  1  0.37938040  0.26996889  0.72008419  1
  Bi2+  Bi108  1  0.37592180  0.45883051  0.20457825  1
  Bi2+  Bi109  1  0.37562359  0.53177816  0.71304021  1
  Bi2+  Bi110  1  0.37248042  0.75027114  0.19477407  1
  Bi2+  Bi111  1  0.38052056  0.79655461  0.70817088  1
  Bi2+  Bi112  1  0.55765295  0.04170217  0.23470986  1
  Bi2+  Bi113  1  0.70778875  0.02902508  0.71741031  1
  Bi2+  Bi114  1  0.57909185  0.24228778  0.21491444  1
  Bi2+  Bi115  1  0.64437804  0.26862383  0.70590236  1
  Bi2+  Bi116  1  0.65078487  0.42979291  0.22162400  1
  Bi2+  Bi117  1  0.59364502  0.53334344  0.75853145  1
  Bi2+  Bi118  1  0.61849251  0.82080946  0.19198697  1
  Bi2+  Bi119  1  0.60965203  0.71983656  0.68990252  1
  Bi2+  Bi120  1  0.95301438  0.02307874  0.21808894  1
  Bi2+  Bi121  1  0.89520507  0.02630712  0.74679797  1
  Bi2+  Bi122  1  0.85212700  0.25546577  0.21143576  1
  Bi2+  Bi123  1  0.89260131  0.23386644  0.68269873  1
  Bi2+  Bi124  1  0.94404623  0.51412215  0.21917232  1
  Bi2+  Bi125  1  0.81807489  0.41266216  0.68808929  1
  Bi2+  Bi126  1  0.86753861  0.78858783  0.18900432  1
  Bi2+  Bi127  1  0.86264666  0.76182336  0.69106472  1
  S2-  S128  1  -0.02183818  0.14196290  0.14592978  1
  S2-  S129  1  0.00220009  0.10322145  0.65514148  1
  S2-  S130  1  -0.03931433  0.36750639  0.15955708  1
  S2-  S131  1  0.07323791  0.38535957  0.65331081  1
  S2-  S132  1  -0.08490661  0.63166926  0.14628596  1
  S2-  S133  1  -0.03231466  0.62278882  0.65980476  1
  S2-  S134  1  0.00326280  0.87972655  0.15741222  1
  S2-  S135  1  -0.01892341  0.85690663  0.65780755  1
  S2-  S136  1  0.19456961  0.09670307  0.15465290  1
  S2-  S137  1  0.25375811  0.21932736  0.65775321  1
  S2-  S138  1  0.33980903  0.33049395  0.13258058  1
  S2-  S139  1  0.26042047  0.39574078  0.72433384  1
  S2-  S140  1  0.33442544  0.59968787  0.14384581  1
  S2-  S141  1  0.25316882  0.55345361  0.65051771  1
  S2-  S142  1  0.24285638  0.85787752  0.15344595  1
  S2-  S143  1  0.26123339  0.75795356  0.63905291  1
  S2-  S144  1  0.40450222  0.09833313  0.13162825  1
  S2-  S145  1  0.50155111  0.20564801  0.65147530  1
  S2-  S146  1  0.51611163  0.44775410  0.15346045  1
  S2-  S147  1  0.41039030  0.39633014  0.65491789  1
  S2-  S148  1  0.52541785  0.66948810  0.18216630  1
  S2-  S149  1  0.49050963  0.61377934  0.64916306  1
  S2-  S150  1  0.46996916  0.86916472  0.14614851  1
  S2-  S151  1  0.51982236  0.85917150  0.65371157  1
  S2-  S152  1  0.74897339  0.20486149  0.14023552  1
  S2-  S153  1  0.74314128  0.15246958  0.64621882  1
  S2-  S154  1  0.75054319  0.45952488  0.14946193  1
  S2-  S155  1  0.64551447  0.39046837  0.64108684  1
  S2-  S156  1  0.73307575  0.71506440  0.14622528  1
  S2-  S157  1  0.74061413  0.64239883  0.65482965  1
  S2-  S158  1  0.76418382  0.91807986  0.15961598  1
  S2-  S159  1  0.75948908  0.87859841  0.66294773  1
  S2-  S160  1  0.13250987  -0.01054067  0.35384415  1
  S2-  S161  1  0.11562044  0.08614005  0.85799624  1
  S2-  S162  1  0.10494040  0.24514554  0.35424216  1
  S2-  S163  1  0.11213110  0.34940726  0.85777820  1
  S2-  S164  1  0.11918878  0.50531196  0.34731268  1
  S2-  S165  1  0.13025358  0.59018364  0.85796556  1
  S2-  S166  1  0.02912911  0.76609844  0.36219258  1
  S2-  S167  1  0.13706371  0.84499312  0.85792000  1
  S2-  S168  1  0.35320376  -0.09954639  0.35667861  1
  S2-  S169  1  0.37509183  0.06371095  0.84853886  1
  S2-  S170  1  0.36281806  0.13817430  0.36536314  1
  S2-  S171  1  0.33148285  0.28492940  0.82282645  1
  S2-  S172  1  0.41075352  0.50586109  0.34044822  1
  S2-  S173  1  0.39195218  0.50009587  0.83659599  1
  S2-  S174  1  0.47293618  0.73763900  0.34004092  1
  S2-  S175  1  0.35838652  0.73327267  0.84506655  1
  S2-  S176  1  0.62172471  -0.07822737  0.34924244  1
  S2-  S177  1  0.64468331  -0.03781982  0.84738887  1
  S2-  S178  1  0.61704574  0.37415244  0.36171764  1
  S2-  S179  1  0.53924516  0.22505657  0.85212790  1
  S2-  S180  1  0.64825441  0.58331428  0.34660973  1
  S2-  S181  1  0.63284180  0.46192524  0.85460544  1
  S2-  S182  1  0.64115336  0.73584707  0.27304289  1
  S2-  S183  1  0.71565459  0.72674557  0.85861347  1
  S2-  S184  1  0.88506182  -0.00583586  0.35026859  1
  S2-  S185  1  0.87448555  -0.00658160  0.84990524  1
  S2-  S186  1  0.88242948  0.38179126  0.36379546  1
  S2-  S187  1  0.87251719  0.34579032  0.86381304  1
  S2-  S188  1  0.88916259  0.59932104  0.35613049  1
  S2-  S189  1  0.86925596  0.56776282  0.85908847  1
  S2-  S190  1  0.79285731  0.78528162  0.34135709  1
  S2-  S191  1  0.92260062  0.78119118  0.83021603  1
  S2-  S192  1  0.00083121  0.13020497  0.45524532  1
  S2-  S193  1  -0.00103962  0.09237262  0.95383010  1
  S2-  S194  1  0.00679467  0.38057252  0.46165945  1
  S2-  S195  1  0.00394203  0.33839557  0.96004680  1
  S2-  S196  1  0.00918110  0.62442488  0.45935665  1
  S2-  S197  1  0.00222809  0.59297626  0.95792217  1
  S2-  S198  1  0.00232117  0.88103443  0.45980537  1
  S2-  S199  1  0.00179070  0.84271056  0.95408795  1
  S2-  S200  1  0.24987230  0.12877820  0.46575705  1
  S2-  S201  1  0.25374359  0.08988872  0.95278143  1
  S2-  S202  1  0.25881168  0.37625005  0.44132660  1
  S2-  S203  1  0.25721341  0.34015215  0.94654163  1
  S2-  S204  1  0.25442271  0.63209989  0.44903155  1
  S2-  S205  1  0.25578076  0.59272420  0.95466308  1
  S2-  S206  1  0.24804758  0.87852048  0.46180281  1
  S2-  S207  1  0.25513072  0.84020814  0.95286395  1
  S2-  S208  1  0.50853986  0.12820575  0.45984979  1
  S2-  S209  1  0.50632268  0.08620054  0.94991721  1
  S2-  S210  1  0.49721343  0.37558071  0.46005015  1
  S2-  S211  1  0.50210495  0.34372590  0.95715971  1
  S2-  S212  1  0.50326491  0.63014494  0.44740345  1
  S2-  S213  1  0.50282171  0.59185726  0.94733747  1
  S2-  S214  1  0.50482060  0.88044816  0.45216148  1
  S2-  S215  1  0.50324299  0.83910779  0.94622780  1
  S2-  S216  1  0.75671191  0.13167260  0.44573330  1
  S2-  S217  1  0.75197312  0.09394044  0.95730235  1
  S2-  S218  1  0.75415766  0.37797142  0.46062948  1
  S2-  S219  1  0.74713269  0.34104869  0.96463446  1
  S2-  S220  1  0.75364754  0.63010206  0.45163666  1
  S2-  S221  1  0.74918248  0.58687156  0.96449542  1
  S2-  S222  1  0.75788450  0.87829473  0.45590167  1
  S2-  S223  1  0.75319812  0.84116708  0.96264585  1
  S2-  S224  1  0.12946926  -0.03329164  0.04124445  1
  S2-  S225  1  0.12696236  0.00513807  0.55681872  1
  S2-  S226  1  0.13354591  0.21471321  0.03944385  1
  S2-  S227  1  0.12774919  0.25487159  0.55463825  1
  S2-  S228  1  0.13173550  0.46282129  0.04425536  1
  S2-  S229  1  0.13035234  0.50201373  0.55007329  1
  S2-  S230  1  0.13068158  0.71519957  0.04453810  1
  S2-  S231  1  0.12469546  0.75579437  0.54545935  1
  S2-  S232  1  0.38102484  -0.03753280  0.03438852  1
  S2-  S233  1  0.38209896  0.00682803  0.54504787  1
  S2-  S234  1  0.38016274  0.21666549  0.02764704  1
  S2-  S235  1  0.37978372  0.24935237  0.54548286  1
  S2-  S236  1  0.37664475  0.46998826  0.03959084  1
  S2-  S237  1  0.37584237  0.50505508  0.54198207  1
  S2-  S238  1  0.38109170  0.71507044  0.04388654  1
  S2-  S239  1  0.38128582  0.75650977  0.53682173  1
  S2-  S240  1  0.62581875  -0.03219206  0.05063440  1
  S2-  S241  1  0.63139516  0.00645684  0.54745807  1
  S2-  S242  1  0.61881645  0.21743013  0.04498526  1
  S2-  S243  1  0.63067764  0.25106731  0.54033919  1
  S2-  S244  1  0.62093129  0.46712973  0.05251760  1
  S2-  S245  1  0.62997035  0.50491773  0.54056140  1
  S2-  S246  1  0.61845296  0.71055719  0.04772223  1
  S2-  S247  1  0.62880537  0.75405353  0.54910863  1
  S2-  S248  1  0.88033742  -0.02947562  0.05178821  1
  S2-  S249  1  0.87965421  0.00647258  0.55161174  1
  S2-  S250  1  0.87958098  0.21443858  0.04082050  1
  S2-  S251  1  0.87911653  0.25612250  0.54208264  1
  S2-  S252  1  0.88160159  0.46108136  0.04706002  1
  S2-  S253  1  0.87845876  0.50147960  0.54723400  1
  S2-  S254  1  0.87789773  0.71777965  0.03848530  1
  S2-  S255  1  0.88236133  0.75312193  0.54434537  1
