# generated using pymatgen
data_La6Ce7Pr13Nd19Sm19(BiS2)64
_symmetry_space_group_name_H-M   'P 1'
_cell_length_a   16.05575936
_cell_length_b   16.07832940
_cell_length_c   27.42118703
_cell_angle_alpha   89.63508095
_cell_angle_beta   89.95170996
_cell_angle_gamma   89.87886986
_symmetry_Int_Tables_number   1
_chemical_formula_structural   La6Ce7Pr13Nd19Sm19(BiS2)64
_chemical_formula_sum   'La6 Ce7 Pr13 Nd19 Sm19 Bi64 S128'
_cell_volume   7078.61178552
_cell_formula_units_Z   1
loop_
 _symmetry_equiv_pos_site_id
 _symmetry_equiv_pos_as_xyz
  1  'x, y, z'
loop_
 _atom_type_symbol
 _atom_type_oxidation_number
  La3+  3.0
  Ce3+  3.0
  Pr3+  3.0
  Nd3+  3.0
  Sm3+  3.0
  Bi2+  2.0
  S2-  -2.0
loop_
 _atom_site_type_symbol
 _atom_site_label
 _atom_site_symmetry_multiplicity
 _atom_site_fract_x
 _atom_site_fract_y
 _atom_site_fract_z
 _atom_site_occupancy
  La3+  La0  1  0.23629602  0.62050453  0.57590728  1
  La3+  La1  1  0.25170163  0.86861512  0.11600805  1
  La3+  La2  1  0.25194563  0.11743423  0.57705379  1
  La3+  La3  1  0.12952153  0.50425275  0.89959012  1
  La3+  La4  1  0.25200614  0.37672018  0.06740720  1
  La3+  La5  1  0.11765728  0.75000500  0.41440708  1
  Ce3+  Ce6  1  0.50589460  0.61141312  0.06859615  1
  Ce3+  Ce7  1  0.75785099  0.12762527  0.05401188  1
  Ce3+  Ce8  1  0.62616489  0.24946828  0.92892840  1
  Ce3+  Ce9  1  0.01219713  0.37250681  0.05009333  1
  Ce3+  Ce10  1  0.87209404  -0.00172725  0.43008444  1
  Ce3+  Ce11  1  0.62041067  0.74731741  0.44855705  1
  Ce3+  Ce12  1  0.88365925  0.49859280  0.93975214  1
  Pr3+  Pr13  1  0.24104245  0.87582906  0.55049794  1
  Pr3+  Pr14  1  0.88945252  0.24275885  0.91708284  1
  Pr3+  Pr15  1  -0.01089705  0.36727131  0.57195109  1
  Pr3+  Pr16  1  0.88137206  0.75160658  0.94390406  1
  Pr3+  Pr17  1  0.25447898  0.62191094  0.06861228  1
  Pr3+  Pr18  1  0.75712467  0.62140193  0.05646980  1
  Pr3+  Pr19  1  0.37224006  0.74871129  0.43503918  1
  Pr3+  Pr20  1  0.36584739  0.26166002  0.43429428  1
  Pr3+  Pr21  1  0.00960249  0.12447140  0.05997659  1
  Pr3+  Pr22  1  0.37665762  0.01404785  0.41420391  1
  Pr3+  Pr23  1  0.11911737  0.49846086  0.44418832  1
  Pr3+  Pr24  1  0.50664879  0.87144209  0.07702020  1
  Pr3+  Pr25  1  0.49416263  0.12210444  0.55793380  1
  Nd3+  Nd26  1  0.49007807  0.37599843  0.56144013  1
  Nd3+  Nd27  1  0.74615590  0.87264472  0.55658035  1
  Nd3+  Nd28  1  0.62127313  0.49954661  0.44568478  1
  Nd3+  Nd29  1  0.01140506  0.87453885  0.06033288  1
  Nd3+  Nd30  1  0.13911921  0.24480394  0.92597900  1
  Nd3+  Nd31  1  0.38255814  0.50583864  0.93353354  1
  Nd3+  Nd32  1  0.11786005  0.00239361  0.42441380  1
  Nd3+  Nd33  1  0.48660067  0.62579981  0.57116988  1
  Nd3+  Nd34  1  0.25899467  0.12227969  0.06771253  1
  Nd3+  Nd35  1  0.87078296  0.49126375  0.43709679  1
  Nd3+  Nd36  1  0.50529838  0.12449678  0.06240270  1
  Nd3+  Nd37  1  0.38102289  0.25318479  0.93430091  1
  Nd3+  Nd38  1  0.75853853  0.37209889  0.04700737  1
  Nd3+  Nd39  1  0.36779681  0.50906579  0.43721580  1
  Nd3+  Nd40  1  0.62325766  -0.00253574  0.43121451  1
  Nd3+  Nd41  1  0.74460444  0.37092349  0.56909805  1
  Nd3+  Nd42  1  0.74454857  0.12192525  0.54899933  1
  Nd3+  Nd43  1  0.38185230  -0.00252283  0.94519958  1
  Nd3+  Nd44  1  0.88195948  0.00075336  0.94128923  1
  Sm3+  Sm45  1  0.24125485  0.36960017  0.57462029  1
  Sm3+  Sm46  1  0.75378382  0.87386309  0.06535987  1
  Sm3+  Sm47  1  -0.00458825  0.87163815  0.54829034  1
  Sm3+  Sm48  1  0.62844232  -0.00073257  0.94627748  1
  Sm3+  Sm49  1  -0.01067117  0.62322563  0.56250736  1
  Sm3+  Sm50  1  0.38145414  0.75040257  0.95233984  1
  Sm3+  Sm51  1  0.63032008  0.75215376  0.94688435  1
  Sm3+  Sm52  1  0.87125733  0.25269014  0.43665858  1
  Sm3+  Sm53  1  0.01070497  0.62528536  0.05655440  1
  Sm3+  Sm54  1  0.86832083  0.73763320  0.42948135  1
  Sm3+  Sm55  1  0.12273056  0.24855150  0.44856663  1
  Sm3+  Sm56  1  -0.00620963  0.11958406  0.55718700  1
  Sm3+  Sm57  1  0.49202124  0.87519317  0.55160645  1
  Sm3+  Sm58  1  0.74509817  0.62211900  0.56721698  1
  Sm3+  Sm59  1  0.50685161  0.37339865  0.05515086  1
  Sm3+  Sm60  1  0.13689576  -0.00068870  0.94628593  1
  Sm3+  Sm61  1  0.13516290  0.74723724  0.93996042  1
  Sm3+  Sm62  1  0.61861388  0.25243909  0.44442865  1
  Sm3+  Sm63  1  0.62873167  0.50291514  0.93120346  1
  Bi2+  Bi64  1  -0.06969250  0.13238172  0.28080420  1
  Bi2+  Bi65  1  0.00238875  0.06234061  0.79059444  1
  Bi2+  Bi66  1  -0.01458165  0.32146919  0.29542465  1
  Bi2+  Bi67  1  -0.03687310  0.36613777  0.79146908  1
  Bi2+  Bi68  1  -0.02724154  0.59589933  0.29574558  1
  Bi2+  Bi69  1  -0.08257420  0.62433728  0.77707668  1
  Bi2+  Bi70  1  -0.04914144  0.88196104  0.29087405  1
  Bi2+  Bi71  1  0.03950124  0.86910695  0.80507177  1
  Bi2+  Bi72  1  0.23010817  0.15952689  0.29019213  1
  Bi2+  Bi73  1  0.26543070  0.11060834  0.79405214  1
  Bi2+  Bi74  1  0.25320581  0.36038851  0.28070847  1
  Bi2+  Bi75  1  0.28246495  0.37339341  0.78195008  1
  Bi2+  Bi76  1  0.25784981  0.55456582  0.31198412  1
  Bi2+  Bi77  1  0.25670882  0.64672950  0.79103207  1
  Bi2+  Bi78  1  0.28661045  0.83126124  0.31500688  1
  Bi2+  Bi79  1  0.23398572  0.85407108  0.77252120  1
  Bi2+  Bi80  1  0.51682486  0.16647084  0.29308607  1
  Bi2+  Bi81  1  0.53220431  0.15146048  0.77192100  1
  Bi2+  Bi82  1  0.50808091  0.30708096  0.20768857  1
  Bi2+  Bi83  1  0.47723713  0.40178489  0.79005975  1
  Bi2+  Bi84  1  0.54605160  0.58464865  0.25432124  1
  Bi2+  Bi85  1  0.49950658  0.66956650  0.79584631  1
  Bi2+  Bi86  1  0.56724527  0.88891680  0.28553906  1
  Bi2+  Bi87  1  0.50960987  0.92785200  0.79966087  1
  Bi2+  Bi88  1  0.73761462  0.12595673  0.29917422  1
  Bi2+  Bi89  1  0.73111629  0.09279798  0.78035616  1
  Bi2+  Bi90  1  0.70696094  0.39728831  0.30443185  1
  Bi2+  Bi91  1  0.66617580  0.35838349  0.80857460  1
  Bi2+  Bi92  1  0.71467331  0.66892805  0.30651611  1
  Bi2+  Bi93  1  0.73003859  0.55667115  0.80565993  1
  Bi2+  Bi94  1  0.75338932  0.93403227  0.32310749  1
  Bi2+  Bi95  1  0.75468617  0.82434990  0.81420778  1
  Bi2+  Bi96  1  0.11513202  -0.00910007  0.21735286  1
  Bi2+  Bi97  1  0.11708033  -0.01159482  0.70684358  1
  Bi2+  Bi98  1  0.12203154  0.22693906  0.20052279  1
  Bi2+  Bi99  1  0.10728692  0.23720106  0.71002191  1
  Bi2+  Bi100  1  0.12946031  0.48304297  0.20238641  1
  Bi2+  Bi101  1  0.12125111  0.51396081  0.70983761  1
  Bi2+  Bi102  1  0.12321479  0.72875652  0.21494379  1
  Bi2+  Bi103  1  0.08443978  0.77696193  0.70869495  1
  Bi2+  Bi104  1  0.38445300  0.01138576  0.21880303  1
  Bi2+  Bi105  1  0.37537706  -0.01550134  0.70249107  1
  Bi2+  Bi106  1  0.31883635  0.26134714  0.18657368  1
  Bi2+  Bi107  1  0.38188237  0.24409831  0.71837153  1
  Bi2+  Bi108  1  0.39882721  0.47029690  0.21407181  1
  Bi2+  Bi109  1  0.40389193  0.52759840  0.69412288  1
  Bi2+  Bi110  1  0.40564870  0.72574093  0.22219561  1
  Bi2+  Bi111  1  0.40516780  0.79080761  0.72071944  1
  Bi2+  Bi112  1  0.63409245  0.02572312  0.20940710  1
  Bi2+  Bi113  1  0.62491822  -0.02850604  0.71074830  1
  Bi2+  Bi114  1  0.71117530  0.25548255  0.21028781  1
  Bi2+  Bi115  1  0.64818954  0.25741066  0.70179188  1
  Bi2+  Bi116  1  0.72447827  0.51376809  0.21296532  1
  Bi2+  Bi117  1  0.63744894  0.45652965  0.70561522  1
  Bi2+  Bi118  1  0.66302900  0.76324792  0.21073856  1
  Bi2+  Bi119  1  0.66617584  0.70912097  0.73721985  1
  Bi2+  Bi120  1  0.83317239  -0.03318275  0.21479866  1
  Bi2+  Bi121  1  0.85462739  -0.05578530  0.74541439  1
  Bi2+  Bi122  1  0.91164510  0.26486749  0.19299978  1
  Bi2+  Bi123  1  0.84604476  0.21577290  0.70539664  1
  Bi2+  Bi124  1  0.92128637  0.46038739  0.21877654  1
  Bi2+  Bi125  1  0.83197908  0.49194469  0.70998939  1
  Bi2+  Bi126  1  0.86093482  0.75617314  0.22147563  1
  Bi2+  Bi127  1  0.84425109  0.76001730  0.69974433  1
  S2-  S128  1  0.02007412  0.09973737  0.15911908  1
  S2-  S129  1  -0.01176011  0.15256292  0.65391472  1
  S2-  S130  1  0.10388751  0.36388325  0.13463206  1
  S2-  S131  1  0.06652436  0.37689415  0.66505778  1
  S2-  S132  1  0.04840949  0.61916587  0.15288772  1
  S2-  S133  1  0.09571257  0.63859510  0.64209850  1
  S2-  S134  1  0.07456225  0.86355251  0.15192177  1
  S2-  S135  1  0.01164951  0.89341339  0.64597138  1
  S2-  S136  1  0.25133683  0.03614020  0.15556052  1
  S2-  S137  1  0.23281595  0.24154582  0.64988841  1
  S2-  S138  1  0.26818700  0.49698085  0.14424131  1
  S2-  S139  1  0.25087012  0.48374457  0.65140615  1
  S2-  S140  1  0.26246350  0.70685220  0.15971705  1
  S2-  S141  1  0.36099376  0.66443900  0.64616877  1
  S2-  S142  1  0.22610916  0.87038001  0.22541903  1
  S2-  S143  1  0.24346740  0.96989014  0.63648213  1
  S2-  S144  1  0.49094597  0.08684470  0.16030283  1
  S2-  S145  1  0.40674269  0.11528670  0.64403852  1
  S2-  S146  1  0.51230999  0.46206357  0.13779754  1
  S2-  S147  1  0.44105988  0.36838875  0.65592138  1
  S2-  S148  1  0.51769948  0.67880127  0.15909793  1
  S2-  S149  1  0.56209993  0.59056351  0.66023307  1
  S2-  S150  1  0.41319863  0.87239163  0.16442339  1
  S2-  S151  1  0.50003513  0.88771258  0.64959857  1
  S2-  S152  1  0.75630477  0.10985431  0.15027923  1
  S2-  S153  1  0.73922110  0.13236884  0.64695636  1
  S2-  S154  1  0.73948818  0.38644782  0.14450054  1
  S2-  S155  1  0.85647011  0.35753965  0.64431710  1
  S2-  S156  1  0.78185808  0.65382610  0.15344873  1
  S2-  S157  1  0.86547448  0.62178967  0.63679274  1
  S2-  S158  1  0.64609713  0.88527623  0.14191330  1
  S2-  S159  1  0.74793698  0.89688597  0.65421158  1
  S2-  S160  1  0.14292936  -0.11178145  0.34889767  1
  S2-  S161  1  0.14706712  0.06706305  0.85569778  1
  S2-  S162  1  0.11551603  0.23481750  0.34992255  1
  S2-  S163  1  0.02575618  0.25401386  0.84871261  1
  S2-  S164  1  0.08713435  0.50116320  0.34453532  1
  S2-  S165  1  0.12397262  0.42889104  0.80209321  1
  S2-  S166  1  0.17232272  0.69468711  0.31549194  1
  S2-  S167  1  0.13348429  0.66469719  0.85268781  1
  S2-  S168  1  0.31748413  -0.00989845  0.31715806  1
  S2-  S169  1  0.38171373  0.01281487  0.84526830  1
  S2-  S170  1  0.37986218  0.17542093  0.34777361  1
  S2-  S171  1  0.27032168  0.24731546  0.85535471  1
  S2-  S172  1  0.34857616  0.40035626  0.36067209  1
  S2-  S173  1  0.28829354  0.50713050  0.84918641  1
  S2-  S174  1  0.37595775  0.63370499  0.35818674  1
  S2-  S175  1  0.37353370  0.72395713  0.85398431  1
  S2-  S176  1  0.52463940  0.01451001  0.35061350  1
  S2-  S177  1  0.62376624  0.03150139  0.85049213  1
  S2-  S178  1  0.60024020  0.28694545  0.34928865  1
  S2-  S179  1  0.50430195  0.24415150  0.85756052  1
  S2-  S180  1  0.60227431  0.51133268  0.34702444  1
  S2-  S181  1  0.51068155  0.52192667  0.85895123  1
  S2-  S182  1  0.58597037  0.75314995  0.35388686  1
  S2-  S183  1  0.59206308  0.78891075  0.85374650  1
  S2-  S184  1  0.98184987  0.02405909  0.35456012  1
  S2-  S185  1  0.87666845  0.08558196  0.85528692  1
  S2-  S186  1  0.85656855  0.36620686  0.36258107  1
  S2-  S187  1  0.81951388  0.29710744  0.82746611  1
  S2-  S188  1  0.84166963  0.59928701  0.36077685  1
  S2-  S189  1  0.95671696  0.50869236  0.85221802  1
  S2-  S190  1  0.97410362  0.74529095  0.35054700  1
  S2-  S191  1  0.90946962  0.75798505  0.84540732  1
  S2-  S192  1  -0.00685932  0.13047130  0.45400036  1
  S2-  S193  1  0.01027949  0.12008828  0.95534725  1
  S2-  S194  1  -0.00329652  0.36885185  0.46048620  1
  S2-  S195  1  0.01087815  0.37542493  0.94774489  1
  S2-  S196  1  -0.00736716  0.62190526  0.45747711  1
  S2-  S197  1  0.00616535  0.62745598  0.95384187  1
  S2-  S198  1  -0.00941847  0.87196430  0.44774370  1
  S2-  S199  1  0.00990159  0.87714295  0.95394388  1
  S2-  S200  1  0.24373070  0.12393344  0.45002016  1
  S2-  S201  1  0.26159833  0.12195264  0.96150216  1
  S2-  S202  1  0.23962692  0.37496342  0.46681422  1
  S2-  S203  1  0.25553676  0.37788299  0.95379969  1
  S2-  S204  1  0.23906476  0.62821748  0.45702084  1
  S2-  S205  1  0.25810916  0.62865307  0.95924698  1
  S2-  S206  1  0.25099837  0.87892261  0.44638002  1
  S2-  S207  1  0.25608702  0.87270068  0.94298950  1
  S2-  S208  1  0.49948254  0.12990339  0.45359069  1
  S2-  S209  1  0.50514940  0.12279057  0.95768059  1
  S2-  S210  1  0.49664994  0.37817468  0.45670565  1
  S2-  S211  1  0.50819902  0.37756101  0.95330657  1
  S2-  S212  1  0.49744107  0.62341775  0.46404815  1
  S2-  S213  1  0.50964414  0.63029041  0.96129357  1
  S2-  S214  1  0.49598361  0.87584881  0.44863860  1
  S2-  S215  1  0.50741297  0.87480396  0.96341031  1
  S2-  S216  1  0.74561166  0.12834015  0.44416779  1
  S2-  S217  1  0.75196816  0.12599677  0.95041754  1
  S2-  S218  1  0.74149959  0.37125263  0.46346278  1
  S2-  S219  1  0.75410372  0.37642172  0.94284308  1
  S2-  S220  1  0.74376604  0.62298978  0.46432658  1
  S2-  S221  1  0.75453508  0.62629752  0.94890061  1
  S2-  S222  1  0.74737702  0.86961474  0.45074331  1
  S2-  S223  1  0.75437651  0.87783148  0.95975293  1
  S2-  S224  1  0.13641144  -0.00300420  0.04860316  1
  S2-  S225  1  0.11480827  0.00078221  0.53439339  1
  S2-  S226  1  0.13579709  0.24293761  0.03786961  1
  S2-  S227  1  0.11764539  0.24279021  0.55013612  1
  S2-  S228  1  0.12760387  0.50369938  0.03990737  1
  S2-  S229  1  0.11217437  0.49227217  0.54930690  1
  S2-  S230  1  0.13300498  0.75089205  0.04421853  1
  S2-  S231  1  0.11667532  0.75076622  0.53802257  1
  S2-  S232  1  0.38277651  -0.00268189  0.05060427  1
  S2-  S233  1  0.37316419  -0.00229520  0.53306906  1
  S2-  S234  1  0.38251433  0.25085536  0.04634217  1
  S2-  S235  1  0.36862360  0.25067185  0.54284022  1
  S2-  S236  1  0.38255957  0.49637663  0.03942550  1
  S2-  S237  1  0.36632330  0.49829134  0.54463296  1
  S2-  S238  1  0.38297755  0.74769175  0.05397765  1
  S2-  S239  1  0.36932905  0.75381205  0.54042575  1
  S2-  S240  1  0.63238448  0.00266236  0.04756336  1
  S2-  S241  1  0.61974607  -0.00360056  0.53977710  1
  S2-  S242  1  0.62968850  0.25007221  0.04200816  1
  S2-  S243  1  0.61834651  0.24983619  0.54936093  1
  S2-  S244  1  0.63438834  0.49675340  0.03569470  1
  S2-  S245  1  0.62238862  0.49763048  0.55218926  1
  S2-  S246  1  0.63296543  0.74642722  0.04912978  1
  S2-  S247  1  0.61964127  0.74818416  0.55590732  1
  S2-  S248  1  0.88082712  -0.00381258  0.04850781  1
  S2-  S249  1  0.86991927  -0.00258448  0.54050469  1
  S2-  S250  1  0.88475921  0.24879653  0.03798812  1
  S2-  S251  1  0.86858517  0.24319788  0.54018747  1
  S2-  S252  1  0.88565950  0.49891891  0.04726219  1
  S2-  S253  1  0.86672984  0.49553024  0.54269028  1
  S2-  S254  1  0.88227872  0.75254626  0.05018275  1
  S2-  S255  1  0.86927107  0.75001496  0.53847018  1
