# generated using pymatgen
data_La6Ce7Pr13Nd19Sm19(BiS2)64
_symmetry_space_group_name_H-M   'P 1'
_cell_length_a   16.14237469
_cell_length_b   16.14355547
_cell_length_c   27.18812118
_cell_angle_alpha   89.95683319
_cell_angle_beta   90.01725876
_cell_angle_gamma   90.01201094
_symmetry_Int_Tables_number   1
_chemical_formula_structural   La6Ce7Pr13Nd19Sm19(BiS2)64
_chemical_formula_sum   'La6 Ce7 Pr13 Nd19 Sm19 Bi64 S128'
_cell_volume   7085.09468329
_cell_formula_units_Z   1
loop_
 _symmetry_equiv_pos_site_id
 _symmetry_equiv_pos_as_xyz
  1  'x, y, z'
loop_
 _atom_type_symbol
 _atom_type_oxidation_number
  La3+  3.0
  Ce3+  3.0
  Pr3+  3.0
  Nd3+  3.0
  Sm3+  3.0
  Bi2+  2.0
  S2-  -2.0
loop_
 _atom_site_type_symbol
 _atom_site_label
 _atom_site_symmetry_multiplicity
 _atom_site_fract_x
 _atom_site_fract_y
 _atom_site_fract_z
 _atom_site_occupancy
  La3+  La0  1  0.24911755  0.62126064  0.06382012  1
  La3+  La1  1  0.49967092  0.37011622  0.06363957  1
  La3+  La2  1  0.24832703  0.62847420  0.58148172  1
  La3+  La3  1  0.75871994  0.86542534  0.59164884  1
  La3+  La4  1  0.87956090  0.25818849  0.38343777  1
  La3+  La5  1  0.37246634  0.25817269  0.89877792  1
  Ce3+  Ce6  1  0.24839373  0.36801326  0.05620607  1
  Ce3+  Ce7  1  0.37402009  -0.00486620  0.44270577  1
  Ce3+  Ce8  1  0.50342803  0.62233114  0.55665355  1
  Ce3+  Ce9  1  0.37331985  0.49717112  0.93909395  1
  Ce3+  Ce10  1  0.12490178  0.49787741  0.94222949  1
  Ce3+  Ce11  1  0.87695931  0.75070222  0.43095451  1
  Ce3+  Ce12  1  0.37432875  0.75029228  0.94696733  1
  Pr3+  Pr13  1  0.75218230  0.12204284  0.55463841  1
  Pr3+  Pr14  1  0.12256330  0.24639464  0.93083559  1
  Pr3+  Pr15  1  -0.00144435  0.12324470  0.06998255  1
  Pr3+  Pr16  1  0.24981635  0.87592632  0.06650918  1
  Pr3+  Pr17  1  0.75272657  0.62217956  0.55854167  1
  Pr3+  Pr18  1  0.00607196  0.86934306  0.07380171  1
  Pr3+  Pr19  1  0.62300619  0.00200828  0.93079075  1
  Pr3+  Pr20  1  0.00038549  0.87139470  0.56276137  1
  Pr3+  Pr21  1  0.49952566  0.36861646  0.56551807  1
  Pr3+  Pr22  1  -0.00264748  0.62291455  0.05957083  1
  Pr3+  Pr23  1  0.12546572  0.75127088  0.93681138  1
  Pr3+  Pr24  1  -0.00282878  0.36937454  0.05616766  1
  Pr3+  Pr25  1  0.62586075  0.24559756  0.42713578  1
  Nd3+  Nd26  1  0.62575767  -0.00489304  0.44123353  1
  Nd3+  Nd27  1  0.73313604  0.11533847  0.08825291  1
  Nd3+  Nd28  1  0.50215334  0.87156685  0.55769745  1
  Nd3+  Nd29  1  0.87412957  0.75002702  0.94257413  1
  Nd3+  Nd30  1  0.50202496  0.12087091  0.55900243  1
  Nd3+  Nd31  1  0.87387338  -0.00142135  0.94405622  1
  Nd3+  Nd32  1  0.87290469  0.24606870  0.94628720  1
  Nd3+  Nd33  1  0.50253906  0.62424338  0.05343753  1
  Nd3+  Nd34  1  0.62845905  0.74774335  0.44073413  1
  Nd3+  Nd35  1  0.62583516  0.25003996  0.93637453  1
  Nd3+  Nd36  1  0.50320828  0.87652768  0.05854962  1
  Nd3+  Nd37  1  0.37420397  -0.00161201  0.93705265  1
  Nd3+  Nd38  1  0.62504718  0.74994686  0.93567990  1
  Nd3+  Nd39  1  0.75158557  0.87506438  0.06283688  1
  Nd3+  Nd40  1  0.00028908  0.36934396  0.55877559  1
  Nd3+  Nd41  1  0.12520821  0.24835574  0.43840972  1
  Nd3+  Nd42  1  0.37784680  0.25146823  0.42969244  1
  Nd3+  Nd43  1  0.87600978  -0.00416747  0.42945863  1
  Nd3+  Nd44  1  0.62620636  0.49429736  0.44241677  1
  Sm3+  Sm45  1  0.25070825  0.12427299  0.05239389  1
  Sm3+  Sm46  1  -0.00054303  0.12097933  0.55076161  1
  Sm3+  Sm47  1  0.12626592  0.74422980  0.44101496  1
  Sm3+  Sm48  1  -0.00021326  0.62186988  0.55203008  1
  Sm3+  Sm49  1  0.25018460  0.36759369  0.56342361  1
  Sm3+  Sm50  1  0.12497868  -0.00436459  0.43906770  1
  Sm3+  Sm51  1  0.37404233  0.74493178  0.44453264  1
  Sm3+  Sm52  1  0.62482289  0.49741295  0.94287073  1
  Sm3+  Sm53  1  0.87757686  0.49560964  0.44214567  1
  Sm3+  Sm54  1  0.12262194  -0.00138320  0.94746511  1
  Sm3+  Sm55  1  0.74745985  0.62381388  0.05689791  1
  Sm3+  Sm56  1  0.49881359  0.12376274  0.04772930  1
  Sm3+  Sm57  1  0.37396415  0.49746143  0.45246459  1
  Sm3+  Sm58  1  0.74838636  0.37108501  0.05617625  1
  Sm3+  Sm59  1  0.87367093  0.49963922  0.94446600  1
  Sm3+  Sm60  1  0.25094718  0.12349608  0.55088733  1
  Sm3+  Sm61  1  0.12756971  0.49684213  0.44881212  1
  Sm3+  Sm62  1  0.75270189  0.36693777  0.55051425  1
  Sm3+  Sm63  1  0.24996699  0.87177415  0.55650366  1
  Bi2+  Bi64  1  0.00466180  0.12331256  0.28071065  1
  Bi2+  Bi65  1  0.00517174  0.16354454  0.80595713  1
  Bi2+  Bi66  1  0.04004418  0.38865973  0.28820455  1
  Bi2+  Bi67  1  -0.01761396  0.35396326  0.79635851  1
  Bi2+  Bi68  1  -0.04052903  0.67143745  0.31385793  1
  Bi2+  Bi69  1  -0.01977667  0.62295467  0.78899772  1
  Bi2+  Bi70  1  0.00068719  0.86740390  0.29458556  1
  Bi2+  Bi71  1  -0.00609491  0.89475160  0.81027666  1
  Bi2+  Bi72  1  0.26350211  0.13493037  0.29055929  1
  Bi2+  Bi73  1  0.18977235  0.10065239  0.77858450  1
  Bi2+  Bi74  1  0.28048949  0.32715839  0.30837661  1
  Bi2+  Bi75  1  0.17905666  0.37118762  0.78480535  1
  Bi2+  Bi76  1  0.23333084  0.63219398  0.32034750  1
  Bi2+  Bi77  1  0.25159594  0.61771034  0.78314107  1
  Bi2+  Bi78  1  0.28457781  0.93261837  0.30510264  1
  Bi2+  Bi79  1  0.23806799  0.81213119  0.80451056  1
  Bi2+  Bi80  1  0.48824897  0.15182221  0.26681815  1
  Bi2+  Bi81  1  0.52773150  0.11369376  0.78781982  1
  Bi2+  Bi82  1  0.47933144  0.38784201  0.29630067  1
  Bi2+  Bi83  1  0.53003865  0.36220518  0.79707956  1
  Bi2+  Bi84  1  0.49543572  0.63199019  0.25700973  1
  Bi2+  Bi85  1  0.46719704  0.61692729  0.75843831  1
  Bi2+  Bi86  1  0.51547319  0.89110277  0.29368518  1
  Bi2+  Bi87  1  0.49974493  0.87374353  0.80533017  1
  Bi2+  Bi88  1  0.72891035  0.10986861  0.28797425  1
  Bi2+  Bi89  1  0.80556827  0.14649910  0.74101500  1
  Bi2+  Bi90  1  0.72744801  0.40925329  0.28709861  1
  Bi2+  Bi91  1  0.78283118  0.35036143  0.78172484  1
  Bi2+  Bi92  1  0.76320818  0.65166638  0.30345216  1
  Bi2+  Bi93  1  0.72979140  0.62681777  0.80372285  1
  Bi2+  Bi94  1  0.73748632  0.84089687  0.28116967  1
  Bi2+  Bi95  1  0.75704745  0.87912426  0.79594289  1
  Bi2+  Bi96  1  0.17335672  -0.00618098  0.21798291  1
  Bi2+  Bi97  1  0.13196268  -0.06029598  0.71088598  1
  Bi2+  Bi98  1  0.16065147  0.30023000  0.21184215  1
  Bi2+  Bi99  1  0.10612625  0.22396824  0.70238401  1
  Bi2+  Bi100  1  0.13775623  0.53540494  0.23665936  1
  Bi2+  Bi101  1  0.07745702  0.50571148  0.71992722  1
  Bi2+  Bi102  1  0.15074788  0.72809891  0.21075162  1
  Bi2+  Bi103  1  0.12129983  0.74421510  0.70298618  1
  Bi2+  Bi104  1  0.36507428  0.04071037  0.19954822  1
  Bi2+  Bi105  1  0.32431948  -0.03417255  0.74184147  1
  Bi2+  Bi106  1  0.36028374  0.25767487  0.20638432  1
  Bi2+  Bi107  1  0.36672871  0.24476756  0.69300426  1
  Bi2+  Bi108  1  0.33104875  0.52575417  0.23688933  1
  Bi2+  Bi109  1  0.35118442  0.46069000  0.74911586  1
  Bi2+  Bi110  1  0.36822012  0.78589362  0.24811294  1
  Bi2+  Bi111  1  0.37581357  0.77912949  0.71609564  1
  Bi2+  Bi112  1  0.57335972  -0.00811805  0.20278343  1
  Bi2+  Bi113  1  0.59091439  0.00120833  0.69790536  1
  Bi2+  Bi114  1  0.62537993  0.26888108  0.19615291  1
  Bi2+  Bi115  1  0.63137734  0.24484956  0.68545455  1
  Bi2+  Bi116  1  0.62872083  0.51695103  0.20093666  1
  Bi2+  Bi117  1  0.63405356  0.50276306  0.73678130  1
  Bi2+  Bi118  1  0.63778726  0.73664904  0.20144055  1
  Bi2+  Bi119  1  0.61547456  0.74185653  0.69605527  1
  Bi2+  Bi120  1  0.85485643  0.00904159  0.20633765  1
  Bi2+  Bi121  1  0.94450209  0.01033481  0.72050224  1
  Bi2+  Bi122  1  0.89751061  0.28051775  0.18188717  1
  Bi2+  Bi123  1  0.89197875  0.29712806  0.68955445  1
  Bi2+  Bi124  1  0.88142948  0.51713279  0.25487056  1
  Bi2+  Bi125  1  0.83721738  0.52075651  0.72797912  1
  Bi2+  Bi126  1  0.88885189  0.73628235  0.21251279  1
  Bi2+  Bi127  1  0.89758627  0.74248989  0.71189433  1
  S2-  S128  1  -0.01623976  0.12340021  0.17128535  1
  S2-  S129  1  0.00318934  0.12041620  0.64919109  1
  S2-  S130  1  0.02646945  0.37690994  0.15527008  1
  S2-  S131  1  0.04307559  0.37379615  0.65504982  1
  S2-  S132  1  0.01355227  0.66271926  0.15639709  1
  S2-  S133  1  -0.00416179  0.65399265  0.64768150  1
  S2-  S134  1  -0.07446462  0.88510268  0.16279043  1
  S2-  S135  1  -0.09307726  0.87497864  0.64777503  1
  S2-  S136  1  0.22205911  0.11056391  0.14878177  1
  S2-  S137  1  0.24992494  0.15986790  0.64696645  1
  S2-  S138  1  0.27528403  0.38602373  0.15211176  1
  S2-  S139  1  0.29273472  0.37522886  0.65855640  1
  S2-  S140  1  0.27319176  0.64230534  0.16253675  1
  S2-  S141  1  0.21304655  0.58547376  0.67843798  1
  S2-  S142  1  0.14577214  0.86233036  0.14680128  1
  S2-  S143  1  0.25412964  0.78173486  0.63999781  1
  S2-  S144  1  0.57324690  0.13281742  0.13584800  1
  S2-  S145  1  0.48946996  0.12734438  0.65861337  1
  S2-  S146  1  0.52468024  0.38234706  0.16366581  1
  S2-  S147  1  0.51261645  0.34914173  0.66545217  1
  S2-  S148  1  0.51167098  0.60978082  0.15142855  1
  S2-  S149  1  0.50427203  0.62545617  0.65326971  1
  S2-  S150  1  0.52198457  0.85191597  0.15610461  1
  S2-  S151  1  0.50301125  0.86903116  0.65766034  1
  S2-  S152  1  0.76788016  0.16028895  0.18506191  1
  S2-  S153  1  0.72888225  0.09920190  0.65427691  1
  S2-  S154  1  0.75161926  0.37197240  0.15452039  1
  S2-  S155  1  0.73533668  0.35305886  0.64789763  1
  S2-  S156  1  0.74396299  0.62144722  0.15485089  1
  S2-  S157  1  0.75233765  0.70438188  0.64745208  1
  S2-  S158  1  0.72646714  0.96607245  0.14557705  1
  S2-  S159  1  0.70784985  0.88954289  0.69164919  1
  S2-  S160  1  0.07307260  -0.00301195  0.34439900  1
  S2-  S161  1  0.11580177  -0.01043611  0.85008098  1
  S2-  S162  1  0.05278365  0.24329020  0.34926021  1
  S2-  S163  1  0.22123716  0.23843974  0.84734913  1
  S2-  S164  1  0.12621566  0.49360487  0.35063730  1
  S2-  S165  1  0.15900731  0.51530779  0.84774710  1
  S2-  S166  1  0.12087961  0.76523598  0.34316695  1
  S2-  S167  1  0.07962768  0.74901732  0.84012004  1
  S2-  S168  1  0.42327750  0.00480509  0.34975704  1
  S2-  S169  1  0.40467377  0.00961005  0.83900628  1
  S2-  S170  1  0.49609864  0.24694834  0.35560023  1
  S2-  S171  1  0.41590281  0.22835399  0.79761376  1
  S2-  S172  1  0.37299944  0.46265050  0.35645289  1
  S2-  S173  1  0.38881944  0.41909309  0.85247782  1
  S2-  S174  1  0.36813805  0.72243653  0.34771076  1
  S2-  S175  1  0.39496026  0.77144930  0.85126759  1
  S2-  S176  1  0.64576158  0.00938769  0.34188909  1
  S2-  S177  1  0.63432496  -0.01162461  0.83087000  1
  S2-  S178  1  0.71609173  0.25993448  0.33954703  1
  S2-  S179  1  0.61966300  0.23273984  0.83712504  1
  S2-  S180  1  0.60851768  0.47797471  0.34363517  1
  S2-  S181  1  0.62240336  0.49494308  0.84516050  1
  S2-  S182  1  0.61211539  0.77206770  0.34264878  1
  S2-  S183  1  0.62899674  0.76171060  0.83571054  1
  S2-  S184  1  0.87225503  0.09032137  0.34292497  1
  S2-  S185  1  0.85380012  -0.00955061  0.84482740  1
  S2-  S186  1  0.89975241  0.25307598  0.27535002  1
  S2-  S187  1  0.85661429  0.23310281  0.84797747  1
  S2-  S188  1  0.88039922  0.43081942  0.35136155  1
  S2-  S189  1  0.86527730  0.53890367  0.84937860  1
  S2-  S190  1  0.86973371  0.86854429  0.35674709  1
  S2-  S191  1  0.85377481  0.77902042  0.84489004  1
  S2-  S192  1  0.00361935  0.11945555  0.44939051  1
  S2-  S193  1  -0.00045584  0.12233665  0.95803762  1
  S2-  S194  1  0.00263262  0.37414371  0.45364061  1
  S2-  S195  1  -0.00322891  0.37359561  0.94850641  1
  S2-  S196  1  0.00210572  0.61938065  0.44867130  1
  S2-  S197  1  -0.00186774  0.62385843  0.95214464  1
  S2-  S198  1  0.00666012  0.87077328  0.45576349  1
  S2-  S199  1  -0.00094126  0.87417546  0.96078103  1
  S2-  S200  1  0.25030224  0.12241679  0.44514819  1
  S2-  S201  1  0.25009372  0.12111960  0.94825019  1
  S2-  S202  1  0.25025801  0.37274092  0.45762092  1
  S2-  S203  1  0.24962427  0.37002280  0.95091489  1
  S2-  S204  1  0.25030236  0.62199935  0.46442841  1
  S2-  S205  1  0.25004797  0.62486194  0.95399397  1
  S2-  S206  1  0.24851000  0.86880939  0.45212107  1
  S2-  S207  1  0.24885729  0.87728825  0.95732149  1
  S2-  S208  1  0.49866785  0.12009961  0.45428801  1
  S2-  S209  1  0.49382816  0.13057188  0.94359940  1
  S2-  S210  1  0.49853950  0.37481157  0.45826766  1
  S2-  S211  1  0.50153256  0.37218536  0.95439744  1
  S2-  S212  1  0.49977266  0.62063856  0.44974827  1
  S2-  S213  1  0.50137149  0.62228297  0.94676996  1
  S2-  S214  1  0.49847086  0.86814212  0.45161616  1
  S2-  S215  1  0.50083133  0.87500278  0.95199327  1
  S2-  S216  1  0.74941377  0.12040296  0.44890512  1
  S2-  S217  1  0.74854369  0.12319841  0.94979076  1
  S2-  S218  1  0.75322881  0.37199015  0.44840967  1
  S2-  S219  1  0.75085453  0.37553867  0.94998326  1
  S2-  S220  1  0.75246425  0.61949078  0.45061027  1
  S2-  S221  1  0.74842014  0.62348935  0.95239299  1
  S2-  S222  1  0.74827380  0.87182431  0.45584751  1
  S2-  S223  1  0.74774787  0.87482444  0.95535587  1
  S2-  S224  1  0.12397173  0.00112082  0.05068162  1
  S2-  S225  1  0.12819524  -0.00226390  0.54632865  1
  S2-  S226  1  0.12356453  0.24431049  0.04244354  1
  S2-  S227  1  0.12587464  0.24544895  0.54473648  1
  S2-  S228  1  0.12239584  0.49621798  0.04982380  1
  S2-  S229  1  0.12667716  0.49751663  0.55372545  1
  S2-  S230  1  0.12617552  0.74607273  0.04393038  1
  S2-  S231  1  0.12308386  0.74687527  0.54487671  1
  S2-  S232  1  0.37572643  -0.00034680  0.04561645  1
  S2-  S233  1  0.37282934  -0.00389636  0.55100635  1
  S2-  S234  1  0.37505141  0.24367345  0.04932898  1
  S2-  S235  1  0.37387872  0.24638559  0.54003733  1
  S2-  S236  1  0.37671363  0.49839216  0.04703074  1
  S2-  S237  1  0.37259118  0.49700169  0.55698744  1
  S2-  S238  1  0.37703225  0.75104892  0.05395487  1
  S2-  S239  1  0.37802880  0.74703154  0.54794560  1
  S2-  S240  1  0.62294859  -0.00007658  0.03752836  1
  S2-  S241  1  0.62743469  -0.00693969  0.54890992  1
  S2-  S242  1  0.62837917  0.24728010  0.04174368  1
  S2-  S243  1  0.62517105  0.24677764  0.53974534  1
  S2-  S244  1  0.62712845  0.49762066  0.04735538  1
  S2-  S245  1  0.62836832  0.49332559  0.54989972  1
  S2-  S246  1  0.62657018  0.74969299  0.04388881  1
  S2-  S247  1  0.62712010  0.74893942  0.54673460  1
  S2-  S248  1  0.87300337  0.00172395  0.05005583  1
  S2-  S249  1  0.87640763  -0.00331266  0.54266945  1
  S2-  S250  1  0.86684628  0.24234057  0.05247198  1
  S2-  S251  1  0.87793522  0.24598752  0.54739988  1
  S2-  S252  1  0.87045437  0.49758032  0.04990294  1
  S2-  S253  1  0.87618442  0.49479974  0.54960854  1
  S2-  S254  1  0.87193232  0.74852690  0.04989410  1
  S2-  S255  1  0.87738353  0.74587158  0.53959797  1
