# generated using pymatgen
data_La6Ce7Pr13Nd19Sm19(BiS2)64
_symmetry_space_group_name_H-M   'P 1'
_cell_length_a   16.15142058
_cell_length_b   16.12380941
_cell_length_c   27.14352221
_cell_angle_alpha   90.06998161
_cell_angle_beta   90.02150787
_cell_angle_gamma   90.02073910
_symmetry_Int_Tables_number   1
_chemical_formula_structural   La6Ce7Pr13Nd19Sm19(BiS2)64
_chemical_formula_sum   'La6 Ce7 Pr13 Nd19 Sm19 Bi64 S128'
_cell_volume   7068.77569772
_cell_formula_units_Z   1
loop_
 _symmetry_equiv_pos_site_id
 _symmetry_equiv_pos_as_xyz
  1  'x, y, z'
loop_
 _atom_type_symbol
 _atom_type_oxidation_number
  La3+  3.0
  Ce3+  3.0
  Pr3+  3.0
  Nd3+  3.0
  Sm3+  3.0
  Bi2+  2.0
  S2-  -2.0
loop_
 _atom_site_type_symbol
 _atom_site_label
 _atom_site_symmetry_multiplicity
 _atom_site_fract_x
 _atom_site_fract_y
 _atom_site_fract_z
 _atom_site_occupancy
  La3+  La0  1  0.50500354  0.39042601  0.58985265  1
  La3+  La1  1  0.24066634  0.38834690  0.58578302  1
  La3+  La2  1  0.87613880  0.75074615  0.41974827  1
  La3+  La3  1  0.25413995  0.86054098  0.08704443  1
  La3+  La4  1  0.12098918  -0.01004087  0.38704592  1
  La3+  La5  1  0.36995938  0.49120626  0.42952121  1
  Ce3+  Ce6  1  -0.00362218  0.62909793  0.55436150  1
  Ce3+  Ce7  1  0.36825503  0.75910845  0.43517534  1
  Ce3+  Ce8  1  0.11438102  0.23825078  0.91870890  1
  Ce3+  Ce9  1  0.24588006  0.12941550  0.56535186  1
  Ce3+  Ce10  1  0.37123324  0.74832049  0.93742974  1
  Ce3+  Ce11  1  0.49272499  0.12132085  0.05543023  1
  Ce3+  Ce12  1  0.74715939  0.12660217  0.55700512  1
  Pr3+  Pr13  1  -0.00271724  0.87489619  0.56103577  1
  Pr3+  Pr14  1  0.36900922  0.24786824  0.92553103  1
  Pr3+  Pr15  1  0.49692468  0.87070444  0.06177724  1
  Pr3+  Pr16  1  0.37264039  0.00986654  0.43359203  1
  Pr3+  Pr17  1  -0.01261581  0.87755877  0.08802074  1
  Pr3+  Pr18  1  0.75109964  0.61906462  0.06808293  1
  Pr3+  Pr19  1  0.00215720  0.12320477  0.06600204  1
  Pr3+  Pr20  1  -0.00274601  0.12514059  0.56518425  1
  Pr3+  Pr21  1  0.49779767  0.12835468  0.56891263  1
  Pr3+  Pr22  1  0.24881671  0.88113224  0.56067887  1
  Pr3+  Pr23  1  0.12228172  -0.00971970  0.93834015  1
  Pr3+  Pr24  1  0.74634178  0.12338522  0.05642039  1
  Pr3+  Pr25  1  0.61542732  0.50646286  0.42628003  1
  Nd3+  Nd26  1  0.86490071  0.50067502  0.42502710  1
  Nd3+  Nd27  1  -0.00115178  0.38148094  0.55561842  1
  Nd3+  Nd28  1  0.12028453  0.75158717  0.94240800  1
  Nd3+  Nd29  1  0.61935735  0.25788693  0.44859577  1
  Nd3+  Nd30  1  0.87394192  0.25236317  0.44704607  1
  Nd3+  Nd31  1  0.87323594  -0.00625942  0.94222538  1
  Nd3+  Nd32  1  0.62387145  0.49580973  0.93710126  1
  Nd3+  Nd33  1  0.87555075  0.00524894  0.43503991  1
  Nd3+  Nd34  1  0.62048309  0.00823134  0.42861451  1
  Nd3+  Nd35  1  0.74868456  0.38469579  0.56211043  1
  Nd3+  Nd36  1  0.00361132  0.36847433  0.06818786  1
  Nd3+  Nd37  1  0.12471368  0.24837373  0.43991151  1
  Nd3+  Nd38  1  0.74835541  0.63093613  0.55113649  1
  Nd3+  Nd39  1  0.74622174  0.87884900  0.54938247  1
  Nd3+  Nd40  1  0.49468472  0.37235284  0.05804666  1
  Nd3+  Nd41  1  0.62049291  0.75464029  0.43063531  1
  Nd3+  Nd42  1  0.74633015  0.37161625  0.05826225  1
  Nd3+  Nd43  1  0.49710236  0.62818688  0.55308546  1
  Nd3+  Nd44  1  0.62278989  -0.00537032  0.94096800  1
  Sm3+  Sm45  1  -0.00014817  0.62331751  0.06066133  1
  Sm3+  Sm46  1  0.87600789  0.24638359  0.94247583  1
  Sm3+  Sm47  1  0.87242386  0.74533469  0.94752792  1
  Sm3+  Sm48  1  0.74717269  0.87117005  0.06369456  1
  Sm3+  Sm49  1  0.24996120  0.62780850  0.55712273  1
  Sm3+  Sm50  1  0.37298646  0.25972330  0.46332510  1
  Sm3+  Sm51  1  0.62329859  0.74497051  0.95228255  1
  Sm3+  Sm52  1  0.11966333  0.49441748  0.94133166  1
  Sm3+  Sm53  1  0.12608810  0.50143132  0.43594598  1
  Sm3+  Sm54  1  0.49735704  0.61881345  0.05356703  1
  Sm3+  Sm55  1  0.12353387  0.75724939  0.44301985  1
  Sm3+  Sm56  1  0.49779341  0.87959865  0.54964314  1
  Sm3+  Sm57  1  0.37089142  0.49713291  0.93885563  1
  Sm3+  Sm58  1  0.24707074  0.37002106  0.04900198  1
  Sm3+  Sm59  1  0.87364974  0.49607754  0.95031804  1
  Sm3+  Sm60  1  0.24677303  0.62211585  0.05552807  1
  Sm3+  Sm61  1  0.24574762  0.12075762  0.05296026  1
  Sm3+  Sm62  1  0.37101204  -0.00657182  0.94330810  1
  Sm3+  Sm63  1  0.62052818  0.24697207  0.94186390  1
  Bi2+  Bi64  1  -0.02531659  0.14701142  0.28865950  1
  Bi2+  Bi65  1  -0.01656410  0.13684229  0.78812336  1
  Bi2+  Bi66  1  0.05039873  0.38077082  0.30125350  1
  Bi2+  Bi67  1  -0.00252432  0.40770021  0.79879923  1
  Bi2+  Bi68  1  0.02786518  0.57369268  0.29456753  1
  Bi2+  Bi69  1  -0.02931435  0.62484303  0.79156106  1
  Bi2+  Bi70  1  -0.00662327  0.86655300  0.28070757  1
  Bi2+  Bi71  1  0.00156402  0.88214613  0.79256326  1
  Bi2+  Bi72  1  0.26261031  0.16295770  0.29138996  1
  Bi2+  Bi73  1  0.25033199  0.12581026  0.80004623  1
  Bi2+  Bi74  1  0.24940590  0.35573579  0.31137133  1
  Bi2+  Bi75  1  0.24467803  0.41976857  0.78653448  1
  Bi2+  Bi76  1  0.23776974  0.58710332  0.26438650  1
  Bi2+  Bi77  1  0.23144919  0.62767839  0.73623579  1
  Bi2+  Bi78  1  0.25262973  0.87033627  0.28695223  1
  Bi2+  Bi79  1  0.26210087  0.86724177  0.79492722  1
  Bi2+  Bi80  1  0.54064162  0.12422313  0.27894346  1
  Bi2+  Bi81  1  0.58381197  0.12231572  0.76984479  1
  Bi2+  Bi82  1  0.52092483  0.36552266  0.30741389  1
  Bi2+  Bi83  1  0.50348178  0.35917596  0.80109054  1
  Bi2+  Bi84  1  0.51160036  0.61584778  0.26766823  1
  Bi2+  Bi85  1  0.49907593  0.68294824  0.75149513  1
  Bi2+  Bi86  1  0.50973273  0.88216801  0.29197058  1
  Bi2+  Bi87  1  0.51594735  0.85854248  0.80186614  1
  Bi2+  Bi88  1  0.73300895  0.10415382  0.30621224  1
  Bi2+  Bi89  1  0.78634404  0.10588928  0.79149530  1
  Bi2+  Bi90  1  0.80462691  0.36262358  0.28624204  1
  Bi2+  Bi91  1  0.79265079  0.38145437  0.79279750  1
  Bi2+  Bi92  1  0.74593085  0.60450493  0.28779804  1
  Bi2+  Bi93  1  0.68971193  0.62632718  0.79785141  1
  Bi2+  Bi94  1  0.70509431  0.90980381  0.30994834  1
  Bi2+  Bi95  1  0.71735917  0.90634000  0.79780262  1
  Bi2+  Bi96  1  0.12923064  0.03604145  0.18689862  1
  Bi2+  Bi97  1  0.12136021  0.00671124  0.69319767  1
  Bi2+  Bi98  1  0.14594287  0.26919197  0.21820176  1
  Bi2+  Bi99  1  0.12257406  0.25832281  0.70800344  1
  Bi2+  Bi100  1  0.11957428  0.47088686  0.19109053  1
  Bi2+  Bi101  1  0.04326594  0.53754128  0.69462195  1
  Bi2+  Bi102  1  0.09652939  0.68399253  0.20453545  1
  Bi2+  Bi103  1  0.08048058  0.74861666  0.72277408  1
  Bi2+  Bi104  1  0.38490930  0.02040541  0.19411991  1
  Bi2+  Bi105  1  0.42908303  -0.02132846  0.72528816  1
  Bi2+  Bi106  1  0.41271678  0.26024910  0.23723553  1
  Bi2+  Bi107  1  0.37576498  0.22098857  0.71508660  1
  Bi2+  Bi108  1  0.35189991  0.45042178  0.21472259  1
  Bi2+  Bi109  1  0.39497459  0.52343643  0.71268817  1
  Bi2+  Bi110  1  0.38197047  0.72003150  0.20831676  1
  Bi2+  Bi111  1  0.34679596  0.77848971  0.70173461  1
  Bi2+  Bi112  1  0.63577281  -0.02987736  0.20535206  1
  Bi2+  Bi113  1  0.62066662  -0.05847328  0.69797579  1
  Bi2+  Bi114  1  0.69380423  0.24411841  0.21958626  1
  Bi2+  Bi115  1  0.70976633  0.24880229  0.71832890  1
  Bi2+  Bi116  1  0.59785614  0.49163824  0.19335648  1
  Bi2+  Bi117  1  0.64322256  0.50374636  0.71114930  1
  Bi2+  Bi118  1  0.63011511  0.77870389  0.22290579  1
  Bi2+  Bi119  1  0.65971907  0.74758523  0.69220346  1
  Bi2+  Bi120  1  0.84136902  0.02203229  0.22028679  1
  Bi2+  Bi121  1  0.84338947  -0.01192578  0.70503056  1
  Bi2+  Bi122  1  0.89115023  0.25528196  0.20254714  1
  Bi2+  Bi123  1  0.90274440  0.29801793  0.71012178  1
  Bi2+  Bi124  1  0.92735130  0.45629762  0.21336849  1
  Bi2+  Bi125  1  0.85402405  0.49048653  0.70037666  1
  Bi2+  Bi126  1  0.82897228  0.73409965  0.20987476  1
  Bi2+  Bi127  1  0.82785792  0.75205338  0.75913429  1
  S2-  S128  1  -0.02655302  0.02730767  0.14957065  1
  S2-  S129  1  0.01746159  0.14393092  0.66584688  1
  S2-  S130  1  0.02841202  0.24813396  0.13942304  1
  S2-  S131  1  0.08362426  0.38406056  0.64297204  1
  S2-  S132  1  -0.05137110  0.64243299  0.15360253  1
  S2-  S133  1  -0.01434038  0.68717311  0.64604792  1
  S2-  S134  1  0.05178158  0.83666424  0.18098395  1
  S2-  S135  1  -0.00964842  0.93174063  0.65720770  1
  S2-  S136  1  0.27033610  0.12491934  0.15096285  1
  S2-  S137  1  0.24509137  0.12355242  0.66519965  1
  S2-  S138  1  0.24502149  0.36569574  0.14752468  1
  S2-  S139  1  0.26141283  0.33942868  0.68808916  1
  S2-  S140  1  0.25344594  0.70228262  0.14275026  1
  S2-  S141  1  0.26160145  0.54467036  0.64316433  1
  S2-  S142  1  0.24310362  0.91457715  0.18518922  1
  S2-  S143  1  0.21699204  0.88500867  0.66075015  1
  S2-  S144  1  0.49660208  0.11355661  0.15234381  1
  S2-  S145  1  0.49852023  0.12406866  0.66984725  1
  S2-  S146  1  0.48234156  0.37416481  0.15752711  1
  S2-  S147  1  0.46641046  0.34890921  0.69388015  1
  S2-  S148  1  0.48341804  0.61462077  0.15134226  1
  S2-  S149  1  0.50774136  0.54893931  0.64232908  1
  S2-  S150  1  0.42436984  0.86115603  0.15226101  1
  S2-  S151  1  0.47255862  0.87878729  0.64682615  1
  S2-  S152  1  0.73458964  0.10313160  0.15619490  1
  S2-  S153  1  0.75994540  0.11612839  0.65339045  1
  S2-  S154  1  0.70981446  0.38277926  0.15542736  1
  S2-  S155  1  0.65884791  0.38045178  0.64759599  1
  S2-  S156  1  0.72334390  0.60877656  0.16732050  1
  S2-  S157  1  0.74763164  0.60752239  0.65019685  1
  S2-  S158  1  0.83316078  0.86157856  0.14882755  1
  S2-  S159  1  0.77773105  0.86122754  0.64640177  1
  S2-  S160  1  0.12176313  -0.01777683  0.27747499  1
  S2-  S161  1  0.11687844  0.09204587  0.85215416  1
  S2-  S162  1  0.11904617  0.16096379  0.35265301  1
  S2-  S163  1  0.19776860  0.28174301  0.83334776  1
  S2-  S164  1  0.23912277  0.51136064  0.36064243  1
  S2-  S165  1  0.12588897  0.50602496  0.84353743  1
  S2-  S166  1  0.12041683  0.81410008  0.34882259  1
  S2-  S167  1  0.12410232  0.86231838  0.86422651  1
  S2-  S168  1  0.28450926  0.00571613  0.34524405  1
  S2-  S169  1  0.33554184  -0.00622542  0.84650526  1
  S2-  S170  1  0.38945343  0.32115855  0.37201733  1
  S2-  S171  1  0.39505604  0.22139523  0.82550993  1
  S2-  S172  1  0.48713231  0.50811424  0.35161080  1
  S2-  S173  1  0.37654656  0.46657851  0.84170276  1
  S2-  S174  1  0.38190632  0.77999636  0.33692152  1
  S2-  S175  1  0.33444390  0.74199357  0.84231265  1
  S2-  S176  1  0.49946188  0.02138192  0.35673569  1
  S2-  S177  1  0.57875630  0.00832517  0.84547143  1
  S2-  S178  1  0.61848230  0.24128905  0.34941941  1
  S2-  S179  1  0.60598679  0.25463651  0.84434193  1
  S2-  S180  1  0.72963653  0.47240908  0.35041946  1
  S2-  S181  1  0.60055311  0.48273331  0.83898362  1
  S2-  S182  1  0.62704337  0.67557953  0.34144720  1
  S2-  S183  1  0.63816031  0.76034655  0.85558537  1
  S2-  S184  1  0.95510098  -0.00033209  0.34649376  1
  S2-  S185  1  0.91631807  0.00023084  0.84560288  1
  S2-  S186  1  0.87566495  0.23105161  0.34782964  1
  S2-  S187  1  0.96883159  0.25752234  0.85966002  1
  S2-  S188  1  0.88572531  0.61315656  0.34912402  1
  S2-  S189  1  0.87631396  0.50580244  0.85243497  1
  S2-  S190  1  0.85454489  0.81327131  0.32346417  1
  S2-  S191  1  0.91845970  0.76229099  0.85385438  1
  S2-  S192  1  -0.00387790  0.12815086  0.45782186  1
  S2-  S193  1  -0.00642543  0.11794420  0.95938227  1
  S2-  S194  1  -0.00163618  0.38007283  0.44865742  1
  S2-  S195  1  -0.00399448  0.37509483  0.96098262  1
  S2-  S196  1  0.00532532  0.62718295  0.44835884  1
  S2-  S197  1  -0.00220103  0.62114729  0.95507592  1
  S2-  S198  1  -0.00147585  0.87810426  0.45226575  1
  S2-  S199  1  -0.00771338  0.86995370  0.96612438  1
  S2-  S200  1  0.25409466  0.13501317  0.45896833  1
  S2-  S201  1  0.25092280  0.11931142  0.94923423  1
  S2-  S202  1  0.24042916  0.37539512  0.46760995  1
  S2-  S203  1  0.24687598  0.37565396  0.94584820  1
  S2-  S204  1  0.24621291  0.63414628  0.45367405  1
  S2-  S205  1  0.24392017  0.61980608  0.95025155  1
  S2-  S206  1  0.24369709  0.88329498  0.45321530  1
  S2-  S207  1  0.25161527  0.86950070  0.96400899  1
  S2-  S208  1  0.49635431  0.13493599  0.46114504  1
  S2-  S209  1  0.49577822  0.12149470  0.94846231  1
  S2-  S210  1  0.50228884  0.38037890  0.47016491  1
  S2-  S211  1  0.49584616  0.37208010  0.95095478  1
  S2-  S212  1  0.49240833  0.63521556  0.44912213  1
  S2-  S213  1  0.49842583  0.62047893  0.94742870  1
  S2-  S214  1  0.49806649  0.87902657  0.44730755  1
  S2-  S215  1  0.49864351  0.87053437  0.95396586  1
  S2-  S216  1  0.74661676  0.12870110  0.45092478  1
  S2-  S217  1  0.74749952  0.12377758  0.94837391  1
  S2-  S218  1  0.74847840  0.37625419  0.45639500  1
  S2-  S219  1  0.74928354  0.36932213  0.95078465  1
  S2-  S220  1  0.74601094  0.63036329  0.44701457  1
  S2-  S221  1  0.74868900  0.62092564  0.95817257  1
  S2-  S222  1  0.74514301  0.88140642  0.44310523  1
  S2-  S223  1  0.74747797  0.86851989  0.95762808  1
  S2-  S224  1  0.12721350  -0.00818887  0.05157628  1
  S2-  S225  1  0.12261918  0.00343722  0.55352599  1
  S2-  S226  1  0.12875033  0.24718538  0.03379805  1
  S2-  S227  1  0.12089294  0.25205641  0.54756637  1
  S2-  S228  1  0.12350077  0.49781431  0.04744567  1
  S2-  S229  1  0.12219651  0.50946478  0.54032146  1
  S2-  S230  1  0.11969536  0.74593970  0.04848200  1
  S2-  S231  1  0.12665500  0.75207069  0.54845743  1
  S2-  S232  1  0.36987710  -0.00502272  0.04780000  1
  S2-  S233  1  0.37471556  0.00444920  0.54675594  1
  S2-  S234  1  0.36967563  0.24773994  0.03896399  1
  S2-  S235  1  0.37415242  0.25976082  0.56701950  1
  S2-  S236  1  0.36978869  0.49807527  0.04498773  1
  S2-  S237  1  0.37263288  0.50442723  0.54170426  1
  S2-  S238  1  0.37627654  0.74072758  0.04300765  1
  S2-  S239  1  0.37297217  0.75367861  0.54424655  1
  S2-  S240  1  0.62306469  -0.00532825  0.04788579  1
  S2-  S241  1  0.62021697  0.00297297  0.54081568  1
  S2-  S242  1  0.61965533  0.24840253  0.04775384  1
  S2-  S243  1  0.62375979  0.25264010  0.55423696  1
  S2-  S244  1  0.62182064  0.49648612  0.04449760  1
  S2-  S245  1  0.62641042  0.50812534  0.53811067  1
  S2-  S246  1  0.62345048  0.74409057  0.05757235  1
  S2-  S247  1  0.62063510  0.75465720  0.53962053  1
  S2-  S248  1  0.86581657  -0.00325199  0.04651816  1
  S2-  S249  1  0.87204707  0.00177329  0.54277975  1
  S2-  S250  1  0.87201049  0.24906903  0.04711770  1
  S2-  S251  1  0.87282856  0.25677794  0.55370001  1
  S2-  S252  1  0.87713274  0.49347614  0.05549554  1
  S2-  S253  1  0.87309870  0.50462223  0.53894566  1
  S2-  S254  1  0.87258541  0.74507331  0.04966051  1
  S2-  S255  1  0.87120033  0.75464768  0.53386624  1
