# generated using pymatgen
data_La6Ce7Pr13Nd19Sm19(BiS2)64
_symmetry_space_group_name_H-M   'P 1'
_cell_length_a   16.02223504
_cell_length_b   16.00449286
_cell_length_c   27.60118915
_cell_angle_alpha   89.72353104
_cell_angle_beta   90.01823528
_cell_angle_gamma   90.03477118
_symmetry_Int_Tables_number   1
_chemical_formula_structural   La6Ce7Pr13Nd19Sm19(BiS2)64
_chemical_formula_sum   'La6 Ce7 Pr13 Nd19 Sm19 Bi64 S128'
_cell_volume   7077.62667945
_cell_formula_units_Z   1
loop_
 _symmetry_equiv_pos_site_id
 _symmetry_equiv_pos_as_xyz
  1  'x, y, z'
loop_
 _atom_type_symbol
 _atom_type_oxidation_number
  La3+  3.0
  Ce3+  3.0
  Pr3+  3.0
  Nd3+  3.0
  Sm3+  3.0
  Bi2+  2.0
  S2-  -2.0
loop_
 _atom_site_type_symbol
 _atom_site_label
 _atom_site_symmetry_multiplicity
 _atom_site_fract_x
 _atom_site_fract_y
 _atom_site_fract_z
 _atom_site_occupancy
  La3+  La0  1  0.24918168  0.14553916  0.10132083  1
  La3+  La1  1  0.87825265  0.24269461  0.40977666  1
  La3+  La2  1  0.75411730  0.86491807  0.60674168  1
  La3+  La3  1  0.00001241  0.88936193  0.07070883  1
  La3+  La4  1  0.62973558  0.74717018  0.42698971  1
  La3+  La5  1  0.75949901  0.62279829  0.56569340  1
  Ce3+  Ce6  1  0.50341307  0.36965213  0.56429529  1
  Ce3+  Ce7  1  0.25454222  0.12095444  0.55243410  1
  Ce3+  Ce8  1  0.12303642  0.26978889  0.95090289  1
  Ce3+  Ce9  1  0.62159666  0.76818417  0.92881965  1
  Ce3+  Ce10  1  0.74554463  0.14349121  0.05158092  1
  Ce3+  Ce11  1  0.50301086  0.39761405  0.06371013  1
  Ce3+  Ce12  1  0.38020389  0.49102574  0.44485175  1
  Pr3+  Pr13  1  0.87866556  0.02779560  0.92463867  1
  Pr3+  Pr14  1  -0.00166928  0.39176546  0.06332906  1
  Pr3+  Pr15  1  0.25216719  0.36560352  0.56888296  1
  Pr3+  Pr16  1  0.00466264  0.11675580  0.55491706  1
  Pr3+  Pr17  1  0.61775999  0.01699498  0.90399670  1
  Pr3+  Pr18  1  0.63303739  -0.00128114  0.44402415  1
  Pr3+  Pr19  1  0.74658899  0.39512752  0.05576295  1
  Pr3+  Pr20  1  0.61248663  0.26982057  0.92218897  1
  Pr3+  Pr21  1  0.87351256  0.49578568  0.43111363  1
  Pr3+  Pr22  1  0.37259107  0.76937456  0.93646209  1
  Pr3+  Pr23  1  0.38040634  0.25239175  0.42594612  1
  Pr3+  Pr24  1  -0.01322043  0.13660459  0.08165919  1
  Pr3+  Pr25  1  0.88042795  -0.00680168  0.43638841  1
  Nd3+  Nd26  1  0.24633575  0.39924863  0.07177754  1
  Nd3+  Nd27  1  0.74467924  0.89809588  0.05351992  1
  Nd3+  Nd28  1  0.11981977  0.02455973  0.94614619  1
  Nd3+  Nd29  1  0.49675554  0.15165577  0.06912680  1
  Nd3+  Nd30  1  0.24664131  0.64587227  0.06856149  1
  Nd3+  Nd31  1  0.76471949  0.36525773  0.57347186  1
  Nd3+  Nd32  1  0.13117693  0.24513224  0.42640989  1
  Nd3+  Nd33  1  0.13387690  0.74679916  0.43399587  1
  Nd3+  Nd34  1  0.11976643  0.76726758  0.93393388  1
  Nd3+  Nd35  1  0.50304713  0.65005460  0.06971407  1
  Nd3+  Nd36  1  0.13418241  -0.01029925  0.42719473  1
  Nd3+  Nd37  1  0.50126785  0.12897761  0.57234368  1
  Nd3+  Nd38  1  0.75810019  0.11992724  0.56786312  1
  Nd3+  Nd39  1  0.87687167  0.75202804  0.42678438  1
  Nd3+  Nd40  1  0.49446636  0.89396986  0.05933806  1
  Nd3+  Nd41  1  0.00664117  0.86862261  0.56343360  1
  Nd3+  Nd42  1  0.00426381  0.62283866  0.54827827  1
  Nd3+  Nd43  1  0.12277832  0.51866108  0.93901826  1
  Nd3+  Nd44  1  0.25762551  0.62241462  0.55981431  1
  Sm3+  Sm45  1  0.63740221  0.49180376  0.45294970  1
  Sm3+  Sm46  1  0.74351018  0.64613589  0.05547912  1
  Sm3+  Sm47  1  0.51007173  0.86958785  0.55923993  1
  Sm3+  Sm48  1  0.00697458  0.36824524  0.55893287  1
  Sm3+  Sm49  1  0.25468113  0.86934607  0.56206585  1
  Sm3+  Sm50  1  0.37179125  0.52166303  0.95029685  1
  Sm3+  Sm51  1  0.38488716  0.74611873  0.43396258  1
  Sm3+  Sm52  1  0.12974358  0.49450669  0.44314576  1
  Sm3+  Sm53  1  0.62072385  0.52237158  0.93042307  1
  Sm3+  Sm54  1  0.87087463  0.77582919  0.94224193  1
  Sm3+  Sm55  1  -0.00560227  0.64617557  0.05962961  1
  Sm3+  Sm56  1  0.87191532  0.26728714  0.93855494  1
  Sm3+  Sm57  1  0.87191723  0.52081897  0.94299090  1
  Sm3+  Sm58  1  0.63456052  0.24572264  0.44766622  1
  Sm3+  Sm59  1  0.37505280  0.02418134  0.94105164  1
  Sm3+  Sm60  1  0.50738601  0.62218851  0.55232604  1
  Sm3+  Sm61  1  0.24548804  0.89588702  0.04981461  1
  Sm3+  Sm62  1  0.38247524  -0.00151685  0.44620711  1
  Sm3+  Sm63  1  0.37411606  0.27061163  0.94784460  1
  Bi2+  Bi64  1  -0.00730784  0.14281108  0.27980509  1
  Bi2+  Bi65  1  0.08463228  0.12186290  0.78810186  1
  Bi2+  Bi66  1  0.00870259  0.40153454  0.28779988  1
  Bi2+  Bi67  1  -0.01600162  0.35231545  0.78262936  1
  Bi2+  Bi68  1  -0.05956848  0.62071709  0.31064613  1
  Bi2+  Bi69  1  -0.02203236  0.55542349  0.77400118  1
  Bi2+  Bi70  1  0.03006907  0.79757645  0.29665664  1
  Bi2+  Bi71  1  -0.02398800  0.87829052  0.80480953  1
  Bi2+  Bi72  1  0.25634184  0.09375198  0.29161690  1
  Bi2+  Bi73  1  0.28078866  0.09133546  0.80967292  1
  Bi2+  Bi74  1  0.27399539  0.37102495  0.29199059  1
  Bi2+  Bi75  1  0.16763847  0.42314404  0.80906552  1
  Bi2+  Bi76  1  0.25990119  0.70643472  0.32780459  1
  Bi2+  Bi77  1  0.29788743  0.61657927  0.79902302  1
  Bi2+  Bi78  1  0.30009049  0.84596885  0.24861630  1
  Bi2+  Bi79  1  0.25767732  0.89139101  0.80271065  1
  Bi2+  Bi80  1  0.46835442  0.11853809  0.30351008  1
  Bi2+  Bi81  1  0.49201943  0.14436298  0.79054381  1
  Bi2+  Bi82  1  0.51247789  0.31527755  0.29637288  1
  Bi2+  Bi83  1  0.49147540  0.39586906  0.79523618  1
  Bi2+  Bi84  1  0.43861484  0.62468174  0.30112534  1
  Bi2+  Bi85  1  0.45555692  0.55784915  0.73310077  1
  Bi2+  Bi86  1  0.59575654  0.87382728  0.25789994  1
  Bi2+  Bi87  1  0.41904252  0.85718809  0.74124880  1
  Bi2+  Bi88  1  0.72873907  0.10463168  0.30306918  1
  Bi2+  Bi89  1  0.78488983  0.11343104  0.78877793  1
  Bi2+  Bi90  1  0.74461986  0.37689907  0.29368884  1
  Bi2+  Bi91  1  0.78037217  0.36643633  0.77554815  1
  Bi2+  Bi92  1  0.71900630  0.61037165  0.28232930  1
  Bi2+  Bi93  1  0.71187534  0.55783834  0.79193424  1
  Bi2+  Bi94  1  0.78328120  0.86655070  0.28833177  1
  Bi2+  Bi95  1  0.74564321  0.80200212  0.81031046  1
  Bi2+  Bi96  1  0.11236994  -0.05705873  0.21211373  1
  Bi2+  Bi97  1  0.13899913  -0.02065275  0.71342698  1
  Bi2+  Bi98  1  0.12113022  0.35112604  0.20514379  1
  Bi2+  Bi99  1  0.13633868  0.23878657  0.70070065  1
  Bi2+  Bi100  1  0.16088539  0.57316945  0.26877764  1
  Bi2+  Bi101  1  0.12425166  0.51004916  0.70485206  1
  Bi2+  Bi102  1  0.16143177  0.72397717  0.19669983  1
  Bi2+  Bi103  1  0.13998147  0.78031604  0.73092746  1
  Bi2+  Bi104  1  0.44390482  -0.02290795  0.21855824  1
  Bi2+  Bi105  1  0.33060655  0.02480497  0.70451637  1
  Bi2+  Bi106  1  0.39846359  0.23945481  0.21351696  1
  Bi2+  Bi107  1  0.29195936  0.28541864  0.76557733  1
  Bi2+  Bi108  1  0.34624427  0.50434256  0.21499401  1
  Bi2+  Bi109  1  0.37401793  0.39793079  0.68796678  1
  Bi2+  Bi110  1  0.38336126  0.69549882  0.19419443  1
  Bi2+  Bi111  1  0.30361498  0.75508507  0.67549492  1
  Bi2+  Bi112  1  0.62083875  0.07124280  0.21436707  1
  Bi2+  Bi113  1  0.62764291  -0.01865235  0.72191759  1
  Bi2+  Bi114  1  0.63935964  0.27672679  0.20842527  1
  Bi2+  Bi115  1  0.60079060  0.23084995  0.70744840  1
  Bi2+  Bi116  1  0.55296429  0.49748472  0.24187259  1
  Bi2+  Bi117  1  0.63955261  0.44138930  0.70364245  1
  Bi2+  Bi118  1  0.64593820  0.71390863  0.18826972  1
  Bi2+  Bi119  1  0.59231048  0.72836510  0.71085730  1
  Bi2+  Bi120  1  0.82355287  -0.00635985  0.19752739  1
  Bi2+  Bi121  1  0.89262885  -0.00871493  0.70596954  1
  Bi2+  Bi122  1  0.88244759  0.30371585  0.17347007  1
  Bi2+  Bi123  1  0.88076164  0.24731188  0.70347642  1
  Bi2+  Bi124  1  0.87119923  0.53282678  0.21795698  1
  Bi2+  Bi125  1  0.82417272  0.51447035  0.68779319  1
  Bi2+  Bi126  1  0.89861289  0.74258655  0.21771271  1
  Bi2+  Bi127  1  0.90598194  0.69639274  0.70297478  1
  S2-  S128  1  0.03361565  0.21818692  0.16955786  1
  S2-  S129  1  -0.02469764  0.11793937  0.65464723  1
  S2-  S130  1  -0.00850640  0.45534723  0.15666178  1
  S2-  S131  1  -0.09825213  0.38511175  0.63897663  1
  S2-  S132  1  0.00997081  0.74573127  0.13933152  1
  S2-  S133  1  0.01999063  0.62627979  0.64732837  1
  S2-  S134  1  -0.01475534  0.99368816  0.15063796  1
  S2-  S135  1  -0.08339529  0.85171562  0.64915405  1
  S2-  S136  1  0.19725521  0.07722568  0.19531814  1
  S2-  S137  1  0.26200387  0.15816808  0.64642503  1
  S2-  S138  1  0.25954154  0.29757124  0.15447235  1
  S2-  S139  1  0.12186340  0.37016263  0.63856718  1
  S2-  S140  1  0.23043328  0.52653924  0.14206073  1
  S2-  S141  1  0.25360179  0.58671895  0.65647403  1
  S2-  S142  1  0.22828302  0.86979554  0.14522931  1
  S2-  S143  1  0.13762585  0.86670254  0.63554179  1
  S2-  S144  1  0.40103225  0.10311920  0.14914118  1
  S2-  S145  1  0.53488507  0.08126486  0.66851197  1
  S2-  S146  1  0.51078931  0.29030235  0.13956701  1
  S2-  S147  1  0.47428824  0.27108313  0.64221748  1
  S2-  S148  1  0.57401229  0.56746782  0.15001011  1
  S2-  S149  1  0.49956179  0.64906419  0.64786697  1
  S2-  S150  1  0.50435593  0.78412442  0.13823057  1
  S2-  S151  1  0.58471451  0.86560627  0.64777846  1
  S2-  S152  1  0.82608239  0.14536536  0.13821085  1
  S2-  S153  1  0.75391437  0.02413135  0.65316809  1
  S2-  S154  1  0.73022534  0.39130969  0.15557854  1
  S2-  S155  1  0.73799135  0.23882979  0.64516271  1
  S2-  S156  1  0.79023746  0.64260347  0.14879625  1
  S2-  S157  1  0.73779955  0.70126090  0.65411260  1
  S2-  S158  1  0.74639149  0.87287245  0.15237847  1
  S2-  S159  1  0.76256684  0.87299882  0.72606986  1
  S2-  S160  1  0.11479297  0.06602080  0.33597580  1
  S2-  S161  1  0.02899838  0.01619107  0.86166962  1
  S2-  S162  1  0.02606211  0.25530914  0.34466621  1
  S2-  S163  1  0.09403683  0.27373664  0.85498397  1
  S2-  S164  1  0.14510709  0.45891153  0.34859043  1
  S2-  S165  1  0.14405717  0.58769098  0.85037032  1
  S2-  S166  1  0.15454465  0.85715333  0.35801414  1
  S2-  S167  1  0.11345753  0.80374404  0.83744711  1
  S2-  S168  1  0.36880374  -0.00706327  0.34896775  1
  S2-  S169  1  0.45707817  0.02477161  0.85424946  1
  S2-  S170  1  0.25630003  0.23701533  0.35212600  1
  S2-  S171  1  0.45553596  0.26666372  0.86194818  1
  S2-  S172  1  0.39424571  0.40278282  0.36203201  1
  S2-  S173  1  0.38547525  0.51171153  0.85333501  1
  S2-  S174  1  0.49462020  0.75284458  0.35741815  1
  S2-  S175  1  0.37486737  0.75412546  0.83685062  1
  S2-  S176  1  0.64778003  -0.03589531  0.34504793  1
  S2-  S177  1  0.61102923  -0.13010610  0.84727978  1
  S2-  S178  1  0.71125478  0.24669591  0.36013788  1
  S2-  S179  1  0.64100885  0.15647164  0.84246209  1
  S2-  S180  1  0.69486582  0.49585306  0.36103925  1
  S2-  S181  1  0.62303669  0.40843866  0.85571867  1
  S2-  S182  1  0.74929104  0.73117147  0.35192750  1
  S2-  S183  1  0.62146244  0.64331972  0.85660517  1
  S2-  S184  1  0.87792976  0.09434260  0.34977897  1
  S2-  S185  1  0.80727978  -0.03518029  0.83818270  1
  S2-  S186  1  0.84989790  0.24015194  0.25659076  1
  S2-  S187  1  0.87664363  0.17551405  0.85732109  1
  S2-  S188  1  0.87981097  0.39291632  0.35080024  1
  S2-  S189  1  0.86185504  0.51770890  0.84632965  1
  S2-  S190  1  0.90678572  0.88017040  0.35636805  1
  S2-  S191  1  0.90423489  0.74891661  0.84706856  1
  S2-  S192  1  0.00940241  0.11902115  0.45034072  1
  S2-  S193  1  -0.00231875  0.14919699  0.96548521  1
  S2-  S194  1  0.00637703  0.37323740  0.45462345  1
  S2-  S195  1  -0.00574682  0.39508252  0.95471922  1
  S2-  S196  1  0.00647863  0.62253350  0.44375971  1
  S2-  S197  1  -0.00509621  0.64526361  0.95531668  1
  S2-  S198  1  0.01069153  0.86845749  0.45778292  1
  S2-  S199  1  -0.00037320  0.89108860  0.96088486  1
  S2-  S200  1  0.25703203  0.11773272  0.45008699  1
  S2-  S201  1  0.25032793  0.14657355  0.94714028  1
  S2-  S202  1  0.25179873  0.37171112  0.46079016  1
  S2-  S203  1  0.24944785  0.39636131  0.96009119  1
  S2-  S204  1  0.25876073  0.61871977  0.45339823  1
  S2-  S205  1  0.24734369  0.64504374  0.95958781  1
  S2-  S206  1  0.26547763  0.86964777  0.45943223  1
  S2-  S207  1  0.24640714  0.89820616  0.94670838  1
  S2-  S208  1  0.50418399  0.12571866  0.45550976  1
  S2-  S209  1  0.49751954  0.14238030  0.96205594  1
  S2-  S210  1  0.51273138  0.36989885  0.45942955  1
  S2-  S211  1  0.49511099  0.39952174  0.96004538  1
  S2-  S212  1  0.50783515  0.61269926  0.45098092  1
  S2-  S213  1  0.49457085  0.64404058  0.95897479  1
  S2-  S214  1  0.50350989  0.87441326  0.45680984  1
  S2-  S215  1  0.49653116  0.89665935  0.95578601  1
  S2-  S216  1  0.75744208  0.12218760  0.46103742  1
  S2-  S217  1  0.74140323  0.14294026  0.95056496  1
  S2-  S218  1  0.75733118  0.36761474  0.46543946  1
  S2-  S219  1  0.75141280  0.39418180  0.95077068  1
  S2-  S220  1  0.75615019  0.62180753  0.45904618  1
  S2-  S221  1  0.75265560  0.64533053  0.95260402  1
  S2-  S222  1  0.75207249  0.87088479  0.45218172  1
  S2-  S223  1  0.74510600  0.89875709  0.95026037  1
  S2-  S224  1  0.12801242  0.02518379  0.05162512  1
  S2-  S225  1  0.13510976  -0.00597032  0.53753118  1
  S2-  S226  1  0.12509504  0.26673587  0.05446220  1
  S2-  S227  1  0.12911866  0.24343880  0.53745498  1
  S2-  S228  1  0.11680848  0.52392563  0.04351480  1
  S2-  S229  1  0.13206771  0.49907312  0.54417409  1
  S2-  S230  1  0.12579697  0.76616906  0.03913512  1
  S2-  S231  1  0.13486641  0.74293914  0.53860786  1
  S2-  S232  1  0.36803300  0.01756222  0.04405235  1
  S2-  S233  1  0.38250473  -0.00656114  0.55215376  1
  S2-  S234  1  0.36786258  0.27096730  0.04812636  1
  S2-  S235  1  0.37757330  0.24704156  0.53631031  1
  S2-  S236  1  0.37756767  0.52271829  0.05338770  1
  S2-  S237  1  0.38116628  0.49572610  0.55010741  1
  S2-  S238  1  0.36778138  0.76919131  0.04268350  1
  S2-  S239  1  0.38371461  0.74681764  0.53996655  1
  S2-  S240  1  0.61721094  0.01964063  0.06191509  1
  S2-  S241  1  0.62276076  0.00180689  0.54865714  1
  S2-  S242  1  0.62407999  0.27116276  0.03657025  1
  S2-  S243  1  0.62812617  0.24565009  0.54789331  1
  S2-  S244  1  0.62478225  0.52186925  0.03623065  1
  S2-  S245  1  0.63154161  0.49461440  0.55649837  1
  S2-  S246  1  0.62408051  0.77017266  0.03697122  1
  S2-  S247  1  0.62887652  0.74583535  0.54079953  1
  S2-  S248  1  0.87157885  0.01679549  0.03771258  1
  S2-  S249  1  0.87830757  -0.00954224  0.54575378  1
  S2-  S250  1  0.87291441  0.27005745  0.04157508  1
  S2-  S251  1  0.88443928  0.24346611  0.54433242  1
  S2-  S252  1  0.87183460  0.52284180  0.04640977  1
  S2-  S253  1  0.88301420  0.49684743  0.53818702  1
  S2-  S254  1  0.86805276  0.76917904  0.04466708  1
  S2-  S255  1  0.88075197  0.74736405  0.54059465  1
