# generated using pymatgen
data_La6Ce7Pr13Nd19Sm19(BiS2)64
_symmetry_space_group_name_H-M   'P 1'
_cell_length_a   16.10453351
_cell_length_b   16.08673952
_cell_length_c   27.47322372
_cell_angle_alpha   90.12150892
_cell_angle_beta   89.94127556
_cell_angle_gamma   89.99843211
_symmetry_Int_Tables_number   1
_chemical_formula_structural   La6Ce7Pr13Nd19Sm19(BiS2)64
_chemical_formula_sum   'La6 Ce7 Pr13 Nd19 Sm19 Bi64 S128'
_cell_volume   7117.45282008
_cell_formula_units_Z   1
loop_
 _symmetry_equiv_pos_site_id
 _symmetry_equiv_pos_as_xyz
  1  'x, y, z'
loop_
 _atom_type_symbol
 _atom_type_oxidation_number
  La3+  3.0
  Ce3+  3.0
  Pr3+  3.0
  Nd3+  3.0
  Sm3+  3.0
  Bi2+  2.0
  S2-  -2.0
loop_
 _atom_site_type_symbol
 _atom_site_label
 _atom_site_symmetry_multiplicity
 _atom_site_fract_x
 _atom_site_fract_y
 _atom_site_fract_z
 _atom_site_occupancy
  La3+  La0  1  0.02184414  0.60204763  0.57874980  1
  La3+  La1  1  0.34703139  -0.01298847  0.37925915  1
  La3+  La2  1  -0.00991536  0.86852722  0.11284441  1
  La3+  La3  1  0.89020565  0.72235158  0.43586815  1
  La3+  La4  1  0.87758883  0.76138780  0.88893956  1
  La3+  La5  1  0.51654295  0.09889121  0.58357314  1
  Ce3+  Ce6  1  0.87620000  0.25292155  0.92623018  1
  Ce3+  Ce7  1  0.76445523  0.85370028  0.55522628  1
  Ce3+  Ce8  1  0.49824555  0.12625656  0.05944662  1
  Ce3+  Ce9  1  0.39223905  0.22140578  0.44439185  1
  Ce3+  Ce10  1  0.24702107  0.37621923  0.05959917  1
  Ce3+  Ce11  1  0.13880194  0.22660984  0.44131309  1
  Ce3+  Ce12  1  0.11316857  0.75208052  0.94496243  1
  Pr3+  Pr13  1  0.39441032  0.48181693  0.42334211  1
  Pr3+  Pr14  1  0.13958500  0.72036327  0.42979277  1
  Pr3+  Pr15  1  0.37358135  -0.00059001  0.93756905  1
  Pr3+  Pr16  1  0.12147109  0.50077041  0.94304238  1
  Pr3+  Pr17  1  -0.00497632  0.12910122  0.06995774  1
  Pr3+  Pr18  1  0.51087264  0.60515866  0.56827516  1
  Pr3+  Pr19  1  0.39185340  0.73258832  0.42196222  1
  Pr3+  Pr20  1  0.24460985  0.62806951  0.06035522  1
  Pr3+  Pr21  1  0.76610384  0.60251049  0.56374404  1
  Pr3+  Pr22  1  0.62172690  0.24839182  0.93659850  1
  Pr3+  Pr23  1  0.62557790  -0.02060844  0.43928071  1
  Pr3+  Pr24  1  0.51380652  0.85059174  0.56567822  1
  Pr3+  Pr25  1  0.01286462  0.35350031  0.56258716  1
  Nd3+  Nd26  1  0.01444712  0.85172804  0.55826493  1
  Nd3+  Nd27  1  0.37454120  0.75153211  0.94323132  1
  Nd3+  Nd28  1  0.63343761  0.72582377  0.43806296  1
  Nd3+  Nd29  1  0.51279993  0.35195510  0.55723366  1
  Nd3+  Nd30  1  0.88952769  0.22388207  0.43740645  1
  Nd3+  Nd31  1  0.01263974  0.10249946  0.56028980  1
  Nd3+  Nd32  1  0.62323329  0.50399934  0.94348837  1
  Nd3+  Nd33  1  0.63553939  0.47716447  0.44323904  1
  Nd3+  Nd34  1  0.74964903  0.12750164  0.05119140  1
  Nd3+  Nd35  1  0.37324985  0.50283102  0.94382290  1
  Nd3+  Nd36  1  0.76810958  0.10094530  0.56692588  1
  Nd3+  Nd37  1  0.26610304  0.35274340  0.55435747  1
  Nd3+  Nd38  1  0.26471152  0.85326408  0.55277157  1
  Nd3+  Nd39  1  0.24517112  0.87665636  0.06051370  1
  Nd3+  Nd40  1  0.49796159  0.87701815  0.06069793  1
  Nd3+  Nd41  1  0.75246704  0.62717124  0.06313461  1
  Nd3+  Nd42  1  0.49838325  0.62700793  0.06618206  1
  Nd3+  Nd43  1  0.12236216  0.24928535  0.94170893  1
  Nd3+  Nd44  1  0.75270460  0.87555363  0.06663249  1
  Sm3+  Sm45  1  0.26558471  0.60107129  0.55877080  1
  Sm3+  Sm46  1  0.11782520  -0.00145451  0.95087506  1
  Sm3+  Sm47  1  0.49723007  0.37626836  0.05605948  1
  Sm3+  Sm48  1  0.88505236  -0.03194248  0.43076834  1
  Sm3+  Sm49  1  0.76404807  0.35445268  0.55604180  1
  Sm3+  Sm50  1  0.87331383  0.50113992  0.93628510  1
  Sm3+  Sm51  1  0.62903551  0.74971340  0.94699600  1
  Sm3+  Sm52  1  0.74802604  0.37580734  0.05096364  1
  Sm3+  Sm53  1  0.37277273  0.24885034  0.94645004  1
  Sm3+  Sm54  1  0.88987557  0.47902511  0.43920054  1
  Sm3+  Sm55  1  0.26566766  0.09950217  0.55424614  1
  Sm3+  Sm56  1  0.62544765  -0.00144781  0.94535015  1
  Sm3+  Sm57  1  -0.00431623  0.37388675  0.06183074  1
  Sm3+  Sm58  1  -0.00549206  0.62910827  0.05937272  1
  Sm3+  Sm59  1  0.13927199  0.47805302  0.44107754  1
  Sm3+  Sm60  1  0.87528447  -0.00258232  0.94641792  1
  Sm3+  Sm61  1  0.13305898  -0.02516481  0.43911649  1
  Sm3+  Sm62  1  0.64073659  0.22533297  0.44626321  1
  Sm3+  Sm63  1  0.24689697  0.12489821  0.05812447  1
  Bi2+  Bi64  1  -0.01961095  0.17368330  0.29561979  1
  Bi2+  Bi65  1  -0.04919112  0.14158903  0.80910073  1
  Bi2+  Bi66  1  -0.00036477  0.39594162  0.29759319  1
  Bi2+  Bi67  1  -0.00423484  0.36645263  0.79012517  1
  Bi2+  Bi68  1  0.00503395  0.66291783  0.30739185  1
  Bi2+  Bi69  1  0.00558734  0.63634389  0.78977640  1
  Bi2+  Bi70  1  -0.01167269  0.89929712  0.29558367  1
  Bi2+  Bi71  1  0.00544327  0.95404480  0.78868184  1
  Bi2+  Bi72  1  0.24309122  0.21322553  0.28215032  1
  Bi2+  Bi73  1  0.23611586  0.09186712  0.79296267  1
  Bi2+  Bi74  1  0.35169136  0.37510788  0.30639358  1
  Bi2+  Bi75  1  0.22483252  0.40513284  0.81556808  1
  Bi2+  Bi76  1  0.23621821  0.52541132  0.28410696  1
  Bi2+  Bi77  1  0.23724842  0.63155926  0.73578712  1
  Bi2+  Bi78  1  0.21921380  0.88739682  0.27398623  1
  Bi2+  Bi79  1  0.25337750  0.83013786  0.75668115  1
  Bi2+  Bi80  1  0.50082305  0.12262427  0.28796128  1
  Bi2+  Bi81  1  0.49974798  0.11820866  0.80929818  1
  Bi2+  Bi82  1  0.55894475  0.36040781  0.28730751  1
  Bi2+  Bi83  1  0.43565381  0.42352054  0.76564130  1
  Bi2+  Bi84  1  0.49261182  0.60680598  0.29132934  1
  Bi2+  Bi85  1  0.50253041  0.60472936  0.80209964  1
  Bi2+  Bi86  1  0.48884442  0.86282279  0.28767139  1
  Bi2+  Bi87  1  0.45190104  0.86878369  0.78441196  1
  Bi2+  Bi88  1  0.71467749  0.12276118  0.29475602  1
  Bi2+  Bi89  1  0.77395563  0.22785454  0.80057453  1
  Bi2+  Bi90  1  0.79937432  0.39662737  0.31069250  1
  Bi2+  Bi91  1  0.71559074  0.38933720  0.73849354  1
  Bi2+  Bi92  1  0.74382953  0.58917809  0.29861459  1
  Bi2+  Bi93  1  0.73698549  0.61760471  0.79424073  1
  Bi2+  Bi94  1  0.70254625  0.92329308  0.29495618  1
  Bi2+  Bi95  1  0.73715767  0.94119076  0.78904573  1
  Bi2+  Bi96  1  0.11332864  0.10679288  0.21892743  1
  Bi2+  Bi97  1  0.10163748  0.04878762  0.71344739  1
  Bi2+  Bi98  1  0.13464418  0.30237889  0.20120231  1
  Bi2+  Bi99  1  0.13560354  0.24197474  0.70665256  1
  Bi2+  Bi100  1  0.08315483  0.49557362  0.20872177  1
  Bi2+  Bi101  1  0.13780449  0.44167206  0.71405523  1
  Bi2+  Bi102  1  0.10957981  0.69852491  0.21728105  1
  Bi2+  Bi103  1  0.10740767  0.78470942  0.68734953  1
  Bi2+  Bi104  1  0.38670087  -0.00010541  0.17478243  1
  Bi2+  Bi105  1  0.35123810  0.01846640  0.69464274  1
  Bi2+  Bi106  1  0.42740559  0.26142593  0.21574244  1
  Bi2+  Bi107  1  0.32318187  0.25860108  0.75760354  1
  Bi2+  Bi108  1  0.38415702  0.48265636  0.20655382  1
  Bi2+  Bi109  1  0.37859075  0.52994772  0.67081944  1
  Bi2+  Bi110  1  0.37648273  0.74063049  0.19131364  1
  Bi2+  Bi111  1  0.39853182  0.72861940  0.70053488  1
  Bi2+  Bi112  1  0.62943369  0.02239591  0.20741187  1
  Bi2+  Bi113  1  0.62020846  -0.01853690  0.70800803  1
  Bi2+  Bi114  1  0.69335450  0.26688223  0.21118017  1
  Bi2+  Bi115  1  0.59065170  0.23151013  0.71479992  1
  Bi2+  Bi116  1  0.66332288  0.47591790  0.21678879  1
  Bi2+  Bi117  1  0.57169965  0.50887012  0.69797726  1
  Bi2+  Bi118  1  0.66208554  0.74798204  0.24722491  1
  Bi2+  Bi119  1  0.61367137  0.76608166  0.76672200  1
  Bi2+  Bi120  1  0.84409296  0.02316953  0.21092351  1
  Bi2+  Bi121  1  0.82212708  0.08125383  0.72729859  1
  Bi2+  Bi122  1  0.89155340  0.29044197  0.21858681  1
  Bi2+  Bi123  1  0.93856998  0.25095238  0.70178331  1
  Bi2+  Bi124  1  0.88527528  0.50933361  0.22095077  1
  Bi2+  Bi125  1  0.86813038  0.50697524  0.69492075  1
  Bi2+  Bi126  1  0.84761622  0.72574538  0.21659807  1
  Bi2+  Bi127  1  0.84617719  0.76656850  0.68848362  1
  S2-  S128  1  -0.01162443  0.03546561  0.15548882  1
  S2-  S129  1  -0.09759746  0.11114314  0.63664366  1
  S2-  S130  1  -0.01206383  0.26585725  0.13744772  1
  S2-  S131  1  0.01275882  0.45628106  0.64318630  1
  S2-  S132  1  -0.01520738  0.69643563  0.15002200  1
  S2-  S133  1  -0.03702400  0.64616517  0.67387117  1
  S2-  S134  1  0.07968731  0.86447424  0.20491144  1
  S2-  S135  1  -0.02291411  0.87337589  0.65502482  1
  S2-  S136  1  0.25446743  0.11073751  0.15485116  1
  S2-  S137  1  0.22762331  0.11516546  0.64923835  1
  S2-  S138  1  0.26251015  0.38788045  0.15495282  1
  S2-  S139  1  0.27226840  0.39030377  0.65049818  1
  S2-  S140  1  0.25328043  0.64957837  0.15889536  1
  S2-  S141  1  0.17162475  0.63545417  0.63930881  1
  S2-  S142  1  0.27597565  0.87704044  0.15788384  1
  S2-  S143  1  0.24919177  0.87667081  0.65273362  1
  S2-  S144  1  0.51393150  0.12437469  0.15613819  1
  S2-  S145  1  0.44415245  0.14781526  0.67862222  1
  S2-  S146  1  0.49576492  0.37874868  0.15333634  1
  S2-  S147  1  0.53642241  0.34652943  0.65523341  1
  S2-  S148  1  0.47972914  0.62077401  0.16457545  1
  S2-  S149  1  0.52706146  0.72862940  0.64013382  1
  S2-  S150  1  0.49674489  0.86136243  0.15893324  1
  S2-  S151  1  0.49361498  0.95374553  0.64947884  1
  S2-  S152  1  0.76136294  0.13601995  0.14906146  1
  S2-  S153  1  0.66268587  0.11758951  0.64756510  1
  S2-  S154  1  0.75358774  0.39130711  0.14766919  1
  S2-  S155  1  0.79910310  0.35467834  0.65182234  1
  S2-  S156  1  0.72386619  0.66328727  0.15866464  1
  S2-  S157  1  0.75323949  0.62001500  0.66344601  1
  S2-  S158  1  0.82968780  0.87922343  0.15664966  1
  S2-  S159  1  0.73071378  0.87892035  0.64920194  1
  S2-  S160  1  0.17738049  -0.00007850  0.34470120  1
  S2-  S161  1  0.12768867  0.00039266  0.85308512  1
  S2-  S162  1  0.11286162  0.26157837  0.34752084  1
  S2-  S163  1  0.11863532  0.27547503  0.84444923  1
  S2-  S164  1  0.12834892  0.57776393  0.36150898  1
  S2-  S165  1  0.10495476  0.51966992  0.84404442  1
  S2-  S166  1  0.11781476  0.79580096  0.33782138  1
  S2-  S167  1  0.05053719  0.74791011  0.85381836  1
  S2-  S168  1  0.36071664  -0.01066160  0.26930607  1
  S2-  S169  1  0.37324326  0.00585749  0.83851527  1
  S2-  S170  1  0.37080994  0.16034630  0.35348378  1
  S2-  S171  1  0.38970439  0.23605046  0.85036268  1
  S2-  S172  1  0.36207267  0.60400160  0.34896037  1
  S2-  S173  1  0.36320590  0.51284514  0.84643213  1
  S2-  S174  1  0.34357639  0.82321342  0.33547800  1
  S2-  S175  1  0.42079692  0.74253641  0.84913963  1
  S2-  S176  1  0.52151424  -0.01786525  0.35729577  1
  S2-  S177  1  0.60682418  0.01046155  0.84842155  1
  S2-  S178  1  0.59481672  0.22152289  0.35171742  1
  S2-  S179  1  0.60861904  0.24277554  0.83702651  1
  S2-  S180  1  0.54358812  0.48829461  0.35885132  1
  S2-  S181  1  0.63673608  0.51178295  0.84507756  1
  S2-  S182  1  0.53781090  0.73316125  0.35438871  1
  S2-  S183  1  0.70044213  0.75388524  0.85854568  1
  S2-  S184  1  0.93678474  0.03065574  0.34370227  1
  S2-  S185  1  0.86820050  -0.06877177  0.85553938  1
  S2-  S186  1  0.83094483  0.23085652  0.34532649  1
  S2-  S187  1  0.88166709  0.38023104  0.86029149  1
  S2-  S188  1  0.89088101  0.59289711  0.36373028  1
  S2-  S189  1  0.87321927  0.59250674  0.85218379  1
  S2-  S190  1  0.88551254  0.83008996  0.35413191  1
  S2-  S191  1  0.88068623  0.75143139  0.78031682  1
  S2-  S192  1  0.01283907  0.10134294  0.45480996  1
  S2-  S193  1  -0.00238962  0.12500387  0.95686960  1
  S2-  S194  1  0.01205394  0.35517603  0.45419669  1
  S2-  S195  1  0.00005615  0.37544706  0.95933706  1
  S2-  S196  1  0.01470750  0.59682906  0.46555697  1
  S2-  S197  1  -0.00538571  0.62351379  0.95780038  1
  S2-  S198  1  0.01457737  0.85238438  0.45261368  1
  S2-  S199  1  -0.00378038  0.87684808  0.95302800  1
  S2-  S200  1  0.25914956  0.09887651  0.45230933  1
  S2-  S201  1  0.24741109  0.12453207  0.95321584  1
  S2-  S202  1  0.26535814  0.35354942  0.44786772  1
  S2-  S203  1  0.25034872  0.37429167  0.95406771  1
  S2-  S204  1  0.26562053  0.59981739  0.45659590  1
  S2-  S205  1  0.24682244  0.62865872  0.95328654  1
  S2-  S206  1  0.26142288  0.85704703  0.44761169  1
  S2-  S207  1  0.24582863  0.87492953  0.95302371  1
  S2-  S208  1  0.51881223  0.11116321  0.46746902  1
  S2-  S209  1  0.49819145  0.12339080  0.95453226  1
  S2-  S210  1  0.51394859  0.34899305  0.45339715  1
  S2-  S211  1  0.49634194  0.37583096  0.95126411  1
  S2-  S212  1  0.51222390  0.60335528  0.46143062  1
  S2-  S213  1  0.49976681  0.62869364  0.95925101  1
  S2-  S214  1  0.51342829  0.84735119  0.45996071  1
  S2-  S215  1  0.50261342  0.87430245  0.95399103  1
  S2-  S216  1  0.76418253  0.09946905  0.45333804  1
  S2-  S217  1  0.74994467  0.12337343  0.94563699  1
  S2-  S218  1  0.76385081  0.35470422  0.45214625  1
  S2-  S219  1  0.74404042  0.37646371  0.94930449  1
  S2-  S220  1  0.75868380  0.59931497  0.45699528  1
  S2-  S221  1  0.74866172  0.62291265  0.95871955  1
  S2-  S222  1  0.75591267  0.85258328  0.44974771  1
  S2-  S223  1  0.74709509  0.87765665  0.96055391  1
  S2-  S224  1  0.12223202  0.00091139  0.05427294  1
  S2-  S225  1  0.13668473  -0.02059690  0.54517541  1
  S2-  S226  1  0.12596205  0.25004951  0.04634830  1
  S2-  S227  1  0.13814986  0.22765053  0.54718815  1
  S2-  S228  1  0.11780104  0.50105379  0.05159923  1
  S2-  S229  1  0.14291206  0.47527968  0.54312511  1
  S2-  S230  1  0.11800034  0.75525904  0.05224949  1
  S2-  S231  1  0.13928796  0.73030157  0.53701517  1
  S2-  S232  1  0.37200687  0.00103951  0.04408861  1
  S2-  S233  1  0.38486823  -0.02004891  0.55045774  1
  S2-  S234  1  0.37247258  0.25064042  0.05066411  1
  S2-  S235  1  0.38802784  0.22601229  0.55147752  1
  S2-  S236  1  0.37411146  0.50272091  0.04937915  1
  S2-  S237  1  0.38956964  0.47727793  0.53812154  1
  S2-  S238  1  0.37337610  0.75169904  0.04858492  1
  S2-  S239  1  0.38262797  0.72556482  0.54395660  1
  S2-  S240  1  0.62500066  0.00048669  0.04973216  1
  S2-  S241  1  0.64236054  -0.02107637  0.54472705  1
  S2-  S242  1  0.62279668  0.25368291  0.04462294  1
  S2-  S243  1  0.64357507  0.23205234  0.54877132  1
  S2-  S244  1  0.62224612  0.50081664  0.04996592  1
  S2-  S245  1  0.63827632  0.47710374  0.54892113  1
  S2-  S246  1  0.62346178  0.75187761  0.05124452  1
  S2-  S247  1  0.64343777  0.72527763  0.54214286  1
  S2-  S248  1  0.87304580  0.00114326  0.04829685  1
  S2-  S249  1  0.89066822  -0.02411539  0.53670267  1
  S2-  S250  1  0.86984196  0.25452283  0.03555347  1
  S2-  S251  1  0.88756033  0.23247434  0.54115933  1
  S2-  S252  1  0.87479576  0.49922929  0.04840687  1
  S2-  S253  1  0.88750080  0.47704831  0.54214396  1
  S2-  S254  1  0.87281229  0.75210183  0.05345111  1
  S2-  S255  1  0.89032134  0.72687314  0.54601414  1
