# generated using pymatgen
data_La6Ce7Pr13Nd19Sm19(BiS2)64
_symmetry_space_group_name_H-M   'P 1'
_cell_length_a   16.04093637
_cell_length_b   16.07019762
_cell_length_c   27.38265741
_cell_angle_alpha   90.11275478
_cell_angle_beta   90.01771341
_cell_angle_gamma   90.06011629
_symmetry_Int_Tables_number   1
_chemical_formula_structural   La6Ce7Pr13Nd19Sm19(BiS2)64
_chemical_formula_sum   'La6 Ce7 Pr13 Nd19 Sm19 Bi64 S128'
_cell_volume   7058.71139009
_cell_formula_units_Z   1
loop_
 _symmetry_equiv_pos_site_id
 _symmetry_equiv_pos_as_xyz
  1  'x, y, z'
loop_
 _atom_type_symbol
 _atom_type_oxidation_number
  La3+  3.0
  Ce3+  3.0
  Pr3+  3.0
  Nd3+  3.0
  Sm3+  3.0
  Bi2+  2.0
  S2-  -2.0
loop_
 _atom_site_type_symbol
 _atom_site_label
 _atom_site_symmetry_multiplicity
 _atom_site_fract_x
 _atom_site_fract_y
 _atom_site_fract_z
 _atom_site_occupancy
  La3+  La0  1  0.52342321  0.87468128  0.58864654  1
  La3+  La1  1  0.87285400  0.00610105  0.92311319  1
  La3+  La2  1  0.38275597  0.01564538  0.88838574  1
  La3+  La3  1  0.40434798  -0.01238932  0.42483791  1
  La3+  La4  1  0.24606388  0.39117612  0.10900460  1
  La3+  La5  1  0.11826923  0.49663868  0.93053038  1
  Ce3+  Ce6  1  0.15157898  0.24679647  0.42993369  1
  Ce3+  Ce7  1  0.12054712  0.75304203  0.94257146  1
  Ce3+  Ce8  1  -0.00527865  0.87807581  0.06138911  1
  Ce3+  Ce9  1  0.89594515  -0.00037390  0.43782717  1
  Ce3+  Ce10  1  0.36674976  0.24980047  0.94822337  1
  Ce3+  Ce11  1  0.89955312  0.49657752  0.42580529  1
  Ce3+  Ce12  1  0.14484641  0.75067025  0.43717104  1
  Pr3+  Pr13  1  0.15093405  -0.00675436  0.40964971  1
  Pr3+  Pr14  1  0.39601833  0.49822366  0.43380487  1
  Pr3+  Pr15  1  0.77284457  0.12646829  0.55366475  1
  Pr3+  Pr16  1  0.02392887  0.61761748  0.56506119  1
  Pr3+  Pr17  1  0.12529563  0.25135193  0.95634990  1
  Pr3+  Pr18  1  0.02447560  0.12123711  0.56349387  1
  Pr3+  Pr19  1  0.26960050  0.87541517  0.55974733  1
  Pr3+  Pr20  1  0.27276140  0.37109395  0.56124236  1
  Pr3+  Pr21  1  0.36681859  0.49849533  0.90043327  1
  Pr3+  Pr22  1  0.52162866  0.12404886  0.56755241  1
  Pr3+  Pr23  1  0.52030459  0.37767487  0.57212925  1
  Pr3+  Pr24  1  0.77500759  0.61923012  0.55858594  1
  Pr3+  Pr25  1  0.27196744  0.12107048  0.55115175  1
  Nd3+  Nd26  1  -0.00942482  0.37648739  0.06880379  1
  Nd3+  Nd27  1  0.26746493  0.62270876  0.56356616  1
  Nd3+  Nd28  1  -0.00443821  0.62280055  0.05785925  1
  Nd3+  Nd29  1  0.87018824  0.25130083  0.93989516  1
  Nd3+  Nd30  1  0.89630224  0.74968418  0.44439886  1
  Nd3+  Nd31  1  0.39955508  0.74705802  0.44844881  1
  Nd3+  Nd32  1  0.51565860  0.61782336  0.57264405  1
  Nd3+  Nd33  1  0.61475539  0.75154053  0.93821300  1
  Nd3+  Nd34  1  0.12501645  0.00366042  0.93806118  1
  Nd3+  Nd35  1  0.86832699  0.75199422  0.94304956  1
  Nd3+  Nd36  1  0.25227805  0.12184094  0.07790763  1
  Nd3+  Nd37  1  -0.00553407  0.12419314  0.06784073  1
  Nd3+  Nd38  1  0.36495347  0.74954892  0.92472212  1
  Nd3+  Nd39  1  0.77474872  0.37510906  0.55414708  1
  Nd3+  Nd40  1  0.49022560  0.37935755  0.06288890  1
  Nd3+  Nd41  1  0.39966634  0.24771950  0.43323962  1
  Nd3+  Nd42  1  0.77248221  0.87335165  0.56830340  1
  Nd3+  Nd43  1  0.86940898  0.50033882  0.93069449  1
  Nd3+  Nd44  1  0.74244775  0.12245540  0.05842795  1
  Sm3+  Sm45  1  0.61596452  0.25149507  0.94895876  1
  Sm3+  Sm46  1  0.63993095  0.24966816  0.44016895  1
  Sm3+  Sm47  1  0.24691433  0.87678620  0.05637434  1
  Sm3+  Sm48  1  0.49043542  0.62359797  0.05141278  1
  Sm3+  Sm49  1  0.49014070  0.87383540  0.05525141  1
  Sm3+  Sm50  1  0.61407118  0.00056840  0.94343509  1
  Sm3+  Sm51  1  0.02862456  0.36848103  0.57498577  1
  Sm3+  Sm52  1  0.90116340  0.24827097  0.43682742  1
  Sm3+  Sm53  1  0.64523881  0.74778591  0.45216613  1
  Sm3+  Sm54  1  0.14490514  0.49491676  0.43352398  1
  Sm3+  Sm55  1  0.48986041  0.12606089  0.06157865  1
  Sm3+  Sm56  1  0.64791737  0.49803593  0.43220532  1
  Sm3+  Sm57  1  0.74254546  0.62619245  0.05237705  1
  Sm3+  Sm58  1  0.74601595  0.37675976  0.06021993  1
  Sm3+  Sm59  1  0.61475935  0.49873494  0.93682061  1
  Sm3+  Sm60  1  0.64459523  -0.00411132  0.44555989  1
  Sm3+  Sm61  1  0.74322327  0.87669884  0.05082761  1
  Sm3+  Sm62  1  0.02242848  0.87963481  0.55997236  1
  Sm3+  Sm63  1  0.24512342  0.62112036  0.05394139  1
  Bi2+  Bi64  1  -0.02929675  0.15046947  0.30022295  1
  Bi2+  Bi65  1  -0.00408542  0.13470781  0.79519125  1
  Bi2+  Bi66  1  -0.05088947  0.41385573  0.29217646  1
  Bi2+  Bi67  1  -0.05730621  0.35215625  0.79285621  1
  Bi2+  Bi68  1  -0.04916709  0.65767853  0.26098817  1
  Bi2+  Bi69  1  -0.05211281  0.61969819  0.79522177  1
  Bi2+  Bi70  1  -0.07734899  0.87853919  0.28727223  1
  Bi2+  Bi71  1  -0.00218940  0.88165231  0.78106442  1
  Bi2+  Bi72  1  0.24703605  0.13319644  0.28466084  1
  Bi2+  Bi73  1  0.23098294  0.18401159  0.80485008  1
  Bi2+  Bi74  1  0.20732341  0.37569102  0.29889377  1
  Bi2+  Bi75  1  0.29970232  0.38174821  0.78034629  1
  Bi2+  Bi76  1  0.28323200  0.63225301  0.29197008  1
  Bi2+  Bi77  1  0.23231919  0.63813364  0.79011346  1
  Bi2+  Bi78  1  0.27955279  0.86635857  0.28759172  1
  Bi2+  Bi79  1  0.23716321  0.89512719  0.78927142  1
  Bi2+  Bi80  1  0.49461852  0.07834406  0.27761630  1
  Bi2+  Bi81  1  0.58916137  0.13043760  0.78126400  1
  Bi2+  Bi82  1  0.47681031  0.37682235  0.29210143  1
  Bi2+  Bi83  1  0.49653385  0.35007182  0.78644710  1
  Bi2+  Bi84  1  0.48455302  0.63495498  0.29587815  1
  Bi2+  Bi85  1  0.58472426  0.61711914  0.79024632  1
  Bi2+  Bi86  1  0.52752307  0.85487689  0.29786057  1
  Bi2+  Bi87  1  0.49986496  0.87752658  0.77933114  1
  Bi2+  Bi88  1  0.69082812  0.11818261  0.28344782  1
  Bi2+  Bi89  1  0.76569608  0.04308486  0.80113249  1
  Bi2+  Bi90  1  0.66853368  0.31232755  0.30679817  1
  Bi2+  Bi91  1  0.74964588  0.35382936  0.81074434  1
  Bi2+  Bi92  1  0.68924306  0.58853836  0.28730456  1
  Bi2+  Bi93  1  0.76080470  0.55437068  0.81941225  1
  Bi2+  Bi94  1  0.72657651  0.86796908  0.29685801  1
  Bi2+  Bi95  1  0.77929619  0.85128002  0.78839717  1
  Bi2+  Bi96  1  0.10614004  -0.00645815  0.20615574  1
  Bi2+  Bi97  1  0.11513012  0.10868969  0.70477167  1
  Bi2+  Bi98  1  0.08899637  0.25813647  0.20585528  1
  Bi2+  Bi99  1  0.08917040  0.30578239  0.72237012  1
  Bi2+  Bi100  1  0.10790830  0.54494774  0.21248228  1
  Bi2+  Bi101  1  0.12338123  0.51713430  0.70417581  1
  Bi2+  Bi102  1  0.12977206  0.74420414  0.26103195  1
  Bi2+  Bi103  1  0.05072183  0.72394558  0.71790403  1
  Bi2+  Bi104  1  0.36392464  -0.03217134  0.20113784  1
  Bi2+  Bi105  1  0.34710236  -0.00670025  0.67917312  1
  Bi2+  Bi106  1  0.45616427  0.23577915  0.21224792  1
  Bi2+  Bi107  1  0.37934575  0.23948460  0.71324478  1
  Bi2+  Bi108  1  0.37886944  0.51670448  0.21373358  1
  Bi2+  Bi109  1  0.41514512  0.49136485  0.70965915  1
  Bi2+  Bi110  1  0.39461545  0.73478992  0.20755503  1
  Bi2+  Bi111  1  0.32434071  0.74399961  0.70881523  1
  Bi2+  Bi112  1  0.62594985  -0.02270501  0.21359601  1
  Bi2+  Bi113  1  0.66070647  -0.00518204  0.70573399  1
  Bi2+  Bi114  1  0.65146524  0.24009412  0.19201811  1
  Bi2+  Bi115  1  0.57297088  0.23447965  0.68148596  1
  Bi2+  Bi116  1  0.62424881  0.43495926  0.21457134  1
  Bi2+  Bi117  1  0.65517562  0.40695247  0.70650618  1
  Bi2+  Bi118  1  0.61008594  0.70044073  0.20385438  1
  Bi2+  Bi119  1  0.70959492  0.71218891  0.72132167  1
  Bi2+  Bi120  1  0.86416711  0.00875009  0.19618031  1
  Bi2+  Bi121  1  0.90108189  -0.00714771  0.70465840  1
  Bi2+  Bi122  1  0.84995047  0.29306893  0.22681133  1
  Bi2+  Bi123  1  0.77959329  0.23411390  0.71908677  1
  Bi2+  Bi124  1  0.81926743  0.49200310  0.21506466  1
  Bi2+  Bi125  1  0.87484418  0.49356626  0.71558599  1
  Bi2+  Bi126  1  0.80895769  0.76761057  0.20881309  1
  Bi2+  Bi127  1  0.88173368  0.80130156  0.68066661  1
  S2-  S128  1  -0.00483698  0.11720526  0.16806855  1
  S2-  S129  1  0.01392123  0.23414767  0.64279928  1
  S2-  S130  1  0.07883007  0.39956428  0.15492329  1
  S2-  S131  1  -0.01057386  0.49773281  0.64006380  1
  S2-  S132  1  -0.00372014  0.62698215  0.15695578  1
  S2-  S133  1  0.14935011  0.64132557  0.64006710  1
  S2-  S134  1  -0.00948957  0.89342227  0.15823067  1
  S2-  S135  1  0.03429810  0.99229183  0.63648702  1
  S2-  S136  1  0.19579014  0.12236962  0.17645134  1
  S2-  S137  1  0.26064368  0.14333268  0.65215770  1
  S2-  S138  1  0.23946540  0.32152361  0.20913999  1
  S2-  S139  1  0.16658198  0.38727098  0.64234919  1
  S2-  S140  1  0.24013565  0.55915822  0.14727303  1
  S2-  S141  1  0.37455492  0.61626922  0.64510599  1
  S2-  S142  1  0.22884878  0.90177764  0.15433805  1
  S2-  S143  1  0.23360071  0.86977299  0.65965469  1
  S2-  S144  1  0.40038547  0.11769824  0.14527405  1
  S2-  S145  1  0.50826120  0.02220752  0.64935687  1
  S2-  S146  1  0.41263217  0.38406022  0.15194245  1
  S2-  S147  1  0.38653246  0.36609491  0.64175401  1
  S2-  S148  1  0.49025820  0.61404223  0.14955499  1
  S2-  S149  1  0.55408659  0.50320692  0.64620109  1
  S2-  S150  1  0.47384779  0.86671201  0.15362773  1
  S2-  S151  1  0.46545928  0.81264105  0.68417574  1
  S2-  S152  1  0.78596833  0.13043409  0.15354482  1
  S2-  S153  1  0.78277170  0.09683358  0.65207651  1
  S2-  S154  1  0.85581973  0.37794212  0.13653027  1
  S2-  S155  1  0.80671379  0.35882309  0.65201932  1
  S2-  S156  1  0.74605446  0.63074888  0.14943466  1
  S2-  S157  1  0.77753690  0.60139884  0.65867374  1
  S2-  S158  1  0.74510404  0.89941027  0.14763775  1
  S2-  S159  1  0.67307591  0.86071411  0.65031106  1
  S2-  S160  1  0.09785427  0.04978801  0.31324622  1
  S2-  S161  1  0.21670743  0.01920449  0.85116528  1
  S2-  S162  1  0.08268640  0.27007981  0.33823570  1
  S2-  S163  1  0.09826226  0.24354373  0.85604943  1
  S2-  S164  1  0.02876191  0.50738075  0.35628318  1
  S2-  S165  1  0.21460279  0.48976489  0.84383883  1
  S2-  S166  1  0.13906599  0.83884386  0.35278894  1
  S2-  S167  1  0.15878972  0.76863921  0.84769700  1
  S2-  S168  1  0.29431013  0.01641193  0.34465088  1
  S2-  S169  1  0.37812037  0.00265030  0.77135572  1
  S2-  S170  1  0.28953131  0.24664179  0.35055028  1
  S2-  S171  1  0.37485308  0.18698484  0.85695575  1
  S2-  S172  1  0.26745981  0.49483561  0.35964392  1
  S2-  S173  1  0.36984086  0.64293158  0.84206870  1
  S2-  S174  1  0.40180163  0.82984418  0.36069102  1
  S2-  S175  1  0.37661655  0.85385539  0.84414167  1
  S2-  S176  1  0.55039890  -0.00588106  0.36343732  1
  S2-  S177  1  0.55169121  -0.00107989  0.85217869  1
  S2-  S178  1  0.52889230  0.25138569  0.36342252  1
  S2-  S179  1  0.61739506  0.25381546  0.85117230  1
  S2-  S180  1  0.52187782  0.50086814  0.36110851  1
  S2-  S181  1  0.52515073  0.48452509  0.85246372  1
  S2-  S182  1  0.64535759  0.74847776  0.35379958  1
  S2-  S183  1  0.59051933  0.76380567  0.84010577  1
  S2-  S184  1  0.87551257  0.02695742  0.34196795  1
  S2-  S185  1  1.00913495  -0.00435506  0.85690858  1
  S2-  S186  1  0.86391838  0.27548187  0.34143298  1
  S2-  S187  1  0.86246949  0.15151801  0.85881865  1
  S2-  S188  1  0.77046526  0.50432031  0.35740136  1
  S2-  S189  1  0.98966147  0.48415466  0.85707064  1
  S2-  S190  1  0.89611394  0.74052243  0.34530679  1
  S2-  S191  1  0.89903082  0.77284233  0.84657537  1
  S2-  S192  1  0.02266765  0.12122314  0.44751419  1
  S2-  S193  1  -0.00429429  0.12800526  0.96202460  1
  S2-  S194  1  0.02309746  0.36836285  0.45360685  1
  S2-  S195  1  -0.00908938  0.37233029  0.96164993  1
  S2-  S196  1  0.02194849  0.62735825  0.45614567  1
  S2-  S197  1  -0.00754497  0.62842411  0.95222801  1
  S2-  S198  1  0.01932687  0.87691208  0.45450078  1
  S2-  S199  1  -0.00558850  0.87548910  0.95655813  1
  S2-  S200  1  0.27461907  0.11737819  0.44775241  1
  S2-  S201  1  0.24677598  0.12451967  0.96663494  1
  S2-  S202  1  0.27271965  0.37063180  0.45543044  1
  S2-  S203  1  0.25023744  0.37622300  0.94580122  1
  S2-  S204  1  0.26918518  0.62774184  0.45614068  1
  S2-  S205  1  0.24497985  0.62428022  0.95133251  1
  S2-  S206  1  0.27017924  0.87225401  0.45447305  1
  S2-  S207  1  0.24573884  0.87535708  0.95396354  1
  S2-  S208  1  0.52342944  0.12079068  0.46130022  1
  S2-  S209  1  0.49514622  0.12496936  0.95852928  1
  S2-  S210  1  0.52352645  0.37539635  0.46284642  1
  S2-  S211  1  0.49350525  0.37559983  0.95697403  1
  S2-  S212  1  0.52378191  0.62460433  0.46226035  1
  S2-  S213  1  0.49260296  0.62384053  0.94936225  1
  S2-  S214  1  0.52671476  0.86943635  0.46859112  1
  S2-  S215  1  0.49116469  0.87571341  0.95272160  1
  S2-  S216  1  0.76630498  0.12605253  0.44696970  1
  S2-  S217  1  0.73696278  0.12556891  0.95431407  1
  S2-  S218  1  0.76965895  0.36689255  0.45040649  1
  S2-  S219  1  0.74205193  0.37631445  0.95568989  1
  S2-  S220  1  0.77085488  0.62653990  0.45394551  1
  S2-  S221  1  0.74064530  0.62548249  0.94856050  1
  S2-  S222  1  0.76968739  0.87345150  0.45802950  1
  S2-  S223  1  0.74197579  0.87873149  0.94610732  1
  S2-  S224  1  0.12162084  0.00203023  0.04931283  1
  S2-  S225  1  0.14615840  -0.00225714  0.53495181  1
  S2-  S226  1  0.12266942  0.25080283  0.06215986  1
  S2-  S227  1  0.14702589  0.24549856  0.53798906  1
  S2-  S228  1  0.11993320  0.49888532  0.04236659  1
  S2-  S229  1  0.14611317  0.49576810  0.53715537  1
  S2-  S230  1  0.12179141  0.74941174  0.05081618  1
  S2-  S231  1  0.14107544  0.75464664  0.54181977  1
  S2-  S232  1  0.37114638  -0.00365817  0.04926778  1
  S2-  S233  1  0.39830882  -0.00451756  0.54255247  1
  S2-  S234  1  0.36625050  0.25480489  0.05273445  1
  S2-  S235  1  0.39942713  0.24526820  0.54060187  1
  S2-  S236  1  0.36798629  0.50165409  0.04732688  1
  S2-  S237  1  0.39425917  0.50030944  0.53995069  1
  S2-  S238  1  0.36759421  0.74820285  0.04421064  1
  S2-  S239  1  0.39711099  0.75057793  0.55205767  1
  S2-  S240  1  0.61417943  -0.00038651  0.04913741  1
  S2-  S241  1  0.64974100  -0.00150840  0.54796273  1
  S2-  S242  1  0.61789818  0.25201447  0.05331378  1
  S2-  S243  1  0.64653148  0.25122931  0.54520132  1
  S2-  S244  1  0.62032373  0.50094928  0.04512705  1
  S2-  S245  1  0.64967092  0.49788125  0.53907247  1
  S2-  S246  1  0.61807308  0.75084072  0.04483642  1
  S2-  S247  1  0.64557773  0.74132442  0.55536460  1
  S2-  S248  1  0.86760859  0.00062421  0.04067419  1
  S2-  S249  1  0.89321364  -0.00340876  0.54296865  1
  S2-  S250  1  0.86641611  0.24657404  0.04431217  1
  S2-  S251  1  0.89903057  0.24995911  0.54041439  1
  S2-  S252  1  0.86556292  0.50430631  0.03855825  1
  S2-  S253  1  0.89759367  0.49516092  0.53436923  1
  S2-  S254  1  0.86707007  0.75084257  0.04896154  1
  S2-  S255  1  0.90026990  0.75015785  0.54954818  1
