# generated using pymatgen
data_La6Ce7Pr13Nd19Sm19(BiS2)64
_symmetry_space_group_name_H-M   'P 1'
_cell_length_a   16.15207979
_cell_length_b   16.11877119
_cell_length_c   27.19015758
_cell_angle_alpha   89.88503189
_cell_angle_beta   90.03218480
_cell_angle_gamma   90.00826390
_symmetry_Int_Tables_number   1
_chemical_formula_structural   La6Ce7Pr13Nd19Sm19(BiS2)64
_chemical_formula_sum   'La6 Ce7 Pr13 Nd19 Sm19 Bi64 S128'
_cell_volume   7078.98772324
_cell_formula_units_Z   1
loop_
 _symmetry_equiv_pos_site_id
 _symmetry_equiv_pos_as_xyz
  1  'x, y, z'
loop_
 _atom_type_symbol
 _atom_type_oxidation_number
  La3+  3.0
  Ce3+  3.0
  Pr3+  3.0
  Nd3+  3.0
  Sm3+  3.0
  Bi2+  2.0
  S2-  -2.0
loop_
 _atom_site_type_symbol
 _atom_site_label
 _atom_site_symmetry_multiplicity
 _atom_site_fract_x
 _atom_site_fract_y
 _atom_site_fract_z
 _atom_site_occupancy
  La3+  La0  1  0.25063481  0.37731970  0.56222679  1
  La3+  La1  1  0.38798469  0.75898104  0.90962285  1
  La3+  La2  1  0.75694504  0.38905109  0.11087346  1
  La3+  La3  1  0.50751570  0.61392723  0.59030361  1
  La3+  La4  1  0.74625710  0.37530169  0.55742889  1
  La3+  La5  1  0.11872849  0.74526949  0.89324800  1
  Ce3+  Ce6  1  0.00655232  0.62328641  0.05847678  1
  Ce3+  Ce7  1  0.63221418  0.75149446  0.93640019  1
  Ce3+  Ce8  1  0.75348117  0.13615736  0.06058048  1
  Ce3+  Ce9  1  0.87351070  0.25085891  0.43778248  1
  Ce3+  Ce10  1  0.25147150  0.86945109  0.56619699  1
  Ce3+  Ce11  1  0.50015278  0.87145364  0.56071017  1
  Ce3+  Ce12  1  0.86893634  0.50489329  0.43467732  1
  Pr3+  Pr13  1  0.61586140  0.49660353  0.42047412  1
  Pr3+  Pr14  1  0.49985952  0.12483516  0.56202958  1
  Pr3+  Pr15  1  0.87875980  0.25731307  0.93272926  1
  Pr3+  Pr16  1  0.12888792  0.49433981  0.93000011  1
  Pr3+  Pr17  1  0.00399509  0.37011798  0.07128566  1
  Pr3+  Pr18  1  0.87987848  0.50223601  0.94352441  1
  Pr3+  Pr19  1  -0.00235470  0.37678022  0.55944771  1
  Pr3+  Pr20  1  0.50170197  0.87486125  0.06392470  1
  Pr3+  Pr21  1  0.62215711  0.24203401  0.42797941  1
  Pr3+  Pr22  1  0.38544441  0.25425644  0.94224685  1
  Pr3+  Pr23  1  0.87818154  0.76141574  0.42860993  1
  Pr3+  Pr24  1  0.74874841  0.12193163  0.56120535  1
  Pr3+  Pr25  1  0.00668993  0.87661879  0.06248238  1
  Nd3+  Nd26  1  0.25129204  0.37690442  0.06688146  1
  Nd3+  Nd27  1  0.37525791  0.74788481  0.44964159  1
  Nd3+  Nd28  1  0.50494900  0.13081439  0.06160182  1
  Nd3+  Nd29  1  0.63490823  0.25285819  0.93357204  1
  Nd3+  Nd30  1  -0.00080532  0.12401588  0.55395421  1
  Nd3+  Nd31  1  0.25375034  0.87475440  0.04858678  1
  Nd3+  Nd32  1  0.12067934  0.50142383  0.44088401  1
  Nd3+  Nd33  1  -0.00163537  0.87215927  0.56763560  1
  Nd3+  Nd34  1  0.12186081  0.25164238  0.43877936  1
  Nd3+  Nd35  1  -0.00332746  0.62577299  0.56282542  1
  Nd3+  Nd36  1  0.24817395  0.12469846  0.55936108  1
  Nd3+  Nd37  1  0.62079973  0.74796817  0.43786623  1
  Nd3+  Nd38  1  0.12931651  0.00002172  0.93577054  1
  Nd3+  Nd39  1  0.37104896  -0.00153919  0.44805006  1
  Nd3+  Nd40  1  0.50558687  0.38739064  0.06654207  1
  Nd3+  Nd41  1  0.63218403  0.00163985  0.94705441  1
  Nd3+  Nd42  1  0.49986942  0.63270422  0.06327091  1
  Nd3+  Nd43  1  0.37422142  0.50162974  0.43348217  1
  Nd3+  Nd44  1  0.38016372  0.50470329  0.93612981  1
  Sm3+  Sm45  1  0.25568529  0.12844747  0.05216522  1
  Sm3+  Sm46  1  0.12386774  0.74913067  0.44792217  1
  Sm3+  Sm47  1  0.37077995  0.24905453  0.44437274  1
  Sm3+  Sm48  1  0.75599271  0.63392541  0.06695906  1
  Sm3+  Sm49  1  0.74654548  0.62596689  0.55222508  1
  Sm3+  Sm50  1  0.25199428  0.63048079  0.04077129  1
  Sm3+  Sm51  1  0.38092392  0.00032631  0.93731682  1
  Sm3+  Sm52  1  0.88085253  0.75312675  0.93968328  1
  Sm3+  Sm53  1  0.13346028  0.25299188  0.93356208  1
  Sm3+  Sm54  1  0.75653059  0.87530070  0.06150576  1
  Sm3+  Sm55  1  0.63130188  0.50329268  0.94738480  1
  Sm3+  Sm56  1  0.00462855  0.12996156  0.05369163  1
  Sm3+  Sm57  1  0.88177435  0.00173029  0.94816802  1
  Sm3+  Sm58  1  0.74722213  0.87227057  0.55243629  1
  Sm3+  Sm59  1  0.62185141  0.00262591  0.43858103  1
  Sm3+  Sm60  1  0.25061680  0.62320711  0.56149948  1
  Sm3+  Sm61  1  0.50048903  0.37656916  0.55132476  1
  Sm3+  Sm62  1  0.12425594  -0.00235382  0.44746229  1
  Sm3+  Sm63  1  0.87588113  -0.00183701  0.44473956  1
  Bi2+  Bi64  1  0.02804844  0.09280394  0.26829683  1
  Bi2+  Bi65  1  0.01261404  0.13057696  0.80911803  1
  Bi2+  Bi66  1  0.02292034  0.37058650  0.30603914  1
  Bi2+  Bi67  1  -0.00962594  0.32007432  0.79118808  1
  Bi2+  Bi68  1  0.00025514  0.63148083  0.29524014  1
  Bi2+  Bi69  1  -0.05858927  0.58415488  0.79420909  1
  Bi2+  Bi70  1  0.03013115  0.90054667  0.29937639  1
  Bi2+  Bi71  1  -0.05152946  0.87620887  0.78955710  1
  Bi2+  Bi72  1  0.29942639  0.11062676  0.27201190  1
  Bi2+  Bi73  1  0.21083406  0.11744901  0.80809140  1
  Bi2+  Bi74  1  0.26689591  0.37255095  0.29344367  1
  Bi2+  Bi75  1  0.23580008  0.31821374  0.77987596  1
  Bi2+  Bi76  1  0.27812896  0.57960849  0.28892012  1
  Bi2+  Bi77  1  0.24738029  0.58241531  0.79146203  1
  Bi2+  Bi78  1  0.29211000  0.86495162  0.29073352  1
  Bi2+  Bi79  1  0.22525871  0.90682032  0.78742554  1
  Bi2+  Bi80  1  0.49358975  0.08593321  0.29009977  1
  Bi2+  Bi81  1  0.48489089  0.16455708  0.81541172  1
  Bi2+  Bi82  1  0.46724460  0.37671314  0.28486137  1
  Bi2+  Bi83  1  0.50291468  0.36025571  0.74812863  1
  Bi2+  Bi84  1  0.46471974  0.64744230  0.28938771  1
  Bi2+  Bi85  1  0.50043922  0.61094331  0.80156158  1
  Bi2+  Bi86  1  0.50589999  0.89308822  0.27862103  1
  Bi2+  Bi87  1  0.60237034  0.90727470  0.77546554  1
  Bi2+  Bi88  1  0.74308053  0.10148022  0.27632382  1
  Bi2+  Bi89  1  0.75400325  0.09358649  0.79498978  1
  Bi2+  Bi90  1  0.77091258  0.36779779  0.31720838  1
  Bi2+  Bi91  1  0.72528501  0.38027041  0.81339118  1
  Bi2+  Bi92  1  0.72159831  0.66366606  0.28161173  1
  Bi2+  Bi93  1  0.74729130  0.62529006  0.78383042  1
  Bi2+  Bi94  1  0.76148210  0.90254902  0.28394233  1
  Bi2+  Bi95  1  0.76183230  0.81683236  0.81476250  1
  Bi2+  Bi96  1  0.17337344  -0.00304169  0.21351986  1
  Bi2+  Bi97  1  0.09582523  0.02741119  0.72048429  1
  Bi2+  Bi98  1  0.14093170  0.25162073  0.20806909  1
  Bi2+  Bi99  1  0.11785569  0.22249490  0.70648866  1
  Bi2+  Bi100  1  0.15698732  0.51660335  0.20560485  1
  Bi2+  Bi101  1  0.08509243  0.46914768  0.71398480  1
  Bi2+  Bi102  1  0.15654396  0.72918688  0.25051954  1
  Bi2+  Bi103  1  0.12953288  0.74127502  0.69356466  1
  Bi2+  Bi104  1  0.37637117  -0.02886945  0.19984268  1
  Bi2+  Bi105  1  0.37880927  0.02350104  0.77010384  1
  Bi2+  Bi106  1  0.37565476  0.25822362  0.20244842  1
  Bi2+  Bi107  1  0.38661185  0.22160476  0.70504763  1
  Bi2+  Bi108  1  0.34816291  0.45410255  0.19325901  1
  Bi2+  Bi109  1  0.35392208  0.49671232  0.70179165  1
  Bi2+  Bi110  1  0.33422096  0.73505514  0.19764766  1
  Bi2+  Bi111  1  0.37286142  0.76560496  0.70885649  1
  Bi2+  Bi112  1  0.63573797  -0.01695962  0.20346598  1
  Bi2+  Bi113  1  0.70059092  0.00397644  0.69273217  1
  Bi2+  Bi114  1  0.63028845  0.24102777  0.21407064  1
  Bi2+  Bi115  1  0.60211845  0.19529554  0.72121124  1
  Bi2+  Bi116  1  0.61058646  0.50412840  0.21054937  1
  Bi2+  Bi117  1  0.63947166  0.48753955  0.70843534  1
  Bi2+  Bi118  1  0.61248714  0.78718954  0.20348753  1
  Bi2+  Bi119  1  0.63272472  0.75650163  0.70450303  1
  Bi2+  Bi120  1  0.87982606  0.00820678  0.20892895  1
  Bi2+  Bi121  1  0.89464057  0.01896209  0.71196778  1
  Bi2+  Bi122  1  0.89736118  0.24085235  0.21109786  1
  Bi2+  Bi123  1  0.86244126  0.21687453  0.72675677  1
  Bi2+  Bi124  1  0.90088662  0.53938105  0.21211563  1
  Bi2+  Bi125  1  0.85818799  0.49939656  0.70853940  1
  Bi2+  Bi126  1  0.87198711  0.79285427  0.21151738  1
  Bi2+  Bi127  1  0.85770076  0.74951895  0.71529178  1
  S2-  S128  1  0.00830682  0.19726141  0.14443073  1
  S2-  S129  1  -0.01408357  0.13863133  0.65189893  1
  S2-  S130  1  -0.08611271  0.38967953  0.15923482  1
  S2-  S131  1  -0.02243480  0.39152969  0.65903674  1
  S2-  S132  1  -0.01376570  0.63934824  0.15733739  1
  S2-  S133  1  0.04548144  0.60480571  0.65858726  1
  S2-  S134  1  -0.01651876  0.88636576  0.16275997  1
  S2-  S135  1  -0.00296886  0.82173451  0.66251947  1
  S2-  S136  1  0.24257196  0.18893115  0.14394598  1
  S2-  S137  1  0.25354495  0.14585492  0.65725485  1
  S2-  S138  1  0.13522281  0.38628000  0.14218766  1
  S2-  S139  1  0.23451380  0.41409749  0.66033938  1
  S2-  S140  1  0.25259941  0.62044958  0.14018366  1
  S2-  S141  1  0.26813605  0.64158292  0.65965748  1
  S2-  S142  1  0.24561346  0.88122213  0.14889520  1
  S2-  S143  1  0.24513476  0.86905016  0.66427030  1
  S2-  S144  1  0.50353899  0.16207578  0.15970121  1
  S2-  S145  1  0.49475235  0.10487137  0.66144433  1
  S2-  S146  1  0.59349325  0.36229345  0.15061547  1
  S2-  S147  1  0.49512748  0.44786848  0.64006036  1
  S2-  S148  1  0.49246253  0.53151862  0.14725445  1
  S2-  S149  1  0.46825517  0.63719911  0.69296423  1
  S2-  S150  1  0.48250480  0.75601243  0.13731627  1
  S2-  S151  1  0.49822126  0.84695141  0.65842887  1
  S2-  S152  1  0.76180418  0.21450201  0.14744081  1
  S2-  S153  1  0.74292564  0.18586797  0.65419880  1
  S2-  S154  1  0.73515792  0.37959627  0.22511552  1
  S2-  S155  1  0.74667375  0.40066712  0.65750032  1
  S2-  S156  1  0.75035906  0.55301152  0.15592405  1
  S2-  S157  1  0.66490394  0.62091205  0.63913822  1
  S2-  S158  1  0.75516256  0.76741976  0.13841764  1
  S2-  S159  1  0.75303481  0.84988680  0.64981739  1
  S2-  S160  1  0.11816041  0.01132241  0.34973879  1
  S2-  S161  1  0.10197148  -0.08780127  0.85149174  1
  S2-  S162  1  0.13939052  0.27164098  0.34052132  1
  S2-  S163  1  0.12272138  0.36092675  0.85749355  1
  S2-  S164  1  0.10848480  0.50730168  0.34244608  1
  S2-  S165  1  0.10635618  0.57561380  0.84095919  1
  S2-  S166  1  0.09167438  0.75583318  0.35190177  1
  S2-  S167  1  0.16940273  0.74226603  0.79185276  1
  S2-  S168  1  0.36388388  0.00738442  0.34994479  1
  S2-  S169  1  0.37947011  -0.08381494  0.85142578  1
  S2-  S170  1  0.37816974  0.26740510  0.34743696  1
  S2-  S171  1  0.34279490  0.25898239  0.84516163  1
  S2-  S172  1  0.47740590  0.51623451  0.35308918  1
  S2-  S173  1  0.38196998  0.49679823  0.83627744  1
  S2-  S174  1  0.36305182  0.74515346  0.35049362  1
  S2-  S175  1  0.36509686  0.70596522  0.80914866  1
  S2-  S176  1  0.62158713  0.10270203  0.35788716  1
  S2-  S177  1  0.61507025  0.02936248  0.84903948  1
  S2-  S178  1  0.61239374  0.33230697  0.34201097  1
  S2-  S179  1  0.57133804  0.31258562  0.84512098  1
  S2-  S180  1  0.70503499  0.52766085  0.33491844  1
  S2-  S181  1  0.63830690  0.52346304  0.84805189  1
  S2-  S182  1  0.59936670  0.73080072  0.33951194  1
  S2-  S183  1  0.54320262  0.74670701  0.85334938  1
  S2-  S184  1  0.88978229  -0.08724318  0.36066428  1
  S2-  S185  1  0.88296855  0.01139153  0.85022791  1
  S2-  S186  1  0.90436191  0.25306417  0.34069651  1
  S2-  S187  1  0.76168527  0.23982722  0.85706183  1
  S2-  S188  1  0.90403986  0.47975094  0.33896563  1
  S2-  S189  1  0.88097037  0.43405219  0.84937092  1
  S2-  S190  1  0.86617843  0.69827023  0.33491256  1
  S2-  S191  1  0.95700806  0.73772866  0.85123426  1
  S2-  S192  1  -0.00052732  0.12165149  0.44779461  1
  S2-  S193  1  0.00605015  0.12831032  0.94976873  1
  S2-  S194  1  -0.00239040  0.37637776  0.45264172  1
  S2-  S195  1  0.00447401  0.37393962  0.95994428  1
  S2-  S196  1  -0.00244286  0.62840691  0.45480589  1
  S2-  S197  1  0.00637983  0.62829037  0.95308927  1
  S2-  S198  1  0.00398232  0.87614035  0.46159865  1
  S2-  S199  1  0.00191107  0.87662528  0.95633734  1
  S2-  S200  1  0.24605930  0.12537846  0.45251915  1
  S2-  S201  1  0.25623304  0.12529208  0.94849605  1
  S2-  S202  1  0.24887142  0.37642549  0.45300927  1
  S2-  S203  1  0.25774908  0.37518417  0.95727401  1
  S2-  S204  1  0.24754181  0.62461500  0.45413344  1
  S2-  S205  1  0.25378803  0.63193362  0.93627133  1
  S2-  S206  1  0.24684645  0.87279232  0.45733234  1
  S2-  S207  1  0.25090143  0.87474854  0.94485155  1
  S2-  S208  1  0.49300575  0.12438577  0.45551079  1
  S2-  S209  1  0.50471987  0.12392374  0.95484572  1
  S2-  S210  1  0.49378068  0.37020775  0.44989478  1
  S2-  S211  1  0.50514513  0.38331130  0.95825039  1
  S2-  S212  1  0.49829160  0.62606873  0.45614692  1
  S2-  S213  1  0.50465390  0.62591605  0.95512133  1
  S2-  S214  1  0.49908628  0.87730016  0.45103514  1
  S2-  S215  1  0.50680449  0.88133523  0.95681272  1
  S2-  S216  1  0.75317491  0.12075312  0.45363683  1
  S2-  S217  1  0.75816347  0.12392842  0.95677684  1
  S2-  S218  1  0.74700024  0.37323316  0.44896167  1
  S2-  S219  1  0.75175405  0.38119080  0.95388343  1
  S2-  S220  1  0.74892841  0.63140061  0.44879267  1
  S2-  S221  1  0.75683864  0.62967936  0.95451149  1
  S2-  S222  1  0.74382514  0.87854720  0.44843802  1
  S2-  S223  1  0.75847418  0.87823048  0.95659319  1
  S2-  S224  1  0.13045307  0.00649388  0.04457104  1
  S2-  S225  1  0.12416089  -0.00205434  0.55376772  1
  S2-  S226  1  0.13167894  0.24883858  0.03720592  1
  S2-  S227  1  0.12335692  0.25013184  0.54684315  1
  S2-  S228  1  0.13181173  0.50298734  0.03847130  1
  S2-  S229  1  0.12375020  0.50330094  0.54768611  1
  S2-  S230  1  0.12963796  0.75227147  0.05024234  1
  S2-  S231  1  0.12531920  0.74717102  0.55244602  1
  S2-  S232  1  0.37865913  0.00377679  0.04461193  1
  S2-  S233  1  0.37300781  -0.00097934  0.55454200  1
  S2-  S234  1  0.38035043  0.25561073  0.04851487  1
  S2-  S235  1  0.37533716  0.25145020  0.54985866  1
  S2-  S236  1  0.37314460  0.50362056  0.04253307  1
  S2-  S237  1  0.37526407  0.50281117  0.54129314  1
  S2-  S238  1  0.37522490  0.75349235  0.03052907  1
  S2-  S239  1  0.37850294  0.74212456  0.55521844  1
  S2-  S240  1  0.63135212  0.00089540  0.05401885  1
  S2-  S241  1  0.62404793  -0.00247297  0.54404763  1
  S2-  S242  1  0.62468832  0.25346263  0.04169074  1
  S2-  S243  1  0.62138220  0.24973354  0.54200262  1
  S2-  S244  1  0.63291777  0.50949141  0.04989129  1
  S2-  S245  1  0.62343335  0.49994191  0.53481070  1
  S2-  S246  1  0.62991632  0.75508625  0.04140583  1
  S2-  S247  1  0.62304081  0.74967325  0.54374567  1
  S2-  S248  1  0.87886286  0.00448093  0.05344603  1
  S2-  S249  1  0.87392137  -0.00402469  0.55025403  1
  S2-  S250  1  0.88175145  0.25078409  0.04057208  1
  S2-  S251  1  0.87469708  0.24888442  0.54566076  1
  S2-  S252  1  0.87552420  0.50438903  0.05039330  1
  S2-  S253  1  0.87173427  0.50378221  0.54482894  1
  S2-  S254  1  0.88292190  0.75330617  0.04355251  1
  S2-  S255  1  0.87160347  0.75031144  0.54336058  1
