# generated using pymatgen
data_La6Ce7Pr13Nd19Sm19(BiS2)64
_symmetry_space_group_name_H-M   'P 1'
_cell_length_a   16.07873048
_cell_length_b   15.97840491
_cell_length_c   27.51939258
_cell_angle_alpha   90.30755782
_cell_angle_beta   89.73762086
_cell_angle_gamma   90.07238105
_symmetry_Int_Tables_number   1
_chemical_formula_structural   La6Ce7Pr13Nd19Sm19(BiS2)64
_chemical_formula_sum   'La6 Ce7 Pr13 Nd19 Sm19 Bi64 S128'
_cell_volume   7069.89359794
_cell_formula_units_Z   1
loop_
 _symmetry_equiv_pos_site_id
 _symmetry_equiv_pos_as_xyz
  1  'x, y, z'
loop_
 _atom_type_symbol
 _atom_type_oxidation_number
  La3+  3.0
  Ce3+  3.0
  Pr3+  3.0
  Nd3+  3.0
  Sm3+  3.0
  Bi2+  2.0
  S2-  -2.0
loop_
 _atom_site_type_symbol
 _atom_site_label
 _atom_site_symmetry_multiplicity
 _atom_site_fract_x
 _atom_site_fract_y
 _atom_site_fract_z
 _atom_site_occupancy
  La3+  La0  1  0.13011413  0.01269196  0.91842973  1
  La3+  La1  1  0.24989387  0.14045819  0.05931708  1
  La3+  La2  1  0.00930213  0.90409571  0.08965646  1
  La3+  La3  1  0.00042822  0.63697404  0.08912882  1
  La3+  La4  1  0.39062466  0.47892710  0.41426629  1
  La3+  La5  1  -0.00286892  0.09701041  0.61343658  1
  Ce3+  Ce6  1  0.37384682  0.01770486  0.93658088  1
  Ce3+  Ce7  1  0.24923682  0.11369836  0.55825263  1
  Ce3+  Ce8  1  0.50146549  0.14032650  0.06315286  1
  Ce3+  Ce9  1  0.89022504  0.73011254  0.42122682  1
  Ce3+  Ce10  1  0.64462480  -0.01745972  0.41204781  1
  Ce3+  Ce11  1  0.63047996  0.73777559  0.43018096  1
  Ce3+  Ce12  1  0.00250971  0.14119126  0.04504674  1
  Pr3+  Pr13  1  0.50840070  0.36957102  0.57263965  1
  Pr3+  Pr14  1  0.87912491  0.76612934  0.94136104  1
  Pr3+  Pr15  1  0.25179609  0.39385323  0.05847700  1
  Pr3+  Pr16  1  0.88947977  0.48503023  0.43338240  1
  Pr3+  Pr17  1  0.87936435  0.52102376  0.93697735  1
  Pr3+  Pr18  1  0.13640410  0.27388467  0.90850309  1
  Pr3+  Pr19  1  0.12649905  0.52311518  0.93228224  1
  Pr3+  Pr20  1  0.13490112  0.48282801  0.43367307  1
  Pr3+  Pr21  1  0.00706548  0.61226613  0.56511051  1
  Pr3+  Pr22  1  0.75553588  0.13835496  0.05620344  1
  Pr3+  Pr23  1  0.51007563  0.61374514  0.56286099  1
  Pr3+  Pr24  1  0.87982994  0.27247923  0.92176542  1
  Pr3+  Pr25  1  0.76033963  0.61384485  0.54292078  1
  Nd3+  Nd26  1  0.62513757  0.51719021  0.95141052  1
  Nd3+  Nd27  1  0.38015930  0.76186365  0.93908955  1
  Nd3+  Nd28  1  0.62686618  0.26437362  0.94250524  1
  Nd3+  Nd29  1  0.13666507  0.72978117  0.42597539  1
  Nd3+  Nd30  1  0.38343503  -0.01294561  0.44613697  1
  Nd3+  Nd31  1  0.62422232  0.76356470  0.94923484  1
  Nd3+  Nd32  1  0.63230239  0.47847250  0.43056136  1
  Nd3+  Nd33  1  0.62296104  0.01334732  0.93528382  1
  Nd3+  Nd34  1  0.76209399  0.86520559  0.54787179  1
  Nd3+  Nd35  1  0.38199183  0.51873075  0.93937696  1
  Nd3+  Nd36  1  0.88835876  0.23159844  0.45035744  1
  Nd3+  Nd37  1  0.88983793  -0.01094047  0.43051788  1
  Nd3+  Nd38  1  0.26195919  0.36740549  0.56491628  1
  Nd3+  Nd39  1  0.49992905  0.39019529  0.07315006  1
  Nd3+  Nd40  1  0.00063883  0.39298690  0.05781055  1
  Nd3+  Nd41  1  0.75241167  0.11083569  0.56661966  1
  Nd3+  Nd42  1  0.49118811  0.64392972  0.08731794  1
  Nd3+  Nd43  1  0.01605076  0.35998526  0.57732002  1
  Nd3+  Nd44  1  0.63507924  0.23198895  0.43620189  1
  Sm3+  Sm45  1  0.75322588  0.39142184  0.05523932  1
  Sm3+  Sm46  1  0.25003594  0.64366549  0.06371368  1
  Sm3+  Sm47  1  0.75410535  0.64322799  0.06821596  1
  Sm3+  Sm48  1  0.87772109  0.01298014  0.93571484  1
  Sm3+  Sm49  1  0.51252313  0.11176248  0.55948195  1
  Sm3+  Sm50  1  0.24854644  0.89075351  0.05550264  1
  Sm3+  Sm51  1  0.75474785  0.89135229  0.05719067  1
  Sm3+  Sm52  1  0.50115141  0.89370520  0.06704296  1
  Sm3+  Sm53  1  0.38561484  0.23773874  0.44710060  1
  Sm3+  Sm54  1  0.38559493  0.73559287  0.44516560  1
  Sm3+  Sm55  1  0.00979684  0.86517370  0.54870809  1
  Sm3+  Sm56  1  0.13158312  -0.01151208  0.43171308  1
  Sm3+  Sm57  1  0.25524945  0.86355259  0.55373893  1
  Sm3+  Sm58  1  0.51026716  0.86517020  0.55222109  1
  Sm3+  Sm59  1  0.12325055  0.76174446  0.94875114  1
  Sm3+  Sm60  1  0.13465617  0.24076655  0.44016731  1
  Sm3+  Sm61  1  0.25884403  0.61176785  0.55099942  1
  Sm3+  Sm62  1  0.76101620  0.36157004  0.55625647  1
  Sm3+  Sm63  1  0.37805121  0.27425111  0.93374734  1
  Bi2+  Bi64  1  0.00322334  0.14258762  0.29121881  1
  Bi2+  Bi65  1  -0.03139659  0.06418611  0.80895976  1
  Bi2+  Bi66  1  -0.03774851  0.42808867  0.31047987  1
  Bi2+  Bi67  1  -0.01219694  0.33407516  0.79902002  1
  Bi2+  Bi68  1  0.03813485  0.65782774  0.28494514  1
  Bi2+  Bi69  1  0.01063377  0.59201612  0.81061712  1
  Bi2+  Bi70  1  -0.01226705  0.89204441  0.28377625  1
  Bi2+  Bi71  1  -0.04722760  0.82895578  0.79115991  1
  Bi2+  Bi72  1  0.19780580  0.13276226  0.31976868  1
  Bi2+  Bi73  1  0.28059948  0.10650697  0.77221578  1
  Bi2+  Bi74  1  0.20478771  0.32106414  0.27880751  1
  Bi2+  Bi75  1  0.28212926  0.37449891  0.79182362  1
  Bi2+  Bi76  1  0.27255543  0.65707826  0.29725068  1
  Bi2+  Bi77  1  0.26588215  0.62266213  0.75390869  1
  Bi2+  Bi78  1  0.24461173  0.90521156  0.29250673  1
  Bi2+  Bi79  1  0.32867293  0.80452927  0.79783596  1
  Bi2+  Bi80  1  0.39951034  0.13164675  0.29147554  1
  Bi2+  Bi81  1  0.46833465  0.14040873  0.80686667  1
  Bi2+  Bi82  1  0.50282228  0.38369173  0.29740054  1
  Bi2+  Bi83  1  0.54198373  0.41313177  0.79862899  1
  Bi2+  Bi84  1  0.52565877  0.65963583  0.28677158  1
  Bi2+  Bi85  1  0.52690902  0.66430444  0.80836955  1
  Bi2+  Bi86  1  0.52693356  0.94933058  0.29174981  1
  Bi2+  Bi87  1  0.45909582  0.94184208  0.82278335  1
  Bi2+  Bi88  1  0.75450739  0.12647154  0.29939523  1
  Bi2+  Bi89  1  0.65601873  0.17205016  0.77257977  1
  Bi2+  Bi90  1  0.77252081  0.37861315  0.29745327  1
  Bi2+  Bi91  1  0.74122347  0.41515078  0.74798284  1
  Bi2+  Bi92  1  0.71580288  0.57904963  0.28191297  1
  Bi2+  Bi93  1  0.80018665  0.69713430  0.77241649  1
  Bi2+  Bi94  1  0.69026509  0.86492614  0.25070881  1
  Bi2+  Bi95  1  0.64165235  0.91787535  0.78001870  1
  Bi2+  Bi96  1  0.15797547  0.03235893  0.22220470  1
  Bi2+  Bi97  1  0.11582367  -0.06708440  0.70939538  1
  Bi2+  Bi98  1  0.03894059  0.28273518  0.21462515  1
  Bi2+  Bi99  1  0.12225645  0.22544971  0.71345930  1
  Bi2+  Bi100  1  0.10267148  0.47381563  0.23224929  1
  Bi2+  Bi101  1  0.14024574  0.48940245  0.70483874  1
  Bi2+  Bi102  1  0.21810860  0.76681367  0.19676261  1
  Bi2+  Bi103  1  0.08924419  0.71397499  0.73001147  1
  Bi2+  Bi104  1  0.35589757  0.01060498  0.20137280  1
  Bi2+  Bi105  1  0.33493658  -0.05576285  0.71238080  1
  Bi2+  Bi106  1  0.35530490  0.26490243  0.20666365  1
  Bi2+  Bi107  1  0.39701910  0.23552869  0.71447916  1
  Bi2+  Bi108  1  0.36140578  0.51715110  0.21256150  1
  Bi2+  Bi109  1  0.39879635  0.50712495  0.70217085  1
  Bi2+  Bi110  1  0.40950006  0.82564725  0.22924599  1
  Bi2+  Bi111  1  0.44063187  0.73163423  0.71117376  1
  Bi2+  Bi112  1  0.62227199  0.04618598  0.20538761  1
  Bi2+  Bi113  1  0.51181948  0.03372827  0.70010992  1
  Bi2+  Bi114  1  0.55911815  0.22632206  0.23553892  1
  Bi2+  Bi115  1  0.58360413  0.30673892  0.70192154  1
  Bi2+  Bi116  1  0.62382741  0.44167170  0.21408557  1
  Bi2+  Bi117  1  0.65788660  0.57960780  0.70801118  1
  Bi2+  Bi118  1  0.63675321  0.68949736  0.19528990  1
  Bi2+  Bi119  1  0.63643027  0.77515084  0.69820260  1
  Bi2+  Bi120  1  0.86824924  0.02150966  0.18834108  1
  Bi2+  Bi121  1  0.80354421  -0.03568558  0.72152833  1
  Bi2+  Bi122  1  0.84453553  0.27373264  0.20802029  1
  Bi2+  Bi123  1  0.84522874  0.23475026  0.71801213  1
  Bi2+  Bi124  1  0.88217385  0.50068240  0.21116889  1
  Bi2+  Bi125  1  0.90040557  0.52694302  0.72542457  1
  Bi2+  Bi126  1  0.83071210  0.73568518  0.23232830  1
  Bi2+  Bi127  1  0.91370447  0.71796122  0.68135900  1
  S2-  S128  1  -0.00461137  0.07295696  0.13459913  1
  S2-  S129  1  0.02258040  0.08005899  0.72003442  1
  S2-  S130  1  0.01242168  0.47932158  0.14453643  1
  S2-  S131  1  -0.02166314  0.26186348  0.66165697  1
  S2-  S132  1  0.08178746  0.68227734  0.18168053  1
  S2-  S133  1  0.00583884  0.49930732  0.64281350  1
  S2-  S134  1  -0.06074549  0.87282319  0.18223888  1
  S2-  S135  1  0.00410345  0.92223504  0.64129769  1
  S2-  S136  1  0.25171187  0.14214252  0.15944743  1
  S2-  S137  1  0.17256973  0.11339243  0.64451666  1
  S2-  S138  1  0.28289701  0.39869099  0.15769569  1
  S2-  S139  1  0.16191668  0.35540150  0.64964055  1
  S2-  S140  1  0.33124113  0.63959405  0.15074466  1
  S2-  S141  1  0.26172315  0.58445305  0.64768290  1
  S2-  S142  1  0.16598395  0.90694640  0.14210258  1
  S2-  S143  1  0.23154079  0.85210954  0.65017056  1
  S2-  S144  1  0.49757800  0.02214408  0.13721365  1
  S2-  S145  1  0.61482475  0.10686170  0.63757429  1
  S2-  S146  1  0.49573035  0.25596596  0.14010958  1
  S2-  S147  1  0.37656887  0.36861098  0.64399963  1
  S2-  S148  1  0.49776270  0.50292363  0.15216735  1
  S2-  S149  1  0.53686138  0.50976661  0.64186624  1
  S2-  S150  1  0.50313368  0.78910993  0.14731730  1
  S2-  S151  1  0.50924377  0.86731343  0.64964885  1
  S2-  S152  1  0.75653171  0.15512928  0.15609374  1
  S2-  S153  1  0.83239407  0.09493950  0.65665918  1
  S2-  S154  1  0.76425572  0.40430866  0.15232647  1
  S2-  S155  1  0.74535417  0.33830385  0.65311547  1
  S2-  S156  1  0.85343010  0.64203989  0.14896691  1
  S2-  S157  1  0.78644396  0.61119730  0.64093120  1
  S2-  S158  1  0.73134342  0.92634569  0.15172758  1
  S2-  S159  1  0.75535751  0.87980593  0.64792071  1
  S2-  S160  1  0.01426173  -0.00273434  0.35542734  1
  S2-  S161  1  0.07976770  -0.06411839  0.82792647  1
  S2-  S162  1  0.11924825  0.35274390  0.36285913  1
  S2-  S163  1  0.08433294  0.19139535  0.82278917  1
  S2-  S164  1  0.13640700  0.59848499  0.35397827  1
  S2-  S165  1  0.14053189  0.41935575  0.84621497  1
  S2-  S166  1  0.11618093  0.80126496  0.33286511  1
  S2-  S167  1  0.12569572  0.66340392  0.86688999  1
  S2-  S168  1  0.37569806  -0.02224546  0.34807127  1
  S2-  S169  1  0.27658403  0.01390314  0.85605632  1
  S2-  S170  1  0.39772969  0.31694337  0.36096434  1
  S2-  S171  1  0.28406597  0.24605587  0.84994157  1
  S2-  S172  1  0.32182352  0.50758899  0.31719665  1
  S2-  S173  1  0.40405882  0.40607957  0.86139121  1
  S2-  S174  1  0.39867344  0.73053160  0.34813848  1
  S2-  S175  1  0.39126762  0.64233075  0.86594652  1
  S2-  S176  1  0.61844255  0.12401635  0.35486295  1
  S2-  S177  1  0.66864447  0.05661170  0.84338488  1
  S2-  S178  1  0.64206832  0.34784259  0.35979189  1
  S2-  S179  1  0.63679302  0.29909804  0.84614670  1
  S2-  S180  1  0.53047247  0.53407376  0.35376545  1
  S2-  S181  1  0.62008144  0.53960915  0.85319577  1
  S2-  S182  1  0.62782161  0.83534584  0.34970338  1
  S2-  S183  1  0.62289976  0.78365213  0.85152276  1
  S2-  S184  1  0.78561735  -0.00432760  0.34967802  1
  S2-  S185  1  0.86129846  -0.06801167  0.84875992  1
  S2-  S186  1  0.88325879  0.21240102  0.34981575  1
  S2-  S187  1  0.86864234  0.21009984  0.82547125  1
  S2-  S188  1  0.92151141  0.58934802  0.35187542  1
  S2-  S189  1  0.88531608  0.41394096  0.85503793  1
  S2-  S190  1  0.88046136  0.79758443  0.33018409  1
  S2-  S191  1  0.86737027  0.64924507  0.86487866  1
  S2-  S192  1  0.01759624  0.11494785  0.45185846  1
  S2-  S193  1  0.00170700  0.14181662  0.94099800  1
  S2-  S194  1  0.00728730  0.36051354  0.46407616  1
  S2-  S195  1  0.01047882  0.38774401  0.95429696  1
  S2-  S196  1  0.01267512  0.61195820  0.45931807  1
  S2-  S197  1  0.00075269  0.64170838  0.96947830  1
  S2-  S198  1  0.01394582  0.85680470  0.44712118  1
  S2-  S199  1  0.00453443  0.88876980  0.94984958  1
  S2-  S200  1  0.25816390  0.11307088  0.45247134  1
  S2-  S201  1  0.24808021  0.14839790  0.95342079  1
  S2-  S202  1  0.26352812  0.36214892  0.45804840  1
  S2-  S203  1  0.25147404  0.39482440  0.95470374  1
  S2-  S204  1  0.26715914  0.60926274  0.44890289  1
  S2-  S205  1  0.25409184  0.64238944  0.96291412  1
  S2-  S206  1  0.25744975  0.85945496  0.44923976  1
  S2-  S207  1  0.25096170  0.88154907  0.95201700  1
  S2-  S208  1  0.50501037  0.11099035  0.45655683  1
  S2-  S209  1  0.49943999  0.14198310  0.95244024  1
  S2-  S210  1  0.50908712  0.35993713  0.46360552  1
  S2-  S211  1  0.50582824  0.38968502  0.96607721  1
  S2-  S212  1  0.50890450  0.61474660  0.45820638  1
  S2-  S213  1  0.50399785  0.64167206  0.97188585  1
  S2-  S214  1  0.50721673  0.86338888  0.45001491  1
  S2-  S215  1  0.50030084  0.89050055  0.95968485  1
  S2-  S216  1  0.76001010  0.10991308  0.45900782  1
  S2-  S217  1  0.75652601  0.14026577  0.94985893  1
  S2-  S218  1  0.76573950  0.35980140  0.45412106  1
  S2-  S219  1  0.75029856  0.39171271  0.95285161  1
  S2-  S220  1  0.75577417  0.60940825  0.43820010  1
  S2-  S221  1  0.74946102  0.64307098  0.96550363  1
  S2-  S222  1  0.76518078  0.85553346  0.44620838  1
  S2-  S223  1  0.75009226  0.89045244  0.95345161  1
  S2-  S224  1  0.12696632  0.01430186  0.03269571  1
  S2-  S225  1  0.13437592  -0.01593318  0.53609490  1
  S2-  S226  1  0.12390008  0.26818967  0.05792722  1
  S2-  S227  1  0.13620892  0.24219929  0.54216174  1
  S2-  S228  1  0.12957477  0.52090362  0.04565380  1
  S2-  S229  1  0.13659675  0.49057800  0.54098698  1
  S2-  S230  1  0.12363637  0.76518210  0.05139309  1
  S2-  S231  1  0.13402376  0.73746485  0.54229120  1
  S2-  S232  1  0.37246237  0.01205074  0.04163908  1
  S2-  S233  1  0.38253859  -0.01155754  0.55157112  1
  S2-  S234  1  0.37512658  0.26708748  0.04014851  1
  S2-  S235  1  0.38514119  0.23159162  0.54986860  1
  S2-  S236  1  0.37636789  0.51934363  0.04608736  1
  S2-  S237  1  0.38461861  0.49360648  0.54009151  1
  S2-  S238  1  0.37328715  0.76993141  0.04600801  1
  S2-  S239  1  0.38251542  0.74038118  0.54960798  1
  S2-  S240  1  0.62925683  0.01405211  0.04078237  1
  S2-  S241  1  0.63219218  -0.01601982  0.53608892  1
  S2-  S242  1  0.63210117  0.26635210  0.04717977  1
  S2-  S243  1  0.63201151  0.24190795  0.54330072  1
  S2-  S244  1  0.63176225  0.51848372  0.05623859  1
  S2-  S245  1  0.63876752  0.48607549  0.53771549  1
  S2-  S246  1  0.63118864  0.76774543  0.05308564  1
  S2-  S247  1  0.63352737  0.74036894  0.54009763  1
  S2-  S248  1  0.87879852  0.01107327  0.03855595  1
  S2-  S249  1  0.88698550  -0.00999713  0.53972924  1
  S2-  S250  1  0.87739898  0.26815299  0.04035047  1
  S2-  S251  1  0.88188267  0.23508525  0.55306762  1
  S2-  S252  1  0.87326650  0.51620350  0.04396452  1
  S2-  S253  1  0.88269614  0.48443877  0.54103101  1
  S2-  S254  1  0.88100238  0.77327864  0.05144102  1
  S2-  S255  1  0.88731163  0.73917648  0.53518269  1
