# generated using pymatgen
data_La6Ce7Pr13Nd19Sm19(BiS2)64
_symmetry_space_group_name_H-M   'P 1'
_cell_length_a   16.02908474
_cell_length_b   16.05219896
_cell_length_c   27.38470367
_cell_angle_alpha   89.77703940
_cell_angle_beta   90.19618182
_cell_angle_gamma   90.05938762
_symmetry_Int_Tables_number   1
_chemical_formula_structural   La6Ce7Pr13Nd19Sm19(BiS2)64
_chemical_formula_sum   'La6 Ce7 Pr13 Nd19 Sm19 Bi64 S128'
_cell_volume   7046.04224946
_cell_formula_units_Z   1
loop_
 _symmetry_equiv_pos_site_id
 _symmetry_equiv_pos_as_xyz
  1  'x, y, z'
loop_
 _atom_type_symbol
 _atom_type_oxidation_number
  La3+  3.0
  Ce3+  3.0
  Pr3+  3.0
  Nd3+  3.0
  Sm3+  3.0
  Bi2+  2.0
  S2-  -2.0
loop_
 _atom_site_type_symbol
 _atom_site_label
 _atom_site_symmetry_multiplicity
 _atom_site_fract_x
 _atom_site_fract_y
 _atom_site_fract_z
 _atom_site_occupancy
  La3+  La0  1  0.10404365  0.49235463  0.94287854  1
  La3+  La1  1  0.37225704  0.74273102  0.88423017  1
  La3+  La2  1  0.87549455  0.73132754  0.38995155  1
  La3+  La3  1  0.22878056  0.35963890  0.07840000  1
  La3+  La4  1  0.09582066  0.23950743  0.93511469  1
  La3+  La5  1  0.63666566  0.24989666  0.39966281  1
  Ce3+  Ce6  1  0.60334650  0.74069661  0.94263183  1
  Ce3+  Ce7  1  -0.01928399  0.36576550  0.07291974  1
  Ce3+  Ce8  1  0.47873235  0.36608325  0.05940358  1
  Ce3+  Ce9  1  -0.02709235  0.61829343  0.06948790  1
  Ce3+  Ce10  1  0.51353036  0.86470783  0.58109170  1
  Ce3+  Ce11  1  0.75304130  0.12015687  0.55829100  1
  Ce3+  Ce12  1  0.73563125  0.61575777  0.05494660  1
  Pr3+  Pr13  1  0.13251158  -0.00391951  0.44356241  1
  Pr3+  Pr14  1  0.48152259  0.11662566  0.06999692  1
  Pr3+  Pr15  1  0.60233925  -0.00946374  0.93677566  1
  Pr3+  Pr16  1  0.35019519  0.49105061  0.92921050  1
  Pr3+  Pr17  1  0.13051096  0.75059908  0.43571607  1
  Pr3+  Pr18  1  0.47791083  0.61367279  0.06030987  1
  Pr3+  Pr19  1  -0.01305270  0.86239622  0.06595645  1
  Pr3+  Pr20  1  0.62672670  -0.00248499  0.43613423  1
  Pr3+  Pr21  1  0.47823539  0.86413976  0.05789587  1
  Pr3+  Pr22  1  0.75668347  0.62110868  0.56121482  1
  Pr3+  Pr23  1  0.62843735  0.74845416  0.43682690  1
  Pr3+  Pr24  1  0.37052608  0.24025789  0.41464211  1
  Pr3+  Pr25  1  0.26286804  0.88150749  0.58531905  1
  Nd3+  Nd26  1  0.11027418  0.74331059  0.93125727  1
  Nd3+  Nd27  1  0.73238700  0.11117992  0.06250439  1
  Nd3+  Nd28  1  0.00217541  0.11058264  0.57239817  1
  Nd3+  Nd29  1  0.00230095  0.36750315  0.56453308  1
  Nd3+  Nd30  1  0.22679333  0.11515763  0.06342023  1
  Nd3+  Nd31  1  0.85879294  -0.00840204  0.93310633  1
  Nd3+  Nd32  1  0.10380463  -0.00962107  0.93163222  1
  Nd3+  Nd33  1  0.87868010  -0.00661491  0.43280929  1
  Nd3+  Nd34  1  0.50233258  0.61676641  0.56477341  1
  Nd3+  Nd35  1  0.85841275  0.49065598  0.93373165  1
  Nd3+  Nd36  1  0.25904587  0.12882282  0.57059938  1
  Nd3+  Nd37  1  0.00718836  0.86854772  0.55852534  1
  Nd3+  Nd38  1  0.13056323  0.24671354  0.44413868  1
  Nd3+  Nd39  1  0.60256775  0.23961458  0.94056966  1
  Nd3+  Nd40  1  0.38212617  0.74994741  0.44273336  1
  Nd3+  Nd41  1  0.38438249  0.50351976  0.42548208  1
  Nd3+  Nd42  1  0.38161667  -0.00435015  0.44496509  1
  Nd3+  Nd43  1  0.34983137  -0.00039682  0.91655822  1
  Nd3+  Nd44  1  0.88183686  0.23993966  0.43406798  1
  Sm3+  Sm45  1  0.25446666  0.62273094  0.55517766  1
  Sm3+  Sm46  1  0.73310009  0.86436390  0.04841796  1
  Sm3+  Sm47  1  0.25880757  0.37375072  0.55984912  1
  Sm3+  Sm48  1  0.12907931  0.49620483  0.44416924  1
  Sm3+  Sm49  1  0.73247591  0.36376764  0.05958032  1
  Sm3+  Sm50  1  0.60450352  0.49157317  0.94529382  1
  Sm3+  Sm51  1  0.50509491  0.36848434  0.54309660  1
  Sm3+  Sm52  1  0.23249144  0.86397819  0.04843890  1
  Sm3+  Sm53  1  0.50617889  0.12568669  0.55376143  1
  Sm3+  Sm54  1  0.00505990  0.62277444  0.55484620  1
  Sm3+  Sm55  1  0.87879152  0.49523523  0.44319313  1
  Sm3+  Sm56  1  0.86182171  0.73971511  0.93115445  1
  Sm3+  Sm57  1  0.75231896  0.87044356  0.55810251  1
  Sm3+  Sm58  1  0.63208167  0.49755250  0.44389349  1
  Sm3+  Sm59  1  0.75656254  0.36837207  0.55943362  1
  Sm3+  Sm60  1  0.35131935  0.23982906  0.93789190  1
  Sm3+  Sm61  1  0.23096281  0.61546416  0.05543133  1
  Sm3+  Sm62  1  0.85349719  0.23970624  0.95055153  1
  Sm3+  Sm63  1  -0.01546760  0.10641998  0.07048506  1
  Bi2+  Bi64  1  -0.01590451  0.15084729  0.26648784  1
  Bi2+  Bi65  1  0.02950542  0.14180189  0.79908711  1
  Bi2+  Bi66  1  0.01840916  0.34204565  0.30156992  1
  Bi2+  Bi67  1  -0.04135246  0.39377170  0.77495285  1
  Bi2+  Bi68  1  -0.02186045  0.66508011  0.26816515  1
  Bi2+  Bi69  1  -0.01283317  0.60431033  0.78970497  1
  Bi2+  Bi70  1  0.00778757  0.90198227  0.29472198  1
  Bi2+  Bi71  1  -0.02101533  0.87571119  0.79198159  1
  Bi2+  Bi72  1  0.24787842  0.10492384  0.29318497  1
  Bi2+  Bi73  1  0.27388939  0.11996773  0.78824006  1
  Bi2+  Bi74  1  0.22566151  0.38007779  0.29142494  1
  Bi2+  Bi75  1  0.23353324  0.37085639  0.78113703  1
  Bi2+  Bi76  1  0.26331386  0.69620645  0.29499796  1
  Bi2+  Bi77  1  0.24631205  0.59334589  0.79009506  1
  Bi2+  Bi78  1  0.28540123  0.87056082  0.34332755  1
  Bi2+  Bi79  1  0.24422882  0.86765859  0.78025486  1
  Bi2+  Bi80  1  0.50109564  0.14324733  0.29076411  1
  Bi2+  Bi81  1  0.55728589  0.21081283  0.77757189  1
  Bi2+  Bi82  1  0.51002961  0.42613316  0.28776890  1
  Bi2+  Bi83  1  0.42473408  0.34742400  0.80490541  1
  Bi2+  Bi84  1  0.53616196  0.69509049  0.30627261  1
  Bi2+  Bi85  1  0.56064188  0.59065872  0.79395819  1
  Bi2+  Bi86  1  0.49435720  0.87341729  0.35388003  1
  Bi2+  Bi87  1  0.51513809  0.86744708  0.77851159  1
  Bi2+  Bi88  1  0.78066033  0.14923450  0.29547403  1
  Bi2+  Bi89  1  0.75184736  0.05375921  0.81296789  1
  Bi2+  Bi90  1  0.84027417  0.42147699  0.28376104  1
  Bi2+  Bi91  1  0.77085972  0.42268825  0.81128077  1
  Bi2+  Bi92  1  0.77708655  0.63852649  0.27373130  1
  Bi2+  Bi93  1  0.79273846  0.62183398  0.81538835  1
  Bi2+  Bi94  1  0.73472447  0.91587609  0.27123305  1
  Bi2+  Bi95  1  0.77912653  0.82249443  0.80304453  1
  Bi2+  Bi96  1  0.09639502  -0.02801981  0.20721643  1
  Bi2+  Bi97  1  0.08896319  0.02787951  0.71153812  1
  Bi2+  Bi98  1  0.13891902  0.23457250  0.20971421  1
  Bi2+  Bi99  1  0.14009332  0.25953361  0.70480086  1
  Bi2+  Bi100  1  0.08755021  0.50231741  0.24185511  1
  Bi2+  Bi101  1  0.11875337  0.51846254  0.71389596  1
  Bi2+  Bi102  1  0.13702086  0.74451346  0.20776788  1
  Bi2+  Bi103  1  0.05109262  0.76153007  0.71004617  1
  Bi2+  Bi104  1  0.31605231  -0.04926501  0.23844037  1
  Bi2+  Bi105  1  0.38356351  0.03329763  0.70946316  1
  Bi2+  Bi106  1  0.38730355  0.28593882  0.20113885  1
  Bi2+  Bi107  1  0.41111037  0.25076591  0.70258184  1
  Bi2+  Bi108  1  0.34059259  0.56452436  0.21328385  1
  Bi2+  Bi109  1  0.39642817  0.47645447  0.71443985  1
  Bi2+  Bi110  1  0.38598182  0.76988748  0.21527848  1
  Bi2+  Bi111  1  0.35795407  0.71351685  0.67784250  1
  Bi2+  Bi112  1  0.54002121  -0.04615674  0.25125605  1
  Bi2+  Bi113  1  0.65498193  0.03469483  0.70709968  1
  Bi2+  Bi114  1  0.62838247  0.25082029  0.19166018  1
  Bi2+  Bi115  1  0.69512227  0.30473470  0.71606198  1
  Bi2+  Bi116  1  0.61151289  0.57146775  0.22645662  1
  Bi2+  Bi117  1  0.59084157  0.47188734  0.70784490  1
  Bi2+  Bi118  1  0.62928046  0.78344601  0.20890913  1
  Bi2+  Bi119  1  0.65437994  0.76216848  0.71295693  1
  Bi2+  Bi120  1  0.84181595  0.03958932  0.20831617  1
  Bi2+  Bi121  1  0.84799632  -0.01945372  0.72004700  1
  Bi2+  Bi122  1  0.89691183  0.29924639  0.19860577  1
  Bi2+  Bi123  1  0.84957463  0.22190031  0.77790771  1
  Bi2+  Bi124  1  0.91918328  0.49887752  0.18496229  1
  Bi2+  Bi125  1  0.83916435  0.51380394  0.71299142  1
  Bi2+  Bi126  1  0.86347819  0.77684104  0.20046652  1
  Bi2+  Bi127  1  0.85438246  0.78421456  0.69695098  1
  S2-  S128  1  0.11017696  0.10622980  0.14239028  1
  S2-  S129  1  0.01509985  0.17176730  0.66639716  1
  S2-  S130  1  0.09246145  0.35960396  0.14857454  1
  S2-  S131  1  0.06109758  0.38784440  0.65699270  1
  S2-  S132  1  -0.00158775  0.73804245  0.14002604  1
  S2-  S133  1  0.02227796  0.61955270  0.65209351  1
  S2-  S134  1  -0.04395032  0.97793624  0.14164515  1
  S2-  S135  1  -0.00047623  0.96306801  0.64177413  1
  S2-  S136  1  0.27506518  0.21760389  0.14403848  1
  S2-  S137  1  0.24021245  0.02844738  0.65389855  1
  S2-  S138  1  0.31042800  0.42715175  0.16524228  1
  S2-  S139  1  0.27135981  0.26566088  0.63771443  1
  S2-  S140  1  0.20901211  0.62269968  0.15409856  1
  S2-  S141  1  0.29275505  0.55383753  0.64229692  1
  S2-  S142  1  0.17226794  0.87282034  0.14135739  1
  S2-  S143  1  0.20030282  0.79592146  0.66837845  1
  S2-  S144  1  0.48526182  0.15071306  0.16967879  1
  S2-  S145  1  0.51404117  0.10571236  0.65289579  1
  S2-  S146  1  0.51652032  0.36986981  0.15493604  1
  S2-  S147  1  0.48749142  0.37709800  0.64129231  1
  S2-  S148  1  0.48836664  0.61057769  0.16093983  1
  S2-  S149  1  0.52027882  0.70640967  0.64834387  1
  S2-  S150  1  0.49472875  0.86924130  0.15831196  1
  S2-  S151  1  0.40270454  0.88393237  0.65649958  1
  S2-  S152  1  0.69780423  0.11226036  0.15908925  1
  S2-  S153  1  0.77835056  0.10794810  0.65483220  1
  S2-  S154  1  0.74630167  0.36298591  0.15728328  1
  S2-  S155  1  0.81460319  0.36986025  0.65167153  1
  S2-  S156  1  0.82256734  0.62241239  0.13787655  1
  S2-  S157  1  0.75245022  0.63993581  0.66113682  1
  S2-  S158  1  0.74404522  0.86202666  0.14611552  1
  S2-  S159  1  0.65591390  0.88840135  0.64217661  1
  S2-  S160  1  0.12476070  0.00634357  0.34277303  1
  S2-  S161  1  0.20604990  -0.00750788  0.84667734  1
  S2-  S162  1  0.21525874  0.23839724  0.35741516  1
  S2-  S163  1  0.16950231  0.23163414  0.84233374  1
  S2-  S164  1  0.11868452  0.48483508  0.34702387  1
  S2-  S165  1  0.20935941  0.47981040  0.85990570  1
  S2-  S166  1  0.03973659  0.75354771  0.34874928  1
  S2-  S167  1  0.20662987  0.74710848  0.84225145  1
  S2-  S168  1  0.37918629  0.08648587  0.35772199  1
  S2-  S169  1  0.38792628  -0.09608243  0.83684931  1
  S2-  S170  1  0.41709286  0.27758963  0.31496353  1
  S2-  S171  1  0.38651555  0.14212547  0.85803266  1
  S2-  S172  1  0.34736603  0.46649959  0.32897230  1
  S2-  S173  1  0.39176717  0.58102686  0.84325073  1
  S2-  S174  1  0.40163575  0.65005974  0.36089003  1
  S2-  S175  1  0.37820840  0.75405994  0.76798302  1
  S2-  S176  1  0.64107425  0.09149891  0.34950267  1
  S2-  S177  1  0.59308995  -0.01394292  0.83573375  1
  S2-  S178  1  0.60811021  0.28699101  0.29466760  1
  S2-  S179  1  0.67266564  0.21238216  0.85160107  1
  S2-  S180  1  0.61324056  0.50103789  0.34668528  1
  S2-  S181  1  0.60591956  0.46248335  0.84831362  1
  S2-  S182  1  0.71105659  0.72982913  0.34834038  1
  S2-  S183  1  0.54867632  0.74319070  0.85016126  1
  S2-  S184  1  0.90605489  0.11632410  0.36123481  1
  S2-  S185  1  0.97725451  0.00639238  0.85930076  1
  S2-  S186  1  0.79064778  0.29301981  0.35205246  1
  S2-  S187  1  0.94593093  0.23767015  0.86817663  1
  S2-  S188  1  0.87809897  0.55909216  0.35235787  1
  S2-  S189  1  0.98628848  0.47663516  0.86301766  1
  S2-  S190  1  0.86205407  0.89809782  0.34657757  1
  S2-  S191  1  0.98337254  0.73727220  0.85981691  1
  S2-  S192  1  0.00957559  0.12011901  0.46430539  1
  S2-  S193  1  -0.02403451  0.11313046  0.96636487  1
  S2-  S194  1  0.00297052  0.37170670  0.45543003  1
  S2-  S195  1  -0.02540355  0.36523249  0.96687176  1
  S2-  S196  1  0.00403079  0.62098296  0.45195616  1
  S2-  S197  1  -0.02345498  0.61683900  0.96089956  1
  S2-  S198  1  0.00355684  0.87153860  0.45459601  1
  S2-  S199  1  -0.02042675  0.86576361  0.95689725  1
  S2-  S200  1  0.25468663  0.12122025  0.46272952  1
  S2-  S201  1  0.22996110  0.11610949  0.95701688  1
  S2-  S202  1  0.25498987  0.37633711  0.45444747  1
  S2-  S203  1  0.22952744  0.35933204  0.96041771  1
  S2-  S204  1  0.25199977  0.62078619  0.45155377  1
  S2-  S205  1  0.23570785  0.62230492  0.95265839  1
  S2-  S206  1  0.25696227  0.87141542  0.46634833  1
  S2-  S207  1  0.23677811  0.86841435  0.94817958  1
  S2-  S208  1  0.50936730  0.13119470  0.45055592  1
  S2-  S209  1  0.48073409  0.11396311  0.96181815  1
  S2-  S210  1  0.50746972  0.36967070  0.43908682  1
  S2-  S211  1  0.47921276  0.36569438  0.95148127  1
  S2-  S212  1  0.51003384  0.62003819  0.46030668  1
  S2-  S213  1  0.48148412  0.61443714  0.95472470  1
  S2-  S214  1  0.50528541  0.87158733  0.46909688  1
  S2-  S215  1  0.47487912  0.86692180  0.95195390  1
  S2-  S216  1  0.75167294  0.12488453  0.45386705  1
  S2-  S217  1  0.73170270  0.11370502  0.95696075  1
  S2-  S218  1  0.75317392  0.37296807  0.45568741  1
  S2-  S219  1  0.73025329  0.36541733  0.95466844  1
  S2-  S220  1  0.75762882  0.62018839  0.45526072  1
  S2-  S221  1  0.73097785  0.61527603  0.94962224  1
  S2-  S222  1  0.75318344  0.87035250  0.45478388  1
  S2-  S223  1  0.73216217  0.86500428  0.94404780  1
  S2-  S224  1  0.10711006  -0.01292150  0.03738648  1
  S2-  S225  1  0.13424745  -0.00340616  0.54878899  1
  S2-  S226  1  0.09840601  0.23855578  0.04422248  1
  S2-  S227  1  0.12841958  0.24834525  0.54772064  1
  S2-  S228  1  0.10383919  0.49515718  0.05025503  1
  S2-  S229  1  0.13033182  0.49632728  0.54733302  1
  S2-  S230  1  0.11080622  0.73778471  0.03702470  1
  S2-  S231  1  0.13079542  0.74413715  0.54409448  1
  S2-  S232  1  0.35356522  -0.00920823  0.06068460  1
  S2-  S233  1  0.38442339  0.00335463  0.54913738  1
  S2-  S234  1  0.36020290  0.23937759  0.04052908  1
  S2-  S235  1  0.38272833  0.24992639  0.53373060  1
  S2-  S236  1  0.35290225  0.48972954  0.04247809  1
  S2-  S237  1  0.38139851  0.49464745  0.53471771  1
  S2-  S238  1  0.35347452  0.73969796  0.05768881  1
  S2-  S239  1  0.37800348  0.74421888  0.54891194  1
  S2-  S240  1  0.60628135  -0.01162716  0.04612748  1
  S2-  S241  1  0.62802959  -0.00047379  0.54234825  1
  S2-  S242  1  0.60872752  0.24033918  0.04689185  1
  S2-  S243  1  0.63064116  0.24988568  0.55468162  1
  S2-  S244  1  0.61005144  0.48990490  0.04990256  1
  S2-  S245  1  0.63124139  0.49324838  0.54942253  1
  S2-  S246  1  0.60751902  0.73950334  0.04887983  1
  S2-  S247  1  0.63286069  0.74287622  0.54355008  1
  S2-  S248  1  0.85252846  -0.01233596  0.03913719  1
  S2-  S249  1  0.87495812  -0.00794333  0.54166336  1
  S2-  S250  1  0.85661041  0.23585553  0.05479699  1
  S2-  S251  1  0.88126398  0.24350214  0.54547625  1
  S2-  S252  1  0.85378404  0.48629610  0.04146368  1
  S2-  S253  1  0.88252010  0.49613890  0.54785459  1
  S2-  S254  1  0.85475366  0.74438639  0.03527999  1
  S2-  S255  1  0.88061607  0.74765140  0.55510295  1
