# generated using pymatgen
data_La6Ce7Pr13Nd19Sm19(BiS2)64
_symmetry_space_group_name_H-M   'P 1'
_cell_length_a   16.09698745
_cell_length_b   16.11576482
_cell_length_c   27.23664526
_cell_angle_alpha   90.10060085
_cell_angle_beta   89.94181473
_cell_angle_gamma   90.00766797
_symmetry_Int_Tables_number   1
_chemical_formula_structural   La6Ce7Pr13Nd19Sm19(BiS2)64
_chemical_formula_sum   'La6 Ce7 Pr13 Nd19 Sm19 Bi64 S128'
_cell_volume   7065.58692479
_cell_formula_units_Z   1
loop_
 _symmetry_equiv_pos_site_id
 _symmetry_equiv_pos_as_xyz
  1  'x, y, z'
loop_
 _atom_type_symbol
 _atom_type_oxidation_number
  La3+  3.0
  Ce3+  3.0
  Pr3+  3.0
  Nd3+  3.0
  Sm3+  3.0
  Bi2+  2.0
  S2-  -2.0
loop_
 _atom_site_type_symbol
 _atom_site_label
 _atom_site_symmetry_multiplicity
 _atom_site_fract_x
 _atom_site_fract_y
 _atom_site_fract_z
 _atom_site_occupancy
  La3+  La0  1  0.35876231  0.26254279  0.91804351  1
  La3+  La1  1  0.24450478  0.86495795  0.58844853  1
  La3+  La2  1  0.88778929  0.23476281  0.41047610  1
  La3+  La3  1  0.74026103  0.63885724  0.10764644  1
  La3+  La4  1  0.35990329  0.51109378  0.94031007  1
  La3+  La5  1  -0.00404480  0.12849814  0.56556497  1
  Ce3+  Ce6  1  0.35933141  0.75501165  0.94468238  1
  Ce3+  Ce7  1  0.73797868  0.87558876  0.05415579  1
  Ce3+  Ce8  1  0.11255480  0.25702398  0.93817849  1
  Ce3+  Ce9  1  0.62493352  0.74369114  0.44252711  1
  Ce3+  Ce10  1  0.61484991  0.74881239  0.93344684  1
  Ce3+  Ce11  1  0.61553515  0.00537225  0.93925935  1
  Ce3+  Ce12  1  0.61605617  -0.00764243  0.43035369  1
  Pr3+  Pr13  1  0.73171232  0.37328447  0.08250738  1
  Pr3+  Pr14  1  0.37063985  -0.00564658  0.43829081  1
  Pr3+  Pr15  1  0.12330767  0.74337599  0.44526870  1
  Pr3+  Pr16  1  0.75090008  0.61932671  0.56252676  1
  Pr3+  Pr17  1  0.37675591  0.24911899  0.43978601  1
  Pr3+  Pr18  1  0.62867843  0.26374703  0.92027109  1
  Pr3+  Pr19  1  0.25453127  0.12384171  0.56800687  1
  Pr3+  Pr20  1  0.87424207  0.49487192  0.43147541  1
  Pr3+  Pr21  1  0.23908930  0.13067044  0.05724447  1
  Pr3+  Pr22  1  0.46721205  0.39161086  0.61185684  1
  Pr3+  Pr23  1  0.24270496  0.61485615  0.57211262  1
  Pr3+  Pr24  1  0.62528191  0.24601361  0.42469086  1
  Pr3+  Pr25  1  0.11034785  0.74583023  0.90489285  1
  Nd3+  Nd26  1  0.48482586  0.63220304  0.07187399  1
  Nd3+  Nd27  1  -0.00364600  0.88040526  0.57649671  1
  Nd3+  Nd28  1  0.36133929  0.00392595  0.93331505  1
  Nd3+  Nd29  1  0.87644336  0.74655899  0.44106300  1
  Nd3+  Nd30  1  0.48752386  0.37631884  0.06408056  1
  Nd3+  Nd31  1  0.74216667  0.36059279  0.56099866  1
  Nd3+  Nd32  1  0.37257801  0.74404301  0.44358834  1
  Nd3+  Nd33  1  0.85952983  0.50650123  0.95452082  1
  Nd3+  Nd34  1  0.61306952  0.51005127  0.94814986  1
  Nd3+  Nd35  1  0.23760463  0.63158525  0.07304599  1
  Nd3+  Nd36  1  0.73634774  0.13088495  0.06139338  1
  Nd3+  Nd37  1  0.74567529  0.12320755  0.55006500  1
  Nd3+  Nd38  1  -0.00583961  0.61794670  0.56842659  1
  Nd3+  Nd39  1  0.50160062  0.12631055  0.55781489  1
  Nd3+  Nd40  1  0.49809776  0.86969668  0.56334152  1
  Nd3+  Nd41  1  0.24112157  0.37852555  0.06431417  1
  Nd3+  Nd42  1  0.12980279  -0.00726823  0.44344790  1
  Nd3+  Nd43  1  0.48937604  0.87939138  0.05153921  1
  Nd3+  Nd44  1  0.11019546  0.50733901  0.94332229  1
  Sm3+  Sm45  1  -0.01239600  0.87799248  0.05388071  1
  Sm3+  Sm46  1  0.86364728  0.25705958  0.94906627  1
  Sm3+  Sm47  1  0.10979780  0.00598986  0.93672666  1
  Sm3+  Sm48  1  -0.01029098  0.63246974  0.06359136  1
  Sm3+  Sm49  1  0.12358418  0.49636446  0.44344779  1
  Sm3+  Sm50  1  -0.01187979  0.13107570  0.05954895  1
  Sm3+  Sm51  1  0.12748774  0.24331421  0.43996258  1
  Sm3+  Sm52  1  0.37485435  0.49641157  0.43634847  1
  Sm3+  Sm53  1  0.48677601  0.13234259  0.04336287  1
  Sm3+  Sm54  1  0.23398743  0.88119326  0.05073523  1
  Sm3+  Sm55  1  0.87371007  -0.00448838  0.43806239  1
  Sm3+  Sm56  1  0.86540104  0.00339990  0.94329131  1
  Sm3+  Sm57  1  0.74762024  0.87164755  0.55054427  1
  Sm3+  Sm58  1  0.24936305  0.37146623  0.54962216  1
  Sm3+  Sm59  1  0.49737624  0.61840727  0.55591494  1
  Sm3+  Sm60  1  0.62541654  0.49420383  0.43980835  1
  Sm3+  Sm61  1  -0.00640798  0.36529305  0.55208637  1
  Sm3+  Sm62  1  -0.01508562  0.38252648  0.06503916  1
  Sm3+  Sm63  1  0.86526062  0.75154791  0.93791255  1
  Bi2+  Bi64  1  0.02671828  0.09007362  0.28615955  1
  Bi2+  Bi65  1  0.00424059  0.15923784  0.78747041  1
  Bi2+  Bi66  1  0.05618041  0.41411500  0.24977773  1
  Bi2+  Bi67  1  0.03786249  0.34772474  0.81544442  1
  Bi2+  Bi68  1  0.03615239  0.68130999  0.29493181  1
  Bi2+  Bi69  1  -0.06921084  0.61456387  0.78103218  1
  Bi2+  Bi70  1  0.03230259  0.89247038  0.28485310  1
  Bi2+  Bi71  1  -0.07780286  0.87819697  0.78603530  1
  Bi2+  Bi72  1  0.20512751  0.16664841  0.31631098  1
  Bi2+  Bi73  1  0.24144699  0.11447786  0.79744246  1
  Bi2+  Bi74  1  0.22981297  0.36346788  0.30068640  1
  Bi2+  Bi75  1  0.22256742  0.43097107  0.77912867  1
  Bi2+  Bi76  1  0.22310118  0.57111173  0.28273037  1
  Bi2+  Bi77  1  0.28138924  0.61565737  0.80598892  1
  Bi2+  Bi78  1  0.25398891  0.89241200  0.29183051  1
  Bi2+  Bi79  1  0.30635234  0.86148480  0.78009323  1
  Bi2+  Bi80  1  0.46450270  0.08375454  0.27378513  1
  Bi2+  Bi81  1  0.50007271  0.10647964  0.78294440  1
  Bi2+  Bi82  1  0.42312982  0.35491069  0.28152132  1
  Bi2+  Bi83  1  0.50688950  0.36728851  0.80905257  1
  Bi2+  Bi84  1  0.48097360  0.63444987  0.29129526  1
  Bi2+  Bi85  1  0.51311215  0.63794495  0.77080040  1
  Bi2+  Bi86  1  0.49214047  0.85009139  0.29635111  1
  Bi2+  Bi87  1  0.52912520  0.84067354  0.77448620  1
  Bi2+  Bi88  1  0.76594488  0.14020823  0.29161780  1
  Bi2+  Bi89  1  0.80691545  0.12690868  0.78839814  1
  Bi2+  Bi90  1  0.73572349  0.38839325  0.29061253  1
  Bi2+  Bi91  1  0.77431842  0.39155895  0.79823559  1
  Bi2+  Bi92  1  0.74399693  0.63440880  0.31031387  1
  Bi2+  Bi93  1  0.75048101  0.63761206  0.82643261  1
  Bi2+  Bi94  1  0.77276342  0.88544948  0.28308208  1
  Bi2+  Bi95  1  0.71646081  0.82621153  0.81027908  1
  Bi2+  Bi96  1  0.14806604  -0.00857830  0.21205076  1
  Bi2+  Bi97  1  0.06819205  -0.03210599  0.73171035  1
  Bi2+  Bi98  1  0.15861602  0.25220781  0.21285650  1
  Bi2+  Bi99  1  0.10810048  0.27585221  0.71552548  1
  Bi2+  Bi100  1  0.18871555  0.49240097  0.17564181  1
  Bi2+  Bi101  1  0.04735132  0.47392853  0.72233685  1
  Bi2+  Bi102  1  0.10117653  0.66707647  0.18490657  1
  Bi2+  Bi103  1  0.12837563  0.71907253  0.71762286  1
  Bi2+  Bi104  1  0.37699194  -0.04905156  0.20787544  1
  Bi2+  Bi105  1  0.40617355  0.03424373  0.68635915  1
  Bi2+  Bi106  1  0.37436788  0.21333613  0.20123481  1
  Bi2+  Bi107  1  0.32689294  0.28033515  0.72258268  1
  Bi2+  Bi108  1  0.38551878  0.49257904  0.19969490  1
  Bi2+  Bi109  1  0.31702466  0.54919622  0.70008048  1
  Bi2+  Bi110  1  0.27296966  0.73831375  0.21760329  1
  Bi2+  Bi111  1  0.42210596  0.75732316  0.69315863  1
  Bi2+  Bi112  1  0.64386625  0.01460005  0.23329824  1
  Bi2+  Bi113  1  0.67717822  -0.00434696  0.74575030  1
  Bi2+  Bi114  1  0.60205738  0.24525715  0.20438893  1
  Bi2+  Bi115  1  0.64106145  0.25556357  0.69947884  1
  Bi2+  Bi116  1  0.57980092  0.52056278  0.21750409  1
  Bi2+  Bi117  1  0.67245112  0.53268393  0.73347694  1
  Bi2+  Bi118  1  0.61190433  0.80283131  0.21220540  1
  Bi2+  Bi119  1  0.67359965  0.72451499  0.70651237  1
  Bi2+  Bi120  1  0.87194585  -0.00213415  0.20731077  1
  Bi2+  Bi121  1  0.84959104  -0.01374844  0.69773535  1
  Bi2+  Bi122  1  0.88476803  0.25604443  0.20136085  1
  Bi2+  Bi123  1  0.87874744  0.26499237  0.71084436  1
  Bi2+  Bi124  1  0.89970686  0.52113472  0.22457881  1
  Bi2+  Bi125  1  0.85078381  0.46407540  0.69735553  1
  Bi2+  Bi126  1  0.88750742  0.78965275  0.20977585  1
  Bi2+  Bi127  1  0.87525558  0.75037281  0.70279144  1
  S2-  S128  1  -0.04211231  0.12014148  0.15598054  1
  S2-  S129  1  0.00244561  0.02434742  0.64728925  1
  S2-  S130  1  0.01633310  0.32725128  0.15680059  1
  S2-  S131  1  -0.00300460  0.26563227  0.63329814  1
  S2-  S132  1  -0.09231065  0.64080165  0.15003302  1
  S2-  S133  1  0.09874415  0.60227292  0.64843465  1
  S2-  S134  1  -0.01945199  0.88798020  0.15209628  1
  S2-  S135  1  0.09287908  0.84513902  0.65936222  1
  S2-  S136  1  0.22839961  0.12516299  0.15740342  1
  S2-  S137  1  0.26966517  0.14106296  0.66810045  1
  S2-  S138  1  0.36187380  0.35093078  0.13621978  1
  S2-  S139  1  0.29319182  0.39418666  0.64348456  1
  S2-  S140  1  0.36023448  0.64611244  0.14688240  1
  S2-  S141  1  0.26637535  0.71922979  0.65275946  1
  S2-  S142  1  0.23727459  0.87921640  0.14882506  1
  S2-  S143  1  0.28599442  0.92938614  0.68180809  1
  S2-  S144  1  0.49801122  0.14664175  0.14181956  1
  S2-  S145  1  0.54267214  0.14282001  0.65492304  1
  S2-  S146  1  0.58944315  0.37679551  0.14853536  1
  S2-  S147  1  0.47914675  0.33824352  0.71050834  1
  S2-  S148  1  0.58097215  0.65587123  0.15463219  1
  S2-  S149  1  0.46534108  0.55778580  0.64639699  1
  S2-  S150  1  0.49666380  0.87614717  0.15138120  1
  S2-  S151  1  0.51202372  0.89948760  0.66111432  1
  S2-  S152  1  0.73439157  0.21192706  0.15020839  1
  S2-  S153  1  0.76724522  0.21728348  0.63380282  1
  S2-  S154  1  0.82089517  0.40277758  0.17137335  1
  S2-  S155  1  0.63712907  0.38266586  0.64100836  1
  S2-  S156  1  0.73946792  0.59005805  0.21397623  1
  S2-  S157  1  0.86556936  0.61397995  0.63934460  1
  S2-  S158  1  0.74353299  0.80633955  0.14364719  1
  S2-  S159  1  0.75687340  0.85845822  0.64782917  1
  S2-  S160  1  0.24371117  0.00944141  0.36554823  1
  S2-  S161  1  0.13210502  0.01772999  0.83787635  1
  S2-  S162  1  0.05089207  0.23018807  0.35339269  1
  S2-  S163  1  0.20711155  0.24277005  0.85706123  1
  S2-  S164  1  0.09532924  0.54019313  0.35068003  1
  S2-  S165  1  0.13466214  0.59006558  0.85748538  1
  S2-  S166  1  0.13682177  0.78903866  0.34832439  1
  S2-  S167  1  0.16585819  0.80355586  0.81034443  1
  S2-  S168  1  0.48375233  -0.01602957  0.36036389  1
  S2-  S169  1  0.36338780  0.00760249  0.83331568  1
  S2-  S170  1  0.40455333  0.21362241  0.34175221  1
  S2-  S171  1  0.39792305  0.22589414  0.81929308  1
  S2-  S172  1  0.40460995  0.51149422  0.33951725  1
  S2-  S173  1  0.36419232  0.43661001  0.84909481  1
  S2-  S174  1  0.37991568  0.74054284  0.34344287  1
  S2-  S175  1  0.37691117  0.74188321  0.84793433  1
  S2-  S176  1  0.69213267  0.00098638  0.34011956  1
  S2-  S177  1  0.61025325  0.01060261  0.84273133  1
  S2-  S178  1  0.64110509  0.25641162  0.32242147  1
  S2-  S179  1  0.59798249  0.22223236  0.81823487  1
  S2-  S180  1  0.63867034  0.50607889  0.34151196  1
  S2-  S181  1  0.63776132  0.41504875  0.86405173  1
  S2-  S182  1  0.61967071  0.74238765  0.34417013  1
  S2-  S183  1  0.58924042  0.62345416  0.86460079  1
  S2-  S184  1  0.89210921  0.08109290  0.35362240  1
  S2-  S185  1  0.90169263  0.02177969  0.84865997  1
  S2-  S186  1  0.85711303  0.28740455  0.31127781  1
  S2-  S187  1  0.79094878  0.25949560  0.86127655  1
  S2-  S188  1  0.85346383  0.50272732  0.33074488  1
  S2-  S189  1  0.87772321  0.50030328  0.85456323  1
  S2-  S190  1  0.88105531  0.72381340  0.34280916  1
  S2-  S191  1  0.95736549  0.74384784  0.85410924  1
  S2-  S192  1  0.00699625  0.11526044  0.45811686  1
  S2-  S193  1  -0.01283265  0.13094480  0.95383349  1
  S2-  S194  1  0.00278480  0.37071919  0.44770731  1
  S2-  S195  1  -0.01358910  0.38096812  0.95980880  1
  S2-  S196  1  -0.00255834  0.61825658  0.45899391  1
  S2-  S197  1  -0.01203159  0.63051922  0.96013349  1
  S2-  S198  1  -0.00127448  0.87420188  0.45587048  1
  S2-  S199  1  -0.00860124  0.87877675  0.94913361  1
  S2-  S200  1  0.25129382  0.12638894  0.46228953  1
  S2-  S201  1  0.23586563  0.12432460  0.95186066  1
  S2-  S202  1  0.24773400  0.37322945  0.44524700  1
  S2-  S203  1  0.23355644  0.38403286  0.95731151  1
  S2-  S204  1  0.24878669  0.61704125  0.45592030  1
  S2-  S205  1  0.23296529  0.63579931  0.96427145  1
  S2-  S206  1  0.25017661  0.86568998  0.46445374  1
  S2-  S207  1  0.23026278  0.87969020  0.94496684  1
  S2-  S208  1  0.49807411  0.12355681  0.45253620  1
  S2-  S209  1  0.48774689  0.13073810  0.93946380  1
  S2-  S210  1  0.50039517  0.37558884  0.43758017  1
  S2-  S211  1  0.48772567  0.38121316  0.95554043  1
  S2-  S212  1  0.49945718  0.61794403  0.45106291  1
  S2-  S213  1  0.48266611  0.63345063  0.96472089  1
  S2-  S214  1  0.49739525  0.86349061  0.45841087  1
  S2-  S215  1  0.48912106  0.87913675  0.94463942  1
  S2-  S216  1  0.74787293  0.11847752  0.44572455  1
  S2-  S217  1  0.74281991  0.12712624  0.95492399  1
  S2-  S218  1  0.75000567  0.37006627  0.44434381  1
  S2-  S219  1  0.74308056  0.37994953  0.97079907  1
  S2-  S220  1  0.75137389  0.62000048  0.45468809  1
  S2-  S221  1  0.74182429  0.63368004  0.95773224  1
  S2-  S222  1  0.75067979  0.87152392  0.44635835  1
  S2-  S223  1  0.74307303  0.87890272  0.94807587  1
  S2-  S224  1  0.10920139  0.00538110  0.04443914  1
  S2-  S225  1  0.13028988  -0.00370960  0.55023066  1
  S2-  S226  1  0.11206442  0.25539598  0.04644786  1
  S2-  S227  1  0.13054213  0.24894837  0.54382235  1
  S2-  S228  1  0.11069064  0.50414365  0.04997706  1
  S2-  S229  1  0.11980298  0.48706416  0.54727761  1
  S2-  S230  1  0.11191790  0.75714087  0.05312630  1
  S2-  S231  1  0.11781657  0.74589905  0.55036166  1
  S2-  S232  1  0.36269255  0.00353812  0.04159598  1
  S2-  S233  1  0.37516699  -0.00469167  0.55016317  1
  S2-  S234  1  0.36179335  0.25107820  0.03097038  1
  S2-  S235  1  0.38101848  0.25568952  0.54952127  1
  S2-  S236  1  0.36146790  0.50552044  0.04724165  1
  S2-  S237  1  0.37219204  0.49634387  0.54000899  1
  S2-  S238  1  0.35904936  0.76161706  0.04817715  1
  S2-  S239  1  0.37418276  0.74169009  0.54911454  1
  S2-  S240  1  0.61268058  0.00644404  0.04653469  1
  S2-  S241  1  0.62354254  -0.00498163  0.54298674  1
  S2-  S242  1  0.61122151  0.25014037  0.03705505  1
  S2-  S243  1  0.62334801  0.24324569  0.53191196  1
  S2-  S244  1  0.61516228  0.51054584  0.05466248  1
  S2-  S245  1  0.62334940  0.49921710  0.54323901  1
  S2-  S246  1  0.61297246  0.75526175  0.04164764  1
  S2-  S247  1  0.62360242  0.74321403  0.55086037  1
  S2-  S248  1  0.86377485  0.00472146  0.04817415  1
  S2-  S249  1  0.86981535  -0.00374039  0.54233887  1
  S2-  S250  1  0.86665663  0.25477742  0.05176027  1
  S2-  S251  1  0.87201806  0.24700341  0.52591959  1
  S2-  S252  1  0.86217451  0.50636218  0.05879593  1
  S2-  S253  1  0.87070910  0.48590333  0.53995181  1
  S2-  S254  1  0.86642332  0.75492801  0.04278430  1
  S2-  S255  1  0.87637968  0.75244934  0.54626376  1
