# generated using pymatgen
data_La6Ce7Pr13Nd19Sm19(BiS2)64
_symmetry_space_group_name_H-M   'P 1'
_cell_length_a   16.14386644
_cell_length_b   16.12729831
_cell_length_c   27.16215876
_cell_angle_alpha   89.94709926
_cell_angle_beta   90.08455857
_cell_angle_gamma   89.99521366
_symmetry_Int_Tables_number   1
_chemical_formula_structural   La6Ce7Pr13Nd19Sm19(BiS2)64
_chemical_formula_sum   'La6 Ce7 Pr13 Nd19 Sm19 Bi64 S128'
_cell_volume   7071.84606517
_cell_formula_units_Z   1
loop_
 _symmetry_equiv_pos_site_id
 _symmetry_equiv_pos_as_xyz
  1  'x, y, z'
loop_
 _atom_type_symbol
 _atom_type_oxidation_number
  La3+  3.0
  Ce3+  3.0
  Pr3+  3.0
  Nd3+  3.0
  Sm3+  3.0
  Bi2+  2.0
  S2-  -2.0
loop_
 _atom_site_type_symbol
 _atom_site_label
 _atom_site_symmetry_multiplicity
 _atom_site_fract_x
 _atom_site_fract_y
 _atom_site_fract_z
 _atom_site_occupancy
  La3+  La0  1  0.51229862  0.61764873  0.09558837  1
  La3+  La1  1  0.38428974  0.25924620  0.90606251  1
  La3+  La2  1  0.50435866  0.11378167  0.59848541  1
  La3+  La3  1  0.23808844  0.13161564  0.59173454  1
  La3+  La4  1  0.11574431  0.50106461  0.39136097  1
  La3+  La5  1  0.50354720  0.88758217  0.09929359  1
  Ce3+  Ce6  1  0.25918754  0.62070478  0.06509742  1
  Ce3+  Ce7  1  0.11828937  0.25017809  0.43930181  1
  Ce3+  Ce8  1  0.87210368  0.49503842  0.43458793  1
  Ce3+  Ce9  1  0.49280215  0.37126127  0.56291437  1
  Ce3+  Ce10  1  0.88154272  0.74693652  0.95105313  1
  Ce3+  Ce11  1  0.24326147  0.37148343  0.55669983  1
  Ce3+  Ce12  1  0.63380111  0.25024372  0.93065737  1
  Pr3+  Pr13  1  0.75661266  0.36636435  0.05807218  1
  Pr3+  Pr14  1  0.26257733  0.11897293  0.05250155  1
  Pr3+  Pr15  1  0.61888241  -0.00132163  0.43704380  1
  Pr3+  Pr16  1  0.87951021  0.24547495  0.92047140  1
  Pr3+  Pr17  1  0.36936425  0.00020763  0.45143843  1
  Pr3+  Pr18  1  0.00696138  0.87359746  0.06214694  1
  Pr3+  Pr19  1  0.36437533  0.75260971  0.43184741  1
  Pr3+  Pr20  1  0.38380713  0.74530655  0.94312562  1
  Pr3+  Pr21  1  0.61710152  0.49475556  0.43758817  1
  Pr3+  Pr22  1  0.75415080  0.62067206  0.06388555  1
  Pr3+  Pr23  1  0.23726950  0.86966354  0.57125993  1
  Pr3+  Pr24  1  0.62811733  0.74518273  0.94493272  1
  Pr3+  Pr25  1  -0.00795724  0.12516874  0.56960601  1
  Nd3+  Nd26  1  0.49049673  0.62846586  0.55809890  1
  Nd3+  Nd27  1  0.86939056  -0.00027652  0.44290749  1
  Nd3+  Nd28  1  0.00632247  0.36840439  0.05531768  1
  Nd3+  Nd29  1  0.13362082  0.49497739  0.93937520  1
  Nd3+  Nd30  1  0.61717618  0.74677524  0.42923930  1
  Nd3+  Nd31  1  0.88301807  0.49768567  0.94178190  1
  Nd3+  Nd32  1  0.23926863  0.62250647  0.54688543  1
  Nd3+  Nd33  1  0.74497791  0.12344182  0.56242710  1
  Nd3+  Nd34  1  0.11491847  0.75723399  0.42882392  1
  Nd3+  Nd35  1  -0.00577022  0.87144333  0.56818296  1
  Nd3+  Nd36  1  0.13341314  0.24533294  0.93897594  1
  Nd3+  Nd37  1  0.00874619  0.61974210  0.06359723  1
  Nd3+  Nd38  1  0.74397882  0.62393266  0.55319984  1
  Nd3+  Nd39  1  0.50534831  0.36787809  0.06589762  1
  Nd3+  Nd40  1  0.38106353  -0.01234000  0.92302416  1
  Nd3+  Nd41  1  0.36790249  0.49723761  0.44019658  1
  Nd3+  Nd42  1  0.74317458  0.38470756  0.56998630  1
  Nd3+  Nd43  1  0.62899597  -0.00302440  0.93334364  1
  Nd3+  Nd44  1  0.13094067  0.74573727  0.94546179  1
  Sm3+  Sm45  1  0.36862300  0.24572113  0.44952451  1
  Sm3+  Sm46  1  0.38367228  0.49811476  0.94613899  1
  Sm3+  Sm47  1  -0.00447349  0.37413207  0.55803043  1
  Sm3+  Sm48  1  0.61819725  0.24829399  0.44950849  1
  Sm3+  Sm49  1  0.87202552  0.74735947  0.44253472  1
  Sm3+  Sm50  1  0.88127623  -0.00501621  0.94324068  1
  Sm3+  Sm51  1  0.49068057  0.87028508  0.56643811  1
  Sm3+  Sm52  1  0.00574910  0.12087904  0.04924109  1
  Sm3+  Sm53  1  0.25973553  0.87049142  0.05619033  1
  Sm3+  Sm54  1  0.74296957  0.87131767  0.55187358  1
  Sm3+  Sm55  1  0.75456769  0.12158719  0.05051882  1
  Sm3+  Sm56  1  0.25797000  0.36841397  0.05917148  1
  Sm3+  Sm57  1  0.62931791  0.49685429  0.94623127  1
  Sm3+  Sm58  1  0.50395095  0.12041832  0.04627588  1
  Sm3+  Sm59  1  0.13387771  -0.00229778  0.94015004  1
  Sm3+  Sm60  1  0.74935499  0.87293379  0.05883042  1
  Sm3+  Sm61  1  0.11887536  -0.00083139  0.44319132  1
  Sm3+  Sm62  1  -0.00275775  0.62065396  0.55162908  1
  Sm3+  Sm63  1  0.86891875  0.24932012  0.44770093  1
  Bi2+  Bi64  1  0.01498549  0.10701603  0.29960892  1
  Bi2+  Bi65  1  -0.03216275  0.18290837  0.79781655  1
  Bi2+  Bi66  1  -0.00864553  0.35823156  0.28594370  1
  Bi2+  Bi67  1  -0.02217186  0.38840179  0.78744287  1
  Bi2+  Bi68  1  -0.02225490  0.64086542  0.28602970  1
  Bi2+  Bi69  1  0.00221411  0.66534283  0.78584535  1
  Bi2+  Bi70  1  -0.02620381  0.90851355  0.30082077  1
  Bi2+  Bi71  1  -0.02260964  0.86179379  0.79024955  1
  Bi2+  Bi72  1  0.21516723  0.10568180  0.30115845  1
  Bi2+  Bi73  1  0.22588903  0.11090833  0.79433486  1
  Bi2+  Bi74  1  0.26186486  0.29254708  0.27751118  1
  Bi2+  Bi75  1  0.22804382  0.39969710  0.80125782  1
  Bi2+  Bi76  1  0.26152782  0.62932928  0.28942527  1
  Bi2+  Bi77  1  0.28391095  0.63480195  0.80762337  1
  Bi2+  Bi78  1  0.23075368  0.91025242  0.28372828  1
  Bi2+  Bi79  1  0.24202334  0.82637790  0.78931404  1
  Bi2+  Bi80  1  0.49482590  0.13297020  0.27816488  1
  Bi2+  Bi81  1  0.52222038  0.12290783  0.80106934  1
  Bi2+  Bi82  1  0.50005322  0.37028127  0.30988633  1
  Bi2+  Bi83  1  0.53762319  0.40649696  0.77977231  1
  Bi2+  Bi84  1  0.50000524  0.62384661  0.29917641  1
  Bi2+  Bi85  1  0.47789328  0.61571304  0.82511384  1
  Bi2+  Bi86  1  0.48786874  0.88527994  0.31035460  1
  Bi2+  Bi87  1  0.50499539  0.80173789  0.78756710  1
  Bi2+  Bi88  1  0.79333989  0.13596320  0.29628402  1
  Bi2+  Bi89  1  0.77712966  0.13597990  0.78268924  1
  Bi2+  Bi90  1  0.74675418  0.32927105  0.28375163  1
  Bi2+  Bi91  1  0.79073880  0.38024650  0.77671425  1
  Bi2+  Bi92  1  0.78001040  0.59968597  0.27198462  1
  Bi2+  Bi93  1  0.76018678  0.67008604  0.78527840  1
  Bi2+  Bi94  1  0.74841424  0.92767329  0.25653871  1
  Bi2+  Bi95  1  0.78617449  0.91566394  0.78409838  1
  Bi2+  Bi96  1  0.11321279  0.01124990  0.21082894  1
  Bi2+  Bi97  1  0.04464430  0.01412067  0.73051068  1
  Bi2+  Bi98  1  0.09936703  0.23593119  0.22116249  1
  Bi2+  Bi99  1  0.09742824  0.26726520  0.71127110  1
  Bi2+  Bi100  1  0.12941667  0.50660448  0.19202979  1
  Bi2+  Bi101  1  0.19621025  0.53270686  0.71951183  1
  Bi2+  Bi102  1  0.11265952  0.74595350  0.21420804  1
  Bi2+  Bi103  1  0.10500666  0.72342626  0.69429474  1
  Bi2+  Bi104  1  0.36026722  0.04928030  0.20833754  1
  Bi2+  Bi105  1  0.39128522  -0.02439893  0.72427648  1
  Bi2+  Bi106  1  0.41039596  0.24567275  0.18614208  1
  Bi2+  Bi107  1  0.36574944  0.26445801  0.70894398  1
  Bi2+  Bi108  1  0.38046035  0.42813834  0.22341511  1
  Bi2+  Bi109  1  0.39454132  0.52336880  0.72976928  1
  Bi2+  Bi110  1  0.34735307  0.77889014  0.20600586  1
  Bi2+  Bi111  1  0.37098367  0.72980395  0.70777641  1
  Bi2+  Bi112  1  0.63214964  0.06425215  0.20816576  1
  Bi2+  Bi113  1  0.65665268  -0.02999042  0.70693995  1
  Bi2+  Bi114  1  0.59973007  0.26590912  0.21377692  1
  Bi2+  Bi115  1  0.63051482  0.26589820  0.70537108  1
  Bi2+  Bi116  1  0.64222412  0.49079607  0.21441381  1
  Bi2+  Bi117  1  0.65594951  0.53161477  0.72110511  1
  Bi2+  Bi118  1  0.62115712  0.75612438  0.21325759  1
  Bi2+  Bi119  1  0.62173755  0.71975747  0.70681361  1
  Bi2+  Bi120  1  0.90564733  0.00891470  0.20585548  1
  Bi2+  Bi121  1  0.87029088  0.00803830  0.68273376  1
  Bi2+  Bi122  1  0.87804205  0.20898244  0.20293642  1
  Bi2+  Bi123  1  0.89097314  0.20552198  0.69108759  1
  Bi2+  Bi124  1  0.87860961  0.46652210  0.21347749  1
  Bi2+  Bi125  1  0.87711685  0.56831547  0.71320020  1
  Bi2+  Bi126  1  0.85508718  0.76705359  0.23299163  1
  Bi2+  Bi127  1  0.87063264  0.79218114  0.70134450  1
  S2-  S128  1  0.01196371  0.14023574  0.14581888  1
  S2-  S129  1  0.09393881  0.11553800  0.65250444  1
  S2-  S130  1  0.00996590  0.40161274  0.15249870  1
  S2-  S131  1  -0.00500778  0.35202163  0.65670865  1
  S2-  S132  1  0.01324846  0.63503218  0.16246901  1
  S2-  S133  1  0.00270830  0.59780020  0.64947942  1
  S2-  S134  1  0.06062417  0.86593036  0.15808177  1
  S2-  S135  1  0.10579954  0.86447773  0.64382008  1
  S2-  S136  1  0.27012029  0.15577988  0.15089333  1
  S2-  S137  1  0.30678967  0.10001587  0.68428732  1
  S2-  S138  1  0.24661033  0.40857552  0.15473826  1
  S2-  S139  1  0.23209456  0.30163835  0.64598370  1
  S2-  S140  1  0.24470922  0.64836071  0.16325070  1
  S2-  S141  1  0.24553520  0.65066757  0.64479913  1
  S2-  S142  1  0.31504404  0.90553472  0.14588765  1
  S2-  S143  1  0.31969463  0.87442595  0.66290821  1
  S2-  S144  1  0.49873473  0.05159564  0.13673593  1
  S2-  S145  1  0.49285918  0.16159065  0.69866915  1
  S2-  S146  1  0.50450655  0.46421425  0.15041684  1
  S2-  S147  1  0.50953457  0.36725410  0.65999798  1
  S2-  S148  1  0.47284187  0.66361110  0.19424082  1
  S2-  S149  1  0.49701885  0.73789138  0.63411292  1
  S2-  S150  1  0.49106305  0.86330474  0.20535065  1
  S2-  S151  1  0.51346956  0.95946654  0.65152972  1
  S2-  S152  1  0.74637978  0.14436401  0.14756045  1
  S2-  S153  1  0.66690312  0.11176396  0.65049163  1
  S2-  S154  1  0.75197874  0.40182433  0.15609335  1
  S2-  S155  1  0.76369611  0.32144745  0.66311237  1
  S2-  S156  1  0.66953066  0.62776909  0.15120332  1
  S2-  S157  1  0.75280437  0.52915019  0.63672939  1
  S2-  S158  1  0.67051157  0.87707934  0.14508085  1
  S2-  S159  1  0.72002872  0.83282674  0.64687815  1
  S2-  S160  1  0.11573447  -0.10523302  0.36277487  1
  S2-  S161  1  0.15411979  -0.01014330  0.84285977  1
  S2-  S162  1  0.11835774  0.33272048  0.35325710  1
  S2-  S163  1  0.15570463  0.24909546  0.84084477  1
  S2-  S164  1  0.16895572  0.49884535  0.28791277  1
  S2-  S165  1  0.09692850  0.48539129  0.84220157  1
  S2-  S166  1  0.12539785  0.67010239  0.34152311  1
  S2-  S167  1  0.13780619  0.73892235  0.84595316  1
  S2-  S168  1  0.35940075  -0.04492338  0.35341970  1
  S2-  S169  1  0.37625655  0.04105388  0.82628679  1
  S2-  S170  1  0.38243721  0.26775881  0.35117157  1
  S2-  S171  1  0.35121273  0.23143020  0.80254361  1
  S2-  S172  1  0.37526705  0.52145521  0.34138010  1
  S2-  S173  1  0.36064383  0.42208390  0.85903535  1
  S2-  S174  1  0.38214858  0.74284882  0.33118971  1
  S2-  S175  1  0.37290657  0.84037273  0.85680343  1
  S2-  S176  1  0.58185008  0.01089626  0.33886061  1
  S2-  S177  1  0.60873615  0.00120177  0.83357628  1
  S2-  S178  1  0.62205904  0.27772905  0.35270834  1
  S2-  S179  1  0.53622177  0.27188001  0.85054521  1
  S2-  S180  1  0.60146808  0.51447188  0.33767046  1
  S2-  S181  1  0.60988153  0.50443184  0.84766939  1
  S2-  S182  1  0.60913113  0.75478780  0.32894447  1
  S2-  S183  1  0.63914475  0.75064497  0.84423363  1
  S2-  S184  1  0.82128848  -0.00972196  0.34778226  1
  S2-  S185  1  0.87121945  0.03047112  0.84784162  1
  S2-  S186  1  0.87350435  0.27430381  0.35047121  1
  S2-  S187  1  0.75115441  0.26040381  0.85179381  1
  S2-  S188  1  0.95499041  0.49666378  0.34830960  1
  S2-  S189  1  0.86100847  0.48006765  0.84363937  1
  S2-  S190  1  0.89906390  0.76629572  0.34661328  1
  S2-  S191  1  0.88796013  0.73720235  0.85430400  1
  S2-  S192  1  -0.00738114  0.12365310  0.45631333  1
  S2-  S193  1  0.00664031  0.11965795  0.94501861  1
  S2-  S194  1  -0.00648463  0.37264538  0.45421541  1
  S2-  S195  1  0.00536288  0.36874921  0.94842435  1
  S2-  S196  1  -0.00383237  0.62344925  0.44752349  1
  S2-  S197  1  0.00811938  0.62028126  0.95617668  1
  S2-  S198  1  -0.01106171  0.87569327  0.46107023  1
  S2-  S199  1  0.00828908  0.87453566  0.95360595  1
  S2-  S200  1  0.24240095  0.12393211  0.45326693  1
  S2-  S201  1  0.26001168  0.12213868  0.94466787  1
  S2-  S202  1  0.24627563  0.37366130  0.45151558  1
  S2-  S203  1  0.25551536  0.37006298  0.95571831  1
  S2-  S204  1  0.24063539  0.62024572  0.44203185  1
  S2-  S205  1  0.25665059  0.62003456  0.95626136  1
  S2-  S206  1  0.24236971  0.87563421  0.46124432  1
  S2-  S207  1  0.25209217  0.87107722  0.95328588  1
  S2-  S208  1  0.49548358  0.12624197  0.45247080  1
  S2-  S209  1  0.50213120  0.12188245  0.94273505  1
  S2-  S210  1  0.49206294  0.37146693  0.45666727  1
  S2-  S211  1  0.50632112  0.37595997  0.95918903  1
  S2-  S212  1  0.49215377  0.62493736  0.45146458  1
  S2-  S213  1  0.50578998  0.61857852  0.96168553  1
  S2-  S214  1  0.49513882  0.87086944  0.45593462  1
  S2-  S215  1  0.50896778  0.87250551  0.94989469  1
  S2-  S216  1  0.74357260  0.12598080  0.45487485  1
  S2-  S217  1  0.75774578  0.11905820  0.94767240  1
  S2-  S218  1  0.74402349  0.37258829  0.45845097  1
  S2-  S219  1  0.75723800  0.37661733  0.95245821  1
  S2-  S220  1  0.74561245  0.62343365  0.44551103  1
  S2-  S221  1  0.75581952  0.61974728  0.95593039  1
  S2-  S222  1  0.74522228  0.86910687  0.44701758  1
  S2-  S223  1  0.75618064  0.87316927  0.95240134  1
  S2-  S224  1  0.13298273  -0.00251379  0.04642609  1
  S2-  S225  1  0.11789965  0.00182451  0.54639741  1
  S2-  S226  1  0.13207217  0.24487234  0.04580194  1
  S2-  S227  1  0.11567474  0.24824673  0.54462033  1
  S2-  S228  1  0.13255616  0.49454793  0.04643512  1
  S2-  S229  1  0.11869131  0.49526130  0.54979272  1
  S2-  S230  1  0.13301351  0.74714660  0.05108422  1
  S2-  S231  1  0.11459522  0.74573169  0.53671544  1
  S2-  S232  1  0.38362368  -0.00748387  0.03383526  1
  S2-  S233  1  0.36761523  0.00193601  0.55706946  1
  S2-  S234  1  0.38303001  0.24777687  0.04122238  1
  S2-  S235  1  0.37487652  0.24007326  0.55476434  1
  S2-  S236  1  0.38019489  0.49507395  0.05072396  1
  S2-  S237  1  0.36832842  0.50012840  0.54915251  1
  S2-  S238  1  0.38653159  0.74796311  0.05400323  1
  S2-  S239  1  0.36370782  0.74907007  0.53931136  1
  S2-  S240  1  0.63118265  -0.00110794  0.04007744  1
  S2-  S241  1  0.62100066  -0.00625844  0.54407020  1
  S2-  S242  1  0.62863891  0.24376482  0.04224736  1
  S2-  S243  1  0.61980123  0.24892453  0.55363942  1
  S2-  S244  1  0.63146182  0.49361163  0.04906582  1
  S2-  S245  1  0.61269306  0.50205475  0.54469608  1
  S2-  S246  1  0.62542742  0.74907136  0.05055357  1
  S2-  S247  1  0.62150614  0.74823426  0.53635369  1
  S2-  S248  1  0.87809583  -0.00306512  0.04874929  1
  S2-  S249  1  0.86802850  -0.00480846  0.54919097  1
  S2-  S250  1  0.88205934  0.24300038  0.03703534  1
  S2-  S251  1  0.86737519  0.25164731  0.55101139  1
  S2-  S252  1  0.88212332  0.49680063  0.04889355  1
  S2-  S253  1  0.87396132  0.49860849  0.54052182  1
  S2-  S254  1  0.87830445  0.74927171  0.05905665  1
  S2-  S255  1  0.87055375  0.74591961  0.54791935  1
