# generated using pymatgen
data_La6Ce7Pr13Nd19Sm19(BiS2)64
_symmetry_space_group_name_H-M   'P 1'
_cell_length_a   16.03313019
_cell_length_b   16.02535136
_cell_length_c   27.45020487
_cell_angle_alpha   89.59219738
_cell_angle_beta   90.20654543
_cell_angle_gamma   90.02554428
_symmetry_Int_Tables_number   1
_chemical_formula_structural   La6Ce7Pr13Nd19Sm19(BiS2)64
_chemical_formula_sum   'La6 Ce7 Pr13 Nd19 Sm19 Bi64 S128'
_cell_volume   7052.73569467
_cell_formula_units_Z   1
loop_
 _symmetry_equiv_pos_site_id
 _symmetry_equiv_pos_as_xyz
  1  'x, y, z'
loop_
 _atom_type_symbol
 _atom_type_oxidation_number
  La3+  3.0
  Ce3+  3.0
  Pr3+  3.0
  Nd3+  3.0
  Sm3+  3.0
  Bi2+  2.0
  S2-  -2.0
loop_
 _atom_site_type_symbol
 _atom_site_label
 _atom_site_symmetry_multiplicity
 _atom_site_fract_x
 _atom_site_fract_y
 _atom_site_fract_z
 _atom_site_occupancy
  La3+  La0  1  0.01080337  0.37111163  0.09552967  1
  La3+  La1  1  0.11593299  0.75067683  0.42584152  1
  La3+  La2  1  0.00541587  0.61604748  0.58404180  1
  La3+  La3  1  0.23997510  0.36237817  0.56949878  1
  La3+  La4  1  0.65996667  0.51419283  0.89074331  1
  La3+  La5  1  0.36920802  0.24469865  0.42835229  1
  Ce3+  Ce6  1  0.36118210  0.49233857  0.43954934  1
  Ce3+  Ce7  1  0.00422707  0.12687853  0.06153989  1
  Ce3+  Ce8  1  0.36905151  0.74402085  0.44060139  1
  Ce3+  Ce9  1  0.74584610  0.60814057  0.57345677  1
  Ce3+  Ce10  1  0.87662809  0.25272155  0.94549318  1
  Ce3+  Ce11  1  0.00515574  0.62451024  0.05566304  1
  Ce3+  Ce12  1  0.23966709  0.61926773  0.55431452  1
  Pr3+  Pr13  1  0.50905264  0.12237603  0.06531812  1
  Pr3+  Pr14  1  0.48699763  0.37240503  0.57360656  1
  Pr3+  Pr15  1  0.00357922  0.87229059  0.05666999  1
  Pr3+  Pr16  1  0.74211158  0.35902068  0.56874343  1
  Pr3+  Pr17  1  0.87013825  0.75202493  0.91956315  1
  Pr3+  Pr18  1  0.62147095  0.75858394  0.91504610  1
  Pr3+  Pr19  1  0.37665461  0.25264702  0.93676400  1
  Pr3+  Pr20  1  0.25302510  0.86271866  0.07134057  1
  Pr3+  Pr21  1  0.61773256  0.00601491  0.92383790  1
  Pr3+  Pr22  1  0.61228820  0.24500123  0.43095748  1
  Pr3+  Pr23  1  0.50573756  0.87168735  0.06106112  1
  Pr3+  Pr24  1  0.37343001  0.74957529  0.92948693  1
  Pr3+  Pr25  1  0.75366311  0.62364838  0.05957738  1
  Nd3+  Nd26  1  0.86964903  -0.00658865  0.43603222  1
  Nd3+  Nd27  1  0.87581478  0.00068585  0.93713689  1
  Nd3+  Nd28  1  0.10664100  0.48959881  0.43061054  1
  Nd3+  Nd29  1  0.49902251  0.87231194  0.56859990  1
  Nd3+  Nd30  1  0.25890823  0.37050858  0.07049417  1
  Nd3+  Nd31  1  0.61943131  0.73797974  0.43854466  1
  Nd3+  Nd32  1  0.74299565  0.11509057  0.55948231  1
  Nd3+  Nd33  1  -0.00573833  0.11717444  0.56613053  1
  Nd3+  Nd34  1  0.24552287  0.11490891  0.55366597  1
  Nd3+  Nd35  1  0.61620768  0.49388248  0.44074982  1
  Nd3+  Nd36  1  0.49458692  0.11748897  0.56250155  1
  Nd3+  Nd37  1  0.86784619  0.24506585  0.43955124  1
  Nd3+  Nd38  1  0.50747800  0.37471448  0.06805694  1
  Nd3+  Nd39  1  0.49420194  0.62103571  0.56933638  1
  Nd3+  Nd40  1  0.50810021  0.62460498  0.04656647  1
  Nd3+  Nd41  1  0.75094983  0.37698243  0.06229327  1
  Nd3+  Nd42  1  0.12352353  0.24186867  0.43199167  1
  Nd3+  Nd43  1  0.12914336  0.49736680  0.93696526  1
  Nd3+  Nd44  1  0.38020829  -0.01805920  0.40700774  1
  Sm3+  Sm45  1  0.12690361  0.25169144  0.94368822  1
  Sm3+  Sm46  1  0.62719217  0.25813820  0.93799532  1
  Sm3+  Sm47  1  0.11206347  -0.00346622  0.43628403  1
  Sm3+  Sm48  1  -0.00094744  0.36062376  0.56822268  1
  Sm3+  Sm49  1  -0.00699222  0.86514397  0.56310706  1
  Sm3+  Sm50  1  0.75360205  0.87403097  0.05188305  1
  Sm3+  Sm51  1  0.74778616  0.86157505  0.55467557  1
  Sm3+  Sm52  1  0.87369526  0.73906808  0.44478857  1
  Sm3+  Sm53  1  0.12939130  -0.00065728  0.94811444  1
  Sm3+  Sm54  1  0.61951282  -0.01035973  0.43708344  1
  Sm3+  Sm55  1  0.37670925  -0.00013388  0.94398548  1
  Sm3+  Sm56  1  0.24325589  0.86834045  0.55382186  1
  Sm3+  Sm57  1  0.87227180  0.49422316  0.45081161  1
  Sm3+  Sm58  1  0.12712272  0.74947358  0.93175536  1
  Sm3+  Sm59  1  0.75013873  0.12378374  0.05996983  1
  Sm3+  Sm60  1  0.88125693  0.50125203  0.94669933  1
  Sm3+  Sm61  1  0.25221511  0.62233755  0.05547423  1
  Sm3+  Sm62  1  0.26091044  0.12320673  0.06228237  1
  Sm3+  Sm63  1  0.38381808  0.49721854  0.94534507  1
  Bi2+  Bi64  1  -0.03152810  0.12710801  0.23835554  1
  Bi2+  Bi65  1  -0.06186092  0.04473705  0.80131651  1
  Bi2+  Bi66  1  -0.02115497  0.34881892  0.27586913  1
  Bi2+  Bi67  1  -0.02076080  0.28450471  0.77170387  1
  Bi2+  Bi68  1  0.07150509  0.61352462  0.30560046  1
  Bi2+  Bi69  1  0.10784225  0.64470776  0.80525549  1
  Bi2+  Bi70  1  0.00152723  0.89721712  0.30147146  1
  Bi2+  Bi71  1  0.05814525  0.89264409  0.77713447  1
  Bi2+  Bi72  1  0.17533840  0.10867571  0.29169159  1
  Bi2+  Bi73  1  0.22951384  0.09577279  0.78917044  1
  Bi2+  Bi74  1  0.23189637  0.37528112  0.30346571  1
  Bi2+  Bi75  1  0.22558072  0.36178704  0.80912522  1
  Bi2+  Bi76  1  0.29952932  0.63455308  0.23211707  1
  Bi2+  Bi77  1  0.30267609  0.62731814  0.78959475  1
  Bi2+  Bi78  1  0.26512017  0.84676648  0.29285952  1
  Bi2+  Bi79  1  0.30096917  0.90590346  0.78236828  1
  Bi2+  Bi80  1  0.54502957  0.10398283  0.27680036  1
  Bi2+  Bi81  1  0.51948083  0.13273778  0.77939742  1
  Bi2+  Bi82  1  0.50287385  0.34677461  0.29481287  1
  Bi2+  Bi83  1  0.46815704  0.39125422  0.80015873  1
  Bi2+  Bi84  1  0.44711608  0.60862199  0.30625226  1
  Bi2+  Bi85  1  0.56346751  0.70383845  0.76940925  1
  Bi2+  Bi86  1  0.61457744  0.83969927  0.31239788  1
  Bi2+  Bi87  1  0.50116750  0.90669141  0.78909826  1
  Bi2+  Bi88  1  0.72644417  0.17134840  0.30554206  1
  Bi2+  Bi89  1  0.70307788  0.12444194  0.81892746  1
  Bi2+  Bi90  1  0.73521792  0.36903758  0.28377878  1
  Bi2+  Bi91  1  0.74172072  0.31000028  0.78127023  1
  Bi2+  Bi92  1  0.70815693  0.57089525  0.29252296  1
  Bi2+  Bi93  1  0.83397273  0.61675611  0.78546206  1
  Bi2+  Bi94  1  0.77128602  0.97272255  0.31786977  1
  Bi2+  Bi95  1  0.76594033  0.94851342  0.77883238  1
  Bi2+  Bi96  1  0.10794507  -0.01203500  0.21401900  1
  Bi2+  Bi97  1  0.18432720  -0.01451399  0.68802852  1
  Bi2+  Bi98  1  0.13209229  0.26141421  0.21570171  1
  Bi2+  Bi99  1  0.11090356  0.18297147  0.71034874  1
  Bi2+  Bi100  1  0.07114280  0.51585607  0.20592078  1
  Bi2+  Bi101  1  0.10863222  0.49505531  0.71272659  1
  Bi2+  Bi102  1  0.11004140  0.77134111  0.19153240  1
  Bi2+  Bi103  1  0.12927272  0.74478505  0.70839035  1
  Bi2+  Bi104  1  0.37999969  -0.01854587  0.21669755  1
  Bi2+  Bi105  1  0.37592968  0.04440754  0.70962063  1
  Bi2+  Bi106  1  0.35002706  0.22459741  0.20707360  1
  Bi2+  Bi107  1  0.35514532  0.25026028  0.70415506  1
  Bi2+  Bi108  1  0.40524485  0.47173773  0.22370641  1
  Bi2+  Bi109  1  0.37672483  0.52849016  0.70749732  1
  Bi2+  Bi110  1  0.48331383  0.73976159  0.22698041  1
  Bi2+  Bi111  1  0.37642855  0.75672473  0.71487737  1
  Bi2+  Bi112  1  0.63081874  -0.04227619  0.21539601  1
  Bi2+  Bi113  1  0.64893695  0.08001595  0.69753363  1
  Bi2+  Bi114  1  0.60006999  0.25011932  0.20556606  1
  Bi2+  Bi115  1  0.57496955  0.30011786  0.71917591  1
  Bi2+  Bi116  1  0.60576658  0.52713172  0.19480102  1
  Bi2+  Bi117  1  0.64748501  0.53487529  0.71240231  1
  Bi2+  Bi118  1  0.70718783  0.73417263  0.21924983  1
  Bi2+  Bi119  1  0.64487779  0.81231187  0.69135849  1
  Bi2+  Bi120  1  0.84153106  -0.01865849  0.20762740  1
  Bi2+  Bi121  1  0.98143440  0.00815354  0.68218605  1
  Bi2+  Bi122  1  0.78589294  0.17165540  0.19082601  1
  Bi2+  Bi123  1  0.85516478  0.16539018  0.70530287  1
  Bi2+  Bi124  1  0.89380346  0.53168045  0.26423767  1
  Bi2+  Bi125  1  0.86918842  0.42755965  0.72430659  1
  Bi2+  Bi126  1  0.80396335  0.77243959  0.31804510  1
  Bi2+  Bi127  1  0.89268457  0.83596985  0.71605320  1
  S2-  S128  1  0.00434773  0.21144849  0.14604286  1
  S2-  S129  1  -0.01608462  0.23209384  0.64176114  1
  S2-  S130  1  -0.07474195  0.42016292  0.18014763  1
  S2-  S131  1  0.11417631  0.39432835  0.64251782  1
  S2-  S132  1  0.00670645  0.66185616  0.15145388  1
  S2-  S133  1  -0.04195096  0.54966177  0.68085070  1
  S2-  S134  1  -0.00261809  0.88393153  0.15663743  1
  S2-  S135  1  -0.00756645  0.76595310  0.64523514  1
  S2-  S136  1  0.22209645  0.16160989  0.15502224  1
  S2-  S137  1  0.23757945  0.20645241  0.63983738  1
  S2-  S138  1  0.16024688  0.40497094  0.15054806  1
  S2-  S139  1  0.34577371  0.39566957  0.65151033  1
  S2-  S140  1  0.24960244  0.70797660  0.14019314  1
  S2-  S141  1  0.16549532  0.61166200  0.64357145  1
  S2-  S142  1  0.25350537  0.91692264  0.16778937  1
  S2-  S143  1  0.25012269  0.83053607  0.65020593  1
  S2-  S144  1  0.40832593  0.10756281  0.14868962  1
  S2-  S145  1  0.49183876  0.23520432  0.63967168  1
  S2-  S146  1  0.38784645  0.35825153  0.14325417  1
  S2-  S147  1  0.51654344  0.51097736  0.64916331  1
  S2-  S148  1  0.50529830  0.63806647  0.14619579  1
  S2-  S149  1  0.49851098  0.75034046  0.64181986  1
  S2-  S150  1  0.49311319  0.88438126  0.16097842  1
  S2-  S151  1  0.52921562  1.00274943  0.64306237  1
  S2-  S152  1  0.64055563  0.11324099  0.13666194  1
  S2-  S153  1  0.73527585  0.21861958  0.64029200  1
  S2-  S154  1  0.63840734  0.37904741  0.14036729  1
  S2-  S155  1  0.74736295  0.47170307  0.64643152  1
  S2-  S156  1  0.74996544  0.60088073  0.15952548  1
  S2-  S157  1  0.73047327  0.67447509  0.66728265  1
  S2-  S158  1  0.74377053  0.87130556  0.15025252  1
  S2-  S159  1  0.76790806  0.90530144  0.64899560  1
  S2-  S160  1  0.13896226  -0.10042866  0.35590127  1
  S2-  S161  1  0.15300689  -0.01724422  0.85185556  1
  S2-  S162  1  0.07999426  0.34504668  0.35253594  1
  S2-  S163  1  0.13563499  0.24125094  0.84574571  1
  S2-  S164  1  0.20211886  0.51487200  0.34611744  1
  S2-  S165  1  0.10446188  0.46988015  0.83881960  1
  S2-  S166  1  0.20117642  0.71576574  0.33539511  1
  S2-  S167  1  0.24091800  0.75189210  0.85883805  1
  S2-  S168  1  0.31991414  0.02350451  0.31200740  1
  S2-  S169  1  0.46268547  0.02527635  0.86081412  1
  S2-  S170  1  0.24332050  0.22082377  0.35365028  1
  S2-  S171  1  0.36834705  0.26624168  0.83647424  1
  S2-  S172  1  0.37732100  0.39307888  0.35985514  1
  S2-  S173  1  0.34178873  0.48220856  0.85106690  1
  S2-  S174  1  0.38874304  0.82460887  0.35506301  1
  S2-  S175  1  0.47959883  0.75887714  0.84983986  1
  S2-  S176  1  0.53232474  -0.01435913  0.35258854  1
  S2-  S177  1  0.64234834  -0.10351390  0.84666570  1
  S2-  S178  1  0.49237971  0.21052859  0.35493161  1
  S2-  S179  1  0.61697501  0.35237531  0.85501197  1
  S2-  S180  1  0.62974732  0.38134226  0.36258169  1
  S2-  S181  1  0.56310673  0.54364212  0.80608540  1
  S2-  S182  1  0.59827082  0.61656503  0.36491496  1
  S2-  S183  1  0.73146624  0.68904749  0.84499759  1
  S2-  S184  1  0.98144309  0.02419880  0.36088508  1
  S2-  S185  1  0.87792244  -0.09889243  0.85596333  1
  S2-  S186  1  0.85947043  0.28079970  0.34168214  1
  S2-  S187  1  0.87698240  0.25400377  0.84831481  1
  S2-  S188  1  0.95339514  0.51924618  0.36404793  1
  S2-  S189  1  0.82671281  0.49512768  0.85204166  1
  S2-  S190  1  0.96878955  0.74801189  0.36033303  1
  S2-  S191  1  0.96226895  0.69834047  0.83801786  1
  S2-  S192  1  -0.00659637  0.12312124  0.46028420  1
  S2-  S193  1  0.00484627  0.12384101  0.95375341  1
  S2-  S194  1  -0.01023315  0.36403630  0.46282411  1
  S2-  S195  1  0.00266420  0.37490340  0.95037972  1
  S2-  S196  1  -0.00530446  0.62053687  0.46623972  1
  S2-  S197  1  0.00447250  0.62535906  0.95077912  1
  S2-  S198  1  -0.01051536  0.87097110  0.46082656  1
  S2-  S199  1  0.00678837  0.87402187  0.95094115  1
  S2-  S200  1  0.24816539  0.10337918  0.45007233  1
  S2-  S201  1  0.25235059  0.12466541  0.95452552  1
  S2-  S202  1  0.23739262  0.37023975  0.45829184  1
  S2-  S203  1  0.25256174  0.37538145  0.95975479  1
  S2-  S204  1  0.24070895  0.62197665  0.45161529  1
  S2-  S205  1  0.25402677  0.61950274  0.95323390  1
  S2-  S206  1  0.25080793  0.87617208  0.45295335  1
  S2-  S207  1  0.25260390  0.87712698  0.95994794  1
  S2-  S208  1  0.49096765  0.10461928  0.45682510  1
  S2-  S209  1  0.50337264  0.13181691  0.95815457  1
  S2-  S210  1  0.49189918  0.37195595  0.46350440  1
  S2-  S211  1  0.50015200  0.37290701  0.96035293  1
  S2-  S212  1  0.48810904  0.61846151  0.46327897  1
  S2-  S213  1  0.51243609  0.61528358  0.94142132  1
  S2-  S214  1  0.49917549  0.86510738  0.46110858  1
  S2-  S215  1  0.49793226  0.87554709  0.95543627  1
  S2-  S216  1  0.74143168  0.11785130  0.45089571  1
  S2-  S217  1  0.74982462  0.12602525  0.95496406  1
  S2-  S218  1  0.74893667  0.37039773  0.46109610  1
  S2-  S219  1  0.75253118  0.38012972  0.95657587  1
  S2-  S220  1  0.74948988  0.61642150  0.46010698  1
  S2-  S221  1  0.75678088  0.62507499  0.95488563  1
  S2-  S222  1  0.74614540  0.86414088  0.45097547  1
  S2-  S223  1  0.74810542  0.87674813  0.95069688  1
  S2-  S224  1  0.13160505  0.00043015  0.05260952  1
  S2-  S225  1  0.11576760  -0.00942778  0.54444348  1
  S2-  S226  1  0.13154214  0.24977740  0.04642039  1
  S2-  S227  1  0.11740198  0.23590301  0.53768319  1
  S2-  S228  1  0.12777758  0.49877793  0.04421966  1
  S2-  S229  1  0.11691984  0.49257375  0.53867738  1
  S2-  S230  1  0.12887963  0.74765828  0.03593725  1
  S2-  S231  1  0.11830874  0.74879823  0.53923425  1
  S2-  S232  1  0.37592390  -0.00599770  0.04632080  1
  S2-  S233  1  0.36775386  -0.01078058  0.55455472  1
  S2-  S234  1  0.38009679  0.24570026  0.04316513  1
  S2-  S235  1  0.36761478  0.24035941  0.53765101  1
  S2-  S236  1  0.37822662  0.50297509  0.04918356  1
  S2-  S237  1  0.36574276  0.49896170  0.54486721  1
  S2-  S238  1  0.37855752  0.74623755  0.03932966  1
  S2-  S239  1  0.36661859  0.74488584  0.54512564  1
  S2-  S240  1  0.62997942  -0.00439655  0.03678138  1
  S2-  S241  1  0.62751444  -0.01222792  0.53975231  1
  S2-  S242  1  0.63098101  0.25024636  0.04062291  1
  S2-  S243  1  0.61815306  0.23932993  0.53728408  1
  S2-  S244  1  0.62889587  0.50143918  0.04412010  1
  S2-  S245  1  0.61901134  0.49078127  0.54467416  1
  S2-  S246  1  0.63116281  0.75066683  0.04448670  1
  S2-  S247  1  0.62627242  0.73967266  0.54349431  1
  S2-  S248  1  0.87662492  0.00112612  0.04489739  1
  S2-  S249  1  0.86960876  -0.00852750  0.54273278  1
  S2-  S250  1  0.87489409  0.25076876  0.05023389  1
  S2-  S251  1  0.86876024  0.23925703  0.54284975  1
  S2-  S252  1  0.88325380  0.49489273  0.05130354  1
  S2-  S253  1  0.87840167  0.48729628  0.55293552  1
  S2-  S254  1  0.87768312  0.75115337  0.04075398  1
  S2-  S255  1  0.86902481  0.73781183  0.54866109  1
