# generated using pymatgen
data_La6Ce7Pr13Nd19Sm19(BiS2)64
_symmetry_space_group_name_H-M   'P 1'
_cell_length_a   16.05035333
_cell_length_b   15.99928915
_cell_length_c   27.59173936
_cell_angle_alpha   89.98182916
_cell_angle_beta   89.72668948
_cell_angle_gamma   90.11631293
_symmetry_Int_Tables_number   1
_chemical_formula_structural   La6Ce7Pr13Nd19Sm19(BiS2)64
_chemical_formula_sum   'La6 Ce7 Pr13 Nd19 Sm19 Bi64 S128'
_cell_volume   7085.30425562
_cell_formula_units_Z   1
loop_
 _symmetry_equiv_pos_site_id
 _symmetry_equiv_pos_as_xyz
  1  'x, y, z'
loop_
 _atom_type_symbol
 _atom_type_oxidation_number
  La3+  3.0
  Ce3+  3.0
  Pr3+  3.0
  Nd3+  3.0
  Sm3+  3.0
  Bi2+  2.0
  S2-  -2.0
loop_
 _atom_site_type_symbol
 _atom_site_label
 _atom_site_symmetry_multiplicity
 _atom_site_fract_x
 _atom_site_fract_y
 _atom_site_fract_z
 _atom_site_occupancy
  La3+  La0  1  0.76056252  0.10896204  0.59001111  1
  La3+  La1  1  0.48718422  0.60852736  0.06700957  1
  La3+  La2  1  0.73350051  0.35825364  0.07473746  1
  La3+  La3  1  0.61470200  0.24249137  0.88973530  1
  La3+  La4  1  0.26665092  0.11804854  0.11514528  1
  La3+  La5  1  0.49659870  0.37196289  0.58243220  1
  Ce3+  Ce6  1  0.74770329  0.36680413  0.56326037  1
  Ce3+  Ce7  1  0.12721480  0.74161682  0.43694284  1
  Ce3+  Ce8  1  0.62478129  0.73531215  0.42907084  1
  Ce3+  Ce9  1  0.85519288  -0.01275000  0.94115291  1
  Ce3+  Ce10  1  0.23691749  0.60871509  0.06252381  1
  Ce3+  Ce11  1  0.50326902  0.11321886  0.57361608  1
  Ce3+  Ce12  1  0.22554407  0.86556735  0.06272415  1
  Pr3+  Pr13  1  0.36079296  0.73516370  0.93754848  1
  Pr3+  Pr14  1  0.87444378  0.73868036  0.43756930  1
  Pr3+  Pr15  1  0.12984755  0.23970597  0.43223640  1
  Pr3+  Pr16  1  0.37931735  0.23972757  0.44607529  1
  Pr3+  Pr17  1  0.48283248  0.86155311  0.05798975  1
  Pr3+  Pr18  1  0.11067483  -0.01388874  0.92620089  1
  Pr3+  Pr19  1  0.11209732  0.73237088  0.92827354  1
  Pr3+  Pr20  1  0.74966850  0.86249729  0.56057845  1
  Pr3+  Pr21  1  0.00236433  0.36711054  0.56076748  1
  Pr3+  Pr22  1  0.24979125  0.36869700  0.57436990  1
  Pr3+  Pr23  1  0.85594983  0.73192690  0.93806286  1
  Pr3+  Pr24  1  0.24958044  0.61774037  0.56497561  1
  Pr3+  Pr25  1  0.62607528  0.24035257  0.44531645  1
  Nd3+  Nd26  1  0.11006946  0.48303714  0.92803861  1
  Nd3+  Nd27  1  0.13131760  -0.01291924  0.42755479  1
  Nd3+  Nd28  1  0.00747350  0.11247885  0.56098542  1
  Nd3+  Nd29  1  0.50965717  0.61921980  0.56642741  1
  Nd3+  Nd30  1  0.60794852  -0.01547465  0.91463270  1
  Nd3+  Nd31  1  0.47868742  0.34933229  0.06396855  1
  Nd3+  Nd32  1  0.60990271  0.47984752  0.94807157  1
  Nd3+  Nd33  1  0.87500806  -0.00737731  0.43933456  1
  Nd3+  Nd34  1  0.10861604  0.23161195  0.92149388  1
  Nd3+  Nd35  1  0.85371163  0.48084001  0.94530475  1
  Nd3+  Nd36  1  0.36171968  -0.01358576  0.93645740  1
  Nd3+  Nd37  1  0.36450389  0.48131750  0.93897318  1
  Nd3+  Nd38  1  0.73584563  0.11047596  0.06660402  1
  Nd3+  Nd39  1  0.76068714  0.61999509  0.12237041  1
  Nd3+  Nd40  1  0.60668997  0.73598823  0.92852869  1
  Nd3+  Nd41  1  0.48984010  0.10751367  0.05012250  1
  Nd3+  Nd42  1  0.88011840  0.49119717  0.43268323  1
  Nd3+  Nd43  1  0.87544694  0.23828638  0.44620764  1
  Nd3+  Nd44  1  0.12856545  0.48627176  0.43162305  1
  Sm3+  Sm45  1  0.62931211  0.48735202  0.43560400  1
  Sm3+  Sm46  1  0.24849559  0.86023852  0.56667984  1
  Sm3+  Sm47  1  0.23074635  0.35142081  0.04652960  1
  Sm3+  Sm48  1  0.62964340  -0.00556392  0.43924646  1
  Sm3+  Sm49  1  -0.00407658  0.10792306  0.05596357  1
  Sm3+  Sm50  1  0.75454638  0.60964606  0.56772119  1
  Sm3+  Sm51  1  0.37893986  0.73952420  0.44353327  1
  Sm3+  Sm52  1  0.37698510  -0.01025655  0.45157492  1
  Sm3+  Sm53  1  0.36584556  0.23152660  0.93657632  1
  Sm3+  Sm54  1  0.25105244  0.11323453  0.55844640  1
  Sm3+  Sm55  1  0.00015555  0.86301294  0.55232166  1
  Sm3+  Sm56  1  -0.01284910  0.35718016  0.05145287  1
  Sm3+  Sm57  1  0.50561614  0.86633035  0.55223534  1
  Sm3+  Sm58  1  -0.01681189  0.85516835  0.04924535  1
  Sm3+  Sm59  1  0.73239629  0.85399149  0.05535216  1
  Sm3+  Sm60  1  -0.00268872  0.60990585  0.56656867  1
  Sm3+  Sm61  1  -0.01366310  0.60684131  0.05417410  1
  Sm3+  Sm62  1  0.37897438  0.48863187  0.44620782  1
  Sm3+  Sm63  1  0.85147298  0.23061848  0.94523567  1
  Bi2+  Bi64  1  0.00378049  0.14193100  0.27958553  1
  Bi2+  Bi65  1  0.02110747  0.18684742  0.77103811  1
  Bi2+  Bi66  1  0.03340396  0.37776163  0.29319081  1
  Bi2+  Bi67  1  -0.02996172  0.37591644  0.78675029  1
  Bi2+  Bi68  1  0.05606862  0.66477701  0.31494852  1
  Bi2+  Bi69  1  -0.00571053  0.65471753  0.79119201  1
  Bi2+  Bi70  1  -0.03066003  0.94778001  0.28873812  1
  Bi2+  Bi71  1  0.05037217  0.85319800  0.76221222  1
  Bi2+  Bi72  1  0.26889125  0.16145994  0.31344492  1
  Bi2+  Bi73  1  0.24726175  0.05551655  0.78716188  1
  Bi2+  Bi74  1  0.22565757  0.41073404  0.26532868  1
  Bi2+  Bi75  1  0.23277973  0.35334080  0.78130784  1
  Bi2+  Bi76  1  0.23535365  0.61092245  0.28641285  1
  Bi2+  Bi77  1  0.25626702  0.67489804  0.79384489  1
  Bi2+  Bi78  1  0.27173530  0.90720366  0.30132257  1
  Bi2+  Bi79  1  0.28605874  0.86396168  0.82209620  1
  Bi2+  Bi80  1  0.50691030  0.11631505  0.29408837  1
  Bi2+  Bi81  1  0.50159617  0.11570142  0.77921291  1
  Bi2+  Bi82  1  0.49010136  0.38924279  0.30140303  1
  Bi2+  Bi83  1  0.48909374  0.36820742  0.78979136  1
  Bi2+  Bi84  1  0.48106246  0.65028612  0.29780252  1
  Bi2+  Bi85  1  0.47460026  0.60484343  0.78676575  1
  Bi2+  Bi86  1  0.58685715  0.93409943  0.28377699  1
  Bi2+  Bi87  1  0.50242482  0.85590160  0.79229828  1
  Bi2+  Bi88  1  0.75756138  0.11729674  0.29963664  1
  Bi2+  Bi89  1  0.77993477  0.12437023  0.78574762  1
  Bi2+  Bi90  1  0.74950329  0.36109628  0.29676949  1
  Bi2+  Bi91  1  0.76381062  0.40616315  0.79752872  1
  Bi2+  Bi92  1  0.75211039  0.66355958  0.31857515  1
  Bi2+  Bi93  1  0.67698900  0.62585683  0.78884639  1
  Bi2+  Bi94  1  0.82766530  0.90075431  0.21544928  1
  Bi2+  Bi95  1  0.78768956  0.87539386  0.79127485  1
  Bi2+  Bi96  1  0.13203151  -0.07181188  0.22106785  1
  Bi2+  Bi97  1  0.17246976  -0.03587443  0.69296845  1
  Bi2+  Bi98  1  0.11032900  0.25581972  0.19607376  1
  Bi2+  Bi99  1  0.14006131  0.28573327  0.68661910  1
  Bi2+  Bi100  1  0.16591920  0.54221588  0.18181135  1
  Bi2+  Bi101  1  0.10025174  0.49426906  0.71711837  1
  Bi2+  Bi102  1  0.17436917  0.74338947  0.17939224  1
  Bi2+  Bi103  1  0.12245280  0.69443504  0.70641182  1
  Bi2+  Bi104  1  0.42235603  -0.05099717  0.22784798  1
  Bi2+  Bi105  1  0.35913109  -0.07731463  0.71786843  1
  Bi2+  Bi106  1  0.38960614  0.26268818  0.20164724  1
  Bi2+  Bi107  1  0.31289609  0.20566800  0.72152143  1
  Bi2+  Bi108  1  0.37802053  0.50685943  0.21352791  1
  Bi2+  Bi109  1  0.34108831  0.46891243  0.71067025  1
  Bi2+  Bi110  1  0.35064780  0.75976245  0.23674964  1
  Bi2+  Bi111  1  0.38320494  0.72276752  0.71147779  1
  Bi2+  Bi112  1  0.69216343  0.04094646  0.19485201  1
  Bi2+  Bi113  1  0.62424399  -0.00541737  0.69596853  1
  Bi2+  Bi114  1  0.63263062  0.22469840  0.23083908  1
  Bi2+  Bi115  1  0.75116322  0.32106561  0.69652952  1
  Bi2+  Bi116  1  0.61986175  0.49962327  0.21444914  1
  Bi2+  Bi117  1  0.61418464  0.50989152  0.69739134  1
  Bi2+  Bi118  1  0.61358259  0.76106632  0.21225741  1
  Bi2+  Bi119  1  0.64233359  0.76830430  0.71196037  1
  Bi2+  Bi120  1  0.90040688  0.07764045  0.18507926  1
  Bi2+  Bi121  1  0.97776094  0.01807516  0.71647699  1
  Bi2+  Bi122  1  0.89762424  0.27089343  0.21787888  1
  Bi2+  Bi123  1  0.94352016  0.30031035  0.68161142  1
  Bi2+  Bi124  1  0.98839665  0.53822496  0.23160188  1
  Bi2+  Bi125  1  0.84280239  0.59776942  0.73234977  1
  Bi2+  Bi126  1  0.98393443  0.74432819  0.21818357  1
  Bi2+  Bi127  1  0.84084256  0.80075634  0.69191306  1
  S2-  S128  1  0.09101751  0.12190325  0.13713526  1
  S2-  S129  1  -0.07874717  0.11820870  0.64623941  1
  S2-  S130  1  -0.00716107  0.35600428  0.14963558  1
  S2-  S131  1  0.00698373  0.48448882  0.63684224  1
  S2-  S132  1  -0.06988204  0.62006776  0.14658827  1
  S2-  S133  1  -0.12363783  0.65152512  0.64019510  1
  S2-  S134  1  0.03606254  0.85587506  0.14167221  1
  S2-  S135  1  -0.01435313  0.87304509  0.64894805  1
  S2-  S136  1  0.27061850  0.13968911  0.22259829  1
  S2-  S137  1  0.19561291  0.12372069  0.64972158  1
  S2-  S138  1  0.25508031  0.30099067  0.13899627  1
  S2-  S139  1  0.36227922  0.33006326  0.65219472  1
  S2-  S140  1  0.35359993  0.60637925  0.13740981  1
  S2-  S141  1  0.22899534  0.50500224  0.64378510  1
  S2-  S142  1  0.25261812  0.94780546  0.14708982  1
  S2-  S143  1  0.25334646  0.74343900  0.63990097  1
  S2-  S144  1  0.44021028  0.14411848  0.14377851  1
  S2-  S145  1  0.48857035  0.10519196  0.67146224  1
  S2-  S146  1  0.49116909  0.39186553  0.16174728  1
  S2-  S147  1  0.58866090  0.35114669  0.66792455  1
  S2-  S148  1  0.58646779  0.62754013  0.14989541  1
  S2-  S149  1  0.46681526  0.52544034  0.64827776  1
  S2-  S150  1  0.50819229  0.85411269  0.15769913  1
  S2-  S151  1  0.54009799  0.86742642  0.64684617  1
  S2-  S152  1  0.72519585  0.22247199  0.14688846  1
  S2-  S153  1  0.71565316  0.14512219  0.68716729  1
  S2-  S154  1  0.74318116  0.45621436  0.15910968  1
  S2-  S155  1  0.75854163  0.47190368  0.64021323  1
  S2-  S156  1  0.73931792  0.62736702  0.22847050  1
  S2-  S157  1  0.63615619  0.65393173  0.63697817  1
  S2-  S158  1  0.74641602  0.79429578  0.14660242  1
  S2-  S159  1  0.75748072  0.95175733  0.64679398  1
  S2-  S160  1  0.12459246  0.11483485  0.35636706  1
  S2-  S161  1  0.10497399  0.10744921  0.84647488  1
  S2-  S162  1  0.16741172  0.36009035  0.36011159  1
  S2-  S163  1  0.11063465  0.36394928  0.85287383  1
  S2-  S164  1  0.00626271  0.50832596  0.36002636  1
  S2-  S165  1  0.12600132  0.60552514  0.85579830  1
  S2-  S166  1  0.14576187  0.85236002  0.36097072  1
  S2-  S167  1  0.11456760  0.85807633  0.85473601  1
  S2-  S168  1  0.36803556  0.03005382  0.35697948  1
  S2-  S169  1  0.45842634  -0.00837648  0.85161326  1
  S2-  S170  1  0.40255186  0.26675621  0.34720225  1
  S2-  S171  1  0.44070723  0.23462408  0.84765044  1
  S2-  S172  1  0.40310488  0.50601951  0.34854384  1
  S2-  S173  1  0.37793447  0.48422254  0.84040655  1
  S2-  S174  1  0.39283645  0.76431656  0.34757953  1
  S2-  S175  1  0.47337127  0.72364627  0.85949080  1
  S2-  S176  1  0.61911028  0.11812580  0.36806013  1
  S2-  S177  1  0.64581243  0.08751483  0.83647232  1
  S2-  S178  1  0.61755267  0.35798985  0.36470077  1
  S2-  S179  1  0.59753669  0.24910941  0.78034771  1
  S2-  S180  1  0.60510376  0.60338055  0.36191376  1
  S2-  S181  1  0.61243265  0.41484251  0.85489635  1
  S2-  S182  1  0.65579567  0.81408901  0.34211022  1
  S2-  S183  1  0.64673413  0.85098608  0.84999036  1
  S2-  S184  1  0.82487437  -0.01394028  0.34503048  1
  S2-  S185  1  0.86231458  0.00887255  0.84349034  1
  S2-  S186  1  0.85036558  0.24522601  0.34870207  1
  S2-  S187  1  0.79068676  0.24739618  0.85352345  1
  S2-  S188  1  0.78904739  0.49441527  0.34673818  1
  S2-  S189  1  0.88032467  0.49007373  0.84734990  1
  S2-  S190  1  0.90122703  0.74132341  0.33900033  1
  S2-  S191  1  0.87381776  0.75808189  0.83942406  1
  S2-  S192  1  0.00282306  0.11291876  0.45571505  1
  S2-  S193  1  -0.01951001  0.11119008  0.95139178  1
  S2-  S194  1  0.00220325  0.36079703  0.45490909  1
  S2-  S195  1  -0.02168497  0.35559985  0.94880193  1
  S2-  S196  1  0.00315178  0.61907766  0.46081046  1
  S2-  S197  1  -0.01755881  0.60578815  0.95123346  1
  S2-  S198  1  -0.00033568  0.86762141  0.44950586  1
  S2-  S199  1  -0.01949224  0.85891008  0.94789914  1
  S2-  S200  1  0.25252650  0.11204660  0.45774174  1
  S2-  S201  1  0.24071396  0.11188516  0.93789667  1
  S2-  S202  1  0.25708469  0.36542744  0.46487064  1
  S2-  S203  1  0.24056846  0.35566862  0.94474164  1
  S2-  S204  1  0.25406127  0.61618519  0.45083177  1
  S2-  S205  1  0.23993621  0.60582655  0.95566040  1
  S2-  S206  1  0.25682329  0.86394203  0.46326797  1
  S2-  S207  1  0.23775857  0.86065678  0.95585113  1
  S2-  S208  1  0.49925352  0.11134493  0.46692618  1
  S2-  S209  1  0.49392091  0.11303441  0.94860520  1
  S2-  S210  1  0.49958732  0.36724429  0.46648025  1
  S2-  S211  1  0.48551819  0.35421661  0.95665321  1
  S2-  S212  1  0.49666266  0.61487563  0.46123844  1
  S2-  S213  1  0.48544867  0.60577479  0.95859632  1
  S2-  S214  1  0.50231565  0.86951124  0.44859306  1
  S2-  S215  1  0.48697507  0.86446668  0.95419554  1
  S2-  S216  1  0.75298892  0.11403681  0.46344229  1
  S2-  S217  1  0.72962615  0.10716219  0.95850720  1
  S2-  S218  1  0.75448846  0.36493697  0.45908939  1
  S2-  S219  1  0.73283628  0.35440016  0.96201930  1
  S2-  S220  1  0.75173458  0.61297819  0.45833685  1
  S2-  S221  1  0.73020195  0.60779026  0.93946418  1
  S2-  S222  1  0.75019495  0.86859223  0.45418755  1
  S2-  S223  1  0.73381057  0.86166288  0.95402417  1
  S2-  S224  1  0.10275268  -0.02079850  0.03251030  1
  S2-  S225  1  0.12859896  -0.01496949  0.54213808  1
  S2-  S226  1  0.10591384  0.23679654  0.02857616  1
  S2-  S227  1  0.12899070  0.23941500  0.54306098  1
  S2-  S228  1  0.11049405  0.48168424  0.03798621  1
  S2-  S229  1  0.12716316  0.49277699  0.53631965  1
  S2-  S230  1  0.10800466  0.73066266  0.03734886  1
  S2-  S231  1  0.12016575  0.73890486  0.54380112  1
  S2-  S232  1  0.35718794  -0.01040763  0.04200549  1
  S2-  S233  1  0.37314808  -0.01460041  0.55660702  1
  S2-  S234  1  0.35402980  0.22611551  0.03805894  1
  S2-  S235  1  0.37539426  0.23301833  0.55120072  1
  S2-  S236  1  0.35553537  0.47470824  0.04349505  1
  S2-  S237  1  0.37413408  0.49447916  0.54648263  1
  S2-  S238  1  0.35531484  0.74054899  0.04326078  1
  S2-  S239  1  0.38154558  0.74360282  0.54651245  1
  S2-  S240  1  0.61472388  -0.01678203  0.05383178  1
  S2-  S241  1  0.62748676  -0.00715690  0.54362916  1
  S2-  S242  1  0.60761605  0.23263959  0.05149217  1
  S2-  S243  1  0.62739692  0.23570505  0.55568670  1
  S2-  S244  1  0.60245021  0.47473685  0.05029540  1
  S2-  S245  1  0.62594249  0.49031531  0.54179284  1
  S2-  S246  1  0.60705400  0.73948302  0.03672259  1
  S2-  S247  1  0.62682707  0.74493312  0.53478440  1
  S2-  S248  1  0.86106307  -0.01787540  0.04859791  1
  S2-  S249  1  0.88033890  -0.01138776  0.54362623  1
  S2-  S250  1  0.86705059  0.23093140  0.04819806  1
  S2-  S251  1  0.87613518  0.23918088  0.54968353  1
  S2-  S252  1  0.86270918  0.48339938  0.04899569  1
  S2-  S253  1  0.87637580  0.48869049  0.53798030  1
  S2-  S254  1  0.85844422  0.72879188  0.04351472  1
  S2-  S255  1  0.87714476  0.74150978  0.54089674  1
