# generated using pymatgen
data_La6Ce7Pr13Nd19Sm19(BiS2)64
_symmetry_space_group_name_H-M   'P 1'
_cell_length_a   16.13970340
_cell_length_b   16.12405721
_cell_length_c   27.25358302
_cell_angle_alpha   89.96051327
_cell_angle_beta   89.93020283
_cell_angle_gamma   90.02276967
_symmetry_Int_Tables_number   1
_chemical_formula_structural   La6Ce7Pr13Nd19Sm19(BiS2)64
_chemical_formula_sum   'La6 Ce7 Pr13 Nd19 Sm19 Bi64 S128'
_cell_volume   7092.39682757
_cell_formula_units_Z   1
loop_
 _symmetry_equiv_pos_site_id
 _symmetry_equiv_pos_as_xyz
  1  'x, y, z'
loop_
 _atom_type_symbol
 _atom_type_oxidation_number
  La3+  3.0
  Ce3+  3.0
  Pr3+  3.0
  Nd3+  3.0
  Sm3+  3.0
  Bi2+  2.0
  S2-  -2.0
loop_
 _atom_site_type_symbol
 _atom_site_label
 _atom_site_symmetry_multiplicity
 _atom_site_fract_x
 _atom_site_fract_y
 _atom_site_fract_z
 _atom_site_occupancy
  La3+  La0  1  0.13587605  0.75917273  0.42135557  1
  La3+  La1  1  0.61533131  0.74618159  0.92877292  1
  La3+  La2  1  0.50313254  0.38142569  0.60906850  1
  La3+  La3  1  0.87322542  0.00900477  0.88363081  1
  La3+  La4  1  0.61356842  0.01640381  0.39825239  1
  La3+  La5  1  0.35737004  0.49590315  0.91875558  1
  Ce3+  Ce6  1  0.75440756  0.62644348  0.55939988  1
  Ce3+  Ce7  1  0.49122879  0.11810266  0.06061966  1
  Ce3+  Ce8  1  -0.00929719  0.36941911  0.05533163  1
  Ce3+  Ce9  1  0.38695167  0.75492436  0.43942069  1
  Ce3+  Ce10  1  0.74275694  0.86939382  0.05724092  1
  Ce3+  Ce11  1  0.25900942  0.13576383  0.56790578  1
  Ce3+  Ce12  1  0.00523217  0.13116082  0.55719423  1
  Pr3+  Pr13  1  0.00772046  0.88276409  0.55862093  1
  Pr3+  Pr14  1  0.87971717  0.25430224  0.44099379  1
  Pr3+  Pr15  1  0.86974700  0.49606836  0.93862632  1
  Pr3+  Pr16  1  0.61383774  0.24405619  0.94121370  1
  Pr3+  Pr17  1  0.86584698  0.24483783  0.93994194  1
  Pr3+  Pr18  1  0.13301686  0.25537499  0.44249766  1
  Pr3+  Pr19  1  0.74530278  0.13049628  0.56976499  1
  Pr3+  Pr20  1  0.61625732  0.49359890  0.93609015  1
  Pr3+  Pr21  1  0.61693417  -0.00504196  0.93264309  1
  Pr3+  Pr22  1  0.75320624  0.88093068  0.56790111  1
  Pr3+  Pr23  1  0.25470577  0.63773033  0.56659688  1
  Pr3+  Pr24  1  0.48346890  0.37325450  0.06387931  1
  Pr3+  Pr25  1  0.36329289  0.24173130  0.93821687  1
  Nd3+  Nd26  1  0.13311077  0.00663195  0.43565182  1
  Nd3+  Nd27  1  0.50935448  0.88056397  0.56066382  1
  Nd3+  Nd28  1  0.87982433  0.50378626  0.43926116  1
  Nd3+  Nd29  1  0.24128385  0.36840908  0.06209242  1
  Nd3+  Nd30  1  0.24089359  0.61925848  0.06438571  1
  Nd3+  Nd31  1  0.00736516  0.63142694  0.55273123  1
  Nd3+  Nd32  1  0.50801367  0.62880864  0.56714879  1
  Nd3+  Nd33  1  0.50072623  0.13001796  0.57310678  1
  Nd3+  Nd34  1  0.87068713  0.00587528  0.44024229  1
  Nd3+  Nd35  1  0.38549157  0.25386441  0.44462085  1
  Nd3+  Nd36  1  0.75563508  0.37886409  0.56798145  1
  Nd3+  Nd37  1  0.00309682  0.38128161  0.56935521  1
  Nd3+  Nd38  1  0.24133389  0.87093068  0.06151837  1
  Nd3+  Nd39  1  0.63305470  0.75794085  0.44044949  1
  Nd3+  Nd40  1  0.88035278  0.75558126  0.44595089  1
  Nd3+  Nd41  1  0.36738783  -0.00669439  0.92942488  1
  Nd3+  Nd42  1  0.49549834  0.86897347  0.06177839  1
  Nd3+  Nd43  1  0.62979061  0.50219499  0.44190559  1
  Nd3+  Nd44  1  0.74030507  0.62016350  0.05686921  1
  Sm3+  Sm45  1  -0.00765310  0.62020695  0.05694284  1
  Sm3+  Sm46  1  0.11758197  0.49548025  0.94173178  1
  Sm3+  Sm47  1  0.86966655  0.75168095  0.93781332  1
  Sm3+  Sm48  1  0.73562828  0.36971079  0.06156258  1
  Sm3+  Sm49  1  0.36350023  0.74599780  0.94842272  1
  Sm3+  Sm50  1  0.49065412  0.61841883  0.05122558  1
  Sm3+  Sm51  1  0.11231159  -0.00867645  0.94072183  1
  Sm3+  Sm52  1  0.38282115  0.50444139  0.44390303  1
  Sm3+  Sm53  1  0.25927336  0.38523515  0.56105548  1
  Sm3+  Sm54  1  0.11527121  0.24006188  0.94522587  1
  Sm3+  Sm55  1  0.38323395  0.00660082  0.45116937  1
  Sm3+  Sm56  1  0.11602783  0.74687720  0.94456330  1
  Sm3+  Sm57  1  -0.00920678  0.87091984  0.06048916  1
  Sm3+  Sm58  1  0.24133846  0.11644112  0.05557362  1
  Sm3+  Sm59  1  0.25467561  0.87854088  0.55656887  1
  Sm3+  Sm60  1  -0.01122635  0.11861205  0.05983419  1
  Sm3+  Sm61  1  0.62910379  0.25415392  0.44873832  1
  Sm3+  Sm62  1  0.74213180  0.11750464  0.05804893  1
  Sm3+  Sm63  1  0.13479475  0.50606975  0.44506210  1
  Bi2+  Bi64  1  -0.00407654  0.10867284  0.30787544  1
  Bi2+  Bi65  1  0.10510570  0.16146498  0.75859447  1
  Bi2+  Bi66  1  -0.01333617  0.30228860  0.28608924  1
  Bi2+  Bi67  1  -0.01204923  0.43218584  0.80342757  1
  Bi2+  Bi68  1  -0.01146680  0.61434768  0.26917814  1
  Bi2+  Bi69  1  -0.03347233  0.63016413  0.80766992  1
  Bi2+  Bi70  1  -0.00774228  0.92162113  0.27895402  1
  Bi2+  Bi71  1  0.01312055  0.87050413  0.79241458  1
  Bi2+  Bi72  1  0.19848895  0.09493274  0.31526246  1
  Bi2+  Bi73  1  0.30163060  0.13904497  0.82275524  1
  Bi2+  Bi74  1  0.24683160  0.36955704  0.29017842  1
  Bi2+  Bi75  1  0.18039623  0.36931494  0.78868192  1
  Bi2+  Bi76  1  0.24155830  0.61936793  0.29948694  1
  Bi2+  Bi77  1  0.17042808  0.63987877  0.79212008  1
  Bi2+  Bi78  1  0.23895978  0.88606147  0.28240181  1
  Bi2+  Bi79  1  0.24760846  0.95434666  0.81621881  1
  Bi2+  Bi80  1  0.46550944  0.15505519  0.29580948  1
  Bi2+  Bi81  1  0.48817061  0.12275113  0.79833825  1
  Bi2+  Bi82  1  0.48882012  0.40125566  0.30370465  1
  Bi2+  Bi83  1  0.52664470  0.36763612  0.80352959  1
  Bi2+  Bi84  1  0.49964873  0.62225215  0.25030388  1
  Bi2+  Bi85  1  0.51467623  0.63705840  0.80819222  1
  Bi2+  Bi86  1  0.47568732  0.86442132  0.29953742  1
  Bi2+  Bi87  1  0.41104942  0.85858167  0.79227230  1
  Bi2+  Bi88  1  0.77863134  0.15002339  0.29436114  1
  Bi2+  Bi89  1  0.73957943  0.12546915  0.78233416  1
  Bi2+  Bi90  1  0.67961363  0.35458570  0.29678323  1
  Bi2+  Bi91  1  0.81819324  0.32906404  0.78263637  1
  Bi2+  Bi92  1  0.76976958  0.59635723  0.28638666  1
  Bi2+  Bi93  1  0.78710823  0.63038626  0.75342367  1
  Bi2+  Bi94  1  0.73348405  0.85450998  0.30243326  1
  Bi2+  Bi95  1  0.75025300  0.87147672  0.77894306  1
  Bi2+  Bi96  1  0.12680085  0.03649025  0.21105055  1
  Bi2+  Bi97  1  0.19013168  0.00848822  0.70592654  1
  Bi2+  Bi98  1  0.13367600  0.31798579  0.19690527  1
  Bi2+  Bi99  1  0.13727413  0.32556799  0.66952912  1
  Bi2+  Bi100  1  0.12701419  0.51070255  0.21288744  1
  Bi2+  Bi101  1  0.11919233  0.51257940  0.70620185  1
  Bi2+  Bi102  1  0.11371192  0.75100376  0.18732527  1
  Bi2+  Bi103  1  0.15454242  0.81691748  0.71386911  1
  Bi2+  Bi104  1  0.33997047  0.03600718  0.23966486  1
  Bi2+  Bi105  1  0.38475684  0.01257900  0.72062198  1
  Bi2+  Bi106  1  0.31812491  0.25248107  0.20448902  1
  Bi2+  Bi107  1  0.29530717  0.24379485  0.71708502  1
  Bi2+  Bi108  1  0.37633033  0.47389463  0.22364526  1
  Bi2+  Bi109  1  0.36844422  0.49594032  0.72137414  1
  Bi2+  Bi110  1  0.34974667  0.74480311  0.22843583  1
  Bi2+  Bi111  1  0.32086018  0.71590476  0.72988500  1
  Bi2+  Bi112  1  0.61285281  -0.00095261  0.19002617  1
  Bi2+  Bi113  1  0.60010639  -0.03809671  0.70533020  1
  Bi2+  Bi114  1  0.57546639  0.24928721  0.22224529  1
  Bi2+  Bi115  1  0.65661539  0.24455562  0.70355897  1
  Bi2+  Bi116  1  0.64397324  0.50147619  0.19263137  1
  Bi2+  Bi117  1  0.63402295  0.52258721  0.71912430  1
  Bi2+  Bi118  1  0.62561892  0.74939880  0.18888571  1
  Bi2+  Bi119  1  0.58617274  0.72355830  0.71815957  1
  Bi2+  Bi120  1  0.86865072  0.03977610  0.21618129  1
  Bi2+  Bi121  1  0.88814662  0.01545300  0.67925619  1
  Bi2+  Bi122  1  0.84895493  0.26067457  0.20739861  1
  Bi2+  Bi123  1  0.96120282  0.27377799  0.71081640  1
  Bi2+  Bi124  1  0.88003020  0.45167876  0.23241185  1
  Bi2+  Bi125  1  0.91917494  0.51785235  0.69804369  1
  Bi2+  Bi126  1  0.87906780  0.77537093  0.24034083  1
  Bi2+  Bi127  1  0.94159158  0.73465182  0.70856089  1
  S2-  S128  1  -0.00085446  0.10529649  0.15834588  1
  S2-  S129  1  0.02262056  0.11316637  0.65357722  1
  S2-  S130  1  -0.02019777  0.35606078  0.15114851  1
  S2-  S131  1  -0.11958959  0.38040627  0.64293976  1
  S2-  S132  1  0.02205766  0.60359388  0.15330213  1
  S2-  S133  1  0.04881464  0.64623678  0.64781709  1
  S2-  S134  1  -0.02232199  0.83011958  0.15591803  1
  S2-  S135  1  -0.00222886  0.88354246  0.65855145  1
  S2-  S136  1  0.26447404  0.11149259  0.15226463  1
  S2-  S137  1  0.36907702  0.14056771  0.64505603  1
  S2-  S138  1  0.35413397  0.38830576  0.13682699  1
  S2-  S139  1  0.33880306  0.37599683  0.64958957  1
  S2-  S140  1  0.25886054  0.65172220  0.16191552  1
  S2-  S141  1  0.27063456  0.57506924  0.66229860  1
  S2-  S142  1  0.19435507  0.88140123  0.15665115  1
  S2-  S143  1  0.26064409  0.78104920  0.63629104  1
  S2-  S144  1  0.50873623  0.11691852  0.15807047  1
  S2-  S145  1  0.60670788  0.09661769  0.65125490  1
  S2-  S146  1  0.57804939  0.36966608  0.14927285  1
  S2-  S147  1  0.50648433  0.29946869  0.70894261  1
  S2-  S148  1  0.51901205  0.61472973  0.14770372  1
  S2-  S149  1  0.49654915  0.54276841  0.65535961  1
  S2-  S150  1  0.50147851  0.87144690  0.16113641  1
  S2-  S151  1  0.51025875  0.82886312  0.65697632  1
  S2-  S152  1  0.73577014  0.10990597  0.15678629  1
  S2-  S153  1  0.80633228  0.16211675  0.66422468  1
  S2-  S154  1  0.77255341  0.41040873  0.15450410  1
  S2-  S155  1  0.66527736  0.39528008  0.65438223  1
  S2-  S156  1  0.74463688  0.64215948  0.15590930  1
  S2-  S157  1  0.70828460  0.64730435  0.65260390  1
  S2-  S158  1  0.72107760  0.87175719  0.15555106  1
  S2-  S159  1  0.75092779  0.89995477  0.67011403  1
  S2-  S160  1  0.12190601  -0.10084599  0.35589794  1
  S2-  S161  1  0.04343346  0.00044882  0.85130202  1
  S2-  S162  1  0.13363913  0.25983769  0.34253375  1
  S2-  S163  1  0.10734729  0.24511621  0.84707500  1
  S2-  S164  1  0.17049450  0.49190837  0.34956635  1
  S2-  S165  1  0.20945792  0.49997008  0.85912308  1
  S2-  S166  1  0.10624585  0.69219399  0.32867552  1
  S2-  S167  1  0.12570204  0.77538879  0.84821979  1
  S2-  S168  1  0.44449320  0.00371881  0.35976277  1
  S2-  S169  1  0.49160031  -0.00825277  0.85657181  1
  S2-  S170  1  0.37787891  0.27187365  0.34479280  1
  S2-  S171  1  0.39613941  0.29232194  0.84351110  1
  S2-  S172  1  0.40587813  0.52843594  0.34717270  1
  S2-  S173  1  0.41439929  0.49813856  0.82160035  1
  S2-  S174  1  0.33653213  0.76750451  0.34589471  1
  S2-  S175  1  0.37507811  0.72031017  0.85228363  1
  S2-  S176  1  0.60471167  -0.03163766  0.28932775  1
  S2-  S177  1  0.70838788  -0.00550166  0.84457832  1
  S2-  S178  1  0.60648110  0.17893511  0.36024774  1
  S2-  S179  1  0.61859379  0.22881831  0.84042264  1
  S2-  S180  1  0.66124580  0.51539302  0.34239076  1
  S2-  S181  1  0.61798518  0.50986125  0.83587224  1
  S2-  S182  1  0.59498267  0.76885704  0.34287087  1
  S2-  S183  1  0.63213650  0.77541496  0.82884799  1
  S2-  S184  1  0.77520340  -0.00096889  0.35701093  1
  S2-  S185  1  0.87144343  0.01190283  0.77412191  1
  S2-  S186  1  0.82472881  0.28837797  0.34759906  1
  S2-  S187  1  0.86065056  0.18171907  0.84684538  1
  S2-  S188  1  0.89332907  0.51766424  0.34103734  1
  S2-  S189  1  0.82384432  0.45328337  0.84539935  1
  S2-  S190  1  0.85882181  0.76468898  0.34790558  1
  S2-  S191  1  0.86784915  0.83501349  0.85067832  1
  S2-  S192  1  0.00479920  0.12731781  0.45043684  1
  S2-  S193  1  -0.00936028  0.11802570  0.95533375  1
  S2-  S194  1  0.00775041  0.38209313  0.45530731  1
  S2-  S195  1  -0.00431022  0.36925537  0.94913604  1
  S2-  S196  1  0.00764517  0.62834397  0.44670914  1
  S2-  S197  1  -0.00548223  0.62215735  0.95171100  1
  S2-  S198  1  0.00026008  0.88431437  0.45248455  1
  S2-  S199  1  -0.00672931  0.86821554  0.95653460  1
  S2-  S200  1  0.25879270  0.13015251  0.45872904  1
  S2-  S201  1  0.23702167  0.11411066  0.95171613  1
  S2-  S202  1  0.25886037  0.38103272  0.45567317  1
  S2-  S203  1  0.23683257  0.36574609  0.95611927  1
  S2-  S204  1  0.25813142  0.62915118  0.45539778  1
  S2-  S205  1  0.23843061  0.62490123  0.95719846  1
  S2-  S206  1  0.26138157  0.88292330  0.45320845  1
  S2-  S207  1  0.24144590  0.87061403  0.95482277  1
  S2-  S208  1  0.50515652  0.12820602  0.46550723  1
  S2-  S209  1  0.48871868  0.11880477  0.95486984  1
  S2-  S210  1  0.50696986  0.37962036  0.44765503  1
  S2-  S211  1  0.48827567  0.37204125  0.95399598  1
  S2-  S212  1  0.50854437  0.62888538  0.45646621  1
  S2-  S213  1  0.48862962  0.61950824  0.94788154  1
  S2-  S214  1  0.50969209  0.88283456  0.45479331  1
  S2-  S215  1  0.48797573  0.86689188  0.95452077  1
  S2-  S216  1  0.75214953  0.13293314  0.46075488  1
  S2-  S217  1  0.74165190  0.11927860  0.95339402  1
  S2-  S218  1  0.75387501  0.37924040  0.45880789  1
  S2-  S219  1  0.74038928  0.36917463  0.95516137  1
  S2-  S220  1  0.75590726  0.62917806  0.45201644  1
  S2-  S221  1  0.74500010  0.62295407  0.94732014  1
  S2-  S222  1  0.75557933  0.87686402  0.46063134  1
  S2-  S223  1  0.74118642  0.86734827  0.95239543  1
  S2-  S224  1  0.11417598  -0.00468841  0.04752717  1
  S2-  S225  1  0.13568086  0.00627042  0.54457773  1
  S2-  S226  1  0.11738820  0.24062351  0.05022885  1
  S2-  S227  1  0.13104127  0.25805291  0.54800027  1
  S2-  S228  1  0.11736533  0.49491096  0.04723570  1
  S2-  S229  1  0.13131351  0.50483953  0.54965929  1
  S2-  S230  1  0.11528734  0.74528712  0.04833048  1
  S2-  S231  1  0.12922450  0.75885202  0.53428442  1
  S2-  S232  1  0.36643252  -0.00739501  0.04440958  1
  S2-  S233  1  0.37850653  -0.00108506  0.55482878  1
  S2-  S234  1  0.36366897  0.23973012  0.04518409  1
  S2-  S235  1  0.38449175  0.26356142  0.54834369  1
  S2-  S236  1  0.36311217  0.50131933  0.03509279  1
  S2-  S237  1  0.38078274  0.50822988  0.54753003  1
  S2-  S238  1  0.36765997  0.74449928  0.05327490  1
  S2-  S239  1  0.38678455  0.75466066  0.54377991  1
  S2-  S240  1  0.61773866  -0.00536646  0.04289647  1
  S2-  S241  1  0.62959760  0.00170468  0.54869554  1
  S2-  S242  1  0.61795570  0.24319058  0.04786259  1
  S2-  S243  1  0.62215519  0.25986981  0.55383713  1
  S2-  S244  1  0.61655805  0.49613956  0.04253364  1
  S2-  S245  1  0.62754467  0.50321562  0.54710389  1
  S2-  S246  1  0.61502845  0.74233075  0.03957672  1
  S2-  S247  1  0.63153308  0.75322125  0.54740507  1
  S2-  S248  1  0.86821780  -0.00488890  0.05631638  1
  S2-  S249  1  0.87789133  0.00674001  0.54808728  1
  S2-  S250  1  0.86355454  0.24416477  0.04818222  1
  S2-  S251  1  0.88188748  0.25330004  0.54619940  1
  S2-  S252  1  0.86681509  0.49709941  0.04612963  1
  S2-  S253  1  0.88216096  0.50760382  0.54472199  1
  S2-  S254  1  0.86941004  0.74353571  0.04448167  1
  S2-  S255  1  0.88048601  0.75467986  0.55267476  1
