# generated using pymatgen
data_La6Ce7Pr13Nd19Sm19(BiS2)64
_symmetry_space_group_name_H-M   'P 1'
_cell_length_a   16.10107568
_cell_length_b   16.12081619
_cell_length_c   27.23947903
_cell_angle_alpha   89.88643468
_cell_angle_beta   89.99547813
_cell_angle_gamma   89.91722225
_symmetry_Int_Tables_number   1
_chemical_formula_structural   La6Ce7Pr13Nd19Sm19(BiS2)64
_chemical_formula_sum   'La6 Ce7 Pr13 Nd19 Sm19 Bi64 S128'
_cell_volume   7070.32548574
_cell_formula_units_Z   1
loop_
 _symmetry_equiv_pos_site_id
 _symmetry_equiv_pos_as_xyz
  1  'x, y, z'
loop_
 _atom_type_symbol
 _atom_type_oxidation_number
  La3+  3.0
  Ce3+  3.0
  Pr3+  3.0
  Nd3+  3.0
  Sm3+  3.0
  Bi2+  2.0
  S2-  -2.0
loop_
 _atom_site_type_symbol
 _atom_site_label
 _atom_site_symmetry_multiplicity
 _atom_site_fract_x
 _atom_site_fract_y
 _atom_site_fract_z
 _atom_site_occupancy
  La3+  La0  1  0.62021255  0.49249238  0.39411754  1
  La3+  La1  1  0.86475117  -0.02822532  0.90160583  1
  La3+  La2  1  0.87764258  0.49394534  0.42194874  1
  La3+  La3  1  0.26191896  0.62402600  0.57150323  1
  La3+  La4  1  0.12845513  0.23056032  0.91581632  1
  La3+  La5  1  0.24082087  0.37151920  0.61506775  1
  Ce3+  Ce6  1  0.75196368  0.37605375  0.55731899  1
  Ce3+  Ce7  1  0.49819302  0.85870059  0.05880490  1
  Ce3+  Ce8  1  0.00219976  0.87189067  0.55996415  1
  Ce3+  Ce9  1  0.00364059  0.62173222  0.54819997  1
  Ce3+  Ce10  1  0.50317365  0.62509679  0.54876748  1
  Ce3+  Ce11  1  0.37494775  -0.00318311  0.43594751  1
  Ce3+  Ce12  1  0.37212926  0.50907439  0.42286503  1
  Pr3+  Pr13  1  0.63035797  0.75275688  0.42730403  1
  Pr3+  Pr14  1  0.62076057  0.72576458  0.93787080  1
  Pr3+  Pr15  1  0.49934159  0.60390186  0.08062406  1
  Pr3+  Pr16  1  0.49861239  0.35534678  0.06842360  1
  Pr3+  Pr17  1  0.37368128  0.49008745  0.94297715  1
  Pr3+  Pr18  1  0.49980683  0.11134866  0.06803681  1
  Pr3+  Pr19  1  0.50434794  0.87634307  0.55697533  1
  Pr3+  Pr20  1  0.12206866  0.50108826  0.92725503  1
  Pr3+  Pr21  1  0.24589998  0.60079793  0.07659048  1
  Pr3+  Pr22  1  0.12732274  0.00417728  0.44939666  1
  Pr3+  Pr23  1  -0.00688201  0.38722187  0.57619196  1
  Pr3+  Pr24  1  0.74590430  0.86061626  0.06408694  1
  Pr3+  Pr25  1  0.25082153  0.12780636  0.56487398  1
  Nd3+  Nd26  1  0.87539000  0.24869279  0.43817455  1
  Nd3+  Nd27  1  0.00055449  0.35762610  0.05375333  1
  Nd3+  Nd28  1  0.25296253  0.87316129  0.56908045  1
  Nd3+  Nd29  1  0.88013813  0.76160714  0.42246769  1
  Nd3+  Nd30  1  0.75112998  0.11992068  0.57286278  1
  Nd3+  Nd31  1  0.87673821  0.00479108  0.44092045  1
  Nd3+  Nd32  1  0.62196765  -0.01747382  0.93564659  1
  Nd3+  Nd33  1  -0.00070285  0.60119566  0.07485206  1
  Nd3+  Nd34  1  0.13207650  0.49825095  0.44282048  1
  Nd3+  Nd35  1  0.24528910  0.85928583  0.06605488  1
  Nd3+  Nd36  1  0.12929865  0.25475073  0.45104880  1
  Nd3+  Nd37  1  0.37640251  0.23544766  0.93472672  1
  Nd3+  Nd38  1  0.24475867  0.35665332  0.05687046  1
  Nd3+  Nd39  1  0.13296555  -0.01752998  0.92653330  1
  Nd3+  Nd40  1  0.87640203  0.23447802  0.93455140  1
  Nd3+  Nd41  1  0.76264877  0.86570380  0.57263383  1
  Nd3+  Nd42  1  0.13107498  0.75178464  0.43549560  1
  Nd3+  Nd43  1  0.74760753  0.60767336  0.07109847  1
  Nd3+  Nd44  1  0.87397006  0.48736804  0.94235310  1
  Sm3+  Sm45  1  0.50195796  0.12420783  0.55007345  1
  Sm3+  Sm46  1  -0.00487952  0.12986760  0.57174413  1
  Sm3+  Sm47  1  0.75185328  0.10838691  0.05346080  1
  Sm3+  Sm48  1  0.62851337  0.24926670  0.44214227  1
  Sm3+  Sm49  1  0.12202407  0.73701924  0.95298487  1
  Sm3+  Sm50  1  -0.00315477  0.86129144  0.05779039  1
  Sm3+  Sm51  1  0.62416868  0.23373076  0.94373580  1
  Sm3+  Sm52  1  0.63229799  -0.00274723  0.43706187  1
  Sm3+  Sm53  1  -0.00261736  0.10615584  0.04415758  1
  Sm3+  Sm54  1  0.24063354  0.11346383  0.06143910  1
  Sm3+  Sm55  1  0.87104753  0.73542940  0.94653611  1
  Sm3+  Sm56  1  0.49687779  0.37935274  0.55421511  1
  Sm3+  Sm57  1  0.75083736  0.35845460  0.05553760  1
  Sm3+  Sm58  1  0.37971697  0.25468960  0.44182160  1
  Sm3+  Sm59  1  0.75232593  0.62707233  0.54390475  1
  Sm3+  Sm60  1  0.62528058  0.48459251  0.94488704  1
  Sm3+  Sm61  1  0.37236390  0.73325247  0.95570563  1
  Sm3+  Sm62  1  0.37754714  0.75354002  0.43344375  1
  Sm3+  Sm63  1  0.37266541  -0.01343904  0.95006230  1
  Bi2+  Bi64  1  -0.06397777  0.14647153  0.31583421  1
  Bi2+  Bi65  1  -0.01416849  0.15181205  0.78928376  1
  Bi2+  Bi66  1  0.01195528  0.35735457  0.28792761  1
  Bi2+  Bi67  1  -0.05460121  0.40507373  0.80733149  1
  Bi2+  Bi68  1  0.00890335  0.64033607  0.27904734  1
  Bi2+  Bi69  1  0.02613561  0.68617266  0.77326094  1
  Bi2+  Bi70  1  0.00772838  0.97121694  0.28549495  1
  Bi2+  Bi71  1  0.08484912  0.86511710  0.79951766  1
  Bi2+  Bi72  1  0.21495370  0.14172102  0.29555217  1
  Bi2+  Bi73  1  0.26391878  0.08456740  0.79255264  1
  Bi2+  Bi74  1  0.24460058  0.37678054  0.30027433  1
  Bi2+  Bi75  1  0.23199219  0.38529919  0.81722319  1
  Bi2+  Bi76  1  0.24925907  0.63184807  0.28170371  1
  Bi2+  Bi77  1  0.26333833  0.63409704  0.80492717  1
  Bi2+  Bi78  1  0.23567750  0.87410286  0.29736986  1
  Bi2+  Bi79  1  0.27882042  0.82999861  0.79884153  1
  Bi2+  Bi80  1  0.50839925  0.09718804  0.29371658  1
  Bi2+  Bi81  1  0.48349602  0.10800361  0.81562255  1
  Bi2+  Bi82  1  0.49137486  0.33645156  0.28446241  1
  Bi2+  Bi83  1  0.53882143  0.37084879  0.78082407  1
  Bi2+  Bi84  1  0.49458340  0.62673361  0.28058004  1
  Bi2+  Bi85  1  0.50604574  0.63504342  0.73559082  1
  Bi2+  Bi86  1  0.50256324  0.90086391  0.29111206  1
  Bi2+  Bi87  1  0.46712963  0.92518049  0.78058430  1
  Bi2+  Bi88  1  0.74903644  0.11758694  0.35269926  1
  Bi2+  Bi89  1  0.67442999  0.13688153  0.78018393  1
  Bi2+  Bi90  1  0.75944882  0.28412058  0.28906338  1
  Bi2+  Bi91  1  0.71712090  0.45203069  0.80369075  1
  Bi2+  Bi92  1  0.76719480  0.62023628  0.27935746  1
  Bi2+  Bi93  1  0.72977954  0.64869264  0.82179311  1
  Bi2+  Bi94  1  0.75363569  0.94332600  0.29178707  1
  Bi2+  Bi95  1  0.74610684  0.86473040  0.78986863  1
  Bi2+  Bi96  1  0.13388206  0.05610894  0.20675390  1
  Bi2+  Bi97  1  0.12994803  -0.01889881  0.70994025  1
  Bi2+  Bi98  1  0.12852155  0.26150567  0.21217329  1
  Bi2+  Bi99  1  0.15159603  0.23108627  0.71677799  1
  Bi2+  Bi100  1  0.12144072  0.52711180  0.20201135  1
  Bi2+  Bi101  1  0.08284529  0.51337775  0.71276599  1
  Bi2+  Bi102  1  0.10942636  0.77957998  0.19945850  1
  Bi2+  Bi103  1  0.08365571  0.79664683  0.68586449  1
  Bi2+  Bi104  1  0.35281670  0.04712589  0.22615424  1
  Bi2+  Bi105  1  0.32452892  -0.02099920  0.69780826  1
  Bi2+  Bi106  1  0.35631888  0.24451072  0.20761288  1
  Bi2+  Bi107  1  0.46166553  0.22073700  0.72295134  1
  Bi2+  Bi108  1  0.36046790  0.44193969  0.21764421  1
  Bi2+  Bi109  1  0.37353538  0.50176625  0.70733571  1
  Bi2+  Bi110  1  0.37042159  0.84143788  0.21884533  1
  Bi2+  Bi111  1  0.38944327  0.79171615  0.69805498  1
  Bi2+  Bi112  1  0.61375981  0.01822535  0.20827226  1
  Bi2+  Bi113  1  0.59505973  0.00671682  0.70852119  1
  Bi2+  Bi114  1  0.62303373  0.21349283  0.21653359  1
  Bi2+  Bi115  1  0.64140425  0.28473963  0.68922691  1
  Bi2+  Bi116  1  0.63446735  0.48636192  0.20464959  1
  Bi2+  Bi117  1  0.63248489  0.48926630  0.70008285  1
  Bi2+  Bi118  1  0.62384852  0.76102112  0.19759805  1
  Bi2+  Bi119  1  0.65225458  0.75102372  0.70775812  1
  Bi2+  Bi120  1  0.86189056  0.05266851  0.21822993  1
  Bi2+  Bi121  1  0.86842264  0.00343770  0.70041774  1
  Bi2+  Bi122  1  0.92331343  0.24046424  0.20227800  1
  Bi2+  Bi123  1  0.82403345  0.26383745  0.72108420  1
  Bi2+  Bi124  1  0.87976763  0.42832993  0.21159112  1
  Bi2+  Bi125  1  0.83293420  0.50371480  0.71117250  1
  Bi2+  Bi126  1  0.88456773  0.82750101  0.22860582  1
  Bi2+  Bi127  1  0.84306383  0.69707217  0.72665964  1
  S2-  S128  1  0.02233593  0.12295450  0.14105952  1
  S2-  S129  1  0.06399335  0.11586542  0.66441553  1
  S2-  S130  1  0.00472528  0.45283378  0.13869639  1
  S2-  S131  1  0.07708887  0.36186136  0.66501673  1
  S2-  S132  1  -0.00802021  0.66034212  0.17080208  1
  S2-  S133  1  -0.01143018  0.55991012  0.63946483  1
  S2-  S134  1  0.00457555  0.87809226  0.15563465  1
  S2-  S135  1  -0.08150582  0.87426263  0.64596592  1
  S2-  S136  1  0.23734477  0.23368600  0.13132135  1
  S2-  S137  1  0.26939488  0.20388861  0.65377110  1
  S2-  S138  1  0.23901868  0.45880574  0.14110709  1
  S2-  S139  1  0.26363826  0.36779063  0.72501577  1
  S2-  S140  1  0.23316945  0.65884028  0.17487744  1
  S2-  S141  1  0.22296978  0.53648939  0.65828855  1
  S2-  S142  1  0.23455875  0.88763061  0.16335541  1
  S2-  S143  1  0.24155954  0.75862589  0.64501310  1
  S2-  S144  1  0.49835549  0.22941725  0.14232759  1
  S2-  S145  1  0.50172711  0.11095722  0.64840120  1
  S2-  S146  1  0.50315579  0.46307487  0.14991556  1
  S2-  S147  1  0.41535548  0.39151552  0.64107463  1
  S2-  S148  1  0.49512005  0.67227195  0.17660213  1
  S2-  S149  1  0.42817917  0.62663429  0.63810046  1
  S2-  S150  1  0.53322686  0.88970669  0.15156712  1
  S2-  S151  1  0.54156543  0.86080449  0.65452750  1
  S2-  S152  1  0.73454801  0.11627202  0.15139347  1
  S2-  S153  1  0.86824149  0.14917474  0.64750449  1
  S2-  S154  1  0.74449397  0.38638233  0.15279219  1
  S2-  S155  1  0.84799063  0.37862953  0.64102134  1
  S2-  S156  1  0.72857690  0.62716550  0.17058688  1
  S2-  S157  1  0.75898667  0.71470407  0.62997521  1
  S2-  S158  1  0.76928678  0.85196255  0.16413035  1
  S2-  S159  1  0.73582847  0.98740244  0.64474534  1
  S2-  S160  1  0.15973905  -0.00412208  0.35033784  1
  S2-  S161  1  0.11494488  0.09030048  0.84740187  1
  S2-  S162  1  0.12549741  0.26636356  0.35100725  1
  S2-  S163  1  0.07485815  0.29041211  0.82216839  1
  S2-  S164  1  0.19398529  0.51317388  0.34752742  1
  S2-  S165  1  0.08565364  0.48151785  0.82519771  1
  S2-  S166  1  0.12803866  0.74442315  0.33452712  1
  S2-  S167  1  0.12703200  0.65874091  0.86703565  1
  S2-  S168  1  0.36656566  -0.11852779  0.36170155  1
  S2-  S169  1  0.28517032  -0.03058807  0.86629647  1
  S2-  S170  1  0.37110160  0.26782541  0.34335227  1
  S2-  S171  1  0.28438710  0.23246014  0.85149989  1
  S2-  S172  1  0.47050572  0.48852740  0.33994694  1
  S2-  S173  1  0.35088434  0.49820411  0.84291717  1
  S2-  S174  1  0.36425270  0.66087034  0.34748043  1
  S2-  S175  1  0.37807673  0.71679424  0.85812814  1
  S2-  S176  1  0.63768631  -0.11348294  0.35844382  1
  S2-  S177  1  0.71010720  -0.00099602  0.85041632  1
  S2-  S178  1  0.61927670  0.31662770  0.35205983  1
  S2-  S179  1  0.62038168  0.25441275  0.84681379  1
  S2-  S180  1  0.70329875  0.47883328  0.30210510  1
  S2-  S181  1  0.59756268  0.57479961  0.86452716  1
  S2-  S182  1  0.62317954  0.66023609  0.33685273  1
  S2-  S183  1  0.62755461  0.78844111  0.84335602  1
  S2-  S184  1  0.89411367  -0.08700937  0.35717830  1
  S2-  S185  1  0.91086610  0.01295622  0.80375609  1
  S2-  S186  1  0.87973153  0.34790899  0.35607691  1
  S2-  S187  1  0.86269386  0.25081963  0.83553531  1
  S2-  S188  1  0.90835662  0.54122162  0.32320549  1
  S2-  S189  1  0.87934871  0.55231772  0.85108453  1
  S2-  S190  1  0.87754190  0.73085144  0.32142500  1
  S2-  S191  1  0.86478214  0.81028992  0.85796981  1
  S2-  S192  1  0.00248741  0.12909521  0.46063156  1
  S2-  S193  1  -0.01032844  0.10016070  0.94149788  1
  S2-  S194  1  0.00483054  0.37670051  0.45893985  1
  S2-  S195  1  -0.00044424  0.36341096  0.94716859  1
  S2-  S196  1  0.00512470  0.62637447  0.44082605  1
  S2-  S197  1  -0.00582324  0.61534193  0.96484039  1
  S2-  S198  1  0.00790384  0.87622985  0.45439280  1
  S2-  S199  1  -0.00080321  0.86188216  0.95292024  1
  S2-  S200  1  0.25608767  0.12885060  0.45574710  1
  S2-  S201  1  0.25086091  0.10937668  0.95859001  1
  S2-  S202  1  0.25658338  0.37422796  0.44844507  1
  S2-  S203  1  0.24597900  0.36525108  0.95057096  1
  S2-  S204  1  0.25165188  0.63013547  0.45701234  1
  S2-  S205  1  0.24931418  0.61393427  0.96781845  1
  S2-  S206  1  0.24953093  0.87634166  0.46210289  1
  S2-  S207  1  0.24843599  0.85544796  0.96148354  1
  S2-  S208  1  0.50351624  0.12360869  0.44526436  1
  S2-  S209  1  0.49904226  0.10983998  0.95860156  1
  S2-  S210  1  0.50398214  0.37560769  0.45127330  1
  S2-  S211  1  0.50113219  0.36076778  0.95397539  1
  S2-  S212  1  0.50508591  0.62747697  0.44516369  1
  S2-  S213  1  0.49643547  0.60951519  0.97036527  1
  S2-  S214  1  0.50356195  0.87821398  0.45230496  1
  S2-  S215  1  0.49493384  0.86043456  0.95226097  1
  S2-  S216  1  0.75072475  0.12585377  0.46577112  1
  S2-  S217  1  0.74995365  0.11177876  0.94934455  1
  S2-  S218  1  0.74412761  0.37788069  0.45167868  1
  S2-  S219  1  0.74885469  0.35938293  0.95041425  1
  S2-  S220  1  0.75633052  0.62645411  0.43941165  1
  S2-  S221  1  0.74965392  0.60949343  0.96362789  1
  S2-  S222  1  0.75705127  0.87824926  0.46047404  1
  S2-  S223  1  0.74408892  0.85840277  0.95844080  1
  S2-  S224  1  0.12320916  -0.01493196  0.04201811  1
  S2-  S225  1  0.12607338  -0.00027924  0.55571485  1
  S2-  S226  1  0.11752312  0.23122000  0.02947379  1
  S2-  S227  1  0.12234669  0.25173479  0.55555959  1
  S2-  S228  1  0.12118701  0.48427430  0.03612508  1
  S2-  S229  1  0.13076911  0.49576839  0.54701928  1
  S2-  S230  1  0.12041375  0.73338973  0.05671027  1
  S2-  S231  1  0.12597976  0.74811628  0.54225574  1
  S2-  S232  1  0.36876172  -0.01103019  0.05503990  1
  S2-  S233  1  0.37531669  0.00060630  0.54517480  1
  S2-  S234  1  0.37286223  0.23165666  0.03916946  1
  S2-  S235  1  0.38116644  0.24770735  0.54508873  1
  S2-  S236  1  0.37496104  0.48034192  0.04869896  1
  S2-  S237  1  0.38197225  0.50368183  0.53217632  1
  S2-  S238  1  0.37113603  0.73335167  0.06151709  1
  S2-  S239  1  0.37987846  0.75528357  0.53849832  1
  S2-  S240  1  0.62426143  -0.01134623  0.04346685  1
  S2-  S241  1  0.62649827  0.00066245  0.54079031  1
  S2-  S242  1  0.63019029  0.23429681  0.04662667  1
  S2-  S243  1  0.62405333  0.24927009  0.54754243  1
  S2-  S244  1  0.62781771  0.48213606  0.04842211  1
  S2-  S245  1  0.62840884  0.50208961  0.55310158  1
  S2-  S246  1  0.62233152  0.73158088  0.05128211  1
  S2-  S247  1  0.62763284  0.75166973  0.53595477  1
  S2-  S248  1  0.87377592  -0.01550074  0.05201037  1
  S2-  S249  1  0.88059141  0.00141964  0.54535841  1
  S2-  S250  1  0.87417139  0.23413010  0.04258446  1
  S2-  S251  1  0.87595678  0.25156949  0.54268099  1
  S2-  S252  1  0.87040000  0.48363024  0.04782105  1
  S2-  S253  1  0.87225301  0.50404045  0.53320221  1
  S2-  S254  1  0.87468412  0.73453409  0.05340731  1
  S2-  S255  1  0.88272245  0.74621635  0.53124809  1
