# generated using pymatgen
data_La6Ce7Pr13Nd19Sm19(BiS2)64
_symmetry_space_group_name_H-M   'P 1'
_cell_length_a   16.13757132
_cell_length_b   16.14577954
_cell_length_c   27.28760738
_cell_angle_alpha   90.12370754
_cell_angle_beta   89.97533788
_cell_angle_gamma   90.04143103
_symmetry_Int_Tables_number   1
_chemical_formula_structural   La6Ce7Pr13Nd19Sm19(BiS2)64
_chemical_formula_sum   'La6 Ce7 Pr13 Nd19 Sm19 Bi64 S128'
_cell_volume   7109.86713345
_cell_formula_units_Z   1
loop_
 _symmetry_equiv_pos_site_id
 _symmetry_equiv_pos_as_xyz
  1  'x, y, z'
loop_
 _atom_type_symbol
 _atom_type_oxidation_number
  La3+  3.0
  Ce3+  3.0
  Pr3+  3.0
  Nd3+  3.0
  Sm3+  3.0
  Bi2+  2.0
  S2-  -2.0
loop_
 _atom_site_type_symbol
 _atom_site_label
 _atom_site_symmetry_multiplicity
 _atom_site_fract_x
 _atom_site_fract_y
 _atom_site_fract_z
 _atom_site_occupancy
  La3+  La0  1  0.37863212  0.25821631  0.92061171  1
  La3+  La1  1  0.87426301  0.52407474  0.88100743  1
  La3+  La2  1  0.50001745  0.87193961  0.61263492  1
  La3+  La3  1  0.11757493  0.25150192  0.43343631  1
  La3+  La4  1  0.75787590  0.86904158  0.11664094  1
  La3+  La5  1  0.61158908  0.48561689  0.40511362  1
  Ce3+  Ce6  1  0.12197122  -0.00267529  0.44740998  1
  Ce3+  Ce7  1  0.74379612  0.12229115  0.56030138  1
  Ce3+  Ce8  1  0.37372901  0.49984212  0.44306807  1
  Ce3+  Ce9  1  0.50549390  0.87811090  0.06117998  1
  Ce3+  Ce10  1  0.61484024  0.75003099  0.44005677  1
  Ce3+  Ce11  1  0.74002771  0.62570338  0.55346512  1
  Ce3+  Ce12  1  0.86981207  0.26042458  0.94220433  1
  Pr3+  Pr13  1  0.12383821  0.25020772  0.93851840  1
  Pr3+  Pr14  1  0.61880714  -0.00050221  0.44390879  1
  Pr3+  Pr15  1  -0.00668055  0.87194570  0.56842676  1
  Pr3+  Pr16  1  0.74258181  0.37832293  0.56193864  1
  Pr3+  Pr17  1  0.35760471  -0.00895809  0.90938198  1
  Pr3+  Pr18  1  0.49599826  0.62564734  0.06159683  1
  Pr3+  Pr19  1  0.86831926  -0.00081210  0.43588527  1
  Pr3+  Pr20  1  0.25025859  0.12700686  0.05733847  1
  Pr3+  Pr21  1  0.74804230  0.61855418  0.07252030  1
  Pr3+  Pr22  1  0.74640658  0.11978134  0.05728876  1
  Pr3+  Pr23  1  0.74654816  0.37462184  0.07459353  1
  Pr3+  Pr24  1  0.11932239  0.74818276  0.93673613  1
  Pr3+  Pr25  1  -0.00424736  0.37411971  0.56543640  1
  Nd3+  Nd26  1  0.49154059  0.37375657  0.06380848  1
  Nd3+  Nd27  1  0.12093342  0.75160385  0.44301005  1
  Nd3+  Nd28  1  -0.00226519  0.37695903  0.05891717  1
  Nd3+  Nd29  1  -0.00696968  0.62638293  0.05659300  1
  Nd3+  Nd30  1  0.49169511  0.37612685  0.57191141  1
  Nd3+  Nd31  1  0.24765909  0.87664612  0.05817273  1
  Nd3+  Nd32  1  0.49242727  0.12788296  0.57380051  1
  Nd3+  Nd33  1  0.61932801  -0.00094318  0.93129577  1
  Nd3+  Nd34  1  0.24649726  0.87461281  0.56931297  1
  Nd3+  Nd35  1  0.37194071  0.24981753  0.44420275  1
  Nd3+  Nd36  1  0.74800025  0.87533453  0.56680132  1
  Nd3+  Nd37  1  0.62712297  0.74858389  0.94739306  1
  Nd3+  Nd38  1  -0.00591633  0.12481651  0.55526077  1
  Nd3+  Nd39  1  0.86953330  0.00083077  0.93619197  1
  Nd3+  Nd40  1  0.24384797  0.12692669  0.56661047  1
  Nd3+  Nd41  1  0.37460539  0.74911099  0.94110258  1
  Nd3+  Nd42  1  0.86811942  0.75339263  0.94235279  1
  Nd3+  Nd43  1  0.86422004  0.74538902  0.43660753  1
  Nd3+  Nd44  1  0.24494390  0.37674249  0.05334871  1
  Sm3+  Sm45  1  0.24518382  0.62591485  0.55431866  1
  Sm3+  Sm46  1  -0.00534490  0.62542736  0.55430179  1
  Sm3+  Sm47  1  0.11968138  0.50220779  0.44335022  1
  Sm3+  Sm48  1  0.37340364  0.50116652  0.93690887  1
  Sm3+  Sm49  1  0.37286656  0.75116985  0.44757740  1
  Sm3+  Sm50  1  0.24450554  0.37760045  0.55175279  1
  Sm3+  Sm51  1  0.86900575  0.49964084  0.44082051  1
  Sm3+  Sm52  1  0.49277511  0.12484677  0.04738211  1
  Sm3+  Sm53  1  0.37022746  0.00054024  0.44977198  1
  Sm3+  Sm54  1  0.11617753  0.50113598  0.93620702  1
  Sm3+  Sm55  1  0.61876905  0.24926072  0.44671192  1
  Sm3+  Sm56  1  0.24583004  0.62771994  0.05322159  1
  Sm3+  Sm57  1  0.86859703  0.25413490  0.44741711  1
  Sm3+  Sm58  1  0.62043113  0.25130473  0.95006826  1
  Sm3+  Sm59  1  0.49527195  0.62859288  0.55984103  1
  Sm3+  Sm60  1  0.12228891  0.00152379  0.94062593  1
  Sm3+  Sm61  1  0.63045718  0.49991618  0.94765148  1
  Sm3+  Sm62  1  -0.00506525  0.87616508  0.05496317  1
  Sm3+  Sm63  1  -0.00364690  0.12476891  0.05087273  1
  Bi2+  Bi64  1  0.02376410  0.13686024  0.25185913  1
  Bi2+  Bi65  1  -0.03203987  0.13985473  0.78615697  1
  Bi2+  Bi66  1  0.00795044  0.33895613  0.29504544  1
  Bi2+  Bi67  1  0.01083687  0.35363994  0.78925880  1
  Bi2+  Bi68  1  0.04503266  0.60187442  0.28778045  1
  Bi2+  Bi69  1  0.09419686  0.63945126  0.77996948  1
  Bi2+  Bi70  1  0.04936695  0.84721352  0.23925966  1
  Bi2+  Bi71  1  0.01204587  0.92109491  0.77820891  1
  Bi2+  Bi72  1  0.27002482  0.11431250  0.31309944  1
  Bi2+  Bi73  1  0.18766473  0.12756782  0.79274851  1
  Bi2+  Bi74  1  0.22371759  0.38769922  0.28124864  1
  Bi2+  Bi75  1  0.27183808  0.41393573  0.77739257  1
  Bi2+  Bi76  1  0.25216175  0.66357015  0.28534950  1
  Bi2+  Bi77  1  0.27838553  0.59688552  0.81879627  1
  Bi2+  Bi78  1  0.21428483  0.86647583  0.30400146  1
  Bi2+  Bi79  1  0.22158955  0.81895148  0.78027748  1
  Bi2+  Bi80  1  0.51569544  0.16074134  0.27913677  1
  Bi2+  Bi81  1  0.49538008  0.16782954  0.78968869  1
  Bi2+  Bi82  1  0.42364172  0.36259265  0.28003175  1
  Bi2+  Bi83  1  0.52827869  0.39763050  0.79139079  1
  Bi2+  Bi84  1  0.44599223  0.62804343  0.28763923  1
  Bi2+  Bi85  1  0.47014560  0.59856451  0.78652199  1
  Bi2+  Bi86  1  0.50508405  0.84779868  0.28263082  1
  Bi2+  Bi87  1  0.51174911  0.86142840  0.81952234  1
  Bi2+  Bi88  1  0.75858868  0.11614335  0.29830009  1
  Bi2+  Bi89  1  0.77809157  0.16890801  0.77008238  1
  Bi2+  Bi90  1  0.75050575  0.34064160  0.30277501  1
  Bi2+  Bi91  1  0.75876659  0.36705254  0.78198467  1
  Bi2+  Bi92  1  0.77844049  0.62777867  0.30213160  1
  Bi2+  Bi93  1  0.72192408  0.61696454  0.78639150  1
  Bi2+  Bi94  1  0.75431903  0.87939137  0.32114079  1
  Bi2+  Bi95  1  0.75716123  0.83834201  0.81444211  1
  Bi2+  Bi96  1  0.15873862  0.00027470  0.21439776  1
  Bi2+  Bi97  1  0.15352739  -0.00826854  0.70924414  1
  Bi2+  Bi98  1  0.16002398  0.24371565  0.19393833  1
  Bi2+  Bi99  1  0.14588684  0.27170600  0.71878315  1
  Bi2+  Bi100  1  0.10202146  0.48493578  0.20475990  1
  Bi2+  Bi101  1  0.14899295  0.50825600  0.70512945  1
  Bi2+  Bi102  1  0.12752418  0.68313446  0.18670794  1
  Bi2+  Bi103  1  0.10950896  0.81588635  0.67832864  1
  Bi2+  Bi104  1  0.38854222  -0.01002134  0.24514705  1
  Bi2+  Bi105  1  0.37170309  -0.00110992  0.71853453  1
  Bi2+  Bi106  1  0.39553549  0.22413790  0.19703606  1
  Bi2+  Bi107  1  0.35804431  0.26744022  0.70681405  1
  Bi2+  Bi108  1  0.33680368  0.51107989  0.21908629  1
  Bi2+  Bi109  1  0.42163931  0.45849587  0.69568317  1
  Bi2+  Bi110  1  0.35276801  0.79983665  0.21412018  1
  Bi2+  Bi111  1  0.33809267  0.69382932  0.72327690  1
  Bi2+  Bi112  1  0.60718593  0.03437470  0.20700248  1
  Bi2+  Bi113  1  0.63470904  -0.00357951  0.71810956  1
  Bi2+  Bi114  1  0.66840679  0.23280029  0.21535732  1
  Bi2+  Bi115  1  0.62212740  0.25705074  0.72114966  1
  Bi2+  Bi116  1  0.60834313  0.48301377  0.20862378  1
  Bi2+  Bi117  1  0.60426923  0.51907435  0.70797994  1
  Bi2+  Bi118  1  0.60295106  0.73686539  0.21246011  1
  Bi2+  Bi119  1  0.61953817  0.72741236  0.70994101  1
  Bi2+  Bi120  1  0.88792354  0.01322879  0.20957045  1
  Bi2+  Bi121  1  0.90004166  0.02932819  0.69598861  1
  Bi2+  Bi122  1  0.86619799  0.25166045  0.21144202  1
  Bi2+  Bi123  1  0.91003867  0.26999742  0.69784894  1
  Bi2+  Bi124  1  0.86555699  0.44042525  0.22993690  1
  Bi2+  Bi125  1  0.86543890  0.52272683  0.67734306  1
  Bi2+  Bi126  1  0.89233735  0.73959535  0.21578613  1
  Bi2+  Bi127  1  0.93543724  0.77018362  0.71898262  1
  S2-  S128  1  -0.00405944  0.10497510  0.14755465  1
  S2-  S129  1  0.00987158  0.14750433  0.65275050  1
  S2-  S130  1  0.03686774  0.35554141  0.15498070  1
  S2-  S131  1  0.00594925  0.42692448  0.66055147  1
  S2-  S132  1  -0.03082584  0.62349188  0.15552046  1
  S2-  S133  1  -0.02389380  0.64938908  0.65059166  1
  S2-  S134  1  -0.06496694  0.87652231  0.14649124  1
  S2-  S135  1  -0.12381727  0.87911011  0.64315448  1
  S2-  S136  1  0.25174800  0.11378825  0.15731932  1
  S2-  S137  1  0.30816209  0.12816357  0.65910951  1
  S2-  S138  1  0.27909131  0.33227359  0.14617498  1
  S2-  S139  1  0.22782660  0.35830135  0.64794837  1
  S2-  S140  1  0.28245594  0.61608937  0.14713651  1
  S2-  S141  1  0.23813472  0.62088907  0.65272794  1
  S2-  S142  1  0.23006345  0.87026401  0.15609510  1
  S2-  S143  1  0.33454367  0.88237081  0.65420541  1
  S2-  S144  1  0.48982431  0.11498297  0.14557503  1
  S2-  S145  1  0.51038481  0.03508788  0.65827397  1
  S2-  S146  1  0.51705924  0.37925481  0.16186478  1
  S2-  S147  1  0.50240764  0.25871081  0.64595350  1
  S2-  S148  1  0.53396972  0.61769938  0.16055108  1
  S2-  S149  1  0.49007242  0.70355685  0.64813831  1
  S2-  S150  1  0.58564593  0.88182465  0.14896445  1
  S2-  S151  1  0.50267735  0.87932263  0.72497409  1
  S2-  S152  1  0.75254710  0.04033844  0.14648918  1
  S2-  S153  1  0.74436474  0.08685825  0.65559113  1
  S2-  S154  1  0.74971778  0.48620498  0.15393053  1
  S2-  S155  1  0.77618979  0.37329167  0.66038992  1
  S2-  S156  1  0.75089708  0.70706698  0.15975958  1
  S2-  S157  1  0.74083276  0.63658528  0.65159287  1
  S2-  S158  1  0.77250086  0.87631545  0.22644738  1
  S2-  S159  1  0.66407686  0.86645251  0.65475402  1
  S2-  S160  1  0.14457200  0.00866725  0.35122397  1
  S2-  S161  1  0.20508843  0.00128324  0.85536714  1
  S2-  S162  1  0.15757811  0.24831139  0.33637651  1
  S2-  S163  1  0.13102194  0.28514387  0.84075903  1
  S2-  S164  1  0.11246427  0.48052545  0.34682683  1
  S2-  S165  1  0.04325235  0.50747691  0.84743993  1
  S2-  S166  1  0.11337054  0.73494940  0.34525629  1
  S2-  S167  1  0.08493554  0.78091089  0.84050588  1
  S2-  S168  1  0.37763708  0.00939468  0.35122177  1
  S2-  S169  1  0.43708728  0.01533645  0.82035624  1
  S2-  S170  1  0.39035686  0.23459977  0.34580905  1
  S2-  S171  1  0.34309332  0.19466827  0.82854428  1
  S2-  S172  1  0.45207641  0.48812627  0.35662514  1
  S2-  S173  1  0.38804405  0.40166706  0.85689283  1
  S2-  S174  1  0.41725364  0.75380031  0.35249140  1
  S2-  S175  1  0.35578417  0.82864244  0.85411937  1
  S2-  S176  1  0.64485659  0.01580992  0.34374244  1
  S2-  S177  1  0.65316924  -0.02908755  0.83262772  1
  S2-  S178  1  0.61584225  0.32249037  0.35916774  1
  S2-  S179  1  0.59551250  0.26646011  0.85440776  1
  S2-  S180  1  0.65737798  0.52236986  0.30862663  1
  S2-  S181  1  0.69938034  0.49788915  0.85805478  1
  S2-  S182  1  0.65887347  0.74154567  0.34494568  1
  S2-  S183  1  0.62388224  0.73415128  0.84735882  1
  S2-  S184  1  0.87747742  0.00698980  0.33552244  1
  S2-  S185  1  0.87301577  -0.06294667  0.84362043  1
  S2-  S186  1  0.89968639  0.26395741  0.35131520  1
  S2-  S187  1  0.86730011  0.34629794  0.85685998  1
  S2-  S188  1  0.87550123  0.51905045  0.34372657  1
  S2-  S189  1  0.86023816  0.51516045  0.77291804  1
  S2-  S190  1  0.87987427  0.76571022  0.33872287  1
  S2-  S191  1  0.85177374  0.69647106  0.84863945  1
  S2-  S192  1  -0.00696879  0.12624737  0.44905873  1
  S2-  S193  1  -0.00418355  0.12559670  0.94530159  1
  S2-  S194  1  -0.00564361  0.37869099  0.45685767  1
  S2-  S195  1  0.00144809  0.37576603  0.95464285  1
  S2-  S196  1  -0.00478764  0.62408448  0.44952456  1
  S2-  S197  1  -0.00801427  0.62462744  0.95029900  1
  S2-  S198  1  -0.00648049  0.87255639  0.45491072  1
  S2-  S199  1  -0.00205067  0.87817183  0.95046607  1
  S2-  S200  1  0.24558551  0.12627673  0.45887124  1
  S2-  S201  1  0.24976617  0.12509223  0.95104129  1
  S2-  S202  1  0.24601668  0.37768260  0.44734469  1
  S2-  S203  1  0.24391796  0.38188791  0.94802964  1
  S2-  S204  1  0.24671384  0.62568270  0.44900787  1
  S2-  S205  1  0.24670372  0.62385622  0.94964141  1
  S2-  S206  1  0.24864765  0.87364241  0.46011555  1
  S2-  S207  1  0.24213078  0.87288267  0.95447766  1
  S2-  S208  1  0.49514890  0.12621245  0.45870697  1
  S2-  S209  1  0.49418120  0.12279690  0.94333538  1
  S2-  S210  1  0.49606146  0.37326926  0.46471391  1
  S2-  S211  1  0.50282149  0.38093427  0.95847791  1
  S2-  S212  1  0.49633688  0.62356412  0.45510603  1
  S2-  S213  1  0.49910586  0.62234266  0.95268271  1
  S2-  S214  1  0.49177692  0.87773960  0.45072824  1
  S2-  S215  1  0.49713169  0.87531054  0.95312590  1
  S2-  S216  1  0.74601277  0.13004281  0.45316538  1
  S2-  S217  1  0.74549420  0.12748377  0.94786182  1
  S2-  S218  1  0.74404846  0.37800345  0.45528835  1
  S2-  S219  1  0.73990616  0.37004054  0.96739723  1
  S2-  S220  1  0.73848923  0.61626532  0.44738618  1
  S2-  S221  1  0.75038228  0.62434402  0.96149404  1
  S2-  S222  1  0.74480509  0.87318711  0.45639052  1
  S2-  S223  1  0.74514287  0.87747444  0.94896537  1
  S2-  S224  1  0.12057971  0.00027909  0.04535156  1
  S2-  S225  1  0.11925385  -0.00059347  0.55384995  1
  S2-  S226  1  0.12130214  0.24813403  0.04466119  1
  S2-  S227  1  0.12110206  0.25136820  0.54359198  1
  S2-  S228  1  0.12271273  0.50410358  0.04410888  1
  S2-  S229  1  0.12050563  0.50208401  0.54747843  1
  S2-  S230  1  0.12057991  0.75193404  0.04491619  1
  S2-  S231  1  0.12061013  0.74800007  0.54800122  1
  S2-  S232  1  0.37288817  -0.00165246  0.04583304  1
  S2-  S233  1  0.36892990  0.00277840  0.55193003  1
  S2-  S234  1  0.37250711  0.25218462  0.03488931  1
  S2-  S235  1  0.36549083  0.25261517  0.54850341  1
  S2-  S236  1  0.36967740  0.50128090  0.04281675  1
  S2-  S237  1  0.36905388  0.50218475  0.54994008  1
  S2-  S238  1  0.37236987  0.75229135  0.04773699  1
  S2-  S239  1  0.36718478  0.74873101  0.54934962  1
  S2-  S240  1  0.61709960  0.00663276  0.03784199  1
  S2-  S241  1  0.61859724  -0.00047677  0.54935526  1
  S2-  S242  1  0.61943842  0.24811398  0.05514273  1
  S2-  S243  1  0.62182170  0.25021307  0.54970450  1
  S2-  S244  1  0.61798357  0.49690218  0.05109135  1
  S2-  S245  1  0.61388893  0.50032573  0.55660185  1
  S2-  S246  1  0.62458640  0.74862723  0.05144980  1
  S2-  S247  1  0.61779971  0.75208881  0.54562635  1
  S2-  S248  1  0.87575335  0.00050851  0.04106990  1
  S2-  S249  1  0.87143359  0.00142711  0.54248891  1
  S2-  S250  1  0.87267379  0.24925091  0.05071980  1
  S2-  S251  1  0.86912300  0.25005561  0.55112086  1
  S2-  S252  1  0.87561006  0.49690585  0.05420745  1
  S2-  S253  1  0.87169658  0.50199427  0.54574646  1
  S2-  S254  1  0.87048633  0.75414147  0.04817750  1
  S2-  S255  1  0.87037346  0.74590553  0.54271306  1
