# generated using pymatgen
data_La6Ce7Pr13Nd19Sm19(BiS2)64
_symmetry_space_group_name_H-M   'P 1'
_cell_length_a   16.00472853
_cell_length_b   16.06802893
_cell_length_c   27.35288712
_cell_angle_alpha   90.01802032
_cell_angle_beta   89.71229436
_cell_angle_gamma   90.05954368
_symmetry_Int_Tables_number   1
_chemical_formula_structural   La6Ce7Pr13Nd19Sm19(BiS2)64
_chemical_formula_sum   'La6 Ce7 Pr13 Nd19 Sm19 Bi64 S128'
_cell_volume   7034.09710814
_cell_formula_units_Z   1
loop_
 _symmetry_equiv_pos_site_id
 _symmetry_equiv_pos_as_xyz
  1  'x, y, z'
loop_
 _atom_type_symbol
 _atom_type_oxidation_number
  La3+  3.0
  Ce3+  3.0
  Pr3+  3.0
  Nd3+  3.0
  Sm3+  3.0
  Bi2+  2.0
  S2-  -2.0
loop_
 _atom_site_type_symbol
 _atom_site_label
 _atom_site_symmetry_multiplicity
 _atom_site_fract_x
 _atom_site_fract_y
 _atom_site_fract_z
 _atom_site_occupancy
  La3+  La0  1  0.39818032  0.74289729  0.43147932  1
  La3+  La1  1  0.49960104  0.37571741  0.10541517  1
  La3+  La2  1  -0.00246367  0.36657823  0.06406234  1
  La3+  La3  1  0.88795702  0.24175686  0.88434151  1
  La3+  La4  1  -0.00023006  0.62263878  0.07076037  1
  La3+  La5  1  0.00768722  0.87330639  0.06404213  1
  Ce3+  Ce6  1  0.91158689  0.49135781  0.43131803  1
  Ce3+  Ce7  1  0.90481575  0.24633431  0.42874300  1
  Ce3+  Ce8  1  0.40143419  0.24281196  0.44175803  1
  Ce3+  Ce9  1  0.52379740  0.61491512  0.56818639  1
  Ce3+  Ce10  1  0.12884323  -0.00257442  0.93792413  1
  Ce3+  Ce11  1  0.50232219  0.12821248  0.06182009  1
  Ce3+  Ce12  1  0.25536586  0.12604008  0.05499877  1
  Pr3+  Pr13  1  0.77393249  0.36410423  0.56034810  1
  Pr3+  Pr14  1  0.25469909  0.87312644  0.06315493  1
  Pr3+  Pr15  1  0.87847001  0.74552987  0.92989265  1
  Pr3+  Pr16  1  0.40704799  -0.00752232  0.44187098  1
  Pr3+  Pr17  1  0.01763981  0.62162383  0.56693875  1
  Pr3+  Pr18  1  0.75750543  0.11667059  0.07368425  1
  Pr3+  Pr19  1  0.63245745  0.24830216  0.93922843  1
  Pr3+  Pr20  1  0.02205926  0.36530136  0.56510108  1
  Pr3+  Pr21  1  0.87441655  -0.00266651  0.93428316  1
  Pr3+  Pr22  1  0.65719011  0.23717437  0.43130182  1
  Pr3+  Pr23  1  0.62768737  0.74811154  0.93919099  1
  Pr3+  Pr24  1  0.38303574  0.74562949  0.92348058  1
  Pr3+  Pr25  1  0.87904198  0.49645292  0.93276393  1
  Nd3+  Nd26  1  0.52620046  0.12379883  0.57345401  1
  Nd3+  Nd27  1  0.38227821  -0.00443270  0.92898020  1
  Nd3+  Nd28  1  0.38448270  0.24390166  0.92742065  1
  Nd3+  Nd29  1  0.90462648  -0.00633249  0.43159028  1
  Nd3+  Nd30  1  0.37956403  0.49657885  0.93915824  1
  Nd3+  Nd31  1  0.89636353  0.74511157  0.42607096  1
  Nd3+  Nd32  1  0.13048335  0.74457870  0.94026940  1
  Nd3+  Nd33  1  0.27291420  0.36618990  0.56172545  1
  Nd3+  Nd34  1  0.64844304  0.48952321  0.43556531  1
  Nd3+  Nd35  1  0.52456835  0.36808959  0.56640028  1
  Nd3+  Nd36  1  0.15886666  -0.01157490  0.43380068  1
  Nd3+  Nd37  1  0.52237467  0.86141684  0.57380514  1
  Nd3+  Nd38  1  0.27619673  0.86637652  0.56977444  1
  Nd3+  Nd39  1  0.75301848  0.36932704  0.06792496  1
  Nd3+  Nd40  1  0.49511105  0.62439369  0.06731604  1
  Nd3+  Nd41  1  0.62862913  0.49318638  0.94604914  1
  Nd3+  Nd42  1  0.27271783  0.62510157  0.56754578  1
  Nd3+  Nd43  1  0.25493468  0.36979526  0.05598984  1
  Nd3+  Nd44  1  0.49727733  0.87028613  0.06363733  1
  Sm3+  Sm45  1  0.25044863  0.61890975  0.06535871  1
  Sm3+  Sm46  1  0.64704900  0.74582290  0.43045717  1
  Sm3+  Sm47  1  0.12551636  0.49491585  0.94503389  1
  Sm3+  Sm48  1  0.14726718  0.74054934  0.43255328  1
  Sm3+  Sm49  1  0.65046518  -0.00496202  0.45400132  1
  Sm3+  Sm50  1  0.02193794  0.11233742  0.56174166  1
  Sm3+  Sm51  1  0.62965762  -0.00208082  0.95097711  1
  Sm3+  Sm52  1  0.75442083  0.62071904  0.05977675  1
  Sm3+  Sm53  1  0.75968021  0.86865387  0.06991702  1
  Sm3+  Sm54  1  0.77417285  0.86411436  0.55757049  1
  Sm3+  Sm55  1  0.78089764  0.11489563  0.56653252  1
  Sm3+  Sm56  1  0.39828755  0.49167353  0.44350489  1
  Sm3+  Sm57  1  -0.00041715  0.12302481  0.05036121  1
  Sm3+  Sm58  1  0.15012462  0.49270764  0.45016008  1
  Sm3+  Sm59  1  0.14715919  0.24010839  0.43936760  1
  Sm3+  Sm60  1  0.27282722  0.11442555  0.55659754  1
  Sm3+  Sm61  1  0.02408548  0.86531674  0.55231306  1
  Sm3+  Sm62  1  0.12707367  0.24729275  0.93530730  1
  Sm3+  Sm63  1  0.77263850  0.61704823  0.54468840  1
  Bi2+  Bi64  1  -0.00691434  0.12010947  0.24461810  1
  Bi2+  Bi65  1  0.01697210  0.04055696  0.77282559  1
  Bi2+  Bi66  1  0.02290291  0.36877371  0.29321633  1
  Bi2+  Bi67  1  0.00952674  0.37303370  0.77744815  1
  Bi2+  Bi68  1  -0.04439659  0.64952582  0.27445356  1
  Bi2+  Bi69  1  0.01625446  0.64414177  0.79847695  1
  Bi2+  Bi70  1  -0.04554508  0.86286769  0.30042880  1
  Bi2+  Bi71  1  -0.05157418  0.83910660  0.79164777  1
  Bi2+  Bi72  1  0.15457073  0.11981076  0.31269645  1
  Bi2+  Bi73  1  0.25041312  0.21199094  0.80503042  1
  Bi2+  Bi74  1  0.21502107  0.42359513  0.31241988  1
  Bi2+  Bi75  1  0.32585730  0.39174006  0.81864097  1
  Bi2+  Bi76  1  0.19629663  0.66639276  0.24211891  1
  Bi2+  Bi77  1  0.26079387  0.65875093  0.77910134  1
  Bi2+  Bi78  1  0.20839041  0.86371921  0.30615714  1
  Bi2+  Bi79  1  0.23698167  0.92564384  0.77503404  1
  Bi2+  Bi80  1  0.44033730  0.13326862  0.23806878  1
  Bi2+  Bi81  1  0.51496096  0.13811047  0.79549108  1
  Bi2+  Bi82  1  0.46602077  0.37547265  0.32146259  1
  Bi2+  Bi83  1  0.52137656  0.41638556  0.79637496  1
  Bi2+  Bi84  1  0.55038275  0.67261613  0.26892489  1
  Bi2+  Bi85  1  0.47744409  0.62020857  0.78574418  1
  Bi2+  Bi86  1  0.47661361  0.91614389  0.31357131  1
  Bi2+  Bi87  1  0.49514273  0.87620082  0.79689615  1
  Bi2+  Bi88  1  0.72452175  0.09429233  0.30202368  1
  Bi2+  Bi89  1  0.73265143  0.01832447  0.79599533  1
  Bi2+  Bi90  1  0.72551616  0.36118582  0.30755129  1
  Bi2+  Bi91  1  0.74558232  0.37224987  0.79161843  1
  Bi2+  Bi92  1  0.75634042  0.63514294  0.29023103  1
  Bi2+  Bi93  1  0.75803898  0.64405628  0.77894119  1
  Bi2+  Bi94  1  0.70257042  0.84955362  0.26689014  1
  Bi2+  Bi95  1  0.75536630  0.82211593  0.82590180  1
  Bi2+  Bi96  1  0.15003111  0.01276488  0.21148520  1
  Bi2+  Bi97  1  0.16236995  0.03798920  0.68558712  1
  Bi2+  Bi98  1  0.14124407  0.30017789  0.18106532  1
  Bi2+  Bi99  1  0.10527072  0.20596458  0.73028442  1
  Bi2+  Bi100  1  0.11293026  0.48718719  0.21319041  1
  Bi2+  Bi101  1  0.18265772  0.48266088  0.76188049  1
  Bi2+  Bi102  1  0.04918021  0.77221804  0.20130678  1
  Bi2+  Bi103  1  0.12345158  0.81005553  0.71612321  1
  Bi2+  Bi104  1  0.34295446  -0.03276052  0.22627484  1
  Bi2+  Bi105  1  0.38938323  0.00742804  0.72085243  1
  Bi2+  Bi106  1  0.26859287  0.25115803  0.26272251  1
  Bi2+  Bi107  1  0.36541895  0.25380053  0.71343728  1
  Bi2+  Bi108  1  0.37299873  0.51412714  0.20930072  1
  Bi2+  Bi109  1  0.39586081  0.44901525  0.70058492  1
  Bi2+  Bi110  1  0.36410355  0.76110682  0.21798317  1
  Bi2+  Bi111  1  0.37817247  0.73820270  0.69652031  1
  Bi2+  Bi112  1  0.57131949  -0.01486469  0.22079068  1
  Bi2+  Bi113  1  0.58555438  0.01302610  0.71122422  1
  Bi2+  Bi114  1  0.60531669  0.26034443  0.21846889  1
  Bi2+  Bi115  1  0.62457299  0.29286324  0.70761823  1
  Bi2+  Bi116  1  0.66262383  0.53719886  0.20814814  1
  Bi2+  Bi117  1  0.61660677  0.60041602  0.70616826  1
  Bi2+  Bi118  1  0.56995562  0.79527532  0.17988626  1
  Bi2+  Bi119  1  0.63696880  0.81758859  0.72414978  1
  Bi2+  Bi120  1  0.86399010  -0.04482135  0.21396886  1
  Bi2+  Bi121  1  0.86044008  -0.01550564  0.71291162  1
  Bi2+  Bi122  1  0.86455162  0.24278874  0.20805723  1
  Bi2+  Bi123  1  0.86184866  0.25685435  0.67672327  1
  Bi2+  Bi124  1  0.88697427  0.49584289  0.21888547  1
  Bi2+  Bi125  1  0.87660176  0.51559920  0.69326353  1
  Bi2+  Bi126  1  0.75786396  0.72664495  0.18028007  1
  Bi2+  Bi127  1  0.88657112  0.74552282  0.69219969  1
  S2-  S128  1  -0.05100101  0.12337123  0.14528482  1
  S2-  S129  1  -0.08818792  0.10279156  0.63777113  1
  S2-  S130  1  -0.11507232  0.37383805  0.14484542  1
  S2-  S131  1  -0.01429400  0.38530619  0.66280534  1
  S2-  S132  1  0.12901977  0.62433108  0.14455609  1
  S2-  S133  1  0.00158657  0.61446053  0.66810435  1
  S2-  S134  1  -0.09252622  0.83465170  0.14489829  1
  S2-  S135  1  0.00406653  0.85509749  0.64989942  1
  S2-  S136  1  0.21486003  0.14435084  0.14966769  1
  S2-  S137  1  0.31641697  0.11752202  0.65073238  1
  S2-  S138  1  0.29580235  0.39751868  0.15109448  1
  S2-  S139  1  0.25699539  0.35339912  0.65985952  1
  S2-  S140  1  0.35835334  0.64611161  0.14079380  1
  S2-  S141  1  0.34254854  0.58498232  0.65708526  1
  S2-  S142  1  0.13396543  0.88182634  0.14182667  1
  S2-  S143  1  0.22724986  0.75014202  0.64236135  1
  S2-  S144  1  0.47707689  0.21157209  0.14769726  1
  S2-  S145  1  0.50912017  0.25154310  0.64392268  1
  S2-  S146  1  0.46548282  0.38113303  0.22495930  1
  S2-  S147  1  0.53728541  0.49090012  0.64064855  1
  S2-  S148  1  0.51727261  0.53418170  0.15341175  1
  S2-  S149  1  0.54446111  0.73097652  0.64300667  1
  S2-  S150  1  0.37575041  0.87524629  0.13797184  1
  S2-  S151  1  0.39490618  0.88582359  0.64526268  1
  S2-  S152  1  0.72259191  0.18295947  0.16999331  1
  S2-  S153  1  0.71174420  0.17485234  0.65199398  1
  S2-  S154  1  0.65892616  0.38400096  0.15519311  1
  S2-  S155  1  0.75110790  0.39713067  0.66014043  1
  S2-  S156  1  0.86613306  0.60511664  0.13937055  1
  S2-  S157  1  0.77898595  0.62860399  0.64254467  1
  S2-  S158  1  0.75506222  0.98092493  0.14521894  1
  S2-  S159  1  0.76823364  0.86837758  0.65623413  1
  S2-  S160  1  0.06789837  -0.03141479  0.34890154  1
  S2-  S161  1  0.14329513  0.01671892  0.84177298  1
  S2-  S162  1  0.03862689  0.23407582  0.36193302  1
  S2-  S163  1  0.05890462  0.25841119  0.84521874  1
  S2-  S164  1  0.07911379  0.49847287  0.36117324  1
  S2-  S165  1  0.09296988  0.50790941  0.84836008  1
  S2-  S166  1  0.02528323  0.73570906  0.35741010  1
  S2-  S167  1  0.14230693  0.73987275  0.84061526  1
  S2-  S168  1  0.31883154  -0.03265986  0.35599181  1
  S2-  S169  1  0.37397571  0.11348657  0.85313877  1
  S2-  S170  1  0.37612211  0.22599252  0.34636189  1
  S2-  S171  1  0.51553191  0.26525652  0.85618738  1
  S2-  S172  1  0.36808144  0.50666863  0.34624857  1
  S2-  S173  1  0.35578533  0.60503560  0.85998969  1
  S2-  S174  1  0.26700577  0.73960659  0.35918412  1
  S2-  S175  1  0.35734506  0.87655183  0.85376797  1
  S2-  S176  1  0.60327209  0.01625592  0.36031639  1
  S2-  S177  1  0.58110291  0.00355287  0.85602211  1
  S2-  S178  1  0.59626980  0.25247174  0.33495478  1
  S2-  S179  1  0.72205811  0.24467434  0.85007217  1
  S2-  S180  1  0.61551587  0.47267647  0.33744762  1
  S2-  S181  1  0.65047534  0.49552652  0.84533299  1
  S2-  S182  1  0.52349702  0.75642880  0.35738318  1
  S2-  S183  1  0.52943079  0.73799590  0.85570817  1
  S2-  S184  1  0.84398761  0.00189763  0.33723898  1
  S2-  S185  1  0.87868530  0.07474340  0.84430643  1
  S2-  S186  1  0.79187162  0.21512825  0.35550056  1
  S2-  S187  1  0.87689469  0.25583511  0.77022887  1
  S2-  S188  1  0.87836092  0.40715062  0.34895525  1
  S2-  S189  1  0.88414197  0.40835433  0.84525632  1
  S2-  S190  1  0.76481895  0.77059854  0.35597013  1
  S2-  S191  1  0.88240713  0.62305307  0.85494253  1
  S2-  S192  1  0.02942202  0.11111242  0.45891168  1
  S2-  S193  1  0.00197989  0.12427399  0.94692867  1
  S2-  S194  1  0.03000240  0.36644358  0.46017485  1
  S2-  S195  1  0.00490707  0.36904348  0.95512109  1
  S2-  S196  1  0.02482894  0.61846793  0.46024774  1
  S2-  S197  1  0.00637500  0.62198872  0.95942940  1
  S2-  S198  1  0.02494949  0.86720801  0.45210449  1
  S2-  S199  1  0.00333283  0.87107647  0.94928941  1
  S2-  S200  1  0.27392303  0.11874996  0.45322781  1
  S2-  S201  1  0.25138992  0.12422663  0.95091775  1
  S2-  S202  1  0.27084332  0.36564115  0.45512853  1
  S2-  S203  1  0.25087368  0.37034511  0.94936748  1
  S2-  S204  1  0.27264469  0.61301368  0.45984537  1
  S2-  S205  1  0.24735959  0.61764774  0.96026169  1
  S2-  S206  1  0.27521406  0.86767941  0.46386193  1
  S2-  S207  1  0.25075048  0.87338108  0.95569200  1
  S2-  S208  1  0.52626321  0.12058632  0.46398234  1
  S2-  S209  1  0.50519438  0.12025769  0.95852376  1
  S2-  S210  1  0.52382494  0.36714473  0.45677279  1
  S2-  S211  1  0.50113710  0.37520849  0.95439322  1
  S2-  S212  1  0.52428242  0.61329174  0.45418126  1
  S2-  S213  1  0.50484289  0.61938237  0.95982494  1
  S2-  S214  1  0.52899244  0.86943620  0.46485465  1
  S2-  S215  1  0.50423952  0.87390831  0.95916056  1
  S2-  S216  1  0.77901939  0.11253050  0.46148933  1
  S2-  S217  1  0.75164879  0.11770880  0.95928962  1
  S2-  S218  1  0.77617309  0.36879002  0.45466287  1
  S2-  S219  1  0.75498247  0.37362603  0.95841650  1
  S2-  S220  1  0.77559298  0.61332841  0.44184218  1
  S2-  S221  1  0.75078461  0.62340880  0.95577849  1
  S2-  S222  1  0.77313510  0.87380703  0.45487898  1
  S2-  S223  1  0.75230456  0.87216055  0.96094577  1
  S2-  S224  1  0.12864301  0.00395092  0.04221532  1
  S2-  S225  1  0.14806637  -0.00999370  0.54513305  1
  S2-  S226  1  0.12560682  0.24568499  0.04022434  1
  S2-  S227  1  0.14680023  0.23689614  0.54923577  1
  S2-  S228  1  0.12650885  0.49174479  0.04887505  1
  S2-  S229  1  0.14706183  0.49456640  0.55657204  1
  S2-  S230  1  0.13012364  0.74520335  0.04418396  1
  S2-  S231  1  0.14326687  0.74212723  0.53768482  1
  S2-  S232  1  0.37938636  0.00270940  0.04030949  1
  S2-  S233  1  0.40320655  -0.00104792  0.54705846  1
  S2-  S234  1  0.37874696  0.25017723  0.03939080  1
  S2-  S235  1  0.39435255  0.24118600  0.54576746  1
  S2-  S236  1  0.37853522  0.49406339  0.04457612  1
  S2-  S237  1  0.39478356  0.49013487  0.54597038  1
  S2-  S238  1  0.37506799  0.74578070  0.03424058  1
  S2-  S239  1  0.39949784  0.74138641  0.54222776  1
  S2-  S240  1  0.62340641  -0.00593634  0.05366600  1
  S2-  S241  1  0.65013712  -0.00759413  0.55858017  1
  S2-  S242  1  0.62704485  0.24855987  0.04932999  1
  S2-  S243  1  0.64992065  0.24090271  0.54036611  1
  S2-  S244  1  0.62875100  0.50034078  0.05016812  1
  S2-  S245  1  0.65265711  0.49196579  0.54074601  1
  S2-  S246  1  0.62977770  0.74720544  0.04767150  1
  S2-  S247  1  0.65337829  0.74199982  0.53716988  1
  S2-  S248  1  0.88084578  -0.00627558  0.04102635  1
  S2-  S249  1  0.89938846  -0.01407466  0.53972335  1
  S2-  S250  1  0.87502936  0.24183298  0.04682295  1
  S2-  S251  1  0.90175700  0.23958980  0.54040395  1
  S2-  S252  1  0.87633934  0.49626554  0.03956160  1
  S2-  S253  1  0.89889985  0.49265842  0.54226880  1
  S2-  S254  1  0.87639774  0.74625304  0.03672897  1
  S2-  S255  1  0.89638631  0.74420373  0.53741462  1
