# generated using pymatgen
data_La6Ce7Pr13Nd19Sm19(BiS2)64
_symmetry_space_group_name_H-M   'P 1'
_cell_length_a   16.02201602
_cell_length_b   15.99443489
_cell_length_c   27.28470710
_cell_angle_alpha   89.76349001
_cell_angle_beta   89.64978508
_cell_angle_gamma   90.14098414
_symmetry_Int_Tables_number   1
_chemical_formula_structural   La6Ce7Pr13Nd19Sm19(BiS2)64
_chemical_formula_sum   'La6 Ce7 Pr13 Nd19 Sm19 Bi64 S128'
_cell_volume   6991.85161631
_cell_formula_units_Z   1
loop_
 _symmetry_equiv_pos_site_id
 _symmetry_equiv_pos_as_xyz
  1  'x, y, z'
loop_
 _atom_type_symbol
 _atom_type_oxidation_number
  La3+  3.0
  Ce3+  3.0
  Pr3+  3.0
  Nd3+  3.0
  Sm3+  3.0
  Bi2+  2.0
  S2-  -2.0
loop_
 _atom_site_type_symbol
 _atom_site_label
 _atom_site_symmetry_multiplicity
 _atom_site_fract_x
 _atom_site_fract_y
 _atom_site_fract_z
 _atom_site_occupancy
  La3+  La0  1  0.38778774  0.26271263  0.92165954  1
  La3+  La1  1  0.76219538  0.63905040  0.10174969  1
  La3+  La2  1  0.38690865  0.00774064  0.91722223  1
  La3+  La3  1  0.12749508  0.25762527  0.88888844  1
  La3+  La4  1  0.49032563  0.63162882  0.57133642  1
  La3+  La5  1  0.75429213  0.36592599  0.10890327  1
  Ce3+  Ce6  1  0.38227381  0.50891791  0.93596798  1
  Ce3+  Ce7  1  0.85954610  0.51150049  0.43971349  1
  Ce3+  Ce8  1  0.86122445  0.25925979  0.43804822  1
  Ce3+  Ce9  1  0.35404306  0.26440480  0.44295994  1
  Ce3+  Ce10  1  0.62965254  0.25796195  0.94570089  1
  Ce3+  Ce11  1  0.23450155  0.88695796  0.56096567  1
  Ce3+  Ce12  1  0.62985058  0.00698339  0.93142721  1
  Pr3+  Pr13  1  0.49962668  0.38030427  0.06935771  1
  Pr3+  Pr14  1  0.13483263  0.00515692  0.92574081  1
  Pr3+  Pr15  1  0.00099202  0.37935551  0.06094432  1
  Pr3+  Pr16  1  0.50521245  0.87292523  0.04941624  1
  Pr3+  Pr17  1  0.50343779  0.63383629  0.07439251  1
  Pr3+  Pr18  1  0.25215640  0.62553386  0.07228832  1
  Pr3+  Pr19  1  0.00090006  0.87477551  0.06324729  1
  Pr3+  Pr20  1  0.47339496  0.88266251  0.57788752  1
  Pr3+  Pr21  1  -0.01662741  0.63530944  0.56909272  1
  Pr3+  Pr22  1  0.60052480  0.26158432  0.42170921  1
  Pr3+  Pr23  1  0.88059410  0.75722437  0.92518539  1
  Pr3+  Pr24  1  0.61425357  0.76206641  0.43972947  1
  Pr3+  Pr25  1  0.49855652  0.12647545  0.06434027  1
  Nd3+  Nd26  1  0.35803373  0.51350757  0.43457959  1
  Nd3+  Nd27  1  0.36035632  0.76183924  0.44401329  1
  Nd3+  Nd28  1  0.37898648  0.74865737  0.93568436  1
  Nd3+  Nd29  1  0.73581823  0.64376729  0.57183061  1
  Nd3+  Nd30  1  0.00230522  0.13386574  0.05454162  1
  Nd3+  Nd31  1  0.87876149  0.25503857  0.93341800  1
  Nd3+  Nd32  1  0.72834029  0.89881883  0.57249176  1
  Nd3+  Nd33  1  0.63100067  0.73557724  0.90785332  1
  Nd3+  Nd34  1  0.60525684  0.51753874  0.42346864  1
  Nd3+  Nd35  1  0.86805934  0.76151232  0.43504134  1
  Nd3+  Nd36  1  0.48676783  0.38063619  0.56044830  1
  Nd3+  Nd37  1  0.88075706  0.00525674  0.94629113  1
  Nd3+  Nd38  1  0.75160781  0.87271769  0.05160216  1
  Nd3+  Nd39  1  0.60397596  0.00628218  0.43237126  1
  Nd3+  Nd40  1  -0.01315574  0.13782591  0.57834405  1
  Nd3+  Nd41  1  0.25652439  0.12913262  0.05126190  1
  Nd3+  Nd42  1  0.73253908  0.38470571  0.54992777  1
  Nd3+  Nd43  1  0.87645173  0.50308923  0.94474383  1
  Nd3+  Nd44  1  -0.01485850  0.38248766  0.56218956  1
  Sm3+  Sm45  1  0.48080703  0.13406636  0.56185803  1
  Sm3+  Sm46  1  0.13085310  0.50207361  0.93730303  1
  Sm3+  Sm47  1  0.12938303  0.75288053  0.94596242  1
  Sm3+  Sm48  1  0.25655610  0.37799510  0.05558024  1
  Sm3+  Sm49  1  0.10974982  0.76201324  0.44074667  1
  Sm3+  Sm50  1  -0.00102244  0.62685103  0.04842492  1
  Sm3+  Sm51  1  0.11245372  0.51000400  0.43622102  1
  Sm3+  Sm52  1  0.11161213  0.25852404  0.44757883  1
  Sm3+  Sm53  1  0.23586713  0.14272927  0.59714780  1
  Sm3+  Sm54  1  0.74380044  0.12696096  0.06611865  1
  Sm3+  Sm55  1  0.73072529  0.13506109  0.55248491  1
  Sm3+  Sm56  1  0.36252339  0.01292282  0.44163922  1
  Sm3+  Sm57  1  0.63427917  0.51017912  0.96008895  1
  Sm3+  Sm58  1  0.11244079  0.01656276  0.45006059  1
  Sm3+  Sm59  1  -0.01628039  0.88754499  0.55701149  1
  Sm3+  Sm60  1  0.23647340  0.38962937  0.56941105  1
  Sm3+  Sm61  1  0.25268382  0.88017425  0.05333570  1
  Sm3+  Sm62  1  0.23190981  0.62974633  0.56274100  1
  Sm3+  Sm63  1  0.86062971  0.01319790  0.44214186  1
  Bi2+  Bi64  1  0.05631888  0.16353803  0.30606825  1
  Bi2+  Bi65  1  -0.10270479  0.13324951  0.79314000  1
  Bi2+  Bi66  1  0.07987453  0.42513931  0.26996913  1
  Bi2+  Bi67  1  -0.00869542  0.41256512  0.78337540  1
  Bi2+  Bi68  1  0.04171456  0.63893037  0.29133795  1
  Bi2+  Bi69  1  0.00670073  0.64032248  0.76748396  1
  Bi2+  Bi70  1  0.08219357  0.87793230  0.28815547  1
  Bi2+  Bi71  1  -0.00808780  0.83494388  0.80537038  1
  Bi2+  Bi72  1  0.28006353  0.05476279  0.28974655  1
  Bi2+  Bi73  1  0.24942184  0.08486914  0.78179338  1
  Bi2+  Bi74  1  0.27136358  0.35964963  0.29466774  1
  Bi2+  Bi75  1  0.25926321  0.41961281  0.77700274  1
  Bi2+  Bi76  1  0.24093459  0.63649312  0.29260169  1
  Bi2+  Bi77  1  0.21865738  0.60825179  0.78366921  1
  Bi2+  Bi78  1  0.27615068  0.84740968  0.30659017  1
  Bi2+  Bi79  1  0.19080993  0.84050483  0.77851420  1
  Bi2+  Bi80  1  0.46920884  0.10123639  0.26343184  1
  Bi2+  Bi81  1  0.50597765  0.11833799  0.78653284  1
  Bi2+  Bi82  1  0.52854524  0.36080499  0.29928776  1
  Bi2+  Bi83  1  0.50950212  0.37355997  0.78403081  1
  Bi2+  Bi84  1  0.49749399  0.62668186  0.28832516  1
  Bi2+  Bi85  1  0.49206422  0.60807167  0.79437294  1
  Bi2+  Bi86  1  0.49228115  0.89935896  0.29266073  1
  Bi2+  Bi87  1  0.40995618  0.83763226  0.79725139  1
  Bi2+  Bi88  1  0.74987221  0.08096956  0.28940594  1
  Bi2+  Bi89  1  0.71303906  0.17923175  0.83029104  1
  Bi2+  Bi90  1  0.82774744  0.38259863  0.30300356  1
  Bi2+  Bi91  1  0.77064583  0.37234473  0.79405593  1
  Bi2+  Bi92  1  0.75730743  0.60868979  0.29901625  1
  Bi2+  Bi93  1  0.74859513  0.60160943  0.79526901  1
  Bi2+  Bi94  1  0.74407910  0.87586678  0.28909690  1
  Bi2+  Bi95  1  0.79903921  0.89147124  0.78118058  1
  Bi2+  Bi96  1  0.13217503  0.06292487  0.21684904  1
  Bi2+  Bi97  1  0.06791411  -0.04305650  0.72156961  1
  Bi2+  Bi98  1  0.14791205  0.26937577  0.20691628  1
  Bi2+  Bi99  1  0.10329275  0.24690984  0.71315720  1
  Bi2+  Bi100  1  0.15628643  0.48494342  0.16716325  1
  Bi2+  Bi101  1  0.04056999  0.49840349  0.68074612  1
  Bi2+  Bi102  1  0.15160553  0.74446023  0.21123030  1
  Bi2+  Bi103  1  0.12940444  0.67836628  0.67757148  1
  Bi2+  Bi104  1  0.36816272  -0.02563516  0.19507859  1
  Bi2+  Bi105  1  0.43193035  -0.03757810  0.71238205  1
  Bi2+  Bi106  1  0.34469167  0.23929600  0.21106380  1
  Bi2+  Bi107  1  0.38988206  0.25972544  0.69791198  1
  Bi2+  Bi108  1  0.33677509  0.48744313  0.21381248  1
  Bi2+  Bi109  1  0.36731972  0.53825389  0.70582336  1
  Bi2+  Bi110  1  0.35651316  0.76187805  0.20134444  1
  Bi2+  Bi111  1  0.32135170  0.74257819  0.70884839  1
  Bi2+  Bi112  1  0.62646555  -0.01963726  0.21478899  1
  Bi2+  Bi113  1  0.69613033  0.04403158  0.74372461  1
  Bi2+  Bi114  1  0.66159994  0.22069906  0.21580920  1
  Bi2+  Bi115  1  0.64066757  0.25199929  0.71797504  1
  Bi2+  Bi116  1  0.60161314  0.47547340  0.21952628  1
  Bi2+  Bi117  1  0.62650850  0.50456105  0.72730558  1
  Bi2+  Bi118  1  0.60962635  0.75864242  0.21294045  1
  Bi2+  Bi119  1  0.60427066  0.76146658  0.70402804  1
  Bi2+  Bi120  1  0.90661736  -0.00985543  0.23973076  1
  Bi2+  Bi121  1  0.88339922  0.02099752  0.69652290  1
  Bi2+  Bi122  1  0.92634558  0.23809464  0.21292389  1
  Bi2+  Bi123  1  0.84145619  0.25687996  0.70580718  1
  Bi2+  Bi124  1  0.96120370  0.53234673  0.20119266  1
  Bi2+  Bi125  1  0.84273377  0.46809656  0.69739647  1
  Bi2+  Bi126  1  0.88718756  0.78091520  0.20789441  1
  Bi2+  Bi127  1  0.87369535  0.74882166  0.70991952  1
  S2-  S128  1  0.00678789  0.13496745  0.15502153  1
  S2-  S129  1  0.09975795  0.10800680  0.65861008  1
  S2-  S130  1  -0.07777064  0.37642969  0.15114564  1
  S2-  S131  1  -0.02365968  0.27697282  0.64361515  1
  S2-  S132  1  -0.05056995  0.67333556  0.13750774  1
  S2-  S133  1  -0.13853542  0.61842839  0.64343154  1
  S2-  S134  1  -0.02133876  0.89771363  0.16293240  1
  S2-  S135  1  -0.02204158  0.86466330  0.65433024  1
  S2-  S136  1  0.36155650  0.12108871  0.13309414  1
  S2-  S137  1  0.32514756  0.10111223  0.68035893  1
  S2-  S138  1  0.36028730  0.36925845  0.13775930  1
  S2-  S139  1  0.22929182  0.29153216  0.65401897  1
  S2-  S140  1  0.37234390  0.61946384  0.14656737  1
  S2-  S141  1  0.23571825  0.51809464  0.63898637  1
  S2-  S142  1  0.23875976  0.87366583  0.15163613  1
  S2-  S143  1  0.31348814  0.89210800  0.64622681  1
  S2-  S144  1  0.61280402  0.10214048  0.14200012  1
  S2-  S145  1  0.52090384  0.19675973  0.65126186  1
  S2-  S146  1  0.58153648  0.34483093  0.15818251  1
  S2-  S147  1  0.44706448  0.40857062  0.65634597  1
  S2-  S148  1  0.60611889  0.61849073  0.15867091  1
  S2-  S149  1  0.47054822  0.74343148  0.64942261  1
  S2-  S150  1  0.50128316  0.80533655  0.14361887  1
  S2-  S151  1  0.56866602  0.92028600  0.66081053  1
  S2-  S152  1  0.79231213  0.20199802  0.15120152  1
  S2-  S153  1  0.74000843  0.04736921  0.63777876  1
  S2-  S154  1  0.74563894  0.37506451  0.21780428  1
  S2-  S155  1  0.71539735  0.36898194  0.64794200  1
  S2-  S156  1  0.79837828  0.58472601  0.20183729  1
  S2-  S157  1  0.61909757  0.60962312  0.64890597  1
  S2-  S158  1  0.75708535  0.80488517  0.14544553  1
  S2-  S159  1  0.73977834  0.78748049  0.64810449  1
  S2-  S160  1  0.10027485  0.01934883  0.35216011  1
  S2-  S161  1  0.12010552  0.09386581  0.83885194  1
  S2-  S162  1  0.17560045  0.26234456  0.35601799  1
  S2-  S163  1  0.21122046  0.25798847  0.79366740  1
  S2-  S164  1  0.23028498  0.50752652  0.36230980  1
  S2-  S165  1  0.12513283  0.42807940  0.84873777  1
  S2-  S166  1  0.01405191  0.76619131  0.35919410  1
  S2-  S167  1  0.15143101  0.71439992  0.85188650  1
  S2-  S168  1  0.47078779  0.02628075  0.36209505  1
  S2-  S169  1  0.27706301  -0.05042579  0.84321821  1
  S2-  S170  1  0.44325690  0.26394072  0.35916703  1
  S2-  S171  1  0.37113369  0.14381579  0.84537176  1
  S2-  S172  1  0.46514170  0.50201449  0.35239913  1
  S2-  S173  1  0.37848557  0.40590500  0.85336000  1
  S2-  S174  1  0.38354440  0.71904271  0.34849571  1
  S2-  S175  1  0.37422121  0.63265604  0.86070061  1
  S2-  S176  1  0.61850858  -0.12075690  0.36146101  1
  S2-  S177  1  0.53353336  -0.00062868  0.85024536  1
  S2-  S178  1  0.64978984  0.23234710  0.32333697  1
  S2-  S179  1  0.54908309  0.26675872  0.85780236  1
  S2-  S180  1  0.67988191  0.45409076  0.33612461  1
  S2-  S181  1  0.61821394  0.56742765  0.86436765  1
  S2-  S182  1  0.61344699  0.65687384  0.35428256  1
  S2-  S183  1  0.56592223  0.77334803  0.81191944  1
  S2-  S184  1  0.86506459  -0.01294736  0.34508687  1
  S2-  S185  1  0.90434320  -0.02157306  0.84930147  1
  S2-  S186  1  0.90334516  0.24347840  0.34338582  1
  S2-  S187  1  0.96678474  0.26661359  0.84538042  1
  S2-  S188  1  0.90116651  0.52890795  0.34436111  1
  S2-  S189  1  0.87404895  0.50257706  0.84397175  1
  S2-  S190  1  0.80882915  0.74544551  0.34113478  1
  S2-  S191  1  0.77474829  0.74480648  0.84430106  1
  S2-  S192  1  -0.01331410  0.13619827  0.46097215  1
  S2-  S193  1  0.00672129  0.13116265  0.94989242  1
  S2-  S194  1  -0.01031740  0.38419913  0.45223598  1
  S2-  S195  1  0.00544075  0.37862902  0.95421564  1
  S2-  S196  1  -0.00992364  0.63258183  0.45849558  1
  S2-  S197  1  0.00491722  0.62790275  0.94404520  1
  S2-  S198  1  -0.01166090  0.89276506  0.45498735  1
  S2-  S199  1  0.00828329  0.87973693  0.95460414  1
  S2-  S200  1  0.23810408  0.13413819  0.45139134  1
  S2-  S201  1  0.24913337  0.13580670  0.94704795  1
  S2-  S202  1  0.23175025  0.38702932  0.46357036  1
  S2-  S203  1  0.24912514  0.37633351  0.95197172  1
  S2-  S204  1  0.23019266  0.63891781  0.45840565  1
  S2-  S205  1  0.24813581  0.62731718  0.96296618  1
  S2-  S206  1  0.23377227  0.88867047  0.45277567  1
  S2-  S207  1  0.25275577  0.87403011  0.95063138  1
  S2-  S208  1  0.48248792  0.13956929  0.46013794  1
  S2-  S209  1  0.50848406  0.12961281  0.95724653  1
  S2-  S210  1  0.48550848  0.38812409  0.45640837  1
  S2-  S211  1  0.50951090  0.38822258  0.96182287  1
  S2-  S212  1  0.48282710  0.63769688  0.46069416  1
  S2-  S213  1  0.50798724  0.63349470  0.96424263  1
  S2-  S214  1  0.47841158  0.88655362  0.46441908  1
  S2-  S215  1  0.51005690  0.86647529  0.94409510  1
  S2-  S216  1  0.73132484  0.13402488  0.44718704  1
  S2-  S217  1  0.75593605  0.12821603  0.95801895  1
  S2-  S218  1  0.73416601  0.38180151  0.44554744  1
  S2-  S219  1  0.75222259  0.38155156  0.94511445  1
  S2-  S220  1  0.74061328  0.63660329  0.45939469  1
  S2-  S221  1  0.75848347  0.63182307  0.95189806  1
  S2-  S222  1  0.74132107  0.89155582  0.46096430  1
  S2-  S223  1  0.75183105  0.87922309  0.94537419  1
  S2-  S224  1  0.12696382  0.00409970  0.04325124  1
  S2-  S225  1  0.11168915  0.01266215  0.55361236  1
  S2-  S226  1  0.13196275  0.25536106  0.05727032  1
  S2-  S227  1  0.11662282  0.25745264  0.54943551  1
  S2-  S228  1  0.12661718  0.50436637  0.04177900  1
  S2-  S229  1  0.10589639  0.50833257  0.54074736  1
  S2-  S230  1  0.12709915  0.75115283  0.05037767  1
  S2-  S231  1  0.10860718  0.76144871  0.54534054  1
  S2-  S232  1  0.37811723  -0.00306356  0.03181338  1
  S2-  S233  1  0.35167356  0.02021679  0.54647004  1
  S2-  S234  1  0.37887590  0.25521828  0.03370152  1
  S2-  S235  1  0.35624286  0.25893106  0.55032914  1
  S2-  S236  1  0.37674935  0.50636607  0.04235454  1
  S2-  S237  1  0.36120184  0.51020948  0.54201342  1
  S2-  S238  1  0.37091295  0.75460511  0.04164632  1
  S2-  S239  1  0.35125518  0.75439684  0.54828201  1
  S2-  S240  1  0.62917971  -0.00076277  0.03830133  1
  S2-  S241  1  0.60233050  0.01521093  0.54048459  1
  S2-  S242  1  0.63161649  0.25696730  0.04890768  1
  S2-  S243  1  0.60917886  0.25719652  0.53795989  1
  S2-  S244  1  0.64040517  0.49933708  0.06132642  1
  S2-  S245  1  0.61102276  0.50727805  0.53955293  1
  S2-  S246  1  0.63383750  0.74751042  0.04495350  1
  S2-  S247  1  0.60911922  0.76776719  0.54651051  1
  S2-  S248  1  0.87541709  0.00543409  0.05246437  1
  S2-  S249  1  0.86616415  0.01566520  0.54573271  1
  S2-  S250  1  0.87400387  0.25439716  0.04117801  1
  S2-  S251  1  0.85714488  0.25616240  0.54389010  1
  S2-  S252  1  0.87181105  0.50681915  0.05072166  1
  S2-  S253  1  0.86113364  0.50573171  0.54449672  1
  S2-  S254  1  0.87874968  0.75381769  0.03339083  1
  S2-  S255  1  0.86425237  0.76546807  0.54277104  1
