# generated using pymatgen
data_La6Ce7Pr13Nd19Sm19(BiS2)64
_symmetry_space_group_name_H-M   'P 1'
_cell_length_a   16.06327395
_cell_length_b   16.00339602
_cell_length_c   27.55596505
_cell_angle_alpha   90.17030842
_cell_angle_beta   90.05943431
_cell_angle_gamma   90.05443794
_symmetry_Int_Tables_number   1
_chemical_formula_structural   La6Ce7Pr13Nd19Sm19(BiS2)64
_chemical_formula_sum   'La6 Ce7 Pr13 Nd19 Sm19 Bi64 S128'
_cell_volume   7083.68913987
_cell_formula_units_Z   1
loop_
 _symmetry_equiv_pos_site_id
 _symmetry_equiv_pos_as_xyz
  1  'x, y, z'
loop_
 _atom_type_symbol
 _atom_type_oxidation_number
  La3+  3.0
  Ce3+  3.0
  Pr3+  3.0
  Nd3+  3.0
  Sm3+  3.0
  Bi2+  2.0
  S2-  -2.0
loop_
 _atom_site_type_symbol
 _atom_site_label
 _atom_site_symmetry_multiplicity
 _atom_site_fract_x
 _atom_site_fract_y
 _atom_site_fract_z
 _atom_site_occupancy
  La3+  La0  1  0.11508988  0.76305836  0.90504283  1
  La3+  La1  1  0.00004696  0.38794818  0.08506198  1
  La3+  La2  1  0.10710215  0.49506892  0.89414854  1
  La3+  La3  1  0.24930926  0.88474986  0.60844224  1
  La3+  La4  1  0.86495742  0.46955396  0.38301462  1
  La3+  La5  1  0.73963962  0.14363983  0.08536730  1
  Ce3+  Ce6  1  0.87039781  0.25189380  0.44656486  1
  Ce3+  Ce7  1  0.62347904  0.75317978  0.44490364  1
  Ce3+  Ce8  1  0.23904995  0.63001408  0.04514434  1
  Ce3+  Ce9  1  0.37062821  -0.00098146  0.42622998  1
  Ce3+  Ce10  1  0.11698573  0.00851698  0.93508181  1
  Ce3+  Ce11  1  -0.00693732  0.62916918  0.05490080  1
  Ce3+  Ce12  1  0.36835217  0.50036491  0.42379031  1
  Pr3+  Pr13  1  0.86995022  0.75680667  0.93343732  1
  Pr3+  Pr14  1  0.49389110  0.88445579  0.56013982  1
  Pr3+  Pr15  1  -0.00042631  0.63600383  0.56582622  1
  Pr3+  Pr16  1  0.36377603  0.26295812  0.94213832  1
  Pr3+  Pr17  1  0.61791258  0.51009282  0.92565792  1
  Pr3+  Pr18  1  0.36909446  0.24879139  0.42772228  1
  Pr3+  Pr19  1  -0.00230189  0.38400979  0.56241499  1
  Pr3+  Pr20  1  0.49021623  0.88716340  0.05845011  1
  Pr3+  Pr21  1  0.61784761  0.01448549  0.93848902  1
  Pr3+  Pr22  1  0.36702785  0.51171497  0.92616547  1
  Pr3+  Pr23  1  0.74442266  0.13249030  0.56987631  1
  Pr3+  Pr24  1  0.48405606  0.13586851  0.07211808  1
  Pr3+  Pr25  1  0.74149880  0.63481179  0.06291030  1
  Nd3+  Nd26  1  0.86799582  0.01158089  0.94401305  1
  Nd3+  Nd27  1  0.49350457  0.63126797  0.05982976  1
  Nd3+  Nd28  1  0.36477209  0.00956069  0.93775527  1
  Nd3+  Nd29  1  0.86887678  0.26324282  0.95031696  1
  Nd3+  Nd30  1  0.12015373  0.50992730  0.43361038  1
  Nd3+  Nd31  1  -0.00608567  0.88809840  0.57459098  1
  Nd3+  Nd32  1  0.87362530  0.74847746  0.43920790  1
  Nd3+  Nd33  1  -0.00684334  0.88302404  0.05692928  1
  Nd3+  Nd34  1  0.11667735  0.25831736  0.43720422  1
  Nd3+  Nd35  1  0.61972413  0.25937401  0.94327931  1
  Nd3+  Nd36  1  0.24475452  0.39613426  0.06559586  1
  Nd3+  Nd37  1  0.24010990  0.88120803  0.05653771  1
  Nd3+  Nd38  1  0.49495029  0.38449208  0.55112858  1
  Nd3+  Nd39  1  0.62396523  0.51562411  0.43050040  1
  Nd3+  Nd40  1  -0.00017715  0.12920035  0.55900070  1
  Nd3+  Nd41  1  0.23403196  0.13356810  0.07402462  1
  Nd3+  Nd42  1  0.62640275  0.00632988  0.43685966  1
  Nd3+  Nd43  1  0.61955755  0.76054949  0.94382640  1
  Nd3+  Nd44  1  0.24821026  0.38321363  0.55691763  1
  Sm3+  Sm45  1  0.24877311  0.63316157  0.56097759  1
  Sm3+  Sm46  1  -0.00689207  0.13505242  0.05833958  1
  Sm3+  Sm47  1  0.49379929  0.13149046  0.54836467  1
  Sm3+  Sm48  1  0.36718015  0.75824692  0.94207049  1
  Sm3+  Sm49  1  0.12126447  0.00116433  0.44426466  1
  Sm3+  Sm50  1  0.74821347  0.63290080  0.56272595  1
  Sm3+  Sm51  1  0.49450706  0.63213293  0.55585080  1
  Sm3+  Sm52  1  0.74346075  0.88693043  0.05906434  1
  Sm3+  Sm53  1  0.86974198  0.50826542  0.94457911  1
  Sm3+  Sm54  1  0.73172133  0.38685036  0.06750581  1
  Sm3+  Sm55  1  0.74942026  0.88410276  0.57070180  1
  Sm3+  Sm56  1  0.74675612  0.38603493  0.55803856  1
  Sm3+  Sm57  1  0.49270217  0.38711135  0.05604881  1
  Sm3+  Sm58  1  0.87081653  0.00104894  0.44302286  1
  Sm3+  Sm59  1  0.12179839  0.75820473  0.45090335  1
  Sm3+  Sm60  1  0.11673354  0.26452393  0.94655501  1
  Sm3+  Sm61  1  0.24956386  0.12761739  0.55624949  1
  Sm3+  Sm62  1  0.36864140  0.76033990  0.44252557  1
  Sm3+  Sm63  1  0.62766245  0.26002125  0.44416845  1
  Bi2+  Bi64  1  0.04053718  0.09271002  0.25722377  1
  Bi2+  Bi65  1  0.05515320  0.13637402  0.79200018  1
  Bi2+  Bi66  1  0.00811789  0.34867113  0.28571564  1
  Bi2+  Bi67  1  -0.03094522  0.33349327  0.79000328  1
  Bi2+  Bi68  1  0.02788301  0.63731819  0.29698222  1
  Bi2+  Bi69  1  -0.06061759  0.59593309  0.78893498  1
  Bi2+  Bi70  1  0.02936636  0.85777237  0.31943073  1
  Bi2+  Bi71  1  -0.02717937  0.89236231  0.78888388  1
  Bi2+  Bi72  1  0.32608186  0.15147120  0.24878978  1
  Bi2+  Bi73  1  0.25649169  0.14789267  0.77759303  1
  Bi2+  Bi74  1  0.25250078  0.38929874  0.29179264  1
  Bi2+  Bi75  1  0.23970350  0.35064707  0.78708297  1
  Bi2+  Bi76  1  0.29691617  0.60833867  0.27309547  1
  Bi2+  Bi77  1  0.31988365  0.62216931  0.78432256  1
  Bi2+  Bi78  1  0.26277541  0.97020666  0.30495260  1
  Bi2+  Bi79  1  0.27487648  0.86909756  0.80279939  1
  Bi2+  Bi80  1  0.51557793  0.09375048  0.28821035  1
  Bi2+  Bi81  1  0.53520583  0.14840213  0.76201918  1
  Bi2+  Bi82  1  0.49639099  0.40711412  0.27738296  1
  Bi2+  Bi83  1  0.47418784  0.37189418  0.78922071  1
  Bi2+  Bi84  1  0.48293338  0.59756692  0.31358856  1
  Bi2+  Bi85  1  0.56169414  0.62449463  0.78198649  1
  Bi2+  Bi86  1  0.47593387  0.78969402  0.28751409  1
  Bi2+  Bi87  1  0.52096859  0.89896212  0.80184230  1
  Bi2+  Bi88  1  0.71388650  0.07982091  0.29916160  1
  Bi2+  Bi89  1  0.76616385  0.11946381  0.81936478  1
  Bi2+  Bi90  1  0.73755014  0.33033624  0.29025702  1
  Bi2+  Bi91  1  0.67472069  0.37331781  0.80817651  1
  Bi2+  Bi92  1  0.76297633  0.67442316  0.29023701  1
  Bi2+  Bi93  1  0.74488782  0.57325194  0.82305616  1
  Bi2+  Bi94  1  0.83217340  0.86159786  0.32524837  1
  Bi2+  Bi95  1  0.77351278  0.77761898  0.80500317  1
  Bi2+  Bi96  1  0.14410991  -0.05808756  0.21516536  1
  Bi2+  Bi97  1  0.10798131  0.00634766  0.71195107  1
  Bi2+  Bi98  1  0.16238966  0.21706427  0.20622846  1
  Bi2+  Bi99  1  0.13083431  0.25142799  0.70846825  1
  Bi2+  Bi100  1  0.14042856  0.51012488  0.20129765  1
  Bi2+  Bi101  1  0.11498453  0.49571865  0.69181297  1
  Bi2+  Bi102  1  0.14266427  0.71677305  0.21297430  1
  Bi2+  Bi103  1  0.12287173  0.73156039  0.71782507  1
  Bi2+  Bi104  1  0.41503117  -0.04496775  0.22652538  1
  Bi2+  Bi105  1  0.38105028  0.03165962  0.70762847  1
  Bi2+  Bi106  1  0.37519895  0.32217146  0.18831681  1
  Bi2+  Bi107  1  0.40483267  0.25145768  0.70235118  1
  Bi2+  Bi108  1  0.40721589  0.51850694  0.18471373  1
  Bi2+  Bi109  1  0.37359934  0.50428953  0.70125853  1
  Bi2+  Bi110  1  0.33391822  0.76877915  0.20640747  1
  Bi2+  Bi111  1  0.47208045  0.76267791  0.71599770  1
  Bi2+  Bi112  1  0.66428209  -0.02450204  0.18606010  1
  Bi2+  Bi113  1  0.64080288  -0.01409584  0.72761912  1
  Bi2+  Bi114  1  0.55063221  0.24721726  0.21847396  1
  Bi2+  Bi115  1  0.69679533  0.22483830  0.71467634  1
  Bi2+  Bi116  1  0.61884477  0.52745060  0.20591473  1
  Bi2+  Bi117  1  0.59449402  0.46878077  0.71292409  1
  Bi2+  Bi118  1  0.66423757  0.81790429  0.25089348  1
  Bi2+  Bi119  1  0.66543391  0.78680952  0.70457104  1
  Bi2+  Bi120  1  0.90402121  -0.04470737  0.23077459  1
  Bi2+  Bi121  1  0.85811068  -0.01310526  0.71162795  1
  Bi2+  Bi122  1  0.84661444  0.21099432  0.21737800  1
  Bi2+  Bi123  1  0.88736156  0.18467138  0.72698692  1
  Bi2+  Bi124  1  0.85190248  0.46540992  0.18344411  1
  Bi2+  Bi125  1  0.79251717  0.46207528  0.72982630  1
  Bi2+  Bi126  1  0.94018171  0.75477593  0.22195455  1
  Bi2+  Bi127  1  0.86149541  0.72099831  0.70738252  1
  S2-  S128  1  0.09281594  0.11866752  0.13768265  1
  S2-  S129  1  -0.01199568  0.04586630  0.64469693  1
  S2-  S130  1  -0.03889155  0.32082143  0.18223242  1
  S2-  S131  1  0.01811201  0.36341228  0.66132628  1
  S2-  S132  1  -0.00557936  0.54596143  0.14229491  1
  S2-  S133  1  -0.00144540  0.62187989  0.66591285  1
  S2-  S134  1  0.00426929  0.88107062  0.15508000  1
  S2-  S135  1  0.09034816  0.86215081  0.65703927  1
  S2-  S136  1  0.35477421  0.13726326  0.14512118  1
  S2-  S137  1  0.24672184  0.05138349  0.64529784  1
  S2-  S138  1  0.15042887  0.36808733  0.14892635  1
  S2-  S139  1  0.25462314  0.40870771  0.65467822  1
  S2-  S140  1  0.25814767  0.54803009  0.13067820  1
  S2-  S141  1  0.21742013  0.62936317  0.65715399  1
  S2-  S142  1  0.27260948  0.91136353  0.15151133  1
  S2-  S143  1  0.25764279  0.82541228  0.71061181  1
  S2-  S144  1  0.59731144  0.13204933  0.14960378  1
  S2-  S145  1  0.48619546  0.12588945  0.64557945  1
  S2-  S146  1  0.59564227  0.42205612  0.13224091  1
  S2-  S147  1  0.48695511  0.38197389  0.64914540  1
  S2-  S148  1  0.52045263  0.64395140  0.15711308  1
  S2-  S149  1  0.45046173  0.63031209  0.65036169  1
  S2-  S150  1  0.52006771  0.89542197  0.15572768  1
  S2-  S151  1  0.41742818  0.89462552  0.64886585  1
  S2-  S152  1  0.82406674  0.06775893  0.16297455  1
  S2-  S153  1  0.72697527  0.01292470  0.64204508  1
  S2-  S154  1  0.75820255  0.29546170  0.15081449  1
  S2-  S155  1  0.75239965  0.35085646  0.65285969  1
  S2-  S156  1  0.75823063  0.60037922  0.16052845  1
  S2-  S157  1  0.72546325  0.63989505  0.66016061  1
  S2-  S158  1  0.74284395  0.83965663  0.15241597  1
  S2-  S159  1  0.86747114  0.85537886  0.64373605  1
  S2-  S160  1  0.10509616  0.02198554  0.34632232  1
  S2-  S161  1  0.12730758  -0.07767160  0.85008755  1
  S2-  S162  1  0.13682160  0.27854555  0.33889595  1
  S2-  S163  1  0.10836904  0.32893901  0.85543654  1
  S2-  S164  1  0.03255572  0.48042472  0.34784920  1
  S2-  S165  1  0.08930878  0.53258529  0.78725201  1
  S2-  S166  1  0.13287552  0.73636757  0.35283787  1
  S2-  S167  1  0.18523836  0.71838598  0.81461176  1
  S2-  S168  1  0.35985539  0.11995664  0.35530034  1
  S2-  S169  1  0.39029977  -0.00673405  0.84060983  1
  S2-  S170  1  0.37895762  0.36100037  0.35163546  1
  S2-  S171  1  0.36059260  0.26016957  0.84239584  1
  S2-  S172  1  0.24067652  0.51860895  0.35730349  1
  S2-  S173  1  0.26620417  0.49550695  0.84490024  1
  S2-  S174  1  0.36556650  0.85887878  0.35940170  1
  S2-  S175  1  0.38129284  0.74843033  0.84501225  1
  S2-  S176  1  0.59254685  -0.02920254  0.34242551  1
  S2-  S177  1  0.65452349  -0.01799513  0.84271523  1
  S2-  S178  1  0.64964040  0.22765196  0.34951336  1
  S2-  S179  1  0.61785005  0.19825544  0.85111367  1
  S2-  S180  1  0.69512250  0.45301108  0.34762667  1
  S2-  S181  1  0.49231391  0.51261133  0.85286087  1
  S2-  S182  1  0.63110612  0.66152833  0.36146454  1
  S2-  S183  1  0.60945653  0.76275646  0.84611898  1
  S2-  S184  1  0.84601973  0.04987383  0.35056115  1
  S2-  S185  1  0.89085011  -0.00355140  0.84611671  1
  S2-  S186  1  0.88748782  0.29268548  0.35222111  1
  S2-  S187  1  0.85981704  0.24995997  0.85165231  1
  S2-  S188  1  0.86747460  0.46105380  0.27493866  1
  S2-  S189  1  0.93594960  0.46889401  0.85721552  1
  S2-  S190  1  0.87615771  0.64362041  0.35796987  1
  S2-  S191  1  0.96534589  0.74793841  0.84830034  1
  S2-  S192  1  -0.00382983  0.12704501  0.45356987  1
  S2-  S193  1  -0.00552221  0.13658053  0.95401087  1
  S2-  S194  1  -0.00810903  0.38236010  0.45702712  1
  S2-  S195  1  -0.00678439  0.38460603  0.96297041  1
  S2-  S196  1  0.00287510  0.63373812  0.46076790  1
  S2-  S197  1  -0.00274179  0.62972977  0.94945072  1
  S2-  S198  1  -0.00551075  0.88068036  0.46009021  1
  S2-  S199  1  -0.00663456  0.88311427  0.95303161  1
  S2-  S200  1  0.23798163  0.12999643  0.45405582  1
  S2-  S201  1  0.23908102  0.13553709  0.95379710  1
  S2-  S202  1  0.24331775  0.37707570  0.45343441  1
  S2-  S203  1  0.23920492  0.38794993  0.95577448  1
  S2-  S204  1  0.24834419  0.63575807  0.45726925  1
  S2-  S205  1  0.23752260  0.63904618  0.94225488  1
  S2-  S206  1  0.24307907  0.88111723  0.45448236  1
  S2-  S207  1  0.24247345  0.88004487  0.95163159  1
  S2-  S208  1  0.50424130  0.13247409  0.44695031  1
  S2-  S209  1  0.48916672  0.13533279  0.95747728  1
  S2-  S210  1  0.50427484  0.38218346  0.44794801  1
  S2-  S211  1  0.49494583  0.38273826  0.95260160  1
  S2-  S212  1  0.48943702  0.63237017  0.45425585  1
  S2-  S213  1  0.49424023  0.63885091  0.95309558  1
  S2-  S214  1  0.50097962  0.87890236  0.45504657  1
  S2-  S215  1  0.49189396  0.88494659  0.95227561  1
  S2-  S216  1  0.74603604  0.13059826  0.46230778  1
  S2-  S217  1  0.74473196  0.13572843  0.96233578  1
  S2-  S218  1  0.75088138  0.38377143  0.45645615  1
  S2-  S219  1  0.74213489  0.38624316  0.95663398  1
  S2-  S220  1  0.74786479  0.62962158  0.46155781  1
  S2-  S221  1  0.74486661  0.63441904  0.95511529  1
  S2-  S222  1  0.74740151  0.87881464  0.46043622  1
  S2-  S223  1  0.74550015  0.88467318  0.95391595  1
  S2-  S224  1  0.11799683  0.00648867  0.04001953  1
  S2-  S225  1  0.12556603  0.00422384  0.54649930  1
  S2-  S226  1  0.11852796  0.25997587  0.04667885  1
  S2-  S227  1  0.12429076  0.25389198  0.54642572  1
  S2-  S228  1  0.11539394  0.50864221  0.04053579  1
  S2-  S229  1  0.12422570  0.50868081  0.54502064  1
  S2-  S230  1  0.11636281  0.75620652  0.05268259  1
  S2-  S231  1  0.12887190  0.76143835  0.55357381  1
  S2-  S232  1  0.36217153  0.01014380  0.04321413  1
  S2-  S233  1  0.37174069  0.00908078  0.53669548  1
  S2-  S234  1  0.36483412  0.26551647  0.04665988  1
  S2-  S235  1  0.37097181  0.25538037  0.53954528  1
  S2-  S236  1  0.37358217  0.50935929  0.03314749  1
  S2-  S237  1  0.37096053  0.50861032  0.53921258  1
  S2-  S238  1  0.36745328  0.75688348  0.04705982  1
  S2-  S239  1  0.36914963  0.75748049  0.54689583  1
  S2-  S240  1  0.61925264  0.00990512  0.04535527  1
  S2-  S241  1  0.61875353  0.00781635  0.54268207  1
  S2-  S242  1  0.61176845  0.25963807  0.04636818  1
  S2-  S243  1  0.62057402  0.25801465  0.54859602  1
  S2-  S244  1  0.61806687  0.51370768  0.03225947  1
  S2-  S245  1  0.62172201  0.50935086  0.54654769  1
  S2-  S246  1  0.61762754  0.76183013  0.04805930  1
  S2-  S247  1  0.62132304  0.75708176  0.55186207  1
  S2-  S248  1  0.86961859  0.00983234  0.04838809  1
  S2-  S249  1  0.86839542  0.00820172  0.54436151  1
  S2-  S250  1  0.87223406  0.26072335  0.05332567  1
  S2-  S251  1  0.87183591  0.25540135  0.55315557  1
  S2-  S252  1  0.86154717  0.50396470  0.04702309  1
  S2-  S253  1  0.86974945  0.50809106  0.56295568  1
  S2-  S254  1  0.86717813  0.75953928  0.04394405  1
  S2-  S255  1  0.86969531  0.75564121  0.54470987  1
