# generated using pymatgen
data_La6Ce7Pr13Nd19Sm19(BiS2)64
_symmetry_space_group_name_H-M   'P 1'
_cell_length_a   16.04909766
_cell_length_b   16.09609427
_cell_length_c   27.33588514
_cell_angle_alpha   89.95992674
_cell_angle_beta   90.04135236
_cell_angle_gamma   89.98648864
_symmetry_Int_Tables_number   1
_chemical_formula_structural   La6Ce7Pr13Nd19Sm19(BiS2)64
_chemical_formula_sum   'La6 Ce7 Pr13 Nd19 Sm19 Bi64 S128'
_cell_volume   7061.61500075
_cell_formula_units_Z   1
loop_
 _symmetry_equiv_pos_site_id
 _symmetry_equiv_pos_as_xyz
  1  'x, y, z'
loop_
 _atom_type_symbol
 _atom_type_oxidation_number
  La3+  3.0
  Ce3+  3.0
  Pr3+  3.0
  Nd3+  3.0
  Sm3+  3.0
  Bi2+  2.0
  S2-  -2.0
loop_
 _atom_site_type_symbol
 _atom_site_label
 _atom_site_symmetry_multiplicity
 _atom_site_fract_x
 _atom_site_fract_y
 _atom_site_fract_z
 _atom_site_occupancy
  La3+  La0  1  0.87225905  0.73389282  0.89520204  1
  La3+  La1  1  0.38539418  0.73985622  0.41787669  1
  La3+  La2  1  0.37795269  0.00479620  0.41017273  1
  La3+  La3  1  0.49156224  0.13769489  0.10061825  1
  La3+  La4  1  0.11645667  0.26365817  0.89837320  1
  La3+  La5  1  0.11783084  0.49655320  0.41046133  1
  Ce3+  Ce6  1  0.50455890  0.63705321  0.56681016  1
  Ce3+  Ce7  1  0.88155295  0.74979989  0.44674965  1
  Ce3+  Ce8  1  0.48860112  0.87978866  0.06381474  1
  Ce3+  Ce9  1  0.12903205  0.25104533  0.43968871  1
  Ce3+  Ce10  1  0.38104188  0.50271651  0.44430570  1
  Ce3+  Ce11  1  0.23843415  0.12728778  0.06806346  1
  Ce3+  Ce12  1  0.36512924  0.00589657  0.95363428  1
  Pr3+  Pr13  1  0.86856959  0.00354215  0.92930624  1
  Pr3+  Pr14  1  0.50321756  0.12992266  0.57090627  1
  Pr3+  Pr15  1  0.61893105  0.50390439  0.94662612  1
  Pr3+  Pr16  1  0.25877595  0.12852378  0.56487855  1
  Pr3+  Pr17  1  0.23953131  0.37729769  0.07383715  1
  Pr3+  Pr18  1  0.86463166  0.25522475  0.93518787  1
  Pr3+  Pr19  1  -0.00636205  0.63039608  0.06374591  1
  Pr3+  Pr20  1  0.37868372  0.25085900  0.43585459  1
  Pr3+  Pr21  1  0.00644394  0.37432439  0.56912389  1
  Pr3+  Pr22  1  0.74547640  0.36778055  0.07941638  1
  Pr3+  Pr23  1  0.63155701  0.25060009  0.44124207  1
  Pr3+  Pr24  1  0.74348228  0.63163960  0.05973362  1
  Pr3+  Pr25  1  0.12440301  0.75042711  0.92934225  1
  Nd3+  Nd26  1  0.12226203  0.00179704  0.93648427  1
  Nd3+  Nd27  1  0.75869221  0.12668380  0.56345398  1
  Nd3+  Nd28  1  0.49640827  0.37241765  0.05425417  1
  Nd3+  Nd29  1  0.23066709  0.87036397  0.08448938  1
  Nd3+  Nd30  1  0.88273365  0.00116177  0.44298494  1
  Nd3+  Nd31  1  0.75355931  0.62902474  0.56246575  1
  Nd3+  Nd32  1  0.75620363  0.87662345  0.56099520  1
  Nd3+  Nd33  1  0.25664951  0.87779685  0.54752022  1
  Nd3+  Nd34  1  0.13548117  0.75082436  0.41932160  1
  Nd3+  Nd35  1  0.61607728  0.75415644  0.94179256  1
  Nd3+  Nd36  1  0.49330564  0.62967910  0.06170708  1
  Nd3+  Nd37  1  0.74900796  0.12431513  0.06222341  1
  Nd3+  Nd38  1  0.24298057  0.62231281  0.06905054  1
  Nd3+  Nd39  1  0.12283447  0.00186606  0.42407144  1
  Nd3+  Nd40  1  0.88307257  0.25275782  0.44494225  1
  Nd3+  Nd41  1  0.01084862  0.62882937  0.56176785  1
  Nd3+  Nd42  1  -0.00730955  0.37248440  0.06943701  1
  Nd3+  Nd43  1  0.25674418  0.37715306  0.56189857  1
  Nd3+  Nd44  1  0.63168947  0.75093720  0.43083418  1
  Sm3+  Sm45  1  0.36570141  0.50022718  0.94649851  1
  Sm3+  Sm46  1  0.25470061  0.62907773  0.54887472  1
  Sm3+  Sm47  1  0.62926050  0.00301317  0.44653367  1
  Sm3+  Sm48  1  -0.00604691  0.87410909  0.04566175  1
  Sm3+  Sm49  1  0.61876057  0.25127122  0.93950157  1
  Sm3+  Sm50  1  0.63065458  0.50132517  0.44668487  1
  Sm3+  Sm51  1  0.01081996  0.87592166  0.55823124  1
  Sm3+  Sm52  1  0.61459602  0.00426397  0.94904340  1
  Sm3+  Sm53  1  0.00209533  0.12690489  0.05135279  1
  Sm3+  Sm54  1  0.36441708  0.75435201  0.94445540  1
  Sm3+  Sm55  1  0.01435405  0.12311342  0.56697412  1
  Sm3+  Sm56  1  0.74433259  0.88070318  0.05090333  1
  Sm3+  Sm57  1  0.36246498  0.25155931  0.94562146  1
  Sm3+  Sm58  1  0.50722228  0.37958568  0.55903161  1
  Sm3+  Sm59  1  0.11689935  0.50043160  0.94694984  1
  Sm3+  Sm60  1  0.86798604  0.49999875  0.94898155  1
  Sm3+  Sm61  1  0.50326403  0.87576788  0.55017846  1
  Sm3+  Sm62  1  0.75621066  0.37705334  0.56027264  1
  Sm3+  Sm63  1  0.88139869  0.50286544  0.45043966  1
  Bi2+  Bi64  1  0.05877916  0.15558374  0.31649520  1
  Bi2+  Bi65  1  -0.11265284  0.13290408  0.80603048  1
  Bi2+  Bi66  1  -0.02330493  0.36367147  0.29674947  1
  Bi2+  Bi67  1  -0.00328106  0.41032995  0.78519285  1
  Bi2+  Bi68  1  0.01407201  0.68156436  0.28828590  1
  Bi2+  Bi69  1  0.03430347  0.61637096  0.76136135  1
  Bi2+  Bi70  1  -0.05397544  0.90994213  0.23153022  1
  Bi2+  Bi71  1  0.06240522  0.85296236  0.77743194  1
  Bi2+  Bi72  1  0.26121449  0.14602250  0.29115883  1
  Bi2+  Bi73  1  0.24648902  0.10948385  0.80429242  1
  Bi2+  Bi74  1  0.26852301  0.35462920  0.29202475  1
  Bi2+  Bi75  1  0.25893348  0.39121310  0.79215007  1
  Bi2+  Bi76  1  0.29318628  0.62747971  0.27961087  1
  Bi2+  Bi77  1  0.22230961  0.61189667  0.79285652  1
  Bi2+  Bi78  1  0.20565209  0.87062916  0.27804259  1
  Bi2+  Bi79  1  0.25898294  0.86770867  0.79623458  1
  Bi2+  Bi80  1  0.54247008  0.10109236  0.29849119  1
  Bi2+  Bi81  1  0.49076360  0.08675519  0.79503433  1
  Bi2+  Bi82  1  0.49397298  0.35790595  0.29533537  1
  Bi2+  Bi83  1  0.51125610  0.28296313  0.79253417  1
  Bi2+  Bi84  1  0.54790934  0.60468704  0.28077240  1
  Bi2+  Bi85  1  0.49177551  0.59896782  0.80450047  1
  Bi2+  Bi86  1  0.58558520  0.86603600  0.29122312  1
  Bi2+  Bi87  1  0.46415126  0.82802923  0.78333328  1
  Bi2+  Bi88  1  0.86399273  0.11391585  0.29314398  1
  Bi2+  Bi89  1  0.69020369  0.13680701  0.80838884  1
  Bi2+  Bi90  1  0.72419174  0.38418432  0.31064604  1
  Bi2+  Bi91  1  0.71284594  0.35476741  0.77380364  1
  Bi2+  Bi92  1  0.73283946  0.66225101  0.30590413  1
  Bi2+  Bi93  1  0.74594517  0.60303715  0.79119693  1
  Bi2+  Bi94  1  0.78529962  0.85960072  0.30129347  1
  Bi2+  Bi95  1  0.66500445  0.86939708  0.78133909  1
  Bi2+  Bi96  1  0.09717334  0.03839080  0.22342240  1
  Bi2+  Bi97  1  0.14576487  -0.01456510  0.71121315  1
  Bi2+  Bi98  1  0.13346757  0.24284151  0.21816214  1
  Bi2+  Bi99  1  0.10510047  0.23386765  0.69907491  1
  Bi2+  Bi100  1  0.12746616  0.49622158  0.20962789  1
  Bi2+  Bi101  1  0.15843769  0.48838543  0.70736065  1
  Bi2+  Bi102  1  0.09402548  0.73934764  0.19580769  1
  Bi2+  Bi103  1  0.13031169  0.75772076  0.67786091  1
  Bi2+  Bi104  1  0.40268998  0.00418683  0.21507664  1
  Bi2+  Bi105  1  0.36169418  -0.01053652  0.71670210  1
  Bi2+  Bi106  1  0.38598660  0.26751451  0.21338228  1
  Bi2+  Bi107  1  0.37485653  0.24373662  0.70664457  1
  Bi2+  Bi108  1  0.38408443  0.47357271  0.22661281  1
  Bi2+  Bi109  1  0.35928370  0.48562198  0.71113886  1
  Bi2+  Bi110  1  0.39219457  0.76430587  0.20176045  1
  Bi2+  Bi111  1  0.36638439  0.68405678  0.72689088  1
  Bi2+  Bi112  1  0.75021118  0.00910759  0.22009339  1
  Bi2+  Bi113  1  0.54883151  -0.05316964  0.69749883  1
  Bi2+  Bi114  1  0.63947428  0.27567869  0.21621408  1
  Bi2+  Bi115  1  0.58318987  0.15358632  0.70021247  1
  Bi2+  Bi116  1  0.67990547  0.46604620  0.20930900  1
  Bi2+  Bi117  1  0.55301402  0.44122655  0.72352143  1
  Bi2+  Bi118  1  0.63411219  0.72137355  0.20379053  1
  Bi2+  Bi119  1  0.61071203  0.71774753  0.69320795  1
  Bi2+  Bi120  1  0.91373899  0.08003280  0.16868615  1
  Bi2+  Bi121  1  0.80017997  -0.00087784  0.74132376  1
  Bi2+  Bi122  1  0.89288222  0.26225543  0.21005764  1
  Bi2+  Bi123  1  0.84303994  0.24824534  0.70988282  1
  Bi2+  Bi124  1  0.85136493  0.51225254  0.26827074  1
  Bi2+  Bi125  1  0.84777508  0.47728661  0.72675894  1
  Bi2+  Bi126  1  0.83135214  0.75798289  0.20089588  1
  Bi2+  Bi127  1  0.87099659  0.77140382  0.69899639  1
  S2-  S128  1  0.10696477  0.12348232  0.13594764  1
  S2-  S129  1  -0.04184396  0.17201183  0.65781121  1
  S2-  S130  1  0.10872773  0.36402747  0.14718662  1
  S2-  S131  1  0.03413489  0.38264253  0.66814090  1
  S2-  S132  1  0.01769783  0.58594832  0.16188023  1
  S2-  S133  1  -0.01331283  0.64715034  0.66028623  1
  S2-  S134  1  0.06640399  0.86540894  0.13513080  1
  S2-  S135  1  -0.00788260  0.87620027  0.65616127  1
  S2-  S136  1  0.33782797  0.13069169  0.15274518  1
  S2-  S137  1  0.14115054  0.09586077  0.63903701  1
  S2-  S138  1  0.25845547  0.50629694  0.14846062  1
  S2-  S139  1  0.25032126  0.28368795  0.64664040  1
  S2-  S140  1  0.24723559  0.72677660  0.14847497  1
  S2-  S141  1  0.25251730  0.66475920  0.64480668  1
  S2-  S142  1  0.27505032  0.92041478  0.18135455  1
  S2-  S143  1  0.24013525  0.88238134  0.64794706  1
  S2-  S144  1  0.55125193  0.08971320  0.19418826  1
  S2-  S145  1  0.37800034  0.11041922  0.64195920  1
  S2-  S146  1  0.51200441  0.30404416  0.14421932  1
  S2-  S147  1  0.50857203  0.31552228  0.64909881  1
  S2-  S148  1  0.48127893  0.64456120  0.16009738  1
  S2-  S149  1  0.55288224  0.57435490  0.65649737  1
  S2-  S150  1  0.49381722  0.88227936  0.16215721  1
  S2-  S151  1  0.48865905  0.77500338  0.62925196  1
  S2-  S152  1  0.73197471  0.22429219  0.14298877  1
  S2-  S153  1  0.73921074  0.12841625  0.66176521  1
  S2-  S154  1  0.87810581  0.38582217  0.14721023  1
  S2-  S155  1  0.75587375  0.38111910  0.65719243  1
  S2-  S156  1  0.75060503  0.61161771  0.15871905  1
  S2-  S157  1  0.75794543  0.65791605  0.66066185  1
  S2-  S158  1  0.74638892  0.88833983  0.14898513  1
  S2-  S159  1  0.76839530  0.88076740  0.66042379  1
  S2-  S160  1  0.23366178  -0.00015328  0.34537069  1
  S2-  S161  1  0.12409812  -0.01070061  0.83707739  1
  S2-  S162  1  0.12313324  0.34649342  0.35655554  1
  S2-  S163  1  0.11335292  0.19946290  0.79628407  1
  S2-  S164  1  0.13962891  0.58477474  0.32248069  1
  S2-  S165  1  0.12129869  0.42796260  0.85710904  1
  S2-  S166  1  0.07849534  0.82378225  0.33322853  1
  S2-  S167  1  0.02528289  0.73062310  0.84526861  1
  S2-  S168  1  0.44869422  -0.04911821  0.31555595  1
  S2-  S169  1  0.34728888  -0.01194269  0.85736869  1
  S2-  S170  1  0.40239595  0.15277177  0.35396681  1
  S2-  S171  1  0.28578624  0.25254588  0.85735452  1
  S2-  S172  1  0.38100140  0.57548743  0.35698622  1
  S2-  S173  1  0.36739764  0.49962408  0.84872376  1
  S2-  S174  1  0.27260651  0.76448962  0.34159134  1
  S2-  S175  1  0.26432433  0.74100262  0.86376938  1
  S2-  S176  1  0.65524556  0.01242191  0.34970675  1
  S2-  S177  1  0.61684197  -0.00794662  0.85112734  1
  S2-  S178  1  0.60852465  0.24301674  0.34184672  1
  S2-  S179  1  0.72773426  0.28588591  0.86621903  1
  S2-  S180  1  0.59751700  0.48905017  0.35020973  1
  S2-  S181  1  0.61792712  0.51646040  0.84709825  1
  S2-  S182  1  0.52568309  0.74418422  0.35034125  1
  S2-  S183  1  0.57718668  0.74312115  0.84536948  1
  S2-  S184  1  0.97485332  0.01702169  0.35944888  1
  S2-  S185  1  0.87597002  -0.03724100  0.83087227  1
  S2-  S186  1  0.84553601  0.26234743  0.34820688  1
  S2-  S187  1  0.95296475  0.28971606  0.84941714  1
  S2-  S188  1  0.94742260  0.49570427  0.36021096  1
  S2-  S189  1  0.86239641  0.56234019  0.85662013  1
  S2-  S190  1  0.88178074  0.73058313  0.35077670  1
  S2-  S191  1  0.80628615  0.75498440  0.80015512  1
  S2-  S192  1  0.00432111  0.12915300  0.46165790  1
  S2-  S193  1  -0.00199194  0.12868343  0.94581133  1
  S2-  S194  1  0.00403358  0.37829871  0.46255451  1
  S2-  S195  1  -0.00867262  0.38135867  0.95971124  1
  S2-  S196  1  0.00863461  0.62608016  0.45512108  1
  S2-  S197  1  -0.00773591  0.62485134  0.95595771  1
  S2-  S198  1  0.00605568  0.87288272  0.45350028  1
  S2-  S199  1  -0.00932508  0.87282111  0.94265078  1
  S2-  S200  1  0.25242153  0.12730588  0.45301940  1
  S2-  S201  1  0.23868384  0.12943990  0.95796563  1
  S2-  S202  1  0.25467179  0.37976700  0.45527517  1
  S2-  S203  1  0.24383691  0.37992602  0.96184389  1
  S2-  S204  1  0.24478644  0.61794272  0.44733883  1
  S2-  S205  1  0.24467564  0.62061695  0.96119630  1
  S2-  S206  1  0.25493626  0.87744377  0.44410798  1
  S2-  S207  1  0.24375065  0.87786964  0.96188137  1
  S2-  S208  1  0.50828099  0.12546152  0.46019339  1
  S2-  S209  1  0.49261095  0.13146683  0.94596631  1
  S2-  S210  1  0.50620394  0.37643920  0.45400997  1
  S2-  S211  1  0.49243737  0.37480800  0.94842385  1
  S2-  S212  1  0.51163751  0.62363585  0.45916732  1
  S2-  S213  1  0.48840502  0.62826329  0.95579885  1
  S2-  S214  1  0.50667826  0.88018557  0.44733950  1
  S2-  S215  1  0.49053132  0.87787802  0.95558333  1
  S2-  S216  1  0.75756392  0.12535572  0.45661065  1
  S2-  S217  1  0.74075225  0.12375364  0.95604190  1
  S2-  S218  1  0.75717264  0.37906717  0.45586388  1
  S2-  S219  1  0.74148198  0.38123312  0.96974011  1
  S2-  S220  1  0.75481047  0.62371643  0.45498428  1
  S2-  S221  1  0.74435354  0.63279847  0.95373339  1
  S2-  S222  1  0.75502180  0.87802241  0.45346396  1
  S2-  S223  1  0.74276723  0.87641011  0.94592899  1
  S2-  S224  1  0.11929615  -0.00355010  0.04079463  1
  S2-  S225  1  0.12857714  -0.00224201  0.53422988  1
  S2-  S226  1  0.11703833  0.25335477  0.04194418  1
  S2-  S227  1  0.12984596  0.25301669  0.54440651  1
  S2-  S228  1  0.11482849  0.50227941  0.04806041  1
  S2-  S229  1  0.13280253  0.50264531  0.55482630  1
  S2-  S230  1  0.11956830  0.74861636  0.03712226  1
  S2-  S231  1  0.13097823  0.75233177  0.53573374  1
  S2-  S232  1  0.36529615  0.00164884  0.05716276  1
  S2-  S233  1  0.38351957  -0.00114712  0.53947487  1
  S2-  S234  1  0.36691888  0.25271895  0.04876095  1
  S2-  S235  1  0.38435636  0.25646979  0.54137389  1
  S2-  S236  1  0.37498994  0.49934504  0.05023504  1
  S2-  S237  1  0.38148334  0.50373354  0.55158779  1
  S2-  S238  1  0.36687935  0.75258471  0.04765326  1
  S2-  S239  1  0.37570826  0.75165645  0.52859695  1
  S2-  S240  1  0.61589392  0.00618392  0.05424907  1
  S2-  S241  1  0.62945087  0.00141161  0.55197689  1
  S2-  S242  1  0.61626709  0.24365559  0.04139316  1
  S2-  S243  1  0.63306796  0.25318359  0.54814202  1
  S2-  S244  1  0.61813877  0.50160037  0.05443282  1
  S2-  S245  1  0.63289667  0.50025363  0.55023996  1
  S2-  S246  1  0.61766305  0.75745982  0.04853453  1
  S2-  S247  1  0.63450825  0.75507094  0.53760671  1
  S2-  S248  1  0.87242159  0.00020046  0.03735309  1
  S2-  S249  1  0.88485048  0.00122839  0.55058338  1
  S2-  S250  1  0.87309874  0.24623304  0.04241837  1
  S2-  S251  1  0.87920229  0.25274347  0.55050260  1
  S2-  S252  1  0.86730443  0.50528818  0.05054379  1
  S2-  S253  1  0.88082232  0.50357599  0.55540194  1
  S2-  S254  1  0.86734561  0.75728589  0.05059850  1
  S2-  S255  1  0.88262978  0.75269308  0.55116784  1
