# generated using pymatgen
data_La6Ce7Pr13Nd19Sm19(BiS2)64
_symmetry_space_group_name_H-M   'P 1'
_cell_length_a   16.07224792
_cell_length_b   16.06870496
_cell_length_c   27.35000339
_cell_angle_alpha   90.17894227
_cell_angle_beta   89.72877318
_cell_angle_gamma   89.96553128
_symmetry_Int_Tables_number   1
_chemical_formula_structural   La6Ce7Pr13Nd19Sm19(BiS2)64
_chemical_formula_sum   'La6 Ce7 Pr13 Nd19 Sm19 Bi64 S128'
_cell_volume   7063.30268444
_cell_formula_units_Z   1
loop_
 _symmetry_equiv_pos_site_id
 _symmetry_equiv_pos_as_xyz
  1  'x, y, z'
loop_
 _atom_type_symbol
 _atom_type_oxidation_number
  La3+  3.0
  Ce3+  3.0
  Pr3+  3.0
  Nd3+  3.0
  Sm3+  3.0
  Bi2+  2.0
  S2-  -2.0
loop_
 _atom_site_type_symbol
 _atom_site_label
 _atom_site_symmetry_multiplicity
 _atom_site_fract_x
 _atom_site_fract_y
 _atom_site_fract_z
 _atom_site_occupancy
  La3+  La0  1  0.87747481  0.75009612  0.42871102  1
  La3+  La1  1  0.01304316  0.85890049  0.57994843  1
  La3+  La2  1  0.61554287  0.76340249  0.91372342  1
  La3+  La3  1  0.87614150  0.25238123  0.91171888  1
  La3+  La4  1  -0.00556505  0.14738544  0.06987308  1
  La3+  La5  1  0.73613183  0.38441069  0.07278239  1
  Ce3+  Ce6  1  0.86704133  0.51069697  0.93880371  1
  Ce3+  Ce7  1  0.13225203  0.48368073  0.42568611  1
  Ce3+  Ce8  1  0.62221970  0.25938005  0.93882610  1
  Ce3+  Ce9  1  0.24379345  0.88260507  0.06983050  1
  Ce3+  Ce10  1  0.38710466  0.48915112  0.44675088  1
  Ce3+  Ce11  1  0.38231271  0.24110141  0.44137913  1
  Ce3+  Ce12  1  0.24623740  0.63716738  0.06515260  1
  Pr3+  Pr13  1  -0.00824894  0.88474762  0.06318215  1
  Pr3+  Pr14  1  0.25836453  0.86789942  0.56047095  1
  Pr3+  Pr15  1  0.78064639  0.62985745  0.11836507  1
  Pr3+  Pr16  1  0.74188444  0.13662514  0.06492045  1
  Pr3+  Pr17  1  0.01021728  0.12316116  0.57722057  1
  Pr3+  Pr18  1  0.50987671  0.64514495  0.06129231  1
  Pr3+  Pr19  1  0.13709631  -0.01162200  0.42655710  1
  Pr3+  Pr20  1  0.13239348  0.23752731  0.43457943  1
  Pr3+  Pr21  1  0.74927659  0.36693983  0.57838603  1
  Pr3+  Pr22  1  0.63790225  0.24130717  0.43653810  1
  Pr3+  Pr23  1  0.62323746  0.50994891  0.93024290  1
  Pr3+  Pr24  1  0.12353682  0.25957431  0.93480417  1
  Pr3+  Pr25  1  0.62139562  0.73688414  0.41180543  1
  Nd3+  Nd26  1  0.88602336  0.48912577  0.43724580  1
  Nd3+  Nd27  1  -0.01124061  0.38579523  0.05698006  1
  Nd3+  Nd28  1  0.76144772  0.11708803  0.57624549  1
  Nd3+  Nd29  1  0.38850524  -0.00917317  0.43250354  1
  Nd3+  Nd30  1  0.25623685  0.61365484  0.55509754  1
  Nd3+  Nd31  1  0.24514587  0.38836114  0.06875161  1
  Nd3+  Nd32  1  0.50934296  0.35824604  0.56715404  1
  Nd3+  Nd33  1  0.25365293  0.36694696  0.56275825  1
  Nd3+  Nd34  1  0.25308711  0.13540910  0.08202553  1
  Nd3+  Nd35  1  0.75588336  0.61644913  0.55550299  1
  Nd3+  Nd36  1  0.64035486  0.48238650  0.42126005  1
  Nd3+  Nd37  1  0.63248765  -0.00740625  0.44088116  1
  Nd3+  Nd38  1  0.49016931  0.13524955  0.05653949  1
  Nd3+  Nd39  1  0.25162563  0.11540071  0.56541383  1
  Nd3+  Nd40  1  0.36616639  0.26102027  0.93569141  1
  Nd3+  Nd41  1  0.51308094  0.61356061  0.56354310  1
  Nd3+  Nd42  1  0.50546324  0.11611455  0.56375965  1
  Nd3+  Nd43  1  0.73973263  0.88041233  0.05423927  1
  Nd3+  Nd44  1  0.36467756  0.01161327  0.94222064  1
  Sm3+  Sm45  1  0.36733303  0.76034961  0.93295672  1
  Sm3+  Sm46  1  0.62036134  0.01243508  0.93896942  1
  Sm3+  Sm47  1  0.87123981  0.01275296  0.94713326  1
  Sm3+  Sm48  1  0.49479245  0.88195557  0.05019760  1
  Sm3+  Sm49  1  0.38677486  0.73730092  0.44698067  1
  Sm3+  Sm50  1  0.49705128  0.39032190  0.05012637  1
  Sm3+  Sm51  1  0.50815239  0.86680371  0.56111050  1
  Sm3+  Sm52  1  0.88317998  0.23937117  0.45077478  1
  Sm3+  Sm53  1  0.13258913  0.74339149  0.43359007  1
  Sm3+  Sm54  1  0.75647030  0.86288129  0.56073804  1
  Sm3+  Sm55  1  0.86960059  0.76167774  0.93762674  1
  Sm3+  Sm56  1  0.12061750  0.51068176  0.94421564  1
  Sm3+  Sm57  1  0.12012130  0.01225917  0.95031177  1
  Sm3+  Sm58  1  -0.00734230  0.63687545  0.04998312  1
  Sm3+  Sm59  1  0.00766819  0.61746851  0.55168765  1
  Sm3+  Sm60  1  0.36998728  0.51461574  0.94369336  1
  Sm3+  Sm61  1  0.88887666  -0.00853349  0.45483641  1
  Sm3+  Sm62  1  0.00356078  0.36966679  0.56377679  1
  Sm3+  Sm63  1  0.12063423  0.76190774  0.93819607  1
  Bi2+  Bi64  1  -0.02819444  0.10563342  0.30159031  1
  Bi2+  Bi65  1  0.00382463  0.11929993  0.79044710  1
  Bi2+  Bi66  1  0.02498138  0.34485777  0.29876266  1
  Bi2+  Bi67  1  0.05289363  0.38546550  0.77652416  1
  Bi2+  Bi68  1  0.02908654  0.59292806  0.27571945  1
  Bi2+  Bi69  1  -0.00493110  0.67391540  0.78449079  1
  Bi2+  Bi70  1  0.00116170  0.86443260  0.29629824  1
  Bi2+  Bi71  1  0.03313140  0.92959175  0.77200743  1
  Bi2+  Bi72  1  0.24951630  0.13015134  0.29389536  1
  Bi2+  Bi73  1  0.24631749  0.10230617  0.79549843  1
  Bi2+  Bi74  1  0.26344114  0.46865161  0.29731032  1
  Bi2+  Bi75  1  0.25525552  0.35659150  0.78428212  1
  Bi2+  Bi76  1  0.21321157  0.66009568  0.31581712  1
  Bi2+  Bi77  1  0.22502670  0.58462583  0.79368994  1
  Bi2+  Bi78  1  0.31890964  0.92814279  0.25797366  1
  Bi2+  Bi79  1  0.24836452  0.77640412  0.81875405  1
  Bi2+  Bi80  1  0.50346434  0.12023374  0.29196605  1
  Bi2+  Bi81  1  0.46194394  0.10412749  0.78321760  1
  Bi2+  Bi82  1  0.49487562  0.36973111  0.23068165  1
  Bi2+  Bi83  1  0.44944331  0.30081942  0.79678127  1
  Bi2+  Bi84  1  0.48049361  0.61200765  0.29452561  1
  Bi2+  Bi85  1  0.46916798  0.62143833  0.78381430  1
  Bi2+  Bi86  1  0.52940440  0.86870389  0.28571242  1
  Bi2+  Bi87  1  0.40833918  0.86492619  0.77417347  1
  Bi2+  Bi88  1  0.69641430  0.11778198  0.31097506  1
  Bi2+  Bi89  1  0.72257920  0.14148502  0.81193304  1
  Bi2+  Bi90  1  0.75307452  0.32961250  0.30279735  1
  Bi2+  Bi91  1  0.71779251  0.40390559  0.79429423  1
  Bi2+  Bi92  1  0.79113706  0.63142960  0.31618955  1
  Bi2+  Bi93  1  0.75793092  0.62791829  0.80285333  1
  Bi2+  Bi94  1  0.71885909  0.92424386  0.27936091  1
  Bi2+  Bi95  1  0.77217655  0.89178559  0.80046555  1
  Bi2+  Bi96  1  0.13473106  -0.03044327  0.21845366  1
  Bi2+  Bi97  1  0.20214218  -0.03096469  0.71528049  1
  Bi2+  Bi98  1  0.09426205  0.19743678  0.20010854  1
  Bi2+  Bi99  1  0.13791654  0.22846563  0.70850990  1
  Bi2+  Bi100  1  0.12616521  0.45760292  0.21133513  1
  Bi2+  Bi101  1  0.12404702  0.49954392  0.68999484  1
  Bi2+  Bi102  1  0.14332066  0.73982157  0.21964147  1
  Bi2+  Bi103  1  0.12616005  0.71021988  0.70206031  1
  Bi2+  Bi104  1  0.47585636  -0.00428235  0.19768253  1
  Bi2+  Bi105  1  0.38450379  -0.02355183  0.67177538  1
  Bi2+  Bi106  1  0.34723247  0.24210589  0.22026496  1
  Bi2+  Bi107  1  0.35342014  0.16670947  0.69178249  1
  Bi2+  Bi108  1  0.38034841  0.52841171  0.20814391  1
  Bi2+  Bi109  1  0.40068494  0.45849419  0.73839034  1
  Bi2+  Bi110  1  0.34058796  0.72778672  0.23201036  1
  Bi2+  Bi111  1  0.32693603  0.71662855  0.71488760  1
  Bi2+  Bi112  1  0.67003742  0.01481267  0.17327821  1
  Bi2+  Bi113  1  0.62939635  0.03528717  0.73621421  1
  Bi2+  Bi114  1  0.62333946  0.20051421  0.20895061  1
  Bi2+  Bi115  1  0.60291630  0.27272869  0.71260484  1
  Bi2+  Bi116  1  0.64507260  0.48782709  0.21221963  1
  Bi2+  Bi117  1  0.66609199  0.53144986  0.70202072  1
  Bi2+  Bi118  1  0.60847114  0.75526065  0.20029052  1
  Bi2+  Bi119  1  0.62637071  0.76349863  0.70447838  1
  Bi2+  Bi120  1  0.85682235  0.01129171  0.21337981  1
  Bi2+  Bi121  1  0.83069991  0.02116942  0.72833504  1
  Bi2+  Bi122  1  0.83786382  0.20548149  0.22855773  1
  Bi2+  Bi123  1  0.87073340  0.26420011  0.70535146  1
  Bi2+  Bi124  1  0.93289139  0.44292226  0.21741913  1
  Bi2+  Bi125  1  0.93761836  0.51885896  0.72233373  1
  Bi2+  Bi126  1  0.89948711  0.77254202  0.20196457  1
  Bi2+  Bi127  1  0.87306647  0.77213187  0.70114914  1
  S2-  S128  1  0.00486774  0.06898448  0.16236337  1
  S2-  S129  1  -0.11354901  0.11207885  0.65188102  1
  S2-  S130  1  -0.00485481  0.28723832  0.14068306  1
  S2-  S131  1  0.01426226  0.27795238  0.64678858  1
  S2-  S132  1  -0.04810943  0.64332595  0.14536445  1
  S2-  S133  1  -0.00919492  0.70290005  0.63657834  1
  S2-  S134  1  0.02646161  0.85002578  0.15988659  1
  S2-  S135  1  -0.04005977  0.90571647  0.67921095  1
  S2-  S136  1  0.23932585  -0.00376134  0.14728704  1
  S2-  S137  1  0.14090102  0.09389007  0.64468322  1
  S2-  S138  1  0.23142888  0.27185949  0.14612194  1
  S2-  S139  1  0.26739223  0.30887715  0.65580475  1
  S2-  S140  1  0.24493154  0.51648336  0.14033699  1
  S2-  S141  1  0.26304247  0.58346296  0.65258680  1
  S2-  S142  1  0.25272463  0.75562098  0.13875599  1
  S2-  S143  1  0.16124335  0.84928176  0.64297351  1
  S2-  S144  1  0.40715235  0.14141589  0.14416834  1
  S2-  S145  1  0.50024375  0.22644165  0.64232045  1
  S2-  S146  1  0.57659233  0.39009609  0.13750171  1
  S2-  S147  1  0.60814261  0.40709069  0.64581855  1
  S2-  S148  1  0.60746606  0.60997208  0.14471852  1
  S2-  S149  1  0.53815768  0.62636180  0.66281431  1
  S2-  S150  1  0.50090818  0.78930599  0.13323135  1
  S2-  S151  1  0.51959516  0.85243367  0.65937941  1
  S2-  S152  1  0.75375702  0.24652532  0.14387933  1
  S2-  S153  1  0.72984058  0.23349331  0.65244570  1
  S2-  S154  1  0.79158918  0.46519984  0.15923307  1
  S2-  S155  1  0.84571407  0.41388029  0.66299797  1
  S2-  S156  1  0.76476557  0.65428101  0.22524231  1
  S2-  S157  1  0.76314987  0.64462134  0.65591194  1
  S2-  S158  1  0.75285193  0.80394067  0.14254338  1
  S2-  S159  1  0.74117275  0.86359313  0.65920669  1
  S2-  S160  1  0.11067698  0.11950603  0.35726129  1
  S2-  S161  1  0.11433321  0.02474462  0.85191663  1
  S2-  S162  1  0.16263367  0.35119496  0.35601067  1
  S2-  S163  1  0.02283670  0.25623893  0.85119161  1
  S2-  S164  1  0.00332407  0.48653024  0.35821448  1
  S2-  S165  1  0.10642317  0.50670764  0.84696835  1
  S2-  S166  1  0.12312451  0.85476127  0.35772478  1
  S2-  S167  1  0.07690715  0.79549629  0.84426541  1
  S2-  S168  1  0.28511105  -0.00707903  0.35184179  1
  S2-  S169  1  0.36264664  -0.00434605  0.84326136  1
  S2-  S170  1  0.38070666  0.21589012  0.34402328  1
  S2-  S171  1  0.25093386  0.24362422  0.86182264  1
  S2-  S172  1  0.41391195  0.48015363  0.35044684  1
  S2-  S173  1  0.37098598  0.52400309  0.84561825  1
  S2-  S174  1  0.46329699  0.75101432  0.35876315  1
  S2-  S175  1  0.46616864  0.75642232  0.85098719  1
  S2-  S176  1  0.52058858  -0.01176750  0.36260842  1
  S2-  S177  1  0.63539859  -0.01574406  0.84274193  1
  S2-  S178  1  0.61674161  0.34424902  0.35574827  1
  S2-  S179  1  0.61722145  0.27842324  0.84150706  1
  S2-  S180  1  0.62441185  0.60007411  0.34451686  1
  S2-  S181  1  0.61002390  0.54032394  0.82996552  1
  S2-  S182  1  0.74927206  0.78797148  0.34905744  1
  S2-  S183  1  0.65926250  0.76753021  0.81051072  1
  S2-  S184  1  0.90957027  -0.02035214  0.35645019  1
  S2-  S185  1  0.87130437  0.08795896  0.85921728  1
  S2-  S186  1  0.89870220  0.24989530  0.35220807  1
  S2-  S187  1  0.82692939  0.28534403  0.80909233  1
  S2-  S188  1  0.78656340  0.47119027  0.35515863  1
  S2-  S189  1  0.84548189  0.49825860  0.84151595  1
  S2-  S190  1  0.94782786  0.71362830  0.33677465  1
  S2-  S191  1  0.86444190  0.75499325  0.83851684  1
  S2-  S192  1  0.00474265  0.11666936  0.46586090  1
  S2-  S193  1  -0.00353728  0.13346530  0.96096603  1
  S2-  S194  1  0.00685091  0.36131622  0.46043854  1
  S2-  S195  1  -0.00511923  0.38825028  0.95155626  1
  S2-  S196  1  0.01068331  0.62080163  0.45066251  1
  S2-  S197  1  -0.00436624  0.63772507  0.94546411  1
  S2-  S198  1  0.00782614  0.86421138  0.46161033  1
  S2-  S199  1  -0.00643412  0.88746283  0.95475730  1
  S2-  S200  1  0.26048738  0.11488035  0.45847644  1
  S2-  S201  1  0.24479437  0.13277374  0.96630832  1
  S2-  S202  1  0.26156133  0.36683608  0.45804919  1
  S2-  S203  1  0.24713552  0.39253670  0.95779725  1
  S2-  S204  1  0.25954601  0.61499149  0.44945309  1
  S2-  S205  1  0.24351172  0.63670104  0.95353407  1
  S2-  S206  1  0.26634729  0.85994534  0.45458411  1
  S2-  S207  1  0.24260003  0.88460765  0.95562986  1
  S2-  S208  1  0.50948097  0.11989021  0.45878398  1
  S2-  S209  1  0.49250599  0.13477315  0.94813524  1
  S2-  S210  1  0.50765443  0.36267530  0.46077223  1
  S2-  S211  1  0.49151267  0.38649663  0.94541087  1
  S2-  S212  1  0.51017341  0.61339186  0.45796264  1
  S2-  S213  1  0.49432023  0.63474578  0.95031012  1
  S2-  S214  1  0.51163968  0.86224934  0.45985244  1
  S2-  S215  1  0.49296416  0.89107286  0.94631238  1
  S2-  S216  1  0.76032908  0.11271124  0.46100959  1
  S2-  S217  1  0.74365600  0.13353986  0.95678111  1
  S2-  S218  1  0.76166334  0.36286262  0.46303735  1
  S2-  S219  1  0.74744702  0.38113925  0.94628247  1
  S2-  S220  1  0.75567593  0.61943920  0.45060961  1
  S2-  S221  1  0.74530016  0.64123545  0.93573523  1
  S2-  S222  1  0.75470949  0.87403607  0.45778300  1
  S2-  S223  1  0.74749712  0.88904541  0.94696963  1
  S2-  S224  1  0.11656571  0.01142644  0.05179590  1
  S2-  S225  1  0.13183575  -0.01209335  0.54028076  1
  S2-  S226  1  0.12348029  0.26665328  0.04100845  1
  S2-  S227  1  0.13301368  0.24458342  0.54313836  1
  S2-  S228  1  0.11395514  0.51182604  0.04719948  1
  S2-  S229  1  0.12919816  0.49109511  0.54136516  1
  S2-  S230  1  0.11511124  0.75947627  0.04216522  1
  S2-  S231  1  0.13621491  0.73641967  0.53773465  1
  S2-  S232  1  0.37094923  0.00512622  0.04611915  1
  S2-  S233  1  0.38406029  -0.00794378  0.54192006  1
  S2-  S234  1  0.37233617  0.26726242  0.04143818  1
  S2-  S235  1  0.37654846  0.23974105  0.54532397  1
  S2-  S236  1  0.37936739  0.51569858  0.04665843  1
  S2-  S237  1  0.38536511  0.48833374  0.55440052  1
  S2-  S238  1  0.37123800  0.75991462  0.03495408  1
  S2-  S239  1  0.38488423  0.73916699  0.55257691  1
  S2-  S240  1  0.61559443  0.00994382  0.04300313  1
  S2-  S241  1  0.63251866  -0.00784538  0.55212954  1
  S2-  S242  1  0.61340849  0.25694867  0.04201630  1
  S2-  S243  1  0.63454883  0.23534755  0.54315189  1
  S2-  S244  1  0.62106960  0.50831413  0.03427861  1
  S2-  S245  1  0.63342061  0.49158395  0.53919048  1
  S2-  S246  1  0.61851006  0.76900334  0.02422077  1
  S2-  S247  1  0.63093273  0.74315226  0.54914298  1
  S2-  S248  1  0.86636798  0.01020682  0.05151480  1
  S2-  S249  1  0.88166255  -0.01490345  0.55650814  1
  S2-  S250  1  0.86466416  0.26354878  0.03730698  1
  S2-  S251  1  0.87927223  0.24647558  0.55168545  1
  S2-  S252  1  0.86686819  0.51402859  0.04435579  1
  S2-  S253  1  0.88487659  0.49496217  0.54603455  1
  S2-  S254  1  0.86808285  0.75831136  0.04049119  1
  S2-  S255  1  0.87813507  0.74232939  0.53942473  1
