# generated using pymatgen
data_La6Ce7Pr13Nd19Sm19(BiS2)64
_symmetry_space_group_name_H-M   'P 1'
_cell_length_a   16.02313905
_cell_length_b   16.11560570
_cell_length_c   27.41977236
_cell_angle_alpha   90.01481919
_cell_angle_beta   90.23041641
_cell_angle_gamma   90.03169371
_symmetry_Int_Tables_number   1
_chemical_formula_structural   La6Ce7Pr13Nd19Sm19(BiS2)64
_chemical_formula_sum   'La6 Ce7 Pr13 Nd19 Sm19 Bi64 S128'
_cell_volume   7080.34608543
_cell_formula_units_Z   1
loop_
 _symmetry_equiv_pos_site_id
 _symmetry_equiv_pos_as_xyz
  1  'x, y, z'
loop_
 _atom_type_symbol
 _atom_type_oxidation_number
  La3+  3.0
  Ce3+  3.0
  Pr3+  3.0
  Nd3+  3.0
  Sm3+  3.0
  Bi2+  2.0
  S2-  -2.0
loop_
 _atom_site_type_symbol
 _atom_site_label
 _atom_site_symmetry_multiplicity
 _atom_site_fract_x
 _atom_site_fract_y
 _atom_site_fract_z
 _atom_site_occupancy
  La3+  La0  1  0.37508425  0.51041658  0.38004770  1
  La3+  La1  1  0.36448054  0.24705222  0.42198390  1
  La3+  La2  1  0.50499709  0.59370817  0.61404412  1
  La3+  La3  1  0.37374030  0.74488477  0.43389649  1
  La3+  La4  1  0.12291852  0.00143792  0.43126745  1
  La3+  La5  1  0.88692326  0.49925953  0.88753535  1
  Ce3+  Ce6  1  0.62021150  -0.00054647  0.44398643  1
  Ce3+  Ce7  1  -0.00318935  0.61430196  0.56777743  1
  Ce3+  Ce8  1  0.74421868  0.62449985  0.55576193  1
  Ce3+  Ce9  1  0.88893461  0.00165794  0.93623323  1
  Ce3+  Ce10  1  0.26925069  0.61932296  0.06958358  1
  Ce3+  Ce11  1  0.13712817  0.24319049  0.93373898  1
  Ce3+  Ce12  1  -0.00173580  0.37219555  0.57234935  1
  Pr3+  Pr13  1  0.49820363  0.86527372  0.56509718  1
  Pr3+  Pr14  1  0.01870324  0.61986541  0.07774343  1
  Pr3+  Pr15  1  0.00272715  0.11771358  0.58135064  1
  Pr3+  Pr16  1  0.50455239  0.12040211  0.07329639  1
  Pr3+  Pr17  1  0.62355676  0.49715739  0.43183051  1
  Pr3+  Pr18  1  0.63846359  0.49551401  0.94133021  1
  Pr3+  Pr19  1  0.01184543  0.36915492  0.05624273  1
  Pr3+  Pr20  1  0.52230789  0.36504778  0.08866807  1
  Pr3+  Pr21  1  0.38469520  0.24624139  0.93564342  1
  Pr3+  Pr22  1  0.62064144  0.74784916  0.43371456  1
  Pr3+  Pr23  1  0.87695129  0.00085304  0.42840211  1
  Pr3+  Pr24  1  0.74243467  0.37805981  0.56560403  1
  Pr3+  Pr25  1  0.75032473  0.12129182  0.55447218  1
  Nd3+  Nd26  1  0.49802447  0.12090162  0.56433110  1
  Nd3+  Nd27  1  0.87383003  0.49693946  0.43583149  1
  Nd3+  Nd28  1  0.76676782  0.61990138  0.07256406  1
  Nd3+  Nd29  1  0.61974277  0.24862614  0.43775766  1
  Nd3+  Nd30  1  0.64095215  0.74274494  0.94237836  1
  Nd3+  Nd31  1  0.89236020  0.24482840  0.92286432  1
  Nd3+  Nd32  1  0.13894171  -0.00517040  0.94121986  1
  Nd3+  Nd33  1  0.25452607  0.37533497  0.55546406  1
  Nd3+  Nd34  1  0.24793634  0.87184497  0.55512980  1
  Nd3+  Nd35  1  0.11805133  0.25047776  0.44490029  1
  Nd3+  Nd36  1  0.12125877  0.74485075  0.44510141  1
  Nd3+  Nd37  1  0.01561549  0.12784092  0.06986400  1
  Nd3+  Nd38  1  0.38785702  0.49708945  0.94506402  1
  Nd3+  Nd39  1  0.76464991  0.36913927  0.05761102  1
  Nd3+  Nd40  1  0.24867320  0.12280469  0.56628216  1
  Nd3+  Nd41  1  0.25599971  0.62151177  0.55859857  1
  Nd3+  Nd42  1  0.26562923  0.36997825  0.05806013  1
  Nd3+  Nd43  1  0.51519742  0.86891655  0.06112496  1
  Nd3+  Nd44  1  0.51589473  0.62166315  0.07101307  1
  Sm3+  Sm45  1  0.38854463  -0.00602409  0.94825129  1
  Sm3+  Sm46  1  0.76298370  0.12204210  0.05527723  1
  Sm3+  Sm47  1  0.88661210  0.74198304  0.94621285  1
  Sm3+  Sm48  1  0.01103001  0.87316706  0.05473265  1
  Sm3+  Sm49  1  -0.00208203  0.87261432  0.55971892  1
  Sm3+  Sm50  1  0.26249440  0.86787785  0.05857270  1
  Sm3+  Sm51  1  0.25921958  0.12164295  0.06639218  1
  Sm3+  Sm52  1  0.63427769  -0.00338491  0.94629488  1
  Sm3+  Sm53  1  0.12574060  0.49698362  0.43900402  1
  Sm3+  Sm54  1  0.49504210  0.37055558  0.54919273  1
  Sm3+  Sm55  1  0.13452247  0.74165124  0.94960615  1
  Sm3+  Sm56  1  0.38591883  0.74287763  0.94253380  1
  Sm3+  Sm57  1  0.12920645  0.49814758  0.94307228  1
  Sm3+  Sm58  1  0.63731828  0.24801254  0.94433156  1
  Sm3+  Sm59  1  0.76374642  0.87458213  0.05465828  1
  Sm3+  Sm60  1  0.87466353  0.25070483  0.44842525  1
  Sm3+  Sm61  1  0.36875356  0.00327902  0.43208315  1
  Sm3+  Sm62  1  0.74945175  0.87195599  0.54995372  1
  Sm3+  Sm63  1  0.87615578  0.74775103  0.44306640  1
  Bi2+  Bi64  1  0.00376195  0.14000037  0.28445440  1
  Bi2+  Bi65  1  -0.00604067  0.12049600  0.78630965  1
  Bi2+  Bi66  1  0.00427007  0.41223137  0.33541130  1
  Bi2+  Bi67  1  0.02621758  0.36242759  0.78151627  1
  Bi2+  Bi68  1  -0.03212039  0.60560094  0.31497292  1
  Bi2+  Bi69  1  0.01208778  0.72756188  0.78730064  1
  Bi2+  Bi70  1  0.01879237  0.86338252  0.29818212  1
  Bi2+  Bi71  1  -0.03441053  0.91559769  0.79854248  1
  Bi2+  Bi72  1  0.27834963  0.10601593  0.29029568  1
  Bi2+  Bi73  1  0.24976002  0.11212140  0.79161462  1
  Bi2+  Bi74  1  0.18663159  0.35393825  0.29560691  1
  Bi2+  Bi75  1  0.29240176  0.37397966  0.79638107  1
  Bi2+  Bi76  1  0.15033460  0.63657492  0.28084296  1
  Bi2+  Bi77  1  0.26278772  0.65244842  0.79456827  1
  Bi2+  Bi78  1  0.27854525  0.88772725  0.26954410  1
  Bi2+  Bi79  1  0.24719493  0.90849490  0.78083753  1
  Bi2+  Bi80  1  0.55219407  0.13374946  0.29540168  1
  Bi2+  Bi81  1  0.47890349  0.09047883  0.79876353  1
  Bi2+  Bi82  1  0.49664033  0.38331310  0.27823863  1
  Bi2+  Bi83  1  0.46931294  0.28539863  0.78144097  1
  Bi2+  Bi84  1  0.49851550  0.64526851  0.28504516  1
  Bi2+  Bi85  1  0.51433625  0.61214501  0.81720821  1
  Bi2+  Bi86  1  0.50816885  0.87335638  0.29693524  1
  Bi2+  Bi87  1  0.45777028  0.87688123  0.78135518  1
  Bi2+  Bi88  1  0.77625454  0.09718531  0.27927609  1
  Bi2+  Bi89  1  0.72772914  0.08821622  0.79142236  1
  Bi2+  Bi90  1  0.81572323  0.36346974  0.29908366  1
  Bi2+  Bi91  1  0.70900811  0.35693382  0.79211881  1
  Bi2+  Bi92  1  0.77630132  0.61459954  0.28719131  1
  Bi2+  Bi93  1  0.75693679  0.64579802  0.79041741  1
  Bi2+  Bi94  1  0.81183936  0.90835173  0.28918775  1
  Bi2+  Bi95  1  0.76524348  0.89210272  0.79588726  1
  Bi2+  Bi96  1  0.12452860  -0.02344305  0.21160213  1
  Bi2+  Bi97  1  0.10199096  -0.05062331  0.70566823  1
  Bi2+  Bi98  1  0.12240401  0.23307351  0.21052643  1
  Bi2+  Bi99  1  0.12138821  0.22351033  0.71770528  1
  Bi2+  Bi100  1  0.06327754  0.46623820  0.22858996  1
  Bi2+  Bi101  1  0.15315492  0.50259366  0.76252811  1
  Bi2+  Bi102  1  0.01203472  0.73319051  0.21159146  1
  Bi2+  Bi103  1  0.15383320  0.75863377  0.71096420  1
  Bi2+  Bi104  1  0.42359107  0.00482297  0.22729362  1
  Bi2+  Bi105  1  0.36004734  0.02305588  0.70472168  1
  Bi2+  Bi106  1  0.38222046  0.24620789  0.19690124  1
  Bi2+  Bi107  1  0.32331380  0.22711685  0.69599877  1
  Bi2+  Bi108  1  0.29466314  0.49553372  0.19066864  1
  Bi2+  Bi109  1  0.36389313  0.47375653  0.70771420  1
  Bi2+  Bi110  1  0.33292602  0.75019590  0.20113495  1
  Bi2+  Bi111  1  0.36946710  0.74794380  0.71062840  1
  Bi2+  Bi112  1  0.63219077  -0.01706941  0.21912154  1
  Bi2+  Bi113  1  0.55011066  -0.00162803  0.68439410  1
  Bi2+  Bi114  1  0.67541948  0.25170981  0.21178115  1
  Bi2+  Bi115  1  0.60263141  0.18425801  0.71536130  1
  Bi2+  Bi116  1  0.67099587  0.51316189  0.21546016  1
  Bi2+  Bi117  1  0.63087339  0.45900772  0.70958737  1
  Bi2+  Bi118  1  0.61145741  0.78561378  0.20385493  1
  Bi2+  Bi119  1  0.61952939  0.82706145  0.72142765  1
  Bi2+  Bi120  1  0.92352429  0.01295718  0.21149832  1
  Bi2+  Bi121  1  0.83477091  0.00407925  0.70650557  1
  Bi2+  Bi122  1  0.87752319  0.26173667  0.20884059  1
  Bi2+  Bi123  1  0.86214884  0.24984368  0.71483998  1
  Bi2+  Bi124  1  0.86703764  0.48064366  0.20793777  1
  Bi2+  Bi125  1  0.85943482  0.53386581  0.68115881  1
  Bi2+  Bi126  1  0.81277999  0.76036344  0.21139994  1
  Bi2+  Bi127  1  0.86585704  0.78754657  0.71345146  1
  S2-  S128  1  0.14202653  0.10602682  0.14206230  1
  S2-  S129  1  -0.01555937  0.25377265  0.64937760  1
  S2-  S130  1  0.00332994  0.26543968  0.13783310  1
  S2-  S131  1  0.00344832  0.48697836  0.64482427  1
  S2-  S132  1  -0.10834559  0.63479074  0.14759893  1
  S2-  S133  1  -0.05205357  0.67932532  0.65533328  1
  S2-  S134  1  0.00589130  0.87822131  0.15246900  1
  S2-  S135  1  -0.02494043  0.96928084  0.63961535  1
  S2-  S136  1  0.36736764  0.11000302  0.14369053  1
  S2-  S137  1  0.14691539  0.09897125  0.64732572  1
  S2-  S138  1  0.24427679  0.33242566  0.15450419  1
  S2-  S139  1  0.25617481  0.37788035  0.65636037  1
  S2-  S140  1  0.16562131  0.60807781  0.14659441  1
  S2-  S141  1  0.33018030  0.60900163  0.64980768  1
  S2-  S142  1  0.24164984  0.87223786  0.15549763  1
  S2-  S143  1  0.26693242  0.85615327  0.65278410  1
  S2-  S144  1  0.53688887  0.22194769  0.15406812  1
  S2-  S145  1  0.47754418  0.21181562  0.64769096  1
  S2-  S146  1  0.44563639  0.40731815  0.17618828  1
  S2-  S147  1  0.51824912  0.42156114  0.64371950  1
  S2-  S148  1  0.39335391  0.61914226  0.14468989  1
  S2-  S149  1  0.51135332  0.58192931  0.72270444  1
  S2-  S150  1  0.47125734  0.82589490  0.15365311  1
  S2-  S151  1  0.50589289  0.76441974  0.64755221  1
  S2-  S152  1  0.77221402  0.14920102  0.15118048  1
  S2-  S153  1  0.77406650  0.13495888  0.65336498  1
  S2-  S154  1  0.67800570  0.38074047  0.14518828  1
  S2-  S155  1  0.77942289  0.37001181  0.66544838  1
  S2-  S156  1  0.63984446  0.62617337  0.14448620  1
  S2-  S157  1  0.69199322  0.59089918  0.64708344  1
  S2-  S158  1  0.73442947  0.88738146  0.15023974  1
  S2-  S159  1  0.74157268  0.85745486  0.64684778  1
  S2-  S160  1  0.24557734  -0.01636490  0.35639235  1
  S2-  S161  1  0.12082086  0.04596933  0.84795492  1
  S2-  S162  1  0.19412062  0.21884561  0.35680878  1
  S2-  S163  1  0.03584604  0.25134064  0.85325565  1
  S2-  S164  1  0.20164766  0.50884739  0.34951030  1
  S2-  S165  1  0.05526322  0.49810370  0.85344306  1
  S2-  S166  1  0.13738745  0.76641632  0.34722986  1
  S2-  S167  1  0.14549141  0.73842659  0.85237396  1
  S2-  S168  1  0.40571725  0.11512551  0.35541480  1
  S2-  S169  1  0.36189797  -0.01625570  0.85256020  1
  S2-  S170  1  0.37683947  0.34754703  0.33776460  1
  S2-  S171  1  0.26286179  0.23879653  0.86198337  1
  S2-  S172  1  0.38004125  0.51663876  0.26978330  1
  S2-  S173  1  0.40139122  0.49413431  0.84631175  1
  S2-  S174  1  0.37139113  0.68534217  0.33924433  1
  S2-  S175  1  0.39787342  0.73475230  0.84525049  1
  S2-  S176  1  0.60810143  -0.00846056  0.34851604  1
  S2-  S177  1  0.61253084  0.00817913  0.84983896  1
  S2-  S178  1  0.61206249  0.27006028  0.33838869  1
  S2-  S179  1  0.60929397  0.26092429  0.84789126  1
  S2-  S180  1  0.54447388  0.50459174  0.33906916  1
  S2-  S181  1  0.65496702  0.50753778  0.84085317  1
  S2-  S182  1  0.61549122  0.74866671  0.33276898  1
  S2-  S183  1  0.62948093  0.73499054  0.84407776  1
  S2-  S184  1  1.00184097  0.01058605  0.35699798  1
  S2-  S185  1  0.87157419  0.10663356  0.85767394  1
  S2-  S186  1  0.92743278  0.24722381  0.35538953  1
  S2-  S187  1  0.84679512  0.34339961  0.84360553  1
  S2-  S188  1  0.75788068  0.48921199  0.35952561  1
  S2-  S189  1  0.85810123  0.52107748  0.77805414  1
  S2-  S190  1  0.89213540  0.76720703  0.34683505  1
  S2-  S191  1  0.88198462  0.67120993  0.85721476  1
  S2-  S192  1  -0.00461584  0.12662228  0.46409608  1
  S2-  S193  1  0.01498134  0.11801590  0.96140751  1
  S2-  S194  1  -0.00278552  0.37591701  0.46409470  1
  S2-  S195  1  0.00595764  0.37719356  0.95281318  1
  S2-  S196  1  -0.00256344  0.62065929  0.45731662  1
  S2-  S197  1  0.01081552  0.62231691  0.96407175  1
  S2-  S198  1  -0.00200659  0.87139458  0.45605283  1
  S2-  S199  1  0.01141469  0.86854603  0.94995952  1
  S2-  S200  1  0.24783847  0.12195852  0.46182324  1
  S2-  S201  1  0.26529412  0.11486899  0.96183748  1
  S2-  S202  1  0.24493987  0.37464021  0.45164867  1
  S2-  S203  1  0.25839951  0.37808296  0.95317584  1
  S2-  S204  1  0.24666875  0.62136835  0.45354523  1
  S2-  S205  1  0.25970843  0.62040124  0.95804785  1
  S2-  S206  1  0.24808783  0.87065492  0.45244605  1
  S2-  S207  1  0.26255444  0.86688195  0.95340868  1
  S2-  S208  1  0.49822383  0.12292134  0.45946296  1
  S2-  S209  1  0.50999920  0.12018343  0.95858459  1
  S2-  S210  1  0.49575168  0.37129703  0.44733803  1
  S2-  S211  1  0.51108116  0.36986578  0.94977439  1
  S2-  S212  1  0.49763881  0.62165574  0.43938968  1
  S2-  S213  1  0.51248144  0.62347016  0.95998921  1
  S2-  S214  1  0.49393001  0.87768096  0.45332627  1
  S2-  S215  1  0.51169658  0.86815277  0.95357813  1
  S2-  S216  1  0.75008762  0.12561780  0.44666331  1
  S2-  S217  1  0.75435053  0.12072014  0.95280920  1
  S2-  S218  1  0.74761588  0.36857604  0.45830699  1
  S2-  S219  1  0.76211870  0.37065996  0.95305670  1
  S2-  S220  1  0.75114571  0.62808588  0.45028704  1
  S2-  S221  1  0.76539944  0.61845643  0.95957596  1
  S2-  S222  1  0.75103360  0.87379073  0.44501991  1
  S2-  S223  1  0.76315543  0.87317543  0.95006094  1
  S2-  S224  1  0.13819093  -0.00958803  0.04539273  1
  S2-  S225  1  0.12308488  -0.00612745  0.54120164  1
  S2-  S226  1  0.14150478  0.24612853  0.04004889  1
  S2-  S227  1  0.12683359  0.24890996  0.54963856  1
  S2-  S228  1  0.13759134  0.49255319  0.04715185  1
  S2-  S229  1  0.12877155  0.49792088  0.54442798  1
  S2-  S230  1  0.13539961  0.74978493  0.05223869  1
  S2-  S231  1  0.12137374  0.74567926  0.55128984  1
  S2-  S232  1  0.38566776  -0.01133334  0.05010586  1
  S2-  S233  1  0.37371005  -0.00351955  0.54704214  1
  S2-  S234  1  0.39005838  0.24934304  0.04297221  1
  S2-  S235  1  0.37191073  0.24626974  0.53975476  1
  S2-  S236  1  0.39570521  0.48853108  0.04931867  1
  S2-  S237  1  0.37997282  0.49773650  0.54974723  1
  S2-  S238  1  0.38814938  0.74790288  0.04457968  1
  S2-  S239  1  0.37214746  0.74836594  0.54157293  1
  S2-  S240  1  0.63587358  -0.00115390  0.05065355  1
  S2-  S241  1  0.62347271  -0.00449581  0.54903537  1
  S2-  S242  1  0.63665821  0.24201650  0.04572252  1
  S2-  S243  1  0.62302997  0.24717933  0.54570123  1
  S2-  S244  1  0.63535709  0.49338661  0.04586249  1
  S2-  S245  1  0.61809350  0.49918325  0.53932425  1
  S2-  S246  1  0.64315050  0.74920991  0.04694686  1
  S2-  S247  1  0.62604397  0.75051056  0.53946912  1
  S2-  S248  1  0.88786070  -0.00157993  0.04590968  1
  S2-  S249  1  0.87185788  -0.00479581  0.53621327  1
  S2-  S250  1  0.88390298  0.24243455  0.03669211  1
  S2-  S251  1  0.86891940  0.25025030  0.54936705  1
  S2-  S252  1  0.88827056  0.49311848  0.05691311  1
  S2-  S253  1  0.86776739  0.49793341  0.54232661  1
  S2-  S254  1  0.88647056  0.75128201  0.04838485  1
  S2-  S255  1  0.87350592  0.74973415  0.54590534  1
