# generated using pymatgen
data_La6Ce7Pr13Nd19Sm19(BiS2)64
_symmetry_space_group_name_H-M   'P 1'
_cell_length_a   16.04455854
_cell_length_b   15.98068400
_cell_length_c   27.51284579
_cell_angle_alpha   90.18347026
_cell_angle_beta   89.66482876
_cell_angle_gamma   89.91572647
_symmetry_Int_Tables_number   1
_chemical_formula_structural   La6Ce7Pr13Nd19Sm19(BiS2)64
_chemical_formula_sum   'La6 Ce7 Pr13 Nd19 Sm19 Bi64 S128'
_cell_volume   7054.21205241
_cell_formula_units_Z   1
loop_
 _symmetry_equiv_pos_site_id
 _symmetry_equiv_pos_as_xyz
  1  'x, y, z'
loop_
 _atom_type_symbol
 _atom_type_oxidation_number
  La3+  3.0
  Ce3+  3.0
  Pr3+  3.0
  Nd3+  3.0
  Sm3+  3.0
  Bi2+  2.0
  S2-  -2.0
loop_
 _atom_site_type_symbol
 _atom_site_label
 _atom_site_symmetry_multiplicity
 _atom_site_fract_x
 _atom_site_fract_y
 _atom_site_fract_z
 _atom_site_occupancy
  La3+  La0  1  0.35692843  0.47170617  0.42417755  1
  La3+  La1  1  0.60458460  -0.02574915  0.42330506  1
  La3+  La2  1  0.13853761  0.50930910  0.88956450  1
  La3+  La3  1  0.75220444  0.87277932  0.61267178  1
  La3+  La4  1  0.84650402  0.23182311  0.41999955  1
  La3+  La5  1  0.75923419  0.87388836  0.11233501  1
  Ce3+  Ce6  1  0.01414378  0.89189833  0.05983530  1
  Ce3+  Ce7  1  0.35758249  0.23084001  0.44708327  1
  Ce3+  Ce8  1  0.73270996  0.35659582  0.56281002  1
  Ce3+  Ce9  1  0.63861923  0.51321041  0.93010132  1
  Ce3+  Ce10  1  -0.02317214  0.60782430  0.55722308  1
  Ce3+  Ce11  1  0.76740375  0.13720887  0.06141537  1
  Ce3+  Ce12  1  0.89849954  0.51481720  0.93910565  1
  Pr3+  Pr13  1  0.02423864  0.39341463  0.07194305  1
  Pr3+  Pr14  1  0.14087231  0.26205860  0.92900992  1
  Pr3+  Pr15  1  0.89635969  0.26406497  0.93899608  1
  Pr3+  Pr16  1  0.76736245  0.39027536  0.05294120  1
  Pr3+  Pr17  1  0.39454013  0.76899699  0.93518262  1
  Pr3+  Pr18  1  0.51421730  0.39460303  0.06733891  1
  Pr3+  Pr19  1  0.10702778  0.73127275  0.44000358  1
  Pr3+  Pr20  1  0.10691093  0.47812382  0.43176680  1
  Pr3+  Pr21  1  -0.02691340  0.35634361  0.56078544  1
  Pr3+  Pr22  1  0.89352657  0.76406410  0.94125397  1
  Pr3+  Pr23  1  -0.02979129  0.10370521  0.56430127  1
  Pr3+  Pr24  1  0.47752196  0.35758855  0.57225792  1
  Pr3+  Pr25  1  0.10214967  0.22875974  0.43859459  1
  Nd3+  Nd26  1  0.26647693  0.89037482  0.06182923  1
  Nd3+  Nd27  1  0.01544231  0.14591589  0.07116755  1
  Nd3+  Nd28  1  0.26461041  0.14309982  0.05348565  1
  Nd3+  Nd29  1  0.48626433  0.85282728  0.56846041  1
  Nd3+  Nd30  1  0.48072797  0.10660381  0.56588028  1
  Nd3+  Nd31  1  0.01823264  0.63901091  0.06475875  1
  Nd3+  Nd32  1  0.76582215  0.63932386  0.05614582  1
  Nd3+  Nd33  1  0.14205669  0.01516583  0.93447574  1
  Nd3+  Nd34  1  0.39502674  0.26813438  0.93248673  1
  Nd3+  Nd35  1  0.50783893  0.89676963  0.08160542  1
  Nd3+  Nd36  1  0.85105458  0.73338796  0.44248470  1
  Nd3+  Nd37  1  0.22786707  0.10498849  0.55688890  1
  Nd3+  Nd38  1  0.47428615  0.60162619  0.56749832  1
  Nd3+  Nd39  1  0.39602267  0.52077544  0.91645360  1
  Nd3+  Nd40  1  0.64273504  0.01255963  0.95248815  1
  Nd3+  Nd41  1  0.85751260  0.48110362  0.43030778  1
  Nd3+  Nd42  1  0.35356169  -0.02283732  0.41321313  1
  Nd3+  Nd43  1  0.60472118  0.48348587  0.44235322  1
  Nd3+  Nd44  1  0.39620262  0.01222702  0.93835393  1
  Sm3+  Sm45  1  0.14271300  0.76113131  0.93682703  1
  Sm3+  Sm46  1  0.22093099  0.35802421  0.57078563  1
  Sm3+  Sm47  1  0.51403685  0.63732234  0.05777840  1
  Sm3+  Sm48  1  0.72760316  0.10172962  0.55185053  1
  Sm3+  Sm49  1  0.64163170  0.26392588  0.94447794  1
  Sm3+  Sm50  1  0.26248365  0.39394290  0.04814650  1
  Sm3+  Sm51  1  0.22978360  0.60471181  0.55275080  1
  Sm3+  Sm52  1  0.60406952  0.72740741  0.44091830  1
  Sm3+  Sm53  1  0.85549146  -0.02084739  0.43091909  1
  Sm3+  Sm54  1  0.10172089  -0.01695703  0.43327722  1
  Sm3+  Sm55  1  0.60291283  0.23074637  0.44092334  1
  Sm3+  Sm56  1  0.72849870  0.61443475  0.56375981  1
  Sm3+  Sm57  1  0.89137403  0.01324476  0.94697659  1
  Sm3+  Sm58  1  0.23006248  0.85877136  0.55704176  1
  Sm3+  Sm59  1  0.51359186  0.14532925  0.06695057  1
  Sm3+  Sm60  1  0.26547292  0.63904718  0.04795869  1
  Sm3+  Sm61  1  0.64235331  0.76715007  0.94770037  1
  Sm3+  Sm62  1  0.35733821  0.73546748  0.44203678  1
  Sm3+  Sm63  1  -0.02072716  0.85633626  0.55485649  1
  Bi2+  Bi64  1  0.06790393  0.09604033  0.30697444  1
  Bi2+  Bi65  1  -0.00294301  0.12422741  0.79307697  1
  Bi2+  Bi66  1  -0.00988126  0.34245287  0.30603893  1
  Bi2+  Bi67  1  0.00805980  0.37911460  0.78435114  1
  Bi2+  Bi68  1  -0.03348056  0.63280585  0.30146201  1
  Bi2+  Bi69  1  -0.00721139  0.65942261  0.78945426  1
  Bi2+  Bi70  1  0.01795075  0.87157035  0.23708712  1
  Bi2+  Bi71  1  0.01958933  0.91382790  0.79154719  1
  Bi2+  Bi72  1  0.27468662  0.13995311  0.25789778  1
  Bi2+  Bi73  1  0.26180835  0.07923021  0.79512303  1
  Bi2+  Bi74  1  0.26774297  0.41360952  0.26498987  1
  Bi2+  Bi75  1  0.27247887  0.38813717  0.77188034  1
  Bi2+  Bi76  1  0.17929301  0.61961595  0.29158123  1
  Bi2+  Bi77  1  0.28248286  0.66366266  0.78334676  1
  Bi2+  Bi78  1  0.20986954  0.86643414  0.29537599  1
  Bi2+  Bi79  1  0.20535276  0.89306271  0.82570375  1
  Bi2+  Bi80  1  0.45132154  0.18487087  0.30485149  1
  Bi2+  Bi81  1  0.45110782  0.09725226  0.82037737  1
  Bi2+  Bi82  1  0.52902322  0.39696640  0.32601345  1
  Bi2+  Bi83  1  0.52702725  0.36231937  0.78309994  1
  Bi2+  Bi84  1  0.46132229  0.58271052  0.31139265  1
  Bi2+  Bi85  1  0.55513338  0.64215544  0.79748121  1
  Bi2+  Bi86  1  0.47464809  0.88321433  0.29054070  1
  Bi2+  Bi87  1  0.49952136  0.91347298  0.77905866  1
  Bi2+  Bi88  1  0.77961293  0.10974303  0.28690588  1
  Bi2+  Bi89  1  0.72990035  0.14942647  0.79263148  1
  Bi2+  Bi90  1  0.71655805  0.47940816  0.30972006  1
  Bi2+  Bi91  1  0.74416266  0.37625079  0.78878711  1
  Bi2+  Bi92  1  0.71493694  0.62585191  0.23490346  1
  Bi2+  Bi93  1  0.74708743  0.58020453  0.78728092  1
  Bi2+  Bi94  1  0.73060441  0.83427395  0.29750486  1
  Bi2+  Bi95  1  0.76247044  0.88931581  0.82377919  1
  Bi2+  Bi96  1  0.19100309  -0.09795183  0.18366074  1
  Bi2+  Bi97  1  0.14821260  -0.01103012  0.71473376  1
  Bi2+  Bi98  1  0.12271603  0.24312400  0.19213905  1
  Bi2+  Bi99  1  0.14549621  0.24657478  0.69593259  1
  Bi2+  Bi100  1  0.11665253  0.49209841  0.20987205  1
  Bi2+  Bi101  1  0.10631661  0.53832774  0.67518827  1
  Bi2+  Bi102  1  0.12498244  0.70948329  0.18148830  1
  Bi2+  Bi103  1  0.11762807  0.77066184  0.72908108  1
  Bi2+  Bi104  1  0.37310538  -0.00974989  0.21155970  1
  Bi2+  Bi105  1  0.43266130  -0.01523913  0.67765948  1
  Bi2+  Bi106  1  0.38080411  0.28436992  0.20634368  1
  Bi2+  Bi107  1  0.39014533  0.16912363  0.71859233  1
  Bi2+  Bi108  1  0.38464192  0.52543458  0.20068193  1
  Bi2+  Bi109  1  0.40394924  0.58471253  0.70917365  1
  Bi2+  Bi110  1  0.34611954  0.70563959  0.25226081  1
  Bi2+  Bi111  1  0.32723378  0.84173967  0.73238093  1
  Bi2+  Bi112  1  0.59950721  -0.01414009  0.22173449  1
  Bi2+  Bi113  1  0.58254976  0.09825728  0.72679709  1
  Bi2+  Bi114  1  0.63316267  0.23359511  0.26233058  1
  Bi2+  Bi115  1  0.64694934  0.28520267  0.68890217  1
  Bi2+  Bi116  1  0.56000385  0.39928486  0.21122157  1
  Bi2+  Bi117  1  0.65083808  0.48436350  0.70115483  1
  Bi2+  Bi118  1  0.54201257  0.71897398  0.23075740  1
  Bi2+  Bi119  1  0.58458624  0.75207300  0.70861593  1
  Bi2+  Bi120  1  0.90332029  0.04982703  0.20154280  1
  Bi2+  Bi121  1  0.88771450  0.01007638  0.70338066  1
  Bi2+  Bi122  1  0.82662660  0.29896501  0.20422601  1
  Bi2+  Bi123  1  0.83956968  0.23340042  0.71017057  1
  Bi2+  Bi124  1  0.86192424  0.49186790  0.22099002  1
  Bi2+  Bi125  1  0.85930086  0.48288486  0.71092893  1
  Bi2+  Bi126  1  0.92763872  0.70443906  0.20217737  1
  Bi2+  Bi127  1  0.85794925  0.73964643  0.71373676  1
  S2-  S128  1  0.05191790  0.08834805  0.16529014  1
  S2-  S129  1  -0.02035522  0.14991425  0.66225303  1
  S2-  S130  1  -0.01661580  0.27760125  0.14768877  1
  S2-  S131  1  0.08273652  0.37206331  0.63914723  1
  S2-  S132  1  -0.00387408  0.52436971  0.14238582  1
  S2-  S133  1  -0.05371652  0.61261848  0.65369720  1
  S2-  S134  1  -0.06930700  0.89637192  0.14691465  1
  S2-  S135  1  -0.07281883  0.86426665  0.64829269  1
  S2-  S136  1  0.27154222  0.16509496  0.15145925  1
  S2-  S137  1  0.21999484  0.11714402  0.65553223  1
  S2-  S138  1  0.17918583  0.38011501  0.13629230  1
  S2-  S139  1  0.27423615  0.34397059  0.66753884  1
  S2-  S140  1  0.26721081  0.62696779  0.14602660  1
  S2-  S141  1  0.25318995  0.59944206  0.65014130  1
  S2-  S142  1  0.36454296  0.86656784  0.14275177  1
  S2-  S143  1  0.20127457  0.85039573  0.65305846  1
  S2-  S144  1  0.50439325  0.04623235  0.14657190  1
  S2-  S145  1  0.48569348  0.22764528  0.64267977  1
  S2-  S146  1  0.51444061  0.27005252  0.14010980  1
  S2-  S147  1  0.47772446  0.48454788  0.64561551  1
  S2-  S148  1  0.52244071  0.53016705  0.13600698  1
  S2-  S149  1  0.46065831  0.71553019  0.64575110  1
  S2-  S150  1  0.59707695  0.84385093  0.16208989  1
  S2-  S151  1  0.58674720  0.88770322  0.64957311  1
  S2-  S152  1  0.77205050  0.15183800  0.15864315  1
  S2-  S153  1  0.76908857  0.04670542  0.64205941  1
  S2-  S154  1  0.74910125  0.41997387  0.15084412  1
  S2-  S155  1  0.85095246  0.35764126  0.63708902  1
  S2-  S156  1  0.77501032  0.70519860  0.14823040  1
  S2-  S157  1  0.72917426  0.70473500  0.65012162  1
  S2-  S158  1  0.75928273  0.93558997  0.21177313  1
  S2-  S159  1  0.76664790  0.88598260  0.72723299  1
  S2-  S160  1  0.21136463  0.00407448  0.35248553  1
  S2-  S161  1  0.12402597  0.12881770  0.85790502  1
  S2-  S162  1  0.12288451  0.25962890  0.33966842  1
  S2-  S163  1  0.14491834  0.34677289  0.84016086  1
  S2-  S164  1  -0.00787610  0.49095243  0.35462600  1
  S2-  S165  1  0.13051475  0.49325864  0.76304151  1
  S2-  S166  1  0.08973680  0.75302133  0.34155699  1
  S2-  S167  1  0.13115874  0.67563410  0.85078457  1
  S2-  S168  1  0.48313296  0.02677469  0.35131131  1
  S2-  S169  1  0.41688661  -0.10320888  0.86407188  1
  S2-  S170  1  0.37680463  0.31793775  0.36379874  1
  S2-  S171  1  0.39098357  0.31400873  0.83543662  1
  S2-  S172  1  0.22567328  0.48437660  0.35434098  1
  S2-  S173  1  0.29152045  0.50791458  0.83589260  1
  S2-  S174  1  0.34618629  0.82413317  0.35810538  1
  S2-  S175  1  0.40658778  0.67284991  0.84998670  1
  S2-  S176  1  0.75012379  -0.01678887  0.35044733  1
  S2-  S177  1  0.66331046  0.01678337  0.85325614  1
  S2-  S178  1  0.69420598  0.21138559  0.35706116  1
  S2-  S179  1  0.63014032  0.26385065  0.84705031  1
  S2-  S180  1  0.61048388  0.59978124  0.36620250  1
  S2-  S181  1  0.53431141  0.49308030  0.85228768  1
  S2-  S182  1  0.59632877  0.82406558  0.35720786  1
  S2-  S183  1  0.64325600  0.77813724  0.84987171  1
  S2-  S184  1  0.98715805  -0.01854579  0.35661140  1
  S2-  S185  1  0.89674551  0.00689179  0.84863623  1
  S2-  S186  1  0.92720495  0.18327073  0.32853908  1
  S2-  S187  1  0.92726561  0.25401571  0.84036570  1
  S2-  S188  1  0.83446158  0.37220140  0.35139637  1
  S2-  S189  1  0.96853551  0.50853839  0.85009351  1
  S2-  S190  1  0.83238450  0.73251867  0.34317620  1
  S2-  S191  1  0.88601015  0.75771951  0.84090198  1
  S2-  S192  1  -0.02457097  0.10636501  0.45674888  1
  S2-  S193  1  0.01437829  0.13521188  0.96144888  1
  S2-  S194  1  -0.02299642  0.35366457  0.45461628  1
  S2-  S195  1  0.02080919  0.39052999  0.95358928  1
  S2-  S196  1  -0.02004404  0.60895381  0.45357278  1
  S2-  S197  1  0.01924343  0.64059302  0.95755295  1
  S2-  S198  1  -0.01940436  0.85514559  0.45305187  1
  S2-  S199  1  0.01946292  0.88997471  0.95193652  1
  S2-  S200  1  0.23247563  0.10461439  0.45313549  1
  S2-  S201  1  0.27291512  0.13895250  0.94843002  1
  S2-  S202  1  0.22757177  0.35242756  0.46145179  1
  S2-  S203  1  0.26830459  0.39193149  0.94598129  1
  S2-  S204  1  0.23503379  0.60965545  0.44991827  1
  S2-  S205  1  0.26646360  0.63933627  0.94643815  1
  S2-  S206  1  0.22720157  0.86195117  0.45535148  1
  S2-  S207  1  0.26358310  0.89048030  0.95778683  1
  S2-  S208  1  0.47926286  0.10800460  0.46039154  1
  S2-  S209  1  0.51808516  0.14103992  0.95984680  1
  S2-  S210  1  0.48457322  0.35600582  0.46558200  1
  S2-  S211  1  0.51844253  0.38715987  0.95727958  1
  S2-  S212  1  0.47041402  0.60498315  0.45937722  1
  S2-  S213  1  0.52062721  0.64114424  0.95530340  1
  S2-  S214  1  0.47568279  0.85766342  0.46027561  1
  S2-  S215  1  0.52153027  0.88958608  0.96873837  1
  S2-  S216  1  0.72776278  0.10308610  0.45243361  1
  S2-  S217  1  0.76802694  0.14021497  0.95432295  1
  S2-  S218  1  0.72511052  0.35823953  0.45742051  1
  S2-  S219  1  0.76722537  0.38877190  0.94571967  1
  S2-  S220  1  0.73342862  0.60626210  0.46039824  1
  S2-  S221  1  0.76550254  0.63880964  0.94973052  1
  S2-  S222  1  0.72844289  0.85260929  0.45155110  1
  S2-  S223  1  0.76820745  0.88920908  0.95447500  1
  S2-  S224  1  0.14112989  0.01605332  0.04370236  1
  S2-  S225  1  0.10160709  -0.01919216  0.54532431  1
  S2-  S226  1  0.14054630  0.26412221  0.03639096  1
  S2-  S227  1  0.10062586  0.22712801  0.54517510  1
  S2-  S228  1  0.14311904  0.51941323  0.04205140  1
  S2-  S229  1  0.10322982  0.48563039  0.53867550  1
  S2-  S230  1  0.14124492  0.76575160  0.04243457  1
  S2-  S231  1  0.10593312  0.73281696  0.54745143  1
  S2-  S232  1  0.38884264  0.01919218  0.04311142  1
  S2-  S233  1  0.35445561  -0.01976614  0.55221876  1
  S2-  S234  1  0.38750520  0.26843819  0.03974684  1
  S2-  S235  1  0.34771563  0.23318934  0.55052181  1
  S2-  S236  1  0.38782873  0.51579251  0.03630657  1
  S2-  S237  1  0.34620498  0.47656103  0.54245391  1
  S2-  S238  1  0.39276046  0.75977549  0.04201477  1
  S2-  S239  1  0.34870870  0.73356604  0.54416005  1
  S2-  S240  1  0.64909270  0.00777471  0.05790625  1
  S2-  S241  1  0.60299539  -0.01470599  0.54296280  1
  S2-  S242  1  0.64322103  0.26402505  0.04684763  1
  S2-  S243  1  0.60907577  0.23080792  0.54372510  1
  S2-  S244  1  0.64228898  0.51616778  0.03639739  1
  S2-  S245  1  0.61006377  0.48420057  0.54774445  1
  S2-  S246  1  0.63881661  0.76144328  0.05109850  1
  S2-  S247  1  0.59960143  0.72378515  0.54377822  1
  S2-  S248  1  0.89248875  0.01775543  0.04978206  1
  S2-  S249  1  0.85345635  -0.02481802  0.53763228  1
  S2-  S250  1  0.89065270  0.26553595  0.04343921  1
  S2-  S251  1  0.84982656  0.22754153  0.53804087  1
  S2-  S252  1  0.89133180  0.51559260  0.04237844  1
  S2-  S253  1  0.85068627  0.48828356  0.53990900  1
  S2-  S254  1  0.89025806  0.76510329  0.04658174  1
  S2-  S255  1  0.85280625  0.73643374  0.54712840  1
