# generated using pymatgen
data_La6Ce7Pr13Nd19Sm19(BiS2)64
_symmetry_space_group_name_H-M   'P 1'
_cell_length_a   16.09243471
_cell_length_b   16.01330422
_cell_length_c   27.52458879
_cell_angle_alpha   90.12195375
_cell_angle_beta   89.95364477
_cell_angle_gamma   89.95844124
_symmetry_Int_Tables_number   1
_chemical_formula_structural   La6Ce7Pr13Nd19Sm19(BiS2)64
_chemical_formula_sum   'La6 Ce7 Pr13 Nd19 Sm19 Bi64 S128'
_cell_volume   7092.87504478
_cell_formula_units_Z   1
loop_
 _symmetry_equiv_pos_site_id
 _symmetry_equiv_pos_as_xyz
  1  'x, y, z'
loop_
 _atom_type_symbol
 _atom_type_oxidation_number
  La3+  3.0
  Ce3+  3.0
  Pr3+  3.0
  Nd3+  3.0
  Sm3+  3.0
  Bi2+  2.0
  S2-  -2.0
loop_
 _atom_site_type_symbol
 _atom_site_label
 _atom_site_symmetry_multiplicity
 _atom_site_fract_x
 _atom_site_fract_y
 _atom_site_fract_z
 _atom_site_occupancy
  La3+  La0  1  0.75202594  0.38098683  0.60958763  1
  La3+  La1  1  0.89592454  0.49845641  0.91482254  1
  La3+  La2  1  0.87838394  0.74604800  0.39568447  1
  La3+  La3  1  0.26417097  0.36969169  0.07657541  1
  La3+  La4  1  0.25918719  0.64275137  0.56990588  1
  La3+  La5  1  0.63776995  -0.01903433  0.92838184  1
  Ce3+  Ce6  1  0.88986923  0.73470976  0.94509073  1
  Ce3+  Ce7  1  0.75905113  0.88431911  0.55101198  1
  Ce3+  Ce8  1  0.50682996  0.61215893  0.05158032  1
  Ce3+  Ce9  1  0.00883643  0.11267470  0.05990821  1
  Ce3+  Ce10  1  0.00416442  0.63608097  0.55873818  1
  Ce3+  Ce11  1  0.62952635  0.75868933  0.42859128  1
  Ce3+  Ce12  1  0.37866809  0.26240284  0.44761480  1
  Pr3+  Pr13  1  0.01207249  0.60305621  0.07211315  1
  Pr3+  Pr14  1  0.88715211  0.24067679  0.93586095  1
  Pr3+  Pr15  1  0.00717679  0.38370622  0.56465843  1
  Pr3+  Pr16  1  0.13740347  -0.01364176  0.95040274  1
  Pr3+  Pr17  1  0.76145635  0.86215102  0.06402328  1
  Pr3+  Pr18  1  0.51169341  0.13889579  0.55877108  1
  Pr3+  Pr19  1  0.51054980  0.35692862  0.07276283  1
  Pr3+  Pr20  1  0.63225488  0.26536780  0.43162143  1
  Pr3+  Pr21  1  0.13831940  0.23908666  0.93815395  1
  Pr3+  Pr22  1  0.50648349  0.38643557  0.56196498  1
  Pr3+  Pr23  1  0.88413435  0.00496657  0.42606623  1
  Pr3+  Pr24  1  0.25749209  0.88630373  0.57048084  1
  Pr3+  Pr25  1  0.13424494  0.76226261  0.41859900  1
  Nd3+  Nd26  1  0.88411921  0.51001629  0.43995351  1
  Nd3+  Nd27  1  0.25332157  0.39132311  0.57592028  1
  Nd3+  Nd28  1  0.63434296  0.48454963  0.94474874  1
  Nd3+  Nd29  1  0.27245238  0.61835276  0.07180087  1
  Nd3+  Nd30  1  0.63109425  0.00893069  0.43461394  1
  Nd3+  Nd31  1  0.76410903  0.36435949  0.05638327  1
  Nd3+  Nd32  1  0.38364671  0.76015791  0.43527628  1
  Nd3+  Nd33  1  0.51044301  0.11219881  0.06886820  1
  Nd3+  Nd34  1  0.75838888  0.63125819  0.55915732  1
  Nd3+  Nd35  1  0.25624302  0.13125643  0.56966953  1
  Nd3+  Nd36  1  0.38114261  0.00975003  0.44438678  1
  Nd3+  Nd37  1  0.88603866  0.26276618  0.43143822  1
  Nd3+  Nd38  1  0.01408645  0.35880445  0.06392074  1
  Nd3+  Nd39  1  0.88856554  -0.01509054  0.94107742  1
  Nd3+  Nd40  1  0.38447193  0.74003900  0.93142107  1
  Nd3+  Nd41  1  0.63592412  0.73469804  0.94712782  1
  Nd3+  Nd42  1  0.51156910  0.86605170  0.06503512  1
  Nd3+  Nd43  1  0.26137731  0.11513667  0.06315079  1
  Nd3+  Nd44  1  0.39009770  0.23337657  0.93566104  1
  Sm3+  Sm45  1  0.13450880  0.00703731  0.44047792  1
  Sm3+  Sm46  1  0.14644796  0.48908635  0.93892482  1
  Sm3+  Sm47  1  0.38355058  0.47859165  0.93272639  1
  Sm3+  Sm48  1  0.00378491  0.88369458  0.54939728  1
  Sm3+  Sm49  1  0.63498982  0.50842415  0.44436857  1
  Sm3+  Sm50  1  0.01083387  0.85925841  0.06199216  1
  Sm3+  Sm51  1  0.00541561  0.13570296  0.54892202  1
  Sm3+  Sm52  1  0.38791588  -0.01319050  0.93586476  1
  Sm3+  Sm53  1  0.51462513  0.88506916  0.56121158  1
  Sm3+  Sm54  1  0.76383751  0.60953895  0.05673491  1
  Sm3+  Sm55  1  0.63501417  0.23741647  0.94313698  1
  Sm3+  Sm56  1  0.75978537  0.14163209  0.54597290  1
  Sm3+  Sm57  1  0.76069042  0.11200217  0.05347417  1
  Sm3+  Sm58  1  0.13262933  0.51247458  0.44445009  1
  Sm3+  Sm59  1  0.51127711  0.63628349  0.55294152  1
  Sm3+  Sm60  1  0.37824425  0.50928396  0.44345061  1
  Sm3+  Sm61  1  0.13593199  0.26264209  0.44390757  1
  Sm3+  Sm62  1  0.26398082  0.86191688  0.06505030  1
  Sm3+  Sm63  1  0.13922832  0.73429301  0.95105318  1
  Bi2+  Bi64  1  -0.03751273  0.09014356  0.31220998  1
  Bi2+  Bi65  1  0.02389503  0.06954305  0.74218987  1
  Bi2+  Bi66  1  -0.03382219  0.42362999  0.28739690  1
  Bi2+  Bi67  1  -0.00220091  0.37099235  0.79967931  1
  Bi2+  Bi68  1  0.05361275  0.61502654  0.26935666  1
  Bi2+  Bi69  1  0.02060559  0.64252104  0.79650045  1
  Bi2+  Bi70  1  0.03188315  0.88927496  0.28357252  1
  Bi2+  Bi71  1  -0.02769636  0.91569615  0.80674917  1
  Bi2+  Bi72  1  0.26132868  0.08923784  0.31267603  1
  Bi2+  Bi73  1  0.17122819  0.12828664  0.81016739  1
  Bi2+  Bi74  1  0.24933965  0.42041022  0.31854302  1
  Bi2+  Bi75  1  0.29489394  0.32299394  0.78981378  1
  Bi2+  Bi76  1  0.29535366  0.64537310  0.27504264  1
  Bi2+  Bi77  1  0.24021743  0.60481390  0.78519241  1
  Bi2+  Bi78  1  0.27657004  0.88085101  0.29225964  1
  Bi2+  Bi79  1  0.23174652  0.84537062  0.80143238  1
  Bi2+  Bi80  1  0.42391659  0.10529543  0.25020301  1
  Bi2+  Bi81  1  0.50905123  0.14061332  0.79843512  1
  Bi2+  Bi82  1  0.49952044  0.35973504  0.29889647  1
  Bi2+  Bi83  1  0.48682524  0.45947888  0.78961636  1
  Bi2+  Bi84  1  0.49329467  0.67435547  0.27257763  1
  Bi2+  Bi85  1  0.42679187  0.64600562  0.81451438  1
  Bi2+  Bi86  1  0.51351321  0.91496178  0.29497392  1
  Bi2+  Bi87  1  0.41715228  0.86871496  0.75920519  1
  Bi2+  Bi88  1  0.78945795  0.11897680  0.26268246  1
  Bi2+  Bi89  1  0.75377013  0.08048462  0.74322288  1
  Bi2+  Bi90  1  0.70622280  0.36778716  0.29857582  1
  Bi2+  Bi91  1  0.74052064  0.35713253  0.81236979  1
  Bi2+  Bi92  1  0.75812221  0.60804165  0.27940740  1
  Bi2+  Bi93  1  0.62238705  0.66294938  0.79514614  1
  Bi2+  Bi94  1  0.75869235  0.87532189  0.28054302  1
  Bi2+  Bi95  1  0.72873998  0.91858157  0.80618926  1
  Bi2+  Bi96  1  0.15675083  0.02682982  0.21740178  1
  Bi2+  Bi97  1  0.16182151  -0.08054818  0.70610833  1
  Bi2+  Bi98  1  0.11289996  0.20206047  0.27387415  1
  Bi2+  Bi99  1  0.12767644  0.22721267  0.70409587  1
  Bi2+  Bi100  1  0.11840732  0.43466914  0.20950314  1
  Bi2+  Bi101  1  0.17897806  0.44955956  0.72717540  1
  Bi2+  Bi102  1  0.16024923  0.76043315  0.22286031  1
  Bi2+  Bi103  1  0.04742852  0.74658141  0.70264712  1
  Bi2+  Bi104  1  0.33117573  -0.04055939  0.18910406  1
  Bi2+  Bi105  1  0.33506591  0.05985105  0.76148916  1
  Bi2+  Bi106  1  0.31059199  0.25594004  0.21654716  1
  Bi2+  Bi107  1  0.32148729  0.21575466  0.68788557  1
  Bi2+  Bi108  1  0.36842996  0.50320858  0.20745583  1
  Bi2+  Bi109  1  0.37756324  0.41342310  0.69102125  1
  Bi2+  Bi110  1  0.42841500  0.78107664  0.18044363  1
  Bi2+  Bi111  1  0.36199561  0.69301085  0.70831809  1
  Bi2+  Bi112  1  0.63739142  0.00079348  0.20618528  1
  Bi2+  Bi113  1  0.60167289  -0.00617990  0.69431084  1
  Bi2+  Bi114  1  0.65929495  0.24269329  0.20458237  1
  Bi2+  Bi115  1  0.51773278  0.27706785  0.71777806  1
  Bi2+  Bi116  1  0.59356143  0.50708674  0.24113313  1
  Bi2+  Bi117  1  0.60216198  0.53740034  0.70836154  1
  Bi2+  Bi118  1  0.61761050  0.78645868  0.20875423  1
  Bi2+  Bi119  1  0.58825566  0.79764511  0.71249479  1
  Bi2+  Bi120  1  0.93980814  0.04658670  0.19749999  1
  Bi2+  Bi121  1  0.85668427  -0.05495923  0.68934312  1
  Bi2+  Bi122  1  0.92271089  0.25709984  0.22685544  1
  Bi2+  Bi123  1  0.87153278  0.23714018  0.70444346  1
  Bi2+  Bi124  1  0.84931532  0.48892201  0.20292552  1
  Bi2+  Bi125  1  0.87398620  0.51252215  0.71110645  1
  Bi2+  Bi126  1  0.89170177  0.75562205  0.19353843  1
  Bi2+  Bi127  1  0.86753721  0.77873816  0.75405956  1
  S2-  S128  1  -0.00601060  0.19237557  0.14552047  1
  S2-  S129  1  -0.00093541  0.14849358  0.64601290  1
  S2-  S130  1  -0.00687631  0.46521697  0.14080550  1
  S2-  S131  1  -0.08612274  0.38014816  0.65134719  1
  S2-  S132  1  0.02358179  0.67770514  0.16573654  1
  S2-  S133  1  -0.00364794  0.60018446  0.65616687  1
  S2-  S134  1  -0.01985360  0.88720932  0.15654181  1
  S2-  S135  1  0.01140314  0.89930493  0.64743682  1
  S2-  S136  1  0.33816135  0.13287323  0.15131692  1
  S2-  S137  1  0.24907588  0.01332674  0.64309384  1
  S2-  S138  1  0.17640093  0.30583354  0.15904159  1
  S2-  S139  1  0.12367680  0.36803681  0.64415610  1
  S2-  S140  1  0.22985074  0.51701094  0.14875571  1
  S2-  S141  1  0.26264262  0.52452057  0.64548102  1
  S2-  S142  1  0.26256976  0.75370336  0.14152386  1
  S2-  S143  1  0.25676417  0.76581885  0.64536870  1
  S2-  S144  1  0.53900629  0.22775117  0.14514326  1
  S2-  S145  1  0.52996045  0.13144682  0.65760248  1
  S2-  S146  1  0.39334077  0.37153535  0.15028785  1
  S2-  S147  1  0.58904915  0.38407095  0.64894596  1
  S2-  S148  1  0.43082534  0.61588912  0.13688512  1
  S2-  S149  1  0.50105303  0.62611409  0.65047465  1
  S2-  S150  1  0.52442322  0.98480622  0.13891692  1
  S2-  S151  1  0.46764563  0.88838565  0.65528362  1
  S2-  S152  1  0.74049365  0.11163596  0.15083273  1
  S2-  S153  1  0.75885383  0.20383313  0.63620572  1
  S2-  S154  1  0.76015837  0.36451821  0.15518322  1
  S2-  S155  1  0.75552849  0.36391006  0.71907484  1
  S2-  S156  1  0.78913093  0.62661963  0.15259610  1
  S2-  S157  1  0.75369978  0.56218618  0.65133920  1
  S2-  S158  1  0.75809513  0.86847669  0.16390330  1
  S2-  S159  1  0.70723316  0.86727653  0.64400780  1
  S2-  S160  1  0.14008442  -0.08255044  0.35693013  1
  S2-  S161  1  0.13461667  -0.03192566  0.85169731  1
  S2-  S162  1  0.12806907  0.31298910  0.35129407  1
  S2-  S163  1  0.13720032  0.29661299  0.84324670  1
  S2-  S164  1  0.13766152  0.54233666  0.34812603  1
  S2-  S165  1  0.04374019  0.50246685  0.85802518  1
  S2-  S166  1  0.02497160  0.73794531  0.33729743  1
  S2-  S167  1  0.13966454  0.72942269  0.85290291  1
  S2-  S168  1  0.42877093  0.03548131  0.34975922  1
  S2-  S169  1  0.37455169  0.10624548  0.86251818  1
  S2-  S170  1  0.36748501  0.30007889  0.35262644  1
  S2-  S171  1  0.41232853  0.35135808  0.86038482  1
  S2-  S172  1  0.36822434  0.52699863  0.34629014  1
  S2-  S173  1  0.26126891  0.50530508  0.86331965  1
  S2-  S174  1  0.27494082  0.74847517  0.35769907  1
  S2-  S175  1  0.37874791  0.86740030  0.86258380  1
  S2-  S176  1  0.65155340  -0.01828250  0.33739570  1
  S2-  S177  1  0.58101670  0.00134557  0.83464348  1
  S2-  S178  1  0.60315470  0.23807431  0.33380000  1
  S2-  S179  1  0.62832211  0.22521736  0.84663406  1
  S2-  S180  1  0.60491395  0.48816159  0.34860307  1
  S2-  S181  1  0.63988757  0.48761708  0.84636695  1
  S2-  S182  1  0.50241439  0.77292529  0.35884042  1
  S2-  S183  1  0.63533367  0.80455406  0.85803736  1
  S2-  S184  1  0.88087160  -0.09827412  0.34293411  1
  S2-  S185  1  0.86067880  0.02518272  0.84712078  1
  S2-  S186  1  0.86456378  0.31799024  0.33828764  1
  S2-  S187  1  0.88885126  0.26412650  0.83683586  1
  S2-  S188  1  0.86932779  0.57963055  0.34871186  1
  S2-  S189  1  0.85505757  0.47418994  0.81401770  1
  S2-  S190  1  0.72337187  0.74203216  0.34404507  1
  S2-  S191  1  0.88617631  0.66890471  0.85725366  1
  S2-  S192  1  0.01227284  0.13539446  0.44471257  1
  S2-  S193  1  0.01083624  0.11264720  0.95160418  1
  S2-  S194  1  0.01037657  0.38573429  0.45424680  1
  S2-  S195  1  0.01273839  0.36429399  0.95611102  1
  S2-  S196  1  0.00753405  0.63787741  0.45244628  1
  S2-  S197  1  0.01663486  0.61391551  0.96304833  1
  S2-  S198  1  0.00664483  0.88245635  0.44878562  1
  S2-  S199  1  0.01314969  0.85930689  0.95710803  1
  S2-  S200  1  0.25496802  0.13385648  0.45942690  1
  S2-  S201  1  0.26036661  0.11095141  0.95933976  1
  S2-  S202  1  0.25468161  0.38823628  0.46501186  1
  S2-  S203  1  0.26329706  0.35874006  0.96052822  1
  S2-  S204  1  0.25708817  0.63365346  0.46010793  1
  S2-  S205  1  0.26571622  0.61800872  0.96287614  1
  S2-  S206  1  0.25924799  0.88632888  0.46165652  1
  S2-  S207  1  0.25938377  0.86154264  0.96214113  1
  S2-  S208  1  0.50773523  0.13734603  0.45273586  1
  S2-  S209  1  0.51582968  0.10968320  0.95912007  1
  S2-  S210  1  0.50528285  0.38784761  0.45541167  1
  S2-  S211  1  0.51543732  0.35982033  0.96295822  1
  S2-  S212  1  0.50706289  0.62826310  0.45032742  1
  S2-  S213  1  0.50868893  0.61054018  0.94685652  1
  S2-  S214  1  0.50850732  0.88910705  0.45745972  1
  S2-  S215  1  0.51179080  0.86169656  0.96016934  1
  S2-  S216  1  0.75950042  0.13572612  0.43924669  1
  S2-  S217  1  0.76134724  0.11344687  0.95035588  1
  S2-  S218  1  0.75926924  0.38694868  0.44369567  1
  S2-  S219  1  0.76127387  0.36382509  0.94996703  1
  S2-  S220  1  0.75665382  0.63338335  0.45402746  1
  S2-  S221  1  0.75979519  0.60990315  0.95329591  1
  S2-  S222  1  0.75736100  0.88279841  0.44760301  1
  S2-  S223  1  0.76527169  0.85885044  0.95753954  1
  S2-  S224  1  0.13618237  -0.01476077  0.05688193  1
  S2-  S225  1  0.12653735  0.01032641  0.54232730  1
  S2-  S226  1  0.13598615  0.23442663  0.04405095  1
  S2-  S227  1  0.13453485  0.25346048  0.54584883  1
  S2-  S228  1  0.13827884  0.48527151  0.04249259  1
  S2-  S229  1  0.13069333  0.51452355  0.54651497  1
  S2-  S230  1  0.13447308  0.73839986  0.05228298  1
  S2-  S231  1  0.12641106  0.76319675  0.54479268  1
  S2-  S232  1  0.38261400  -0.01317599  0.04202950  1
  S2-  S233  1  0.38886311  0.01044719  0.54870845  1
  S2-  S234  1  0.38656630  0.23512612  0.04254045  1
  S2-  S235  1  0.37865253  0.26091580  0.55299122  1
  S2-  S236  1  0.38961414  0.48539365  0.03752342  1
  S2-  S237  1  0.38630313  0.51287059  0.54640786  1
  S2-  S238  1  0.38990189  0.74479872  0.03739020  1
  S2-  S239  1  0.39243264  0.76330959  0.54317248  1
  S2-  S240  1  0.64138553  -0.01219645  0.03925105  1
  S2-  S241  1  0.63624982  0.01412857  0.54123395  1
  S2-  S242  1  0.64195126  0.23673291  0.04495769  1
  S2-  S243  1  0.63600977  0.26429547  0.53828937  1
  S2-  S244  1  0.63554742  0.48809173  0.05217377  1
  S2-  S245  1  0.63367812  0.50873137  0.54598868  1
  S2-  S246  1  0.63618703  0.73559279  0.05294758  1
  S2-  S247  1  0.63297473  0.75848952  0.53978380  1
  S2-  S248  1  0.88660689  -0.01340365  0.04706137  1
  S2-  S249  1  0.88152799  0.01324816  0.53592164  1
  S2-  S250  1  0.88351181  0.23727162  0.04237135  1
  S2-  S251  1  0.88505711  0.25928099  0.53569380  1
  S2-  S252  1  0.88406909  0.48766764  0.03867536  1
  S2-  S253  1  0.88025390  0.50596964  0.54421655  1
  S2-  S254  1  0.88722471  0.73598377  0.05011673  1
  S2-  S255  1  0.88069174  0.76023521  0.55693803  1
