# generated using pymatgen
data_La6Ce7Pr13Nd19Sm19(BiS2)64
_symmetry_space_group_name_H-M   'P 1'
_cell_length_a   16.08492987
_cell_length_b   16.06759514
_cell_length_c   27.20671919
_cell_angle_alpha   90.12663970
_cell_angle_beta   89.88293978
_cell_angle_gamma   89.98022876
_symmetry_Int_Tables_number   1
_chemical_formula_structural   La6Ce7Pr13Nd19Sm19(BiS2)64
_chemical_formula_sum   'La6 Ce7 Pr13 Nd19 Sm19 Bi64 S128'
_cell_volume   7031.43930330
_cell_formula_units_Z   1
loop_
 _symmetry_equiv_pos_site_id
 _symmetry_equiv_pos_as_xyz
  1  'x, y, z'
loop_
 _atom_type_symbol
 _atom_type_oxidation_number
  La3+  3.0
  Ce3+  3.0
  Pr3+  3.0
  Nd3+  3.0
  Sm3+  3.0
  Bi2+  2.0
  S2-  -2.0
loop_
 _atom_site_type_symbol
 _atom_site_label
 _atom_site_symmetry_multiplicity
 _atom_site_fract_x
 _atom_site_fract_y
 _atom_site_fract_z
 _atom_site_occupancy
  La3+  La0  1  0.73954341  0.62832237  0.57809403  1
  La3+  La1  1  0.11723862  0.76511876  0.39368927  1
  La3+  La2  1  0.36579272  0.49187200  0.40150656  1
  La3+  La3  1  0.22975297  0.87164129  0.08542010  1
  La3+  La4  1  0.25650873  0.13366595  0.59853561  1
  La3+  La5  1  0.12520256  -0.02197837  0.91953821  1
  Ce3+  Ce6  1  0.49605454  0.88103212  0.55473230  1
  Ce3+  Ce7  1  0.87651178  0.50905361  0.43798762  1
  Ce3+  Ce8  1  0.11275122  0.23547823  0.93349776  1
  Ce3+  Ce9  1  0.00216821  0.87962784  0.56608887  1
  Ce3+  Ce10  1  0.87103643  0.75281248  0.44286653  1
  Ce3+  Ce11  1  0.74144671  0.36000565  0.06964205  1
  Ce3+  Ce12  1  0.12215846  0.00435820  0.44906892  1
  Pr3+  Pr13  1  0.74745259  0.11029480  0.07966248  1
  Pr3+  Pr14  1  0.74699813  0.12451356  0.57018808  1
  Pr3+  Pr15  1  0.62516910  0.50143355  0.42971201  1
  Pr3+  Pr16  1  -0.01027056  0.11265572  0.05238995  1
  Pr3+  Pr17  1  0.49161140  0.36521487  0.06315018  1
  Pr3+  Pr18  1  0.36573331  0.24114383  0.93547946  1
  Pr3+  Pr19  1  0.87509101  0.00202730  0.44186689  1
  Pr3+  Pr20  1  0.86204231  -0.01946618  0.91434274  1
  Pr3+  Pr21  1  0.12303723  0.73204983  0.93661866  1
  Pr3+  Pr22  1  0.63146853  0.00843502  0.42800543  1
  Pr3+  Pr23  1  -0.00679661  0.13600713  0.58478437  1
  Pr3+  Pr24  1  0.23790798  0.11695017  0.05736684  1
  Pr3+  Pr25  1  -0.01630294  0.36636080  0.06414332  1
  Nd3+  Nd26  1  0.86315395  0.23521759  0.93688183  1
  Nd3+  Nd27  1  0.24907445  0.63034268  0.54552843  1
  Nd3+  Nd28  1  0.36425755  -0.01714573  0.94254040  1
  Nd3+  Nd29  1  0.50028646  0.61837473  0.07316938  1
  Nd3+  Nd30  1  0.11793973  0.50276791  0.42974773  1
  Nd3+  Nd31  1  0.61494970  0.73890731  0.93507208  1
  Nd3+  Nd32  1  0.62178066  0.75015698  0.43440439  1
  Nd3+  Nd33  1  0.49708638  0.37785400  0.55437344  1
  Nd3+  Nd34  1  0.88370152  0.24345402  0.43427803  1
  Nd3+  Nd35  1  0.37855677  0.75901234  0.41972316  1
  Nd3+  Nd36  1  -0.00296245  0.38066146  0.56389427  1
  Nd3+  Nd37  1  0.49071256  0.11269931  0.05326723  1
  Nd3+  Nd38  1  0.74721768  0.87567809  0.56748259  1
  Nd3+  Nd39  1  0.37046544  0.00496079  0.43695252  1
  Nd3+  Nd40  1  0.36652913  0.49270822  0.94592191  1
  Nd3+  Nd41  1  0.23488151  0.60620267  0.08839491  1
  Nd3+  Nd42  1  0.49771943  0.12993077  0.55489109  1
  Nd3+  Nd43  1  0.62586183  0.25660271  0.42986237  1
  Nd3+  Nd44  1  0.61628081  -0.01776618  0.93161705  1
  Sm3+  Sm45  1  0.61879900  0.23527078  0.94380704  1
  Sm3+  Sm46  1  0.23882703  0.36594195  0.06003937  1
  Sm3+  Sm47  1  0.12298813  0.25125786  0.44945447  1
  Sm3+  Sm48  1  0.74002770  0.61820786  0.05867502  1
  Sm3+  Sm49  1  0.11569424  0.49051088  0.94454826  1
  Sm3+  Sm50  1  0.00218033  0.63077801  0.55378685  1
  Sm3+  Sm51  1  0.61657256  0.48881376  0.94552722  1
  Sm3+  Sm52  1  0.74934141  0.37842125  0.55099021  1
  Sm3+  Sm53  1  0.36999201  0.25351134  0.43739052  1
  Sm3+  Sm54  1  0.49109016  0.86543395  0.06525705  1
  Sm3+  Sm55  1  0.24946335  0.37899520  0.56021661  1
  Sm3+  Sm56  1  -0.00773307  0.86613637  0.05107730  1
  Sm3+  Sm57  1  0.24963687  0.87811276  0.55557929  1
  Sm3+  Sm58  1  0.86382054  0.48780884  0.94047606  1
  Sm3+  Sm59  1  0.86609290  0.73645492  0.94541362  1
  Sm3+  Sm60  1  0.74045020  0.87018219  0.06299171  1
  Sm3+  Sm61  1  -0.00790999  0.61789255  0.06211552  1
  Sm3+  Sm62  1  0.36218119  0.73507356  0.96155707  1
  Sm3+  Sm63  1  0.49492039  0.62689861  0.55092662  1
  Bi2+  Bi64  1  0.04697776  0.15294023  0.28441955  1
  Bi2+  Bi65  1  0.01662702  0.16914240  0.78394347  1
  Bi2+  Bi66  1  -0.00129902  0.36727414  0.29643593  1
  Bi2+  Bi67  1  0.00373625  0.43309328  0.78830085  1
  Bi2+  Bi68  1  -0.07632882  0.64101099  0.29870356  1
  Bi2+  Bi69  1  0.01913569  0.63551973  0.79033971  1
  Bi2+  Bi70  1  -0.00778950  0.91649941  0.28755172  1
  Bi2+  Bi71  1  -0.03546990  0.82648629  0.79062781  1
  Bi2+  Bi72  1  0.24640160  0.12185943  0.28514085  1
  Bi2+  Bi73  1  0.24971388  0.12862330  0.80023672  1
  Bi2+  Bi74  1  0.22200933  0.38201897  0.23602125  1
  Bi2+  Bi75  1  0.26256676  0.43994405  0.75897229  1
  Bi2+  Bi76  1  0.25523043  0.60534785  0.28902143  1
  Bi2+  Bi77  1  0.28384257  0.61217980  0.81512754  1
  Bi2+  Bi78  1  0.25780548  0.90648583  0.28890034  1
  Bi2+  Bi79  1  0.25286690  0.84593930  0.79488852  1
  Bi2+  Bi80  1  0.43873597  0.09214193  0.30852297  1
  Bi2+  Bi81  1  0.49659773  0.11201836  0.79652205  1
  Bi2+  Bi82  1  0.49864165  0.28329816  0.29378123  1
  Bi2+  Bi83  1  0.53846801  0.44060921  0.77117626  1
  Bi2+  Bi84  1  0.58124052  0.62249374  0.29083613  1
  Bi2+  Bi85  1  0.49609553  0.63373492  0.78948044  1
  Bi2+  Bi86  1  0.56565154  0.85033550  0.26672864  1
  Bi2+  Bi87  1  0.51724263  0.90282024  0.76212304  1
  Bi2+  Bi88  1  0.79714038  0.12357595  0.30959470  1
  Bi2+  Bi89  1  0.74068023  0.14456676  0.79003190  1
  Bi2+  Bi90  1  0.75213325  0.41213120  0.29254290  1
  Bi2+  Bi91  1  0.80887568  0.41979280  0.79710268  1
  Bi2+  Bi92  1  0.74670206  0.63227437  0.35204889  1
  Bi2+  Bi93  1  0.73809066  0.61425851  0.78848447  1
  Bi2+  Bi94  1  0.75484855  0.83812315  0.29897635  1
  Bi2+  Bi95  1  0.71595353  0.87182032  0.79249378  1
  Bi2+  Bi96  1  0.08914712  0.01377467  0.20502699  1
  Bi2+  Bi97  1  0.11935849  -0.04568936  0.71044916  1
  Bi2+  Bi98  1  0.17162419  0.20815446  0.18106269  1
  Bi2+  Bi99  1  0.12359555  0.31266582  0.72116026  1
  Bi2+  Bi100  1  0.04729490  0.47736099  0.20948067  1
  Bi2+  Bi101  1  0.10400185  0.50817862  0.69221948  1
  Bi2+  Bi102  1  0.12860857  0.75361508  0.20786305  1
  Bi2+  Bi103  1  0.16166368  0.69508018  0.71594507  1
  Bi2+  Bi104  1  0.38967002  0.04471841  0.20177606  1
  Bi2+  Bi105  1  0.37387880  -0.01574465  0.69756761  1
  Bi2+  Bi106  1  0.36314645  0.24286761  0.20804775  1
  Bi2+  Bi107  1  0.39120082  0.26656185  0.70995109  1
  Bi2+  Bi108  1  0.40602531  0.46248966  0.21442302  1
  Bi2+  Bi109  1  0.40729074  0.52554148  0.69838329  1
  Bi2+  Bi110  1  0.40144207  0.74458269  0.21497176  1
  Bi2+  Bi111  1  0.37169166  0.72427233  0.71663542  1
  Bi2+  Bi112  1  0.60936467  0.02968598  0.22603432  1
  Bi2+  Bi113  1  0.61691444  0.05296923  0.71066617  1
  Bi2+  Bi114  1  0.66234214  0.21469039  0.24290492  1
  Bi2+  Bi115  1  0.59924184  0.25333516  0.73909608  1
  Bi2+  Bi116  1  0.64828092  0.48920706  0.21174535  1
  Bi2+  Bi117  1  0.68524610  0.49806537  0.69529543  1
  Bi2+  Bi118  1  0.70648765  0.74945238  0.20080110  1
  Bi2+  Bi119  1  0.62464887  0.72402471  0.71464043  1
  Bi2+  Bi120  1  0.84316547  -0.00413917  0.21596809  1
  Bi2+  Bi121  1  0.87517786  0.00598935  0.70589904  1
  Bi2+  Bi122  1  0.88421017  0.25631232  0.19377596  1
  Bi2+  Bi123  1  0.86101593  0.28802921  0.70779569  1
  Bi2+  Bi124  1  0.85083647  0.52547906  0.21597856  1
  Bi2+  Bi125  1  0.89074949  0.48352508  0.68959681  1
  Bi2+  Bi126  1  0.89238534  0.80136870  0.20886488  1
  Bi2+  Bi127  1  0.86936675  0.68125603  0.70978177  1
  S2-  S128  1  -0.09598645  0.11203088  0.14167727  1
  S2-  S129  1  0.02953804  0.08026188  0.68389819  1
  S2-  S130  1  0.04090422  0.31406749  0.15702320  1
  S2-  S131  1  0.00637355  0.28715677  0.64802167  1
  S2-  S132  1  0.06984646  0.61737300  0.14963715  1
  S2-  S133  1  0.01927155  0.65745682  0.65134334  1
  S2-  S134  1  0.06931309  0.87487282  0.13935655  1
  S2-  S135  1  -0.02368266  0.88502465  0.66489114  1
  S2-  S136  1  0.22868959  0.03027848  0.14410926  1
  S2-  S137  1  0.23246338  0.08444626  0.69973445  1
  S2-  S138  1  0.25227860  0.45132661  0.14534478  1
  S2-  S139  1  0.25768528  0.29351522  0.64783300  1
  S2-  S140  1  0.25697530  0.65573717  0.18595953  1
  S2-  S141  1  0.28559306  0.63787074  0.64545765  1
  S2-  S142  1  0.27738993  0.84697045  0.18713028  1
  S2-  S143  1  0.25272168  0.88618878  0.65492262  1
  S2-  S144  1  0.52178292  0.10776381  0.15060236  1
  S2-  S145  1  0.42086927  0.13021657  0.64560236  1
  S2-  S146  1  0.52778375  0.38549600  0.16149284  1
  S2-  S147  1  0.47032517  0.37399647  0.65420953  1
  S2-  S148  1  0.44465804  0.59971227  0.16749782  1
  S2-  S149  1  0.58451791  0.61463864  0.63662552  1
  S2-  S150  1  0.51224279  0.83562557  0.16120189  1
  S2-  S151  1  0.49828326  0.88037557  0.65247078  1
  S2-  S152  1  0.72768505  0.24159175  0.14918449  1
  S2-  S153  1  0.84859802  0.14863147  0.65220483  1
  S2-  S154  1  0.85770629  0.39464672  0.14022556  1
  S2-  S155  1  0.72862616  0.34925556  0.64759053  1
  S2-  S156  1  0.64505036  0.62203350  0.14024314  1
  S2-  S157  1  0.75339971  0.76090737  0.64693457  1
  S2-  S158  1  0.72241918  0.97283861  0.14325728  1
  S2-  S159  1  0.73309600  0.98640263  0.64604642  1
  S2-  S160  1  0.12415783  -0.06495586  0.35627035  1
  S2-  S161  1  0.10404076  0.05763419  0.82902468  1
  S2-  S162  1  0.10538685  0.27393848  0.35047999  1
  S2-  S163  1  0.14500613  0.25751015  0.83768143  1
  S2-  S164  1  0.21363555  0.48572595  0.34631795  1
  S2-  S165  1  0.13226053  0.59689391  0.86818932  1
  S2-  S166  1  0.09900880  0.67696836  0.29966770  1
  S2-  S167  1  0.11948072  0.83537248  0.85216587  1
  S2-  S168  1  0.38616174  -0.06760566  0.34610804  1
  S2-  S169  1  0.29599507  -0.01615186  0.85101802  1
  S2-  S170  1  0.36979257  0.33064749  0.34951815  1
  S2-  S171  1  0.38413069  0.22288971  0.83515327  1
  S2-  S172  1  0.42559502  0.55039502  0.30944490  1
  S2-  S173  1  0.35517160  0.46044566  0.84878496  1
  S2-  S174  1  0.27369578  0.75621777  0.33892612  1
  S2-  S175  1  0.34881022  0.75267072  0.86375826  1
  S2-  S176  1  0.76511852  -0.02610354  0.35976345  1
  S2-  S177  1  0.72355227  0.01039119  0.85299737  1
  S2-  S178  1  0.64098724  0.13922607  0.35547903  1
  S2-  S179  1  0.62721789  0.24076895  0.84604537  1
  S2-  S180  1  0.61536551  0.37846640  0.35481160  1
  S2-  S181  1  0.60808093  0.53645267  0.85166489  1
  S2-  S182  1  0.51803405  0.75225350  0.35167476  1
  S2-  S183  1  0.59107875  0.84988629  0.85881634  1
  S2-  S184  1  0.94023006  0.10630441  0.36630257  1
  S2-  S185  1  0.91424277  -0.02456659  0.81102016  1
  S2-  S186  1  0.85054773  0.29451074  0.33831036  1
  S2-  S187  1  0.88092886  0.20797719  0.83846930  1
  S2-  S188  1  0.98355114  0.50198345  0.35939697  1
  S2-  S189  1  0.87120089  0.56152873  0.85252657  1
  S2-  S190  1  0.94612377  0.79079327  0.35563000  1
  S2-  S191  1  0.83236897  0.79324989  0.85475008  1
  S2-  S192  1  0.00472489  0.12876358  0.47438932  1
  S2-  S193  1  -0.01249278  0.10804416  0.94461773  1
  S2-  S194  1  -0.00111495  0.37524491  0.45902600  1
  S2-  S195  1  -0.01103782  0.36675792  0.94939368  1
  S2-  S196  1  0.00586881  0.63877778  0.45079169  1
  S2-  S197  1  -0.01241385  0.61234940  0.95876160  1
  S2-  S198  1  0.00148571  0.87875512  0.46082464  1
  S2-  S199  1  -0.01246372  0.86010333  0.94871988  1
  S2-  S200  1  0.24681149  0.12997718  0.44210167  1
  S2-  S201  1  0.24251437  0.11552762  0.95088611  1
  S2-  S202  1  0.24505795  0.37652746  0.45649997  1
  S2-  S203  1  0.23937346  0.36678701  0.95457209  1
  S2-  S204  1  0.24889384  0.62915390  0.44167036  1
  S2-  S205  1  0.24290209  0.60867405  0.97292386  1
  S2-  S206  1  0.24858283  0.87594855  0.45211555  1
  S2-  S207  1  0.24362374  0.86003741  0.96667636  1
  S2-  S208  1  0.49572844  0.13173990  0.44980599  1
  S2-  S209  1  0.49116104  0.11170137  0.94729032  1
  S2-  S210  1  0.49231951  0.37963887  0.45118812  1
  S2-  S211  1  0.49468761  0.36392941  0.95326963  1
  S2-  S212  1  0.49278835  0.62026979  0.44718365  1
  S2-  S213  1  0.49377548  0.61534148  0.96153646  1
  S2-  S214  1  0.50294624  0.88462488  0.44961038  1
  S2-  S215  1  0.48555116  0.85943375  0.96099161  1
  S2-  S216  1  0.75178408  0.13167977  0.46157010  1
  S2-  S217  1  0.74049199  0.11355745  0.95667194  1
  S2-  S218  1  0.75739874  0.37857051  0.44879104  1
  S2-  S219  1  0.73952377  0.36469281  0.95338817  1
  S2-  S220  1  0.74646557  0.62764831  0.46591081  1
  S2-  S221  1  0.73950569  0.61523613  0.95476387  1
  S2-  S222  1  0.74491800  0.87249966  0.46060330  1
  S2-  S223  1  0.74147354  0.86121718  0.95908437  1
  S2-  S224  1  0.11384372  -0.00931157  0.03362738  1
  S2-  S225  1  0.13125426  0.00852334  0.55754122  1
  S2-  S226  1  0.11405005  0.24338139  0.04036548  1
  S2-  S227  1  0.12983382  0.25151650  0.55177960  1
  S2-  S228  1  0.11139951  0.48782268  0.04757298  1
  S2-  S229  1  0.12435228  0.50273170  0.54325791  1
  S2-  S230  1  0.11520180  0.73738144  0.04528375  1
  S2-  S231  1  0.12698003  0.75486431  0.55239916  1
  S2-  S232  1  0.36684618  -0.01309459  0.04936181  1
  S2-  S233  1  0.36858070  0.00718234  0.54381041  1
  S2-  S234  1  0.36487007  0.24205733  0.04640036  1
  S2-  S235  1  0.37043337  0.25308139  0.54157194  1
  S2-  S236  1  0.37041494  0.49187613  0.05120017  1
  S2-  S237  1  0.37228257  0.50219279  0.54676993  1
  S2-  S238  1  0.36500938  0.73992747  0.06499539  1
  S2-  S239  1  0.37502245  0.75429154  0.53753434  1
  S2-  S240  1  0.61218279  -0.01321745  0.03975693  1
  S2-  S241  1  0.61997210  0.00513725  0.53900586  1
  S2-  S242  1  0.61428137  0.23673063  0.04695267  1
  S2-  S243  1  0.62324210  0.25390377  0.54186775  1
  S2-  S244  1  0.62046636  0.48765921  0.04780447  1
  S2-  S245  1  0.62211933  0.49853881  0.53763308  1
  S2-  S246  1  0.61855132  0.74672815  0.04225127  1
  S2-  S247  1  0.61626694  0.75398662  0.54077239  1
  S2-  S248  1  0.86686562  -0.01594276  0.03832553  1
  S2-  S249  1  0.87498284  0.00102109  0.54941120  1
  S2-  S250  1  0.86435362  0.23908711  0.04119987  1
  S2-  S251  1  0.87178343  0.25768796  0.54340323  1
  S2-  S252  1  0.86416019  0.49931544  0.04280828  1
  S2-  S253  1  0.87376425  0.50680522  0.54772837  1
  S2-  S254  1  0.86526418  0.74174781  0.05247402  1
  S2-  S255  1  0.87772086  0.75175295  0.54850826  1
