# generated using pymatgen
data_La6Ce7Pr13Nd19Sm19(BiS2)64
_symmetry_space_group_name_H-M   'P 1'
_cell_length_a   15.98433207
_cell_length_b   16.09734568
_cell_length_c   27.41903283
_cell_angle_alpha   90.01922936
_cell_angle_beta   89.94800205
_cell_angle_gamma   90.06591178
_symmetry_Int_Tables_number   1
_chemical_formula_structural   La6Ce7Pr13Nd19Sm19(BiS2)64
_chemical_formula_sum   'La6 Ce7 Pr13 Nd19 Sm19 Bi64 S128'
_cell_volume   7055.05501573
_cell_formula_units_Z   1
loop_
 _symmetry_equiv_pos_site_id
 _symmetry_equiv_pos_as_xyz
  1  'x, y, z'
loop_
 _atom_type_symbol
 _atom_type_oxidation_number
  La3+  3.0
  Ce3+  3.0
  Pr3+  3.0
  Nd3+  3.0
  Sm3+  3.0
  Bi2+  2.0
  S2-  -2.0
loop_
 _atom_site_type_symbol
 _atom_site_label
 _atom_site_symmetry_multiplicity
 _atom_site_fract_x
 _atom_site_fract_y
 _atom_site_fract_z
 _atom_site_occupancy
  La3+  La0  1  0.90376787  0.01004631  0.91178704  1
  La3+  La1  1  0.02541646  0.13527182  0.07454256  1
  La3+  La2  1  0.26766402  0.87986584  0.07245336  1
  La3+  La3  1  0.90371511  0.25570541  0.93085842  1
  La3+  La4  1  0.00618079  0.87395845  0.10012950  1
  La3+  La5  1  0.28133211  0.37376236  0.10189193  1
  Ce3+  Ce6  1  -0.02143150  0.62231040  0.55510963  1
  Ce3+  Ce7  1  0.77544865  0.38050137  0.05977006  1
  Ce3+  Ce8  1  0.10397174  0.23631050  0.43956473  1
  Ce3+  Ce9  1  -0.01224922  0.36090482  0.56538126  1
  Ce3+  Ce10  1  0.73433318  0.36616920  0.55969086  1
  Ce3+  Ce11  1  0.64747452  0.75528078  0.93788741  1
  Ce3+  Ce12  1  0.39324500  0.75320358  0.94323286  1
  Pr3+  Pr13  1  0.90396287  0.74426283  0.92037118  1
  Pr3+  Pr14  1  0.52459459  0.37884310  0.06385590  1
  Pr3+  Pr15  1  0.51965181  0.88137123  0.06959900  1
  Pr3+  Pr16  1  0.78145445  0.12808250  0.06740931  1
  Pr3+  Pr17  1  0.14824813  0.25432420  0.94176450  1
  Pr3+  Pr18  1  0.64750173  0.00554424  0.93799424  1
  Pr3+  Pr19  1  0.47081322  0.61137232  0.55912105  1
  Pr3+  Pr20  1  0.85638303  -0.01713387  0.42926005  1
  Pr3+  Pr21  1  0.71912378  0.60845226  0.59918344  1
  Pr3+  Pr22  1  0.77373265  0.63639927  0.06502278  1
  Pr3+  Pr23  1  0.85125484  0.24657319  0.41726392  1
  Pr3+  Pr24  1  0.27598029  0.63136998  0.08040539  1
  Pr3+  Pr25  1  0.00809301  0.86285933  0.61355320  1
  Nd3+  Nd26  1  0.35347458  -0.01724253  0.42275523  1
  Nd3+  Nd27  1  0.23348312  0.86535386  0.55342489  1
  Nd3+  Nd28  1  0.90118402  0.50503540  0.94507226  1
  Nd3+  Nd29  1  0.09945132  -0.01716262  0.42149286  1
  Nd3+  Nd30  1  0.39774186  0.50366361  0.94688451  1
  Nd3+  Nd31  1  0.52326529  0.63037285  0.06906363  1
  Nd3+  Nd32  1  0.35521036  0.73540701  0.42190454  1
  Nd3+  Nd33  1  0.14907550  0.75241048  0.93917719  1
  Nd3+  Nd34  1  0.60654213  0.23828037  0.43544879  1
  Nd3+  Nd35  1  0.02598147  0.62998692  0.06801320  1
  Nd3+  Nd36  1  0.64897303  0.50592907  0.94062349  1
  Nd3+  Nd37  1  0.85581064  0.48977786  0.44222996  1
  Nd3+  Nd38  1  0.35167398  0.23799043  0.42854340  1
  Nd3+  Nd39  1  0.48302469  0.11290822  0.54959220  1
  Nd3+  Nd40  1  0.23509620  0.36351387  0.56451388  1
  Nd3+  Nd41  1  0.60974777  -0.01400748  0.42747730  1
  Nd3+  Nd42  1  0.77886001  0.88081582  0.04417833  1
  Nd3+  Nd43  1  0.34661725  0.48562471  0.41231082  1
  Nd3+  Nd44  1  0.48936176  0.86416245  0.55840273  1
  Sm3+  Sm45  1  0.73370317  0.11401269  0.55303107  1
  Sm3+  Sm46  1  0.60290444  0.49099602  0.44038363  1
  Sm3+  Sm47  1  0.02321162  0.37964336  0.06808693  1
  Sm3+  Sm48  1  0.65093169  0.25201103  0.94811354  1
  Sm3+  Sm49  1  0.10707954  0.48692522  0.43789853  1
  Sm3+  Sm50  1  0.23073964  0.10952970  0.55285124  1
  Sm3+  Sm51  1  0.85508410  0.74073285  0.44536179  1
  Sm3+  Sm52  1  0.26643642  0.13003331  0.06918697  1
  Sm3+  Sm53  1  0.73856111  0.86448345  0.56437286  1
  Sm3+  Sm54  1  0.60674079  0.73637953  0.44436703  1
  Sm3+  Sm55  1  0.39609778  0.00540092  0.94688107  1
  Sm3+  Sm56  1  0.10715446  0.74167059  0.43158206  1
  Sm3+  Sm57  1  0.15287581  0.50357500  0.95830365  1
  Sm3+  Sm58  1  0.23379558  0.61631804  0.55109965  1
  Sm3+  Sm59  1  0.47647838  0.36415534  0.55108806  1
  Sm3+  Sm60  1  0.52443172  0.12917542  0.06123022  1
  Sm3+  Sm61  1  -0.02353204  0.11275665  0.55807310  1
  Sm3+  Sm62  1  0.14469516  0.00271193  0.94521329  1
  Sm3+  Sm63  1  0.39699121  0.25408110  0.94570738  1
  Bi2+  Bi64  1  0.03832177  0.12264924  0.29080738  1
  Bi2+  Bi65  1  0.07844023  0.11577595  0.76959902  1
  Bi2+  Bi66  1  -0.00609633  0.39766999  0.28192204  1
  Bi2+  Bi67  1  -0.07761649  0.35512053  0.80586081  1
  Bi2+  Bi68  1  0.00248957  0.59570713  0.29209603  1
  Bi2+  Bi69  1  0.00059034  0.58054284  0.79638657  1
  Bi2+  Bi70  1  -0.04266687  0.86565003  0.28922740  1
  Bi2+  Bi71  1  0.04205116  0.87600344  0.81337244  1
  Bi2+  Bi72  1  0.34153109  0.11949896  0.30288561  1
  Bi2+  Bi73  1  0.26751132  0.09950816  0.81172096  1
  Bi2+  Bi74  1  0.23455589  0.35684393  0.28525894  1
  Bi2+  Bi75  1  0.19894011  0.28656604  0.80478979  1
  Bi2+  Bi76  1  0.24872444  0.60056934  0.27862706  1
  Bi2+  Bi77  1  0.25080336  0.61016752  0.81251861  1
  Bi2+  Bi78  1  0.24150892  0.85717698  0.29995147  1
  Bi2+  Bi79  1  0.24121906  0.88683977  0.79904417  1
  Bi2+  Bi80  1  0.53499077  0.13659553  0.32247548  1
  Bi2+  Bi81  1  0.45833212  0.15978271  0.78344571  1
  Bi2+  Bi82  1  0.50923952  0.40006121  0.29290583  1
  Bi2+  Bi83  1  0.44143355  0.41338433  0.78051474  1
  Bi2+  Bi84  1  0.60622584  0.65610491  0.27211965  1
  Bi2+  Bi85  1  0.41858520  0.68817673  0.75639215  1
  Bi2+  Bi86  1  0.49879162  0.95081624  0.28722290  1
  Bi2+  Bi87  1  0.44413107  0.88149851  0.78006574  1
  Bi2+  Bi88  1  0.73101757  0.13585799  0.28772266  1
  Bi2+  Bi89  1  0.73130098  0.14051569  0.79501674  1
  Bi2+  Bi90  1  0.76546739  0.42799148  0.28093634  1
  Bi2+  Bi91  1  0.71810432  0.38336222  0.79176982  1
  Bi2+  Bi92  1  0.80789648  0.62491239  0.28954725  1
  Bi2+  Bi93  1  0.72507609  0.63048760  0.80123325  1
  Bi2+  Bi94  1  0.71021945  0.86217751  0.29076044  1
  Bi2+  Bi95  1  0.71921779  0.87968891  0.79764315  1
  Bi2+  Bi96  1  0.16555338  -0.02443123  0.22234554  1
  Bi2+  Bi97  1  0.21328402  0.01654512  0.70794164  1
  Bi2+  Bi98  1  0.16300545  0.21343337  0.21399644  1
  Bi2+  Bi99  1  0.09443198  0.25952850  0.69603629  1
  Bi2+  Bi100  1  0.00759853  0.50447703  0.18953075  1
  Bi2+  Bi101  1  0.14201237  0.46400875  0.75601431  1
  Bi2+  Bi102  1  0.09049748  0.73198549  0.22003609  1
  Bi2+  Bi103  1  0.22164950  0.73849296  0.72325041  1
  Bi2+  Bi104  1  0.36539583  0.00879547  0.20980605  1
  Bi2+  Bi105  1  0.41375413  0.00496674  0.69018530  1
  Bi2+  Bi106  1  0.46518809  0.24367246  0.22908191  1
  Bi2+  Bi107  1  0.32473091  0.26719148  0.71438379  1
  Bi2+  Bi108  1  0.39929394  0.50234364  0.21776758  1
  Bi2+  Bi109  1  0.31339268  0.48072683  0.69942961  1
  Bi2+  Bi110  1  0.48184545  0.76240403  0.21086984  1
  Bi2+  Bi111  1  0.38165593  0.81242339  0.66788277  1
  Bi2+  Bi112  1  0.66047238  0.09689710  0.17918957  1
  Bi2+  Bi113  1  0.61497016  0.02264103  0.69611314  1
  Bi2+  Bi114  1  0.65288695  0.29696569  0.20579523  1
  Bi2+  Bi115  1  0.57328457  0.28908745  0.72500514  1
  Bi2+  Bi116  1  0.61139656  0.50047175  0.19824712  1
  Bi2+  Bi117  1  0.58749507  0.47841058  0.71066216  1
  Bi2+  Bi118  1  0.61251065  0.90276893  0.19047373  1
  Bi2+  Bi119  1  0.58284090  0.75449771  0.70567275  1
  Bi2+  Bi120  1  0.83453530  0.00084432  0.20662324  1
  Bi2+  Bi121  1  0.87648435  -0.00082646  0.70695241  1
  Bi2+  Bi122  1  0.91419088  0.25188519  0.21607130  1
  Bi2+  Bi123  1  0.84940304  0.26500809  0.71512331  1
  Bi2+  Bi124  1  0.81351257  0.51110001  0.17828430  1
  Bi2+  Bi125  1  0.86879180  0.45972964  0.71590022  1
  Bi2+  Bi126  1  0.80474883  0.71573114  0.19093094  1
  Bi2+  Bi127  1  0.88913148  0.74432350  0.71813719  1
  S2-  S128  1  0.14887532  0.08779896  0.14586850  1
  S2-  S129  1  -0.00542174  0.03128465  0.64524138  1
  S2-  S130  1  0.04075111  0.28420006  0.14902204  1
  S2-  S131  1  -0.04674912  0.23816179  0.63477747  1
  S2-  S132  1  -0.02968563  0.71728605  0.14859677  1
  S2-  S133  1  -0.01455966  0.69089607  0.64487029  1
  S2-  S134  1  -0.00797215  0.95082043  0.19695536  1
  S2-  S135  1  0.00092395  0.87348480  0.72173882  1
  S2-  S136  1  0.28798289  0.22326525  0.15288983  1
  S2-  S137  1  0.23433022  0.16086436  0.64760726  1
  S2-  S138  1  0.24090126  0.43093555  0.19801240  1
  S2-  S139  1  0.11251438  0.38972270  0.63706678  1
  S2-  S140  1  0.19620897  0.63705009  0.17529733  1
  S2-  S141  1  0.33304337  0.60099922  0.63085700  1
  S2-  S142  1  0.16170540  0.85091003  0.15319182  1
  S2-  S143  1  0.17739666  0.85554104  0.64790228  1
  S2-  S144  1  0.48454827  0.11424550  0.15665962  1
  S2-  S145  1  0.51313393  0.13234200  0.64623121  1
  S2-  S146  1  0.44359187  0.37635064  0.15282753  1
  S2-  S147  1  0.37360988  0.36092389  0.63042673  1
  S2-  S148  1  0.41424807  0.63389374  0.14934682  1
  S2-  S149  1  0.55906820  0.61020656  0.64751316  1
  S2-  S150  1  0.39584910  0.87250385  0.14598305  1
  S2-  S151  1  0.60984061  0.87737316  0.63537191  1
  S2-  S152  1  0.89526142  0.12538507  0.14729507  1
  S2-  S153  1  0.74748176  0.08877519  0.65221582  1
  S2-  S154  1  0.79853107  0.31882865  0.14903894  1
  S2-  S155  1  0.73147462  0.45041543  0.64660100  1
  S2-  S156  1  0.65202477  0.64454463  0.14105024  1
  S2-  S157  1  0.74166015  0.67161948  0.69584494  1
  S2-  S158  1  0.82188128  0.86724099  0.14039134  1
  S2-  S159  1  0.83664816  0.86438724  0.64830629  1
  S2-  S160  1  0.22917543  0.01039356  0.34991292  1
  S2-  S161  1  0.06240554  0.03305946  0.85724520  1
  S2-  S162  1  0.13974867  0.24019439  0.34371177  1
  S2-  S163  1  0.04420433  0.27345434  0.86091383  1
  S2-  S164  1  0.19287860  0.48447315  0.35125802  1
  S2-  S165  1  0.12417897  0.50588991  0.86089385  1
  S2-  S166  1  0.08482358  0.84522559  0.34948897  1
  S2-  S167  1  0.04609975  0.72271893  0.85476381  1
  S2-  S168  1  0.38606399  -0.14203244  0.35118414  1
  S2-  S169  1  0.41389197  0.01675126  0.84964809  1
  S2-  S170  1  0.36561598  0.34482683  0.35013955  1
  S2-  S171  1  0.41412511  0.27736802  0.84890887  1
  S2-  S172  1  0.38694929  0.58370230  0.32865488  1
  S2-  S173  1  0.39075683  0.53847251  0.84980534  1
  S2-  S174  1  0.22411353  0.71186724  0.35195506  1
  S2-  S175  1  0.28060839  0.75638859  0.86866877  1
  S2-  S176  1  0.72964857  -0.00793794  0.35364589  1
  S2-  S177  1  0.64117006  0.01284309  0.83745232  1
  S2-  S178  1  0.70193621  0.25323446  0.35327705  1
  S2-  S179  1  0.65250508  0.25075110  0.85025729  1
  S2-  S180  1  0.62611857  0.48427272  0.34288552  1
  S2-  S181  1  0.63020222  0.51426567  0.84234687  1
  S2-  S182  1  0.60130375  0.76949727  0.34725592  1
  S2-  S183  1  0.61804776  0.74800658  0.84131363  1
  S2-  S184  1  0.96999556  0.00492697  0.34874573  1
  S2-  S185  1  0.85900484  -0.04026572  0.81162458  1
  S2-  S186  1  0.89618346  0.19185138  0.31906203  1
  S2-  S187  1  0.85691516  0.15250835  0.85361206  1
  S2-  S188  1  0.87557360  0.39877360  0.35769771  1
  S2-  S189  1  0.86607478  0.56276947  0.85362576  1
  S2-  S190  1  0.84704884  0.80319778  0.35227460  1
  S2-  S191  1  0.83390627  0.75999829  0.82416245  1
  S2-  S192  1  -0.02192018  0.11692183  0.45109529  1
  S2-  S193  1  0.02409788  0.12906608  0.96279427  1
  S2-  S194  1  -0.01466537  0.36469855  0.45709735  1
  S2-  S195  1  0.02554070  0.38517183  0.96467061  1
  S2-  S196  1  -0.01715777  0.61526954  0.44658091  1
  S2-  S197  1  0.02643243  0.62394492  0.96293627  1
  S2-  S198  1  -0.02087007  0.85772923  0.45425508  1
  S2-  S199  1  0.02261710  0.87829021  0.94343299  1
  S2-  S200  1  0.23120135  0.11186373  0.45081657  1
  S2-  S201  1  0.27248215  0.12823611  0.95893004  1
  S2-  S202  1  0.22827626  0.36124507  0.45561484  1
  S2-  S203  1  0.27501473  0.37923955  0.94935919  1
  S2-  S204  1  0.23026916  0.61159629  0.45117736  1
  S2-  S205  1  0.27410011  0.62608193  0.96876334  1
  S2-  S206  1  0.23057686  0.86383486  0.44991049  1
  S2-  S207  1  0.27271519  0.88542899  0.96233051  1
  S2-  S208  1  0.47893327  0.11057317  0.44479233  1
  S2-  S209  1  0.52180004  0.13125064  0.95528467  1
  S2-  S210  1  0.48230015  0.36352251  0.44870609  1
  S2-  S211  1  0.52500418  0.37673370  0.95594502  1
  S2-  S212  1  0.48034751  0.61386143  0.44772228  1
  S2-  S213  1  0.52257235  0.62958124  0.95838805  1
  S2-  S214  1  0.48682497  0.86465732  0.45441868  1
  S2-  S215  1  0.51883775  0.88107925  0.95569512  1
  S2-  S216  1  0.73209143  0.11630158  0.45018584  1
  S2-  S217  1  0.77205042  0.12705347  0.96072697  1
  S2-  S218  1  0.72707626  0.36972277  0.45570347  1
  S2-  S219  1  0.77280730  0.38003904  0.95133984  1
  S2-  S220  1  0.72987829  0.61317454  0.44071764  1
  S2-  S221  1  0.77145001  0.63188825  0.95794882  1
  S2-  S222  1  0.72796931  0.85977217  0.45876148  1
  S2-  S223  1  0.77687226  0.88111901  0.93979579  1
  S2-  S224  1  0.14140321  -0.00206184  0.04569315  1
  S2-  S225  1  0.10777538  -0.01087366  0.54125885  1
  S2-  S226  1  0.15695356  0.26366477  0.04722667  1
  S2-  S227  1  0.11013597  0.23415542  0.54281482  1
  S2-  S228  1  0.15241266  0.49967494  0.06269216  1
  S2-  S229  1  0.10719499  0.49843454  0.53989774  1
  S2-  S230  1  0.14617672  0.75087847  0.04693792  1
  S2-  S231  1  0.11010738  0.73909542  0.53986600  1
  S2-  S232  1  0.39606112  0.01088222  0.04972397  1
  S2-  S233  1  0.35933444  -0.01147518  0.53991657  1
  S2-  S234  1  0.39922026  0.25146455  0.04797574  1
  S2-  S235  1  0.35666367  0.23403672  0.53444414  1
  S2-  S236  1  0.39460232  0.49990960  0.05185290  1
  S2-  S237  1  0.35405135  0.48532103  0.52739812  1
  S2-  S238  1  0.39814774  0.75396952  0.04599467  1
  S2-  S239  1  0.35736671  0.74270251  0.53192322  1
  S2-  S240  1  0.64730356  0.00418655  0.04562088  1
  S2-  S241  1  0.60996651  -0.00704202  0.53438660  1
  S2-  S242  1  0.64938845  0.25193875  0.05186409  1
  S2-  S243  1  0.60596051  0.24233066  0.54289574  1
  S2-  S244  1  0.64881519  0.50396111  0.04629604  1
  S2-  S245  1  0.60288917  0.48743675  0.54398471  1
  S2-  S246  1  0.64480269  0.76160324  0.04323003  1
  S2-  S247  1  0.60765901  0.73132878  0.54613178  1
  S2-  S248  1  0.90475654  -0.00031389  0.04679005  1
  S2-  S249  1  0.85138081  -0.00736317  0.53876184  1
  S2-  S250  1  0.90018327  0.25977147  0.04090706  1
  S2-  S251  1  0.85113426  0.24117726  0.53384865  1
  S2-  S252  1  0.89894957  0.50579225  0.05044307  1
  S2-  S253  1  0.85953625  0.49073533  0.54721700  1
  S2-  S254  1  0.90037462  0.75477301  0.03528754  1
  S2-  S255  1  0.83449201  0.72042496  0.54680452  1
