# generated using pymatgen
data_La6Ce7Pr13Nd19Sm19(BiS2)64
_symmetry_space_group_name_H-M   'P 1'
_cell_length_a   16.07415122
_cell_length_b   16.11973739
_cell_length_c   27.37526787
_cell_angle_alpha   90.13697955
_cell_angle_beta   89.89164051
_cell_angle_gamma   89.92752690
_symmetry_Int_Tables_number   1
_chemical_formula_structural   La6Ce7Pr13Nd19Sm19(BiS2)64
_chemical_formula_sum   'La6 Ce7 Pr13 Nd19 Sm19 Bi64 S128'
_cell_volume   7093.19700371
_cell_formula_units_Z   1
loop_
 _symmetry_equiv_pos_site_id
 _symmetry_equiv_pos_as_xyz
  1  'x, y, z'
loop_
 _atom_type_symbol
 _atom_type_oxidation_number
  La3+  3.0
  Ce3+  3.0
  Pr3+  3.0
  Nd3+  3.0
  Sm3+  3.0
  Bi2+  2.0
  S2-  -2.0
loop_
 _atom_site_type_symbol
 _atom_site_label
 _atom_site_symmetry_multiplicity
 _atom_site_fract_x
 _atom_site_fract_y
 _atom_site_fract_z
 _atom_site_occupancy
  La3+  La0  1  0.13878119  0.01516715  0.92874459  1
  La3+  La1  1  0.39570408  0.26046526  0.38146907  1
  La3+  La2  1  0.87979211  0.25550353  0.92472879  1
  La3+  La3  1  0.63431606  0.25236709  0.43553664  1
  La3+  La4  1  0.38499386  0.26365444  0.92849292  1
  La3+  La5  1  0.75628325  0.62790066  0.10316594  1
  Ce3+  Ce6  1  0.87449939  -0.00188145  0.43876940  1
  Ce3+  Ce7  1  0.25602428  0.63987824  0.06249722  1
  Ce3+  Ce8  1  0.25125059  0.62668162  0.55423837  1
  Ce3+  Ce9  1  0.87434316  0.25434849  0.43994611  1
  Ce3+  Ce10  1  0.62970273  0.26254464  0.94192803  1
  Ce3+  Ce11  1  0.50994774  0.63828044  0.05852737  1
  Ce3+  Ce12  1  0.00860762  0.88728715  0.06148295  1
  Pr3+  Pr13  1  0.13163538  0.24715065  0.43944254  1
  Pr3+  Pr14  1  0.37887285  0.75108904  0.42614594  1
  Pr3+  Pr15  1  0.88575891  0.75926766  0.93749746  1
  Pr3+  Pr16  1  0.37666344  0.49512880  0.44387247  1
  Pr3+  Pr17  1  0.63645829  0.75951127  0.93174249  1
  Pr3+  Pr18  1  0.13390587  0.51340823  0.93782281  1
  Pr3+  Pr19  1  0.75235580  0.38435575  0.57752282  1
  Pr3+  Pr20  1  0.75038512  0.12782835  0.56361359  1
  Pr3+  Pr21  1  0.75734853  0.88440537  0.06318688  1
  Pr3+  Pr22  1  0.75713246  0.62787795  0.56881443  1
  Pr3+  Pr23  1  0.01348930  0.64491073  0.07351551  1
  Pr3+  Pr24  1  0.00741970  0.13715956  0.06084427  1
  Pr3+  Pr25  1  0.12579520  0.75216110  0.44257699  1
  Nd3+  Nd26  1  0.88136858  0.51229178  0.94242678  1
  Nd3+  Nd27  1  0.39983386  0.01014713  0.89069213  1
  Nd3+  Nd28  1  0.38271079  0.51241832  0.93572978  1
  Nd3+  Nd29  1  0.75381302  0.87187216  0.56972868  1
  Nd3+  Nd30  1  0.49734232  0.37239783  0.56381113  1
  Nd3+  Nd31  1  0.87799401  0.50808748  0.43293801  1
  Nd3+  Nd32  1  0.63627380  0.01187870  0.93725479  1
  Nd3+  Nd33  1  0.63504174  0.51044818  0.94165645  1
  Nd3+  Nd34  1  0.86581088  0.75692465  0.42625075  1
  Nd3+  Nd35  1  0.25295344  0.87672159  0.56205011  1
  Nd3+  Nd36  1  0.75555065  0.38063414  0.06499013  1
  Nd3+  Nd37  1  0.37174430  0.01049840  0.43518299  1
  Nd3+  Nd38  1  0.50200829  0.87455826  0.55204465  1
  Nd3+  Nd39  1  0.62600278  0.49816500  0.44564438  1
  Nd3+  Nd40  1  -0.00125180  0.12801944  0.56222928  1
  Nd3+  Nd41  1  0.00292756  0.38848428  0.05939112  1
  Nd3+  Nd42  1  0.12442672  0.00120075  0.44615655  1
  Nd3+  Nd43  1  0.49998520  0.38721255  0.07035290  1
  Nd3+  Nd44  1  0.50655177  0.88860938  0.05668140  1
  Sm3+  Sm45  1  0.00026554  0.37622878  0.55360064  1
  Sm3+  Sm46  1  0.13296198  0.26161368  0.94685120  1
  Sm3+  Sm47  1  0.50432164  0.13549425  0.05280291  1
  Sm3+  Sm48  1  0.13159767  0.76135198  0.93637516  1
  Sm3+  Sm49  1  0.25402965  0.11967480  0.57328327  1
  Sm3+  Sm50  1  0.75581786  0.13855303  0.06268978  1
  Sm3+  Sm51  1  0.25875262  0.13621690  0.05613829  1
  Sm3+  Sm52  1  0.88990477  0.01128241  0.93612429  1
  Sm3+  Sm53  1  -0.00381044  0.87526919  0.56227184  1
  Sm3+  Sm54  1  0.62439386  0.00185518  0.44482497  1
  Sm3+  Sm55  1  0.49989847  0.62685305  0.56159127  1
  Sm3+  Sm56  1  0.12739447  0.50037746  0.44571774  1
  Sm3+  Sm57  1  0.25934619  0.38758908  0.05667007  1
  Sm3+  Sm58  1  0.25173346  0.37149634  0.55989296  1
  Sm3+  Sm59  1  0.38394579  0.76430787  0.93654330  1
  Sm3+  Sm60  1  0.25876828  0.88861249  0.05456994  1
  Sm3+  Sm61  1  0.00085301  0.62637954  0.56075903  1
  Sm3+  Sm62  1  0.62202401  0.74917076  0.43558373  1
  Sm3+  Sm63  1  0.50110447  0.12833579  0.55503823  1
  Bi2+  Bi64  1  -0.00609885  0.07805946  0.32221912  1
  Bi2+  Bi65  1  -0.00937570  0.14237221  0.80767188  1
  Bi2+  Bi66  1  0.01156359  0.26998158  0.30460483  1
  Bi2+  Bi67  1  0.04565483  0.42191137  0.74826998  1
  Bi2+  Bi68  1  0.04961125  0.63311312  0.29712667  1
  Bi2+  Bi69  1  -0.01043426  0.66972526  0.77483366  1
  Bi2+  Bi70  1  0.00136391  0.88789255  0.28325435  1
  Bi2+  Bi71  1  -0.02272412  0.87658429  0.78696400  1
  Bi2+  Bi72  1  0.24569484  0.11287652  0.28716638  1
  Bi2+  Bi73  1  0.24465534  0.08344722  0.76082874  1
  Bi2+  Bi74  1  0.25351156  0.37320288  0.28147695  1
  Bi2+  Bi75  1  0.23378697  0.41108240  0.80721744  1
  Bi2+  Bi76  1  0.27242602  0.65227729  0.28405589  1
  Bi2+  Bi77  1  0.23859272  0.60902515  0.81974501  1
  Bi2+  Bi78  1  0.27557427  0.83742290  0.31479228  1
  Bi2+  Bi79  1  0.23350093  0.80003701  0.80449877  1
  Bi2+  Bi80  1  0.50523883  0.03067949  0.27540487  1
  Bi2+  Bi81  1  0.46785422  0.07892829  0.76451015  1
  Bi2+  Bi82  1  0.50199380  0.39551531  0.28209797  1
  Bi2+  Bi83  1  0.50795440  0.31509376  0.80388287  1
  Bi2+  Bi84  1  0.48233433  0.64844059  0.26144201  1
  Bi2+  Bi85  1  0.43185127  0.61077354  0.79058456  1
  Bi2+  Bi86  1  0.47019168  0.85108804  0.30272512  1
  Bi2+  Bi87  1  0.53918046  0.85856269  0.79515958  1
  Bi2+  Bi88  1  0.79886629  0.09614153  0.26871712  1
  Bi2+  Bi89  1  0.75773485  0.06932382  0.77402026  1
  Bi2+  Bi90  1  0.71478399  0.35562543  0.30675206  1
  Bi2+  Bi91  1  0.75706441  0.37571882  0.80917300  1
  Bi2+  Bi92  1  0.75082853  0.59270203  0.32421900  1
  Bi2+  Bi93  1  0.70892957  0.61237086  0.80982145  1
  Bi2+  Bi94  1  0.73542292  0.89893990  0.29961080  1
  Bi2+  Bi95  1  0.77139354  0.87412340  0.78975264  1
  Bi2+  Bi96  1  0.08299540  0.03365580  0.22063879  1
  Bi2+  Bi97  1  0.12019417  -0.02712195  0.70423051  1
  Bi2+  Bi98  1  0.14160306  0.25606651  0.21456882  1
  Bi2+  Bi99  1  0.15099781  0.25596479  0.75033006  1
  Bi2+  Bi100  1  0.07950934  0.43846545  0.24645349  1
  Bi2+  Bi101  1  0.12191831  0.58351698  0.70427167  1
  Bi2+  Bi102  1  0.15795404  0.76317948  0.19671280  1
  Bi2+  Bi103  1  0.11816390  0.78001458  0.70448483  1
  Bi2+  Bi104  1  0.35030502  -0.06582662  0.22169212  1
  Bi2+  Bi105  1  0.37621721  -0.07238764  0.71377952  1
  Bi2+  Bi106  1  0.39324593  0.23477203  0.17771135  1
  Bi2+  Bi107  1  0.37719660  0.26987115  0.69002952  1
  Bi2+  Bi108  1  0.35433759  0.52071943  0.20969531  1
  Bi2+  Bi109  1  0.36572072  0.46448107  0.72674066  1
  Bi2+  Bi110  1  0.36107406  0.70697622  0.17873871  1
  Bi2+  Bi111  1  0.34124800  0.73664746  0.71572941  1
  Bi2+  Bi112  1  0.71440957  0.02768409  0.17043895  1
  Bi2+  Bi113  1  0.65441747  -0.05323064  0.70260339  1
  Bi2+  Bi114  1  0.63879759  0.20845808  0.20092024  1
  Bi2+  Bi115  1  0.62012345  0.14326493  0.70307368  1
  Bi2+  Bi116  1  0.60173253  0.50539271  0.20587788  1
  Bi2+  Bi117  1  0.58327752  0.49751401  0.71444918  1
  Bi2+  Bi118  1  0.62198945  0.86915992  0.20870019  1
  Bi2+  Bi119  1  0.59636897  0.74901738  0.70892131  1
  Bi2+  Bi120  1  0.90025931  -0.02747284  0.19391671  1
  Bi2+  Bi121  1  0.92670259  0.00994516  0.70360972  1
  Bi2+  Bi122  1  0.88711069  0.24986955  0.21599436  1
  Bi2+  Bi123  1  0.89351934  0.25108164  0.70157841  1
  Bi2+  Bi124  1  0.87203639  0.49145126  0.21680453  1
  Bi2+  Bi125  1  0.85328675  0.49119172  0.70111822  1
  Bi2+  Bi126  1  0.88475391  0.75134247  0.21134787  1
  Bi2+  Bi127  1  0.85277780  0.75000072  0.70839234  1
  S2-  S128  1  -0.02284292  0.13209837  0.15953587  1
  S2-  S129  1  0.01558323  0.14419952  0.66005908  1
  S2-  S130  1  -0.02886672  0.38148744  0.15694252  1
  S2-  S131  1  -0.02465323  0.38516940  0.65050941  1
  S2-  S132  1  -0.08542302  0.60938588  0.15441106  1
  S2-  S133  1  -0.09161521  0.62308828  0.64262834  1
  S2-  S134  1  0.01282191  0.79480343  0.14412191  1
  S2-  S135  1  -0.11213990  0.87911662  0.63933006  1
  S2-  S136  1  0.25058655  0.15463805  0.15472939  1
  S2-  S137  1  0.24228503  0.18795839  0.66620303  1
  S2-  S138  1  0.35343766  0.39173165  0.13805460  1
  S2-  S139  1  0.26922332  0.39043148  0.65666690  1
  S2-  S140  1  0.15341795  0.62510681  0.14107731  1
  S2-  S141  1  0.26790259  0.62664873  0.65036969  1
  S2-  S142  1  0.22508344  0.90177531  0.15154225  1
  S2-  S143  1  0.26436585  0.98311327  0.63940324  1
  S2-  S144  1  0.50877364  0.12062418  0.15171114  1
  S2-  S145  1  0.47202160  0.12740687  0.65218329  1
  S2-  S146  1  0.55829093  0.34770114  0.16442246  1
  S2-  S147  1  0.52631911  0.36896548  0.66302565  1
  S2-  S148  1  0.58920729  0.63498020  0.14532238  1
  S2-  S149  1  0.51510174  0.61559341  0.65957658  1
  S2-  S150  1  0.47808249  0.86992270  0.15490708  1
  S2-  S151  1  0.50051181  0.86543929  0.65056545  1
  S2-  S152  1  0.76406538  0.25202726  0.13894910  1
  S2-  S153  1  0.79664531  0.13104746  0.66017659  1
  S2-  S154  1  0.74769204  0.46963334  0.15257178  1
  S2-  S155  1  0.76735864  0.34122805  0.67889722  1
  S2-  S156  1  0.76633380  0.63288606  0.23371943  1
  S2-  S157  1  0.72206403  0.52080715  0.64807964  1
  S2-  S158  1  0.75958589  0.78889502  0.14846006  1
  S2-  S159  1  0.72081823  0.74872378  0.64076573  1
  S2-  S160  1  0.16552476  0.02265955  0.35018870  1
  S2-  S161  1  0.01211442  0.00249916  0.85719417  1
  S2-  S162  1  0.22246059  0.24611618  0.35335593  1
  S2-  S163  1  0.12352972  0.21733590  0.85215619  1
  S2-  S164  1  0.11129673  0.50444222  0.34831311  1
  S2-  S165  1  0.08504299  0.48640152  0.84288547  1
  S2-  S166  1  0.09524030  0.77891128  0.34526387  1
  S2-  S167  1  0.01312440  0.75124784  0.86266115  1
  S2-  S168  1  0.38706247  0.08877530  0.34686017  1
  S2-  S169  1  0.24549320  0.01292919  0.84663301  1
  S2-  S170  1  0.39510572  0.26151240  0.27207242  1
  S2-  S171  1  0.40715430  0.18319997  0.83751205  1
  S2-  S172  1  0.37620472  0.43340325  0.35058984  1
  S2-  S173  1  0.39762849  0.39934316  0.85838642  1
  S2-  S174  1  0.50765153  0.71299228  0.35892890  1
  S2-  S175  1  0.38809338  0.84752343  0.84987238  1
  S2-  S176  1  0.62847410  0.01787791  0.34661192  1
  S2-  S177  1  0.56018174  0.00605728  0.84773024  1
  S2-  S178  1  0.56199952  0.27239067  0.34302536  1
  S2-  S179  1  0.64549509  0.24700282  0.84330420  1
  S2-  S180  1  0.61195505  0.49313405  0.34555756  1
  S2-  S181  1  0.61747081  0.47175986  0.84320798  1
  S2-  S182  1  0.72523069  0.75526265  0.35674487  1
  S2-  S183  1  0.56262487  0.69918438  0.84240334  1
  S2-  S184  1  0.87708613  -0.10531805  0.35943436  1
  S2-  S185  1  0.84221890  0.11239400  0.85933709  1
  S2-  S186  1  0.77061188  0.23750413  0.36254679  1
  S2-  S187  1  0.89795011  0.30728877  0.82587406  1
  S2-  S188  1  0.84415590  0.43986252  0.33982146  1
  S2-  S189  1  0.83301252  0.52060508  0.84398544  1
  S2-  S190  1  0.90947998  0.63540390  0.35757060  1
  S2-  S191  1  0.76828275  0.74736572  0.85876359  1
  S2-  S192  1  -0.00053000  0.12720503  0.45595491  1
  S2-  S193  1  0.00897303  0.13872446  0.95641226  1
  S2-  S194  1  0.00378481  0.37694527  0.44917818  1
  S2-  S195  1  0.00798928  0.38405926  0.95223064  1
  S2-  S196  1  0.00733805  0.62484656  0.45926307  1
  S2-  S197  1  0.00933306  0.63276393  0.96182074  1
  S2-  S198  1  0.00130943  0.87597761  0.45884611  1
  S2-  S199  1  0.01117033  0.88763969  0.95843568  1
  S2-  S200  1  0.24687813  0.12123183  0.46642586  1
  S2-  S201  1  0.26080789  0.14112780  0.95257949  1
  S2-  S202  1  0.24828906  0.37653190  0.45678069  1
  S2-  S203  1  0.25585504  0.38612841  0.95418493  1
  S2-  S204  1  0.25249069  0.62558228  0.44688649  1
  S2-  S205  1  0.25913012  0.64039237  0.95357398  1
  S2-  S206  1  0.25374414  0.87740586  0.45625616  1
  S2-  S207  1  0.25736764  0.88217887  0.95131169  1
  S2-  S208  1  0.50292835  0.12920110  0.45147931  1
  S2-  S209  1  0.50572193  0.13146810  0.94918161  1
  S2-  S210  1  0.49963763  0.37052341  0.45697968  1
  S2-  S211  1  0.50825308  0.38826684  0.96164116  1
  S2-  S212  1  0.49851667  0.62164748  0.45908267  1
  S2-  S213  1  0.50480756  0.63507759  0.95298106  1
  S2-  S214  1  0.49857992  0.88108285  0.44721937  1
  S2-  S215  1  0.50715330  0.88745988  0.95147849  1
  S2-  S216  1  0.75191742  0.11972629  0.45843927  1
  S2-  S217  1  0.75340686  0.13660068  0.96082555  1
  S2-  S218  1  0.75442179  0.38106241  0.46381338  1
  S2-  S219  1  0.75821464  0.38410593  0.95449083  1
  S2-  S220  1  0.74662775  0.62515429  0.45826731  1
  S2-  S221  1  0.75701429  0.63235178  0.95683873  1
  S2-  S222  1  0.74359607  0.87937289  0.46264858  1
  S2-  S223  1  0.76194086  0.89182851  0.95396255  1
  S2-  S224  1  0.13507052  0.01395039  0.04385298  1
  S2-  S225  1  0.11996920  -0.00147908  0.55074327  1
  S2-  S226  1  0.13429264  0.26448585  0.05154397  1
  S2-  S227  1  0.12578410  0.25175042  0.54935467  1
  S2-  S228  1  0.13373672  0.50557875  0.04456316  1
  S2-  S229  1  0.12566075  0.49947578  0.55100309  1
  S2-  S230  1  0.13707980  0.76643141  0.03940976  1
  S2-  S231  1  0.12419413  0.75353748  0.55102755  1
  S2-  S232  1  0.37999040  0.01295362  0.05186942  1
  S2-  S233  1  0.38158673  0.00250010  0.54145422  1
  S2-  S234  1  0.38084623  0.25971791  0.03929114  1
  S2-  S235  1  0.37266945  0.24708359  0.55450854  1
  S2-  S236  1  0.38010655  0.51613534  0.04149941  1
  S2-  S237  1  0.37566280  0.49992024  0.55098854  1
  S2-  S238  1  0.38204156  0.76425366  0.04126887  1
  S2-  S239  1  0.37653512  0.75107553  0.54097942  1
  S2-  S240  1  0.63135612  0.01332487  0.04306770  1
  S2-  S241  1  0.62546734  0.00114817  0.55089559  1
  S2-  S242  1  0.62504156  0.25877361  0.04582297  1
  S2-  S243  1  0.62740878  0.25303052  0.55075349  1
  S2-  S244  1  0.62887497  0.50617665  0.04706932  1
  S2-  S245  1  0.61844178  0.50033203  0.54902899  1
  S2-  S246  1  0.63003752  0.76541941  0.04023676  1
  S2-  S247  1  0.62092196  0.74786788  0.54010398  1
  S2-  S248  1  0.88100768  0.01369738  0.04451347  1
  S2-  S249  1  0.87628981  0.00328531  0.54455797  1
  S2-  S250  1  0.88429033  0.26004720  0.03859332  1
  S2-  S251  1  0.87507003  0.25513207  0.54758562  1
  S2-  S252  1  0.87870787  0.50920287  0.04698137  1
  S2-  S253  1  0.88082082  0.49995402  0.54097990  1
  S2-  S254  1  0.88440066  0.76294354  0.04384565  1
  S2-  S255  1  0.87994187  0.75053202  0.53660447  1
