# generated using pymatgen
data_La6Ce7Pr13Nd19Sm19(BiS2)64
_symmetry_space_group_name_H-M   'P 1'
_cell_length_a   16.13214374
_cell_length_b   16.13885857
_cell_length_c   27.42683023
_cell_angle_alpha   89.97005653
_cell_angle_beta   89.63976788
_cell_angle_gamma   89.97076347
_symmetry_Int_Tables_number   1
_chemical_formula_structural   La6Ce7Pr13Nd19Sm19(BiS2)64
_chemical_formula_sum   'La6 Ce7 Pr13 Nd19 Sm19 Bi64 S128'
_cell_volume   7140.55252757
_cell_formula_units_Z   1
loop_
 _symmetry_equiv_pos_site_id
 _symmetry_equiv_pos_as_xyz
  1  'x, y, z'
loop_
 _atom_type_symbol
 _atom_type_oxidation_number
  La3+  3.0
  Ce3+  3.0
  Pr3+  3.0
  Nd3+  3.0
  Sm3+  3.0
  Bi2+  2.0
  S2-  -2.0
loop_
 _atom_site_type_symbol
 _atom_site_label
 _atom_site_symmetry_multiplicity
 _atom_site_fract_x
 _atom_site_fract_y
 _atom_site_fract_z
 _atom_site_occupancy
  La3+  La0  1  0.26213620  0.13736331  0.60144398  1
  La3+  La1  1  0.37781455  0.75804523  0.40533691  1
  La3+  La2  1  0.74674575  0.37798266  0.57694182  1
  La3+  La3  1  0.38586120  0.49688897  0.41012756  1
  La3+  La4  1  0.14306931  0.24322219  0.92180544  1
  La3+  La5  1  0.39123958  0.72615442  0.91238168  1
  Ce3+  Ce6  1  0.13507033  0.49336057  0.94501304  1
  Ce3+  Ce7  1  0.62854930  -0.01005716  0.94567739  1
  Ce3+  Ce8  1  0.24886720  0.61872703  0.07122337  1
  Ce3+  Ce9  1  0.88245166  0.48725386  0.93710951  1
  Ce3+  Ce10  1  0.49649129  0.37317125  0.55963052  1
  Ce3+  Ce11  1  0.62564080  -0.00127664  0.43777808  1
  Ce3+  Ce12  1  0.87306333  0.50071791  0.44123467  1
  Pr3+  Pr13  1  0.62414043  0.75703899  0.42830269  1
  Pr3+  Pr14  1  0.75013018  0.12769476  0.56593506  1
  Pr3+  Pr15  1  0.75305537  0.86473587  0.05788550  1
  Pr3+  Pr16  1  0.12994596  0.25317820  0.43883115  1
  Pr3+  Pr17  1  0.74825722  0.87657907  0.55968053  1
  Pr3+  Pr18  1  0.25800690  0.86230749  0.05889837  1
  Pr3+  Pr19  1  0.88032206  -0.00684256  0.93475937  1
  Pr3+  Pr20  1  0.25313111  0.62779140  0.54921082  1
  Pr3+  Pr21  1  0.00398441  0.13150680  0.56389197  1
  Pr3+  Pr22  1  0.50726675  0.61525680  0.10236050  1
  Pr3+  Pr23  1  0.50480084  0.86089585  0.05882771  1
  Pr3+  Pr24  1  0.49231909  0.87504350  0.56368888  1
  Pr3+  Pr25  1  0.00504997  0.61745934  0.05897682  1
  Nd3+  Nd26  1  0.87761051  0.73864978  0.93140813  1
  Nd3+  Nd27  1  0.25335316  0.11724414  0.06152583  1
  Nd3+  Nd28  1  0.00465355  0.36308582  0.05580342  1
  Nd3+  Nd29  1  0.00015704  0.62666337  0.55227260  1
  Nd3+  Nd30  1  0.13458071  0.73991990  0.93744960  1
  Nd3+  Nd31  1  0.62868599  0.49234150  0.94405926  1
  Nd3+  Nd32  1  0.75297882  0.36748755  0.05995016  1
  Nd3+  Nd33  1  0.00389980  0.87571102  0.57341113  1
  Nd3+  Nd34  1  0.49901482  0.62732396  0.55807238  1
  Nd3+  Nd35  1  0.12672643  0.75808222  0.43600628  1
  Nd3+  Nd36  1  0.24398403  0.36548489  0.07544715  1
  Nd3+  Nd37  1  0.00172772  0.86671745  0.04874621  1
  Nd3+  Nd38  1  0.37943615  0.24378888  0.94960294  1
  Nd3+  Nd39  1  0.87468331  0.25085347  0.43990028  1
  Nd3+  Nd40  1  0.37364962  0.00183737  0.44430565  1
  Nd3+  Nd41  1  0.12955074  0.50501370  0.43822405  1
  Nd3+  Nd42  1  0.00165170  0.37756313  0.55495555  1
  Nd3+  Nd43  1  0.88024464  0.00110330  0.44954535  1
  Nd3+  Nd44  1  0.00545835  0.11692615  0.04925748  1
  Sm3+  Sm45  1  0.75629981  0.61493714  0.06223890  1
  Sm3+  Sm46  1  0.49824412  0.12390972  0.55795663  1
  Sm3+  Sm47  1  0.13580917  -0.01182317  0.94110321  1
  Sm3+  Sm48  1  0.25173671  0.37675477  0.55568367  1
  Sm3+  Sm49  1  0.87765501  0.75369251  0.44339598  1
  Sm3+  Sm50  1  0.63373054  0.73665621  0.93586240  1
  Sm3+  Sm51  1  0.74793386  0.62909026  0.55145200  1
  Sm3+  Sm52  1  0.50218074  0.11808879  0.05736630  1
  Sm3+  Sm53  1  0.38133698  0.49512217  0.95355019  1
  Sm3+  Sm54  1  0.38133489  -0.01122144  0.94048147  1
  Sm3+  Sm55  1  0.50111346  0.37199724  0.06505519  1
  Sm3+  Sm56  1  0.88215926  0.24109009  0.93856400  1
  Sm3+  Sm57  1  0.24665370  0.87335123  0.56920978  1
  Sm3+  Sm58  1  0.62937120  0.24333836  0.94605900  1
  Sm3+  Sm59  1  0.62622075  0.49840799  0.44317624  1
  Sm3+  Sm60  1  0.75296889  0.11838103  0.05304293  1
  Sm3+  Sm61  1  0.37727296  0.24937081  0.43602606  1
  Sm3+  Sm62  1  0.12881056  0.00225334  0.45556716  1
  Sm3+  Sm63  1  0.62807410  0.25034367  0.44561389  1
  Bi2+  Bi64  1  -0.01670707  0.14821945  0.28761977  1
  Bi2+  Bi65  1  -0.04643704  0.14470837  0.79152736  1
  Bi2+  Bi66  1  -0.06593533  0.37526793  0.26301952  1
  Bi2+  Bi67  1  -0.00382744  0.40114486  0.76608652  1
  Bi2+  Bi68  1  -0.05276065  0.63198754  0.27985445  1
  Bi2+  Bi69  1  0.02447304  0.59868633  0.79163992  1
  Bi2+  Bi70  1  -0.03322011  0.87648200  0.31851327  1
  Bi2+  Bi71  1  -0.07834915  0.76825863  0.80465868  1
  Bi2+  Bi72  1  0.25211667  0.13436598  0.28997854  1
  Bi2+  Bi73  1  0.23182990  0.10413343  0.80408485  1
  Bi2+  Bi74  1  0.22402196  0.37006935  0.29166767  1
  Bi2+  Bi75  1  0.26820328  0.36508974  0.79118808  1
  Bi2+  Bi76  1  0.21094973  0.61707905  0.28727300  1
  Bi2+  Bi77  1  0.25673953  0.61528731  0.80593099  1
  Bi2+  Bi78  1  0.22117804  0.87325816  0.30091328  1
  Bi2+  Bi79  1  0.21839283  0.86868733  0.79680086  1
  Bi2+  Bi80  1  0.44033038  0.13016421  0.32805812  1
  Bi2+  Bi81  1  0.51656585  0.11584040  0.74173444  1
  Bi2+  Bi82  1  0.49173016  0.31014631  0.28944254  1
  Bi2+  Bi83  1  0.49236275  0.38906550  0.75898049  1
  Bi2+  Bi84  1  0.57033825  0.60448168  0.29405453  1
  Bi2+  Bi85  1  0.51793497  0.59845606  0.79331405  1
  Bi2+  Bi86  1  0.50301098  0.94984188  0.29922796  1
  Bi2+  Bi87  1  0.55043930  0.88388314  0.79149773  1
  Bi2+  Bi88  1  0.72072873  0.17967759  0.29644510  1
  Bi2+  Bi89  1  0.69796717  0.14477185  0.79500296  1
  Bi2+  Bi90  1  0.75579743  0.43644037  0.30532881  1
  Bi2+  Bi91  1  0.74076591  0.38581917  0.80885977  1
  Bi2+  Bi92  1  0.75119994  0.60945168  0.24963093  1
  Bi2+  Bi93  1  0.76569706  0.69225530  0.75087391  1
  Bi2+  Bi94  1  0.77591480  0.92537191  0.28627660  1
  Bi2+  Bi95  1  0.75235969  0.87859004  0.80087123  1
  Bi2+  Bi96  1  0.08631595  -0.00600763  0.25285334  1
  Bi2+  Bi97  1  0.05447655  -0.09623043  0.73674745  1
  Bi2+  Bi98  1  0.12806700  0.21362903  0.19929119  1
  Bi2+  Bi99  1  0.11740511  0.22793842  0.70088964  1
  Bi2+  Bi100  1  0.05414244  0.49317890  0.20507424  1
  Bi2+  Bi101  1  0.15911281  0.48316420  0.72615982  1
  Bi2+  Bi102  1  0.10375368  0.77261946  0.19848051  1
  Bi2+  Bi103  1  0.09660253  0.71618539  0.69685441  1
  Bi2+  Bi104  1  0.37556560  0.03237868  0.22650367  1
  Bi2+  Bi105  1  0.40407819  -0.04476226  0.72741452  1
  Bi2+  Bi106  1  0.37496416  0.23730350  0.20734849  1
  Bi2+  Bi107  1  0.36996465  0.25572061  0.71597957  1
  Bi2+  Bi108  1  0.39251358  0.49690187  0.21643188  1
  Bi2+  Bi109  1  0.35797759  0.51264266  0.71916289  1
  Bi2+  Bi110  1  0.36858060  0.76850110  0.20100696  1
  Bi2+  Bi111  1  0.35839005  0.71863947  0.70530959  1
  Bi2+  Bi112  1  0.64474202  0.03870459  0.23685520  1
  Bi2+  Bi113  1  0.68830824  0.05468132  0.68997886  1
  Bi2+  Bi114  1  0.59064010  0.22794363  0.20254918  1
  Bi2+  Bi115  1  0.63368914  0.26952516  0.71332904  1
  Bi2+  Bi116  1  0.65958257  0.41057360  0.20743922  1
  Bi2+  Bi117  1  0.63484585  0.53564202  0.69208328  1
  Bi2+  Bi118  1  0.62845136  0.78092080  0.19811694  1
  Bi2+  Bi119  1  0.59692455  0.79748966  0.69707594  1
  Bi2+  Bi120  1  0.90234574  0.03715325  0.20644881  1
  Bi2+  Bi121  1  0.86174733  -0.00165807  0.72743862  1
  Bi2+  Bi122  1  0.83698151  0.23437678  0.20629453  1
  Bi2+  Bi123  1  0.89369700  0.25955649  0.70730240  1
  Bi2+  Bi124  1  0.89398710  0.58784145  0.16756995  1
  Bi2+  Bi125  1  0.88687647  0.54060666  0.71787148  1
  Bi2+  Bi126  1  0.89016524  0.77316433  0.20437908  1
  Bi2+  Bi127  1  0.90644929  0.81213626  0.68650535  1
  S2-  S128  1  0.00579734  0.14023661  0.14650961  1
  S2-  S129  1  0.00007539  0.12603205  0.66403689  1
  S2-  S130  1  0.09570034  0.35729829  0.13987119  1
  S2-  S131  1  0.00531020  0.35134454  0.65239179  1
  S2-  S132  1  0.11160102  0.62536044  0.14129394  1
  S2-  S133  1  0.01077633  0.60143439  0.64915043  1
  S2-  S134  1  0.00335038  0.87010431  0.14712493  1
  S2-  S135  1  0.12471119  0.87337356  0.64416856  1
  S2-  S136  1  0.23554678  0.11070591  0.15892069  1
  S2-  S137  1  0.21434059  0.09667861  0.69916617  1
  S2-  S138  1  0.30582807  0.37837058  0.17008968  1
  S2-  S139  1  0.24606572  0.30149561  0.64362973  1
  S2-  S140  1  0.32281321  0.61634530  0.16075764  1
  S2-  S141  1  0.24337079  0.65672193  0.64904930  1
  S2-  S142  1  0.23477093  0.85688481  0.15883705  1
  S2-  S143  1  0.34048676  0.86306716  0.65281945  1
  S2-  S144  1  0.48006334  0.11250644  0.15356778  1
  S2-  S145  1  0.42385217  0.14633225  0.64491241  1
  S2-  S146  1  0.51537829  0.45682246  0.14983420  1
  S2-  S147  1  0.55542841  0.39125604  0.64954397  1
  S2-  S148  1  0.49707367  0.66091391  0.20440248  1
  S2-  S149  1  0.50797394  0.65708780  0.65689759  1
  S2-  S150  1  0.49881259  0.86418900  0.15908065  1
  S2-  S151  1  0.52306700  0.93612742  0.65595370  1
  S2-  S152  1  0.76748676  0.10213787  0.14887404  1
  S2-  S153  1  0.76515906  0.24106276  0.64331793  1
  S2-  S154  1  0.80405253  0.38243756  0.15317525  1
  S2-  S155  1  0.76954913  0.45049582  0.67078374  1
  S2-  S156  1  0.66948725  0.63752370  0.14500561  1
  S2-  S157  1  0.72895001  0.65326614  0.64721063  1
  S2-  S158  1  0.75524126  0.85758269  0.15706263  1
  S2-  S159  1  0.72619804  0.88552975  0.65793051  1
  S2-  S160  1  0.10920508  -0.02799512  0.36049090  1
  S2-  S161  1  0.12083807  -0.00705057  0.84437638  1
  S2-  S162  1  0.14388711  0.25221018  0.33836737  1
  S2-  S163  1  0.09316560  0.21586247  0.82429842  1
  S2-  S164  1  0.13863876  0.48339341  0.33969814  1
  S2-  S165  1  0.17697958  0.46754545  0.85289707  1
  S2-  S166  1  0.12004765  0.74023781  0.33766402  1
  S2-  S167  1  0.13603911  0.73211916  0.83848522  1
  S2-  S168  1  0.35556416  -0.08430409  0.35873193  1
  S2-  S169  1  0.34389792  0.00228877  0.84476557  1
  S2-  S170  1  0.36242194  0.34600390  0.35393400  1
  S2-  S171  1  0.29471512  0.23898259  0.86423884  1
  S2-  S172  1  0.34725664  0.54825704  0.31374202  1
  S2-  S173  1  0.39240750  0.55963461  0.86122893  1
  S2-  S174  1  0.32440146  0.74454231  0.30028387  1
  S2-  S175  1  0.34057766  0.76941218  0.81657946  1
  S2-  S176  1  0.64318772  -0.09821193  0.35787844  1
  S2-  S177  1  0.63219754  0.00165706  0.84894499  1
  S2-  S178  1  0.65883916  0.30110253  0.35339198  1
  S2-  S179  1  0.62231811  0.26646316  0.85037305  1
  S2-  S180  1  0.54325359  0.49365801  0.35857824  1
  S2-  S181  1  0.63765939  0.50090544  0.84454775  1
  S2-  S182  1  0.52111321  0.72887780  0.34963949  1
  S2-  S183  1  0.53882352  0.73014992  0.85131414  1
  S2-  S184  1  0.86688633  0.01474440  0.35116668  1
  S2-  S185  1  0.87949952  0.00374896  0.83562720  1
  S2-  S186  1  0.90140983  0.26382547  0.34237371  1
  S2-  S187  1  0.85160232  0.25275552  0.84281733  1
  S2-  S188  1  0.90409170  0.50653399  0.34521249  1
  S2-  S189  1  0.85823432  0.48204403  0.84057622  1
  S2-  S190  1  0.86216149  0.75721534  0.34649198  1
  S2-  S191  1  0.75493050  0.72839222  0.86063479  1
  S2-  S192  1  0.00370239  0.12772855  0.45578732  1
  S2-  S193  1  0.00984224  0.11660908  0.94449958  1
  S2-  S194  1  0.00249717  0.37769925  0.44926767  1
  S2-  S195  1  0.00922007  0.36201011  0.94747663  1
  S2-  S196  1  0.00143702  0.62920365  0.44662767  1
  S2-  S197  1  0.00533126  0.61686884  0.94846710  1
  S2-  S198  1  0.00222917  0.87648766  0.46605857  1
  S2-  S199  1  0.00612038  0.86558042  0.94346081  1
  S2-  S200  1  0.25108872  0.12637564  0.44656792  1
  S2-  S201  1  0.25823992  0.10927336  0.95723400  1
  S2-  S202  1  0.25396774  0.38130223  0.45350817  1
  S2-  S203  1  0.25963885  0.37085610  0.96568123  1
  S2-  S204  1  0.25668100  0.62997600  0.44219811  1
  S2-  S205  1  0.25867852  0.62006424  0.96018036  1
  S2-  S206  1  0.24832798  0.87652271  0.46272006  1
  S2-  S207  1  0.26123404  0.86287895  0.95104181  1
  S2-  S208  1  0.50215721  0.12710811  0.45449307  1
  S2-  S209  1  0.50313478  0.11829163  0.95225978  1
  S2-  S210  1  0.50289501  0.37105372  0.45610819  1
  S2-  S211  1  0.50356929  0.36766328  0.95897325  1
  S2-  S212  1  0.49882398  0.62289903  0.45448258  1
  S2-  S213  1  0.50884323  0.61482582  0.95966243  1
  S2-  S214  1  0.49750740  0.87657400  0.45653248  1
  S2-  S215  1  0.50256135  0.86321119  0.95208942  1
  S2-  S216  1  0.75156270  0.12564165  0.45722622  1
  S2-  S217  1  0.75395163  0.12050942  0.94871076  1
  S2-  S218  1  0.75047800  0.37489018  0.46160002  1
  S2-  S219  1  0.75526493  0.36340068  0.95415010  1
  S2-  S220  1  0.74909372  0.62797525  0.44650119  1
  S2-  S221  1  0.75793234  0.60962959  0.95840999  1
  S2-  S222  1  0.75701617  0.87656183  0.45520299  1
  S2-  S223  1  0.75549924  0.86868752  0.95245353  1
  S2-  S224  1  0.13008331  -0.01003227  0.04607274  1
  S2-  S225  1  0.13525789  0.01281194  0.55775288  1
  S2-  S226  1  0.13148015  0.23882099  0.03583558  1
  S2-  S227  1  0.12913419  0.25243024  0.54461214  1
  S2-  S228  1  0.12796220  0.49044416  0.04641357  1
  S2-  S229  1  0.12760573  0.50051927  0.54479896  1
  S2-  S230  1  0.12731367  0.74600360  0.04143215  1
  S2-  S231  1  0.12395541  0.75065912  0.54226936  1
  S2-  S232  1  0.38057161  -0.00712718  0.04745406  1
  S2-  S233  1  0.36904851  0.00517289  0.54993353  1
  S2-  S234  1  0.37877035  0.24479399  0.05437088  1
  S2-  S235  1  0.37258457  0.24958354  0.53966731  1
  S2-  S236  1  0.37680172  0.49182584  0.05482223  1
  S2-  S237  1  0.37449717  0.49951896  0.55547502  1
  S2-  S238  1  0.38358590  0.73585224  0.05871069  1
  S2-  S239  1  0.37441328  0.75067871  0.54468298  1
  S2-  S240  1  0.62719085  -0.00467201  0.05163435  1
  S2-  S241  1  0.62377156  0.00377322  0.54444768  1
  S2-  S242  1  0.62596136  0.24338926  0.05105598  1
  S2-  S243  1  0.62100997  0.24819187  0.54908346  1
  S2-  S244  1  0.63040361  0.49173990  0.04899625  1
  S2-  S245  1  0.62576310  0.50384489  0.54610705  1
  S2-  S246  1  0.63141320  0.73884153  0.04150143  1
  S2-  S247  1  0.62410425  0.75284026  0.54007380  1
  S2-  S248  1  0.87736249  -0.00559932  0.04194659  1
  S2-  S249  1  0.87883239  0.00218591  0.55647693  1
  S2-  S250  1  0.87810110  0.24079790  0.04332074  1
  S2-  S251  1  0.87822886  0.25398932  0.54442561  1
  S2-  S252  1  0.88126147  0.48783095  0.04212951  1
  S2-  S253  1  0.87331964  0.50358279  0.54731041  1
  S2-  S254  1  0.87792029  0.74056372  0.03942438  1
  S2-  S255  1  0.87567258  0.75147552  0.54800416  1
