# generated using pymatgen
data_La6Ce7Pr13Nd19Sm19(BiS2)64
_symmetry_space_group_name_H-M   'P 1'
_cell_length_a   16.08397232
_cell_length_b   16.06253176
_cell_length_c   27.41317493
_cell_angle_alpha   90.07398095
_cell_angle_beta   89.99722833
_cell_angle_gamma   89.96770014
_symmetry_Int_Tables_number   1
_chemical_formula_structural   La6Ce7Pr13Nd19Sm19(BiS2)64
_chemical_formula_sum   'La6 Ce7 Pr13 Nd19 Sm19 Bi64 S128'
_cell_volume   7082.16796164
_cell_formula_units_Z   1
loop_
 _symmetry_equiv_pos_site_id
 _symmetry_equiv_pos_as_xyz
  1  'x, y, z'
loop_
 _atom_type_symbol
 _atom_type_oxidation_number
  La3+  3.0
  Ce3+  3.0
  Pr3+  3.0
  Nd3+  3.0
  Sm3+  3.0
  Bi2+  2.0
  S2-  -2.0
loop_
 _atom_site_type_symbol
 _atom_site_label
 _atom_site_symmetry_multiplicity
 _atom_site_fract_x
 _atom_site_fract_y
 _atom_site_fract_z
 _atom_site_occupancy
  La3+  La0  1  0.64515860  0.51705711  0.89162928  1
  La3+  La1  1  0.52196342  0.36157751  0.62367221  1
  La3+  La2  1  0.88353345  -0.00123795  0.93281690  1
  La3+  La3  1  0.25259348  0.35641233  0.59445067  1
  La3+  La4  1  0.13715210  0.49524029  0.92176223  1
  La3+  La5  1  0.75571034  0.10786767  0.56389736  1
  Ce3+  Ce6  1  0.63368870  0.74918182  0.94430585  1
  Ce3+  Ce7  1  0.75965462  0.35048489  0.56554437  1
  Ce3+  Ce8  1  0.75706935  0.62238344  0.06375685  1
  Ce3+  Ce9  1  0.88415406  -0.02242454  0.43326732  1
  Ce3+  Ce10  1  0.25866491  0.60516589  0.56086945  1
  Ce3+  Ce11  1  0.13325465  0.24722030  0.93888994  1
  Ce3+  Ce12  1  0.88011908  0.74908734  0.94649520  1
  Pr3+  Pr13  1  0.75479227  0.13025312  0.06378799  1
  Pr3+  Pr14  1  0.63071950  0.25029670  0.92841570  1
  Pr3+  Pr15  1  0.00567228  0.88194825  0.06676144  1
  Pr3+  Pr16  1  0.76187473  0.86563574  0.57485976  1
  Pr3+  Pr17  1  0.13385841  0.48804605  0.43312833  1
  Pr3+  Pr18  1  0.75561364  0.60505146  0.56391583  1
  Pr3+  Pr19  1  0.50722185  0.12727650  0.06072367  1
  Pr3+  Pr20  1  0.63442136  0.00353323  0.92690009  1
  Pr3+  Pr21  1  0.25326859  0.11499665  0.06882742  1
  Pr3+  Pr22  1  0.25168092  0.86286882  0.56790505  1
  Pr3+  Pr23  1  0.00987259  0.60665956  0.56318141  1
  Pr3+  Pr24  1  0.13301325  -0.00791266  0.92248074  1
  Pr3+  Pr25  1  0.13771495  -0.01944566  0.41144634  1
  Nd3+  Nd26  1  0.88185430  0.49791529  0.94289340  1
  Nd3+  Nd27  1  0.37904039  0.24802685  0.94149617  1
  Nd3+  Nd28  1  0.25511622  0.86933130  0.06290483  1
  Nd3+  Nd29  1  0.25222333  0.37504037  0.06421920  1
  Nd3+  Nd30  1  0.00729649  0.12773300  0.06394412  1
  Nd3+  Nd31  1  0.50500273  0.37697022  0.05392791  1
  Nd3+  Nd32  1  0.50741184  0.62142945  0.05265559  1
  Nd3+  Nd33  1  0.88224660  0.25166849  0.93967197  1
  Nd3+  Nd34  1  0.63263829  0.48298310  0.44400420  1
  Nd3+  Nd35  1  0.14816230  0.24570257  0.41259928  1
  Nd3+  Nd36  1  0.13227893  0.73607141  0.44152304  1
  Nd3+  Nd37  1  0.50650692  0.60568529  0.56645323  1
  Nd3+  Nd38  1  0.50082414  0.10840142  0.56514252  1
  Nd3+  Nd39  1  0.63395408  -0.01444301  0.43666473  1
  Nd3+  Nd40  1  0.01276182  0.11166130  0.54403690  1
  Nd3+  Nd41  1  0.75338544  0.88315674  0.07052597  1
  Nd3+  Nd42  1  0.13199321  0.74593031  0.93124873  1
  Nd3+  Nd43  1  0.38333031  0.73631512  0.44713199  1
  Nd3+  Nd44  1  0.00801543  0.86713084  0.56837054  1
  Sm3+  Sm45  1  0.63125049  0.23449275  0.44718785  1
  Sm3+  Sm46  1  0.37703422  -0.00316447  0.94170133  1
  Sm3+  Sm47  1  0.00714694  0.62375096  0.05610405  1
  Sm3+  Sm48  1  0.88164196  0.73694012  0.44981744  1
  Sm3+  Sm49  1  0.38320286  0.74499531  0.93834361  1
  Sm3+  Sm50  1  0.50469607  0.86430104  0.56359147  1
  Sm3+  Sm51  1  0.25358066  0.11490657  0.55238306  1
  Sm3+  Sm52  1  0.50869441  0.87371544  0.04996435  1
  Sm3+  Sm53  1  0.01418919  0.37242263  0.06815624  1
  Sm3+  Sm54  1  0.38022760  0.49895782  0.94215320  1
  Sm3+  Sm55  1  0.75554112  0.37193741  0.05747229  1
  Sm3+  Sm56  1  0.01394980  0.35752157  0.55026978  1
  Sm3+  Sm57  1  0.38244877  0.23846568  0.44726489  1
  Sm3+  Sm58  1  0.63272677  0.73812842  0.45400717  1
  Sm3+  Sm59  1  0.37991250  -0.01498037  0.43895814  1
  Sm3+  Sm60  1  0.24382769  0.62774446  0.06562207  1
  Sm3+  Sm61  1  0.38450618  0.48303042  0.44992617  1
  Sm3+  Sm62  1  0.88444504  0.23122688  0.43434909  1
  Sm3+  Sm63  1  0.88115764  0.48370763  0.44862257  1
  Bi2+  Bi64  1  -0.03532364  0.13139955  0.28391659  1
  Bi2+  Bi65  1  -0.01439411  0.16980384  0.79398964  1
  Bi2+  Bi66  1  -0.01848569  0.40814226  0.29061329  1
  Bi2+  Bi67  1  0.01121693  0.44609669  0.80591178  1
  Bi2+  Bi68  1  0.07501995  0.61248176  0.31687708  1
  Bi2+  Bi69  1  -0.06210431  0.63199231  0.80337250  1
  Bi2+  Bi70  1  -0.00315175  0.86867948  0.29428988  1
  Bi2+  Bi71  1  0.02743898  0.90298490  0.78134498  1
  Bi2+  Bi72  1  0.25462161  0.13172297  0.29054780  1
  Bi2+  Bi73  1  0.17558039  0.11646773  0.80664635  1
  Bi2+  Bi74  1  0.25941535  0.43241132  0.28498295  1
  Bi2+  Bi75  1  0.26046168  0.36956446  0.79109932  1
  Bi2+  Bi76  1  0.25343152  0.63834613  0.27185135  1
  Bi2+  Bi77  1  0.22792796  0.61784163  0.78025476  1
  Bi2+  Bi78  1  0.25766841  0.84895388  0.28638922  1
  Bi2+  Bi79  1  0.28073431  0.87506005  0.79410997  1
  Bi2+  Bi80  1  0.51116901  0.14589230  0.28965781  1
  Bi2+  Bi81  1  0.46457354  0.08294906  0.78800131  1
  Bi2+  Bi82  1  0.49189569  0.42362072  0.29415273  1
  Bi2+  Bi83  1  0.48439814  0.37233420  0.81254436  1
  Bi2+  Bi84  1  0.49956906  0.62830035  0.25698827  1
  Bi2+  Bi85  1  0.49206483  0.70215776  0.80390654  1
  Bi2+  Bi86  1  0.49458866  0.82912031  0.29930494  1
  Bi2+  Bi87  1  0.52327302  0.89709298  0.79173233  1
  Bi2+  Bi88  1  0.74092561  0.12236775  0.29992461  1
  Bi2+  Bi89  1  0.73639518  0.11541874  0.79228207  1
  Bi2+  Bi90  1  0.69374881  0.38145379  0.25907534  1
  Bi2+  Bi91  1  0.81822879  0.40495362  0.77833075  1
  Bi2+  Bi92  1  0.75938802  0.58272065  0.29502933  1
  Bi2+  Bi93  1  0.69736816  0.70987506  0.74959038  1
  Bi2+  Bi94  1  0.72633714  0.84763935  0.30142834  1
  Bi2+  Bi95  1  0.71910141  0.90713816  0.76865411  1
  Bi2+  Bi96  1  0.14119145  0.02902947  0.19913661  1
  Bi2+  Bi97  1  0.13920660  0.00923413  0.70947817  1
  Bi2+  Bi98  1  0.11172354  0.27745810  0.20800204  1
  Bi2+  Bi99  1  0.14832023  0.24307865  0.72371811  1
  Bi2+  Bi100  1  0.07261729  0.51617958  0.21185613  1
  Bi2+  Bi101  1  0.09863011  0.49924810  0.70607344  1
  Bi2+  Bi102  1  0.13401338  0.76531081  0.19940335  1
  Bi2+  Bi103  1  0.13007561  0.74976857  0.71748919  1
  Bi2+  Bi104  1  0.39506900  -0.00741326  0.26354526  1
  Bi2+  Bi105  1  0.33928559  -0.00487381  0.70452291  1
  Bi2+  Bi106  1  0.37531336  0.27511442  0.25664120  1
  Bi2+  Bi107  1  0.37710043  0.20356990  0.70910008  1
  Bi2+  Bi108  1  0.35730287  0.52165043  0.19917065  1
  Bi2+  Bi109  1  0.36710323  0.60520940  0.70064180  1
  Bi2+  Bi110  1  0.40047790  0.78572752  0.20148415  1
  Bi2+  Bi111  1  0.32167052  0.79346496  0.68640090  1
  Bi2+  Bi112  1  0.61034447  -0.02385076  0.20163817  1
  Bi2+  Bi113  1  0.59444838  0.04825369  0.70358698  1
  Bi2+  Bi114  1  0.60883079  0.22683551  0.20022827  1
  Bi2+  Bi115  1  0.70802859  0.26610202  0.72132930  1
  Bi2+  Bi116  1  0.57052354  0.46737977  0.18538183  1
  Bi2+  Bi117  1  0.64667082  0.52144380  0.72061214  1
  Bi2+  Bi118  1  0.66906830  0.71565608  0.22229427  1
  Bi2+  Bi119  1  0.52202634  0.76853133  0.69512498  1
  Bi2+  Bi120  1  0.86763206  -0.05964396  0.19970259  1
  Bi2+  Bi121  1  0.87589484  0.04794950  0.68439923  1
  Bi2+  Bi122  1  0.86389328  0.32096154  0.20815405  1
  Bi2+  Bi123  1  0.95907443  0.31339759  0.71550575  1
  Bi2+  Bi124  1  0.87003436  0.51672504  0.20235703  1
  Bi2+  Bi125  1  0.90066010  0.53524616  0.70194584  1
  Bi2+  Bi126  1  0.91713573  0.69182961  0.26892394  1
  Bi2+  Bi127  1  0.88016265  0.79975602  0.73805191  1
  S2-  S128  1  0.00141814  0.02699988  0.14735353  1
  S2-  S129  1  0.01379531  0.08629706  0.64360381  1
  S2-  S130  1  -0.00954677  0.25127814  0.14324096  1
  S2-  S131  1  0.08451723  0.35503588  0.63980264  1
  S2-  S132  1  0.10840161  0.62558034  0.13580134  1
  S2-  S133  1  0.02650977  0.64594584  0.66049654  1
  S2-  S134  1  -0.00357510  0.82807493  0.16507519  1
  S2-  S135  1  -0.10519480  0.87344330  0.64644051  1
  S2-  S136  1  0.21649549  0.18054272  0.16286796  1
  S2-  S137  1  0.24342007  0.18757992  0.64196647  1
  S2-  S138  1  0.14121563  0.39711333  0.14031661  1
  S2-  S139  1  0.36560860  0.35449126  0.67250847  1
  S2-  S140  1  0.27268656  0.74905331  0.13679689  1
  S2-  S141  1  0.24037513  0.52395791  0.64634173  1
  S2-  S142  1  0.25590421  0.97989413  0.14125125  1
  S2-  S143  1  0.12748444  0.87063630  0.64250378  1
  S2-  S144  1  0.51593052  0.09070115  0.15889700  1
  S2-  S145  1  0.52312327  0.18906157  0.65302625  1
  S2-  S146  1  0.49501074  0.32699427  0.14893399  1
  S2-  S147  1  0.55296286  0.34109531  0.73025035  1
  S2-  S148  1  0.47672286  0.62458113  0.15021840  1
  S2-  S149  1  0.51626053  0.53412816  0.65758916  1
  S2-  S150  1  0.53054616  0.86946319  0.14784936  1
  S2-  S151  1  0.48455114  0.97680280  0.63716061  1
  S2-  S152  1  0.75131669  0.01997854  0.14421761  1
  S2-  S153  1  0.80136696  0.20067835  0.64695849  1
  S2-  S154  1  0.74534957  0.26289974  0.13569773  1
  S2-  S155  1  0.69693634  0.39566602  0.65230279  1
  S2-  S156  1  0.72435357  0.58785589  0.15711889  1
  S2-  S157  1  0.75916381  0.62510661  0.66290058  1
  S2-  S158  1  0.77302346  0.81932175  0.16497505  1
  S2-  S159  1  0.72599468  0.99317377  0.64265101  1
  S2-  S160  1  0.07674020  0.00670984  0.31169817  1
  S2-  S161  1  -0.00431493  0.01956411  0.85349947  1
  S2-  S162  1  0.09770262  0.20457512  0.31614856  1
  S2-  S163  1  0.13083522  0.34986687  0.85829545  1
  S2-  S164  1  0.13518586  0.39231975  0.35010834  1
  S2-  S165  1  0.12004425  0.62701060  0.85367014  1
  S2-  S166  1  0.12690919  0.82573610  0.35721452  1
  S2-  S167  1  0.13816927  0.85368496  0.85232122  1
  S2-  S168  1  0.29062935  -0.01170865  0.35547767  1
  S2-  S169  1  0.28121547  0.00843563  0.86022963  1
  S2-  S170  1  0.31100003  0.24116087  0.35670066  1
  S2-  S171  1  0.35878263  0.25080911  0.84225518  1
  S2-  S172  1  0.37824410  0.50320079  0.35231958  1
  S2-  S173  1  0.31943358  0.48435561  0.84984372  1
  S2-  S174  1  0.36538947  0.75406992  0.34972368  1
  S2-  S175  1  0.33474915  0.72635419  0.84460410  1
  S2-  S176  1  0.64988959  -0.01679039  0.33711973  1
  S2-  S177  1  0.60114771  0.12904406  0.85310129  1
  S2-  S178  1  0.63758773  0.21911901  0.34926527  1
  S2-  S179  1  0.63376966  0.35696486  0.84875042  1
  S2-  S180  1  0.64124411  0.48231982  0.34514495  1
  S2-  S181  1  0.54563214  0.52635335  0.80553391  1
  S2-  S182  1  0.62719161  0.74875040  0.35709186  1
  S2-  S183  1  0.65365433  0.69294520  0.85369575  1
  S2-  S184  1  0.86507709  0.02104524  0.33891421  1
  S2-  S185  1  0.76536797  -0.01991343  0.85720909  1
  S2-  S186  1  0.86054153  0.23647640  0.33748993  1
  S2-  S187  1  0.84777526  0.22845353  0.84304584  1
  S2-  S188  1  0.88258146  0.49811845  0.35180084  1
  S2-  S189  1  0.81026454  0.52530696  0.85216739  1
  S2-  S190  1  0.87200710  0.80073101  0.35949964  1
  S2-  S191  1  0.90022332  0.77427026  0.85008036  1
  S2-  S192  1  0.01336352  0.11046641  0.43826973  1
  S2-  S193  1  0.00826360  0.12916441  0.95613609  1
  S2-  S194  1  0.00410110  0.35982664  0.44710304  1
  S2-  S195  1  0.00646178  0.37447198  0.95939519  1
  S2-  S196  1  0.00335781  0.61116685  0.45596043  1
  S2-  S197  1  0.00358914  0.62263242  0.95385601  1
  S2-  S198  1  0.00779923  0.85907297  0.46001958  1
  S2-  S199  1  0.00622634  0.87089752  0.95754373  1
  S2-  S200  1  0.25676685  0.11161036  0.45049764  1
  S2-  S201  1  0.25666796  0.12368088  0.96028071  1
  S2-  S202  1  0.26173533  0.36509534  0.45456405  1
  S2-  S203  1  0.25898557  0.37351184  0.95989939  1
  S2-  S204  1  0.25965492  0.61132617  0.45324072  1
  S2-  S205  1  0.25974451  0.62418562  0.95892213  1
  S2-  S206  1  0.25870254  0.85983959  0.45972410  1
  S2-  S207  1  0.26252345  0.86739961  0.95702775  1
  S2-  S208  1  0.50444463  0.10940171  0.45224545  1
  S2-  S209  1  0.49923294  0.12067220  0.95495287  1
  S2-  S210  1  0.50748425  0.35829253  0.44483436  1
  S2-  S211  1  0.50121841  0.37660190  0.94900164  1
  S2-  S212  1  0.50976264  0.61153351  0.45852058  1
  S2-  S213  1  0.50849334  0.61827594  0.94659971  1
  S2-  S214  1  0.50631632  0.86297099  0.45795281  1
  S2-  S215  1  0.50520971  0.87432217  0.94492626  1
  S2-  S216  1  0.75781083  0.11059447  0.45361419  1
  S2-  S217  1  0.75703364  0.12871341  0.95626796  1
  S2-  S218  1  0.75890186  0.35697130  0.45449807  1
  S2-  S219  1  0.75633459  0.37654059  0.95384342  1
  S2-  S220  1  0.75733594  0.61211852  0.45698892  1
  S2-  S221  1  0.75567108  0.62197343  0.95940221  1
  S2-  S222  1  0.75500320  0.85998862  0.46354041  1
  S2-  S223  1  0.75393543  0.87227357  0.96220597  1
  S2-  S224  1  0.12992527  -0.00214308  0.03692800  1
  S2-  S225  1  0.13507945  -0.01157810  0.53696502  1
  S2-  S226  1  0.13433627  0.24843625  0.04330431  1
  S2-  S227  1  0.13451943  0.23766108  0.53169035  1
  S2-  S228  1  0.13017537  0.50096665  0.03484281  1
  S2-  S229  1  0.13263570  0.48375903  0.53923238  1
  S2-  S230  1  0.12566365  0.75097839  0.03804462  1
  S2-  S231  1  0.13304692  0.73198299  0.54638821  1
  S2-  S232  1  0.38635180  -0.00396356  0.04461686  1
  S2-  S233  1  0.37347791  -0.01380932  0.54088796  1
  S2-  S234  1  0.37580913  0.24928462  0.04915134  1
  S2-  S235  1  0.38048163  0.23559789  0.54824959  1
  S2-  S236  1  0.37546471  0.50204481  0.04721854  1
  S2-  S237  1  0.38495641  0.48048961  0.55273749  1
  S2-  S238  1  0.38702659  0.74765041  0.04056290  1
  S2-  S239  1  0.38358643  0.73616895  0.55271216  1
  S2-  S240  1  0.62771225  0.00059775  0.03813050  1
  S2-  S241  1  0.62642144  -0.01680805  0.54038657  1
  S2-  S242  1  0.62687526  0.25290310  0.03631656  1
  S2-  S243  1  0.62768615  0.23684184  0.54972634  1
  S2-  S244  1  0.63256868  0.49536089  0.04929643  1
  S2-  S245  1  0.63058574  0.48150306  0.54809581  1
  S2-  S246  1  0.63203223  0.74811774  0.05036225  1
  S2-  S247  1  0.63079188  0.73847961  0.55829743  1
  S2-  S248  1  0.87964954  0.00307912  0.04178493  1
  S2-  S249  1  0.88488658  -0.01157942  0.53911182  1
  S2-  S250  1  0.88376667  0.25373967  0.04235614  1
  S2-  S251  1  0.88910737  0.23645306  0.53853192  1
  S2-  S252  1  0.88462388  0.49446943  0.05081024  1
  S2-  S253  1  0.88406804  0.47924381  0.55302542  1
  S2-  S254  1  0.88235784  0.74808014  0.05280262  1
  S2-  S255  1  0.88212207  0.73227813  0.55276042  1
