# generated using pymatgen
data_La6Ce7Pr13Nd19Sm19(BiS2)64
_symmetry_space_group_name_H-M   'P 1'
_cell_length_a   16.08376348
_cell_length_b   16.04415038
_cell_length_c   27.45155926
_cell_angle_alpha   89.99738035
_cell_angle_beta   89.81416772
_cell_angle_gamma   89.80402435
_symmetry_Int_Tables_number   1
_chemical_formula_structural   La6Ce7Pr13Nd19Sm19(BiS2)64
_chemical_formula_sum   'La6 Ce7 Pr13 Nd19 Sm19 Bi64 S128'
_cell_volume   7083.80494704
_cell_formula_units_Z   1
loop_
 _symmetry_equiv_pos_site_id
 _symmetry_equiv_pos_as_xyz
  1  'x, y, z'
loop_
 _atom_type_symbol
 _atom_type_oxidation_number
  La3+  3.0
  Ce3+  3.0
  Pr3+  3.0
  Nd3+  3.0
  Sm3+  3.0
  Bi2+  2.0
  S2-  -2.0
loop_
 _atom_site_type_symbol
 _atom_site_label
 _atom_site_symmetry_multiplicity
 _atom_site_fract_x
 _atom_site_fract_y
 _atom_site_fract_z
 _atom_site_occupancy
  La3+  La0  1  0.23885961  0.63235339  0.09014388  1
  La3+  La1  1  0.79038935  0.89373395  0.10740947  1
  La3+  La2  1  -0.00573863  0.85490661  0.58169385  1
  La3+  La3  1  0.63708942  0.49753005  0.93299668  1
  La3+  La4  1  0.49582914  0.61156565  0.08377502  1
  La3+  La5  1  0.62355725  0.75460595  0.38965218  1
  Ce3+  Ce6  1  0.25846601  0.86920878  0.04815046  1
  Ce3+  Ce7  1  0.49602909  0.61356281  0.55310150  1
  Ce3+  Ce8  1  0.87752274  -0.00312423  0.92952060  1
  Ce3+  Ce9  1  0.13719246  0.74745798  0.92338620  1
  Ce3+  Ce10  1  0.74878071  0.85294993  0.56902760  1
  Ce3+  Ce11  1  0.13677616  -0.00165557  0.93635083  1
  Ce3+  Ce12  1  0.88506898  0.74829274  0.92747585  1
  Pr3+  Pr13  1  0.00286610  0.35886164  0.55884255  1
  Pr3+  Pr14  1  0.74935345  0.10916263  0.57180990  1
  Pr3+  Pr15  1  0.39841579  0.00090451  0.91026799  1
  Pr3+  Pr16  1  0.13034961  0.24442839  0.93971189  1
  Pr3+  Pr17  1  0.24566406  0.86216851  0.57459415  1
  Pr3+  Pr18  1  0.25135053  0.12490096  0.06724285  1
  Pr3+  Pr19  1  0.12745803  -0.01394226  0.44693333  1
  Pr3+  Pr20  1  0.50511842  0.12316233  0.07222269  1
  Pr3+  Pr21  1  0.25467829  0.10498124  0.61186896  1
  Pr3+  Pr22  1  0.25101312  0.37164974  0.06526692  1
  Pr3+  Pr23  1  0.36883419  0.73132770  0.42621731  1
  Pr3+  Pr24  1  0.50202145  0.11357191  0.56754270  1
  Pr3+  Pr25  1  0.00917584  0.86933307  0.04763056  1
  Nd3+  Nd26  1  0.74661891  0.60993899  0.56399278  1
  Nd3+  Nd27  1  0.87245863  0.23578332  0.44813859  1
  Nd3+  Nd28  1  0.62748763  0.49459486  0.43199783  1
  Nd3+  Nd29  1  0.87281553  -0.01723354  0.44230588  1
  Nd3+  Nd30  1  0.00250926  0.62498400  0.04948708  1
  Nd3+  Nd31  1  0.38165524  0.24436431  0.93788202  1
  Nd3+  Nd32  1  0.75424170  0.62690966  0.06936932  1
  Nd3+  Nd33  1  -0.00851052  0.11395376  0.06115670  1
  Nd3+  Nd34  1  0.25390161  0.35751786  0.56438120  1
  Nd3+  Nd35  1  0.37642471  0.23610374  0.43312869  1
  Nd3+  Nd36  1  0.37290458  0.48455514  0.43225895  1
  Nd3+  Nd37  1  0.25843555  0.61340212  0.57127086  1
  Nd3+  Nd38  1  0.49999547  0.86906734  0.06888234  1
  Nd3+  Nd39  1  0.37795635  0.49946968  0.94101762  1
  Nd3+  Nd40  1  0.75095305  0.37594798  0.07223602  1
  Nd3+  Nd41  1  0.12760024  0.48537532  0.44474862  1
  Nd3+  Nd42  1  0.87560782  0.48838518  0.44223469  1
  Nd3+  Nd43  1  0.87173137  0.73718697  0.43730854  1
  Nd3+  Nd44  1  0.38537801  0.73767148  0.92825461  1
  Sm3+  Sm45  1  -0.00070351  0.11005340  0.55832596  1
  Sm3+  Sm46  1  0.37627754  -0.01399743  0.44777749  1
  Sm3+  Sm47  1  0.62505735  -0.01524635  0.44738472  1
  Sm3+  Sm48  1  0.87692006  0.24533309  0.94579095  1
  Sm3+  Sm49  1  0.49550566  0.85952111  0.55549022  1
  Sm3+  Sm50  1  0.12941416  0.73737182  0.44287549  1
  Sm3+  Sm51  1  0.50232414  0.37493486  0.05221553  1
  Sm3+  Sm52  1  0.62840318  0.24343663  0.94453922  1
  Sm3+  Sm53  1  0.00220460  0.61259395  0.55613558  1
  Sm3+  Sm54  1  0.13147512  0.49616367  0.94031925  1
  Sm3+  Sm55  1  0.00249960  0.37231808  0.05265494  1
  Sm3+  Sm56  1  0.62784900  0.74660560  0.95243137  1
  Sm3+  Sm57  1  0.62940855  -0.00765133  0.95637497  1
  Sm3+  Sm58  1  0.87598928  0.49633057  0.94276879  1
  Sm3+  Sm59  1  0.62833034  0.23497845  0.44381445  1
  Sm3+  Sm60  1  0.75315789  0.12314005  0.05801039  1
  Sm3+  Sm61  1  0.12727408  0.23220499  0.44817317  1
  Sm3+  Sm62  1  0.49932871  0.36085957  0.54811879  1
  Sm3+  Sm63  1  0.74783820  0.36931448  0.56524202  1
  Bi2+  Bi64  1  0.01928664  0.16195639  0.29653036  1
  Bi2+  Bi65  1  0.00409634  0.22130474  0.78814969  1
  Bi2+  Bi66  1  -0.01295695  0.34482586  0.25257592  1
  Bi2+  Bi67  1  -0.01977278  0.41384927  0.79737061  1
  Bi2+  Bi68  1  -0.02983670  0.61700145  0.29394804  1
  Bi2+  Bi69  1  0.01565518  0.59771828  0.76919432  1
  Bi2+  Bi70  1  0.00750687  0.89218833  0.29528542  1
  Bi2+  Bi71  1  -0.04341851  0.86278994  0.78968546  1
  Bi2+  Bi72  1  0.29575501  0.16317752  0.29292912  1
  Bi2+  Bi73  1  0.25747759  0.11054912  0.79131885  1
  Bi2+  Bi74  1  0.23622206  0.36146420  0.29269327  1
  Bi2+  Bi75  1  0.25352973  0.36532319  0.80291767  1
  Bi2+  Bi76  1  0.23762347  0.61152258  0.30259857  1
  Bi2+  Bi77  1  0.26061051  0.61737981  0.78833634  1
  Bi2+  Bi78  1  0.26302417  0.95799328  0.28386224  1
  Bi2+  Bi79  1  0.20498606  0.87551898  0.78763905  1
  Bi2+  Bi80  1  0.49301611  0.16329119  0.30125681  1
  Bi2+  Bi81  1  0.54364220  0.13265034  0.79869372  1
  Bi2+  Bi82  1  0.48592630  0.37012419  0.28121525  1
  Bi2+  Bi83  1  0.44237273  0.38885872  0.78767059  1
  Bi2+  Bi84  1  0.50164114  0.63598956  0.28075274  1
  Bi2+  Bi85  1  0.50017085  0.64775914  0.78928125  1
  Bi2+  Bi86  1  0.50020266  0.89934727  0.28755580  1
  Bi2+  Bi87  1  0.53813188  0.87062813  0.79128193  1
  Bi2+  Bi88  1  0.78856214  0.14721025  0.28779991  1
  Bi2+  Bi89  1  0.75790453  0.11349603  0.79150484  1
  Bi2+  Bi90  1  0.68670869  0.33743852  0.28465940  1
  Bi2+  Bi91  1  0.72238817  0.35652185  0.78758046  1
  Bi2+  Bi92  1  0.77221196  0.59748388  0.28980446  1
  Bi2+  Bi93  1  0.74190280  0.58348301  0.79107707  1
  Bi2+  Bi94  1  0.76265390  0.88941651  0.29004927  1
  Bi2+  Bi95  1  0.73366551  0.83953871  0.78710850  1
  Bi2+  Bi96  1  0.13089782  -0.00716216  0.20267973  1
  Bi2+  Bi97  1  0.04599700  0.00864314  0.72476770  1
  Bi2+  Bi98  1  0.15475072  0.23528156  0.21621306  1
  Bi2+  Bi99  1  0.12244603  0.34367461  0.71756872  1
  Bi2+  Bi100  1  0.09722927  0.51583827  0.20325567  1
  Bi2+  Bi101  1  0.15828145  0.53265327  0.69181079  1
  Bi2+  Bi102  1  0.11135796  0.74078239  0.25494124  1
  Bi2+  Bi103  1  0.10686513  0.74838245  0.71372972  1
  Bi2+  Bi104  1  0.31548127  0.06039916  0.19055767  1
  Bi2+  Bi105  1  0.43375007  -0.01809533  0.71462628  1
  Bi2+  Bi106  1  0.44173545  0.23535355  0.19718150  1
  Bi2+  Bi107  1  0.38870018  0.26411442  0.71037557  1
  Bi2+  Bi108  1  0.36028129  0.48432824  0.21390356  1
  Bi2+  Bi109  1  0.34971893  0.50091088  0.70919434  1
  Bi2+  Bi110  1  0.32997050  0.77586242  0.21027832  1
  Bi2+  Bi111  1  0.37479792  0.76934953  0.69110204  1
  Bi2+  Bi112  1  0.63132710  0.08145298  0.22823076  1
  Bi2+  Bi113  1  0.66004528  -0.01011157  0.71956451  1
  Bi2+  Bi114  1  0.63951839  0.24733990  0.16368815  1
  Bi2+  Bi115  1  0.66912739  0.25833981  0.69269097  1
  Bi2+  Bi116  1  0.61723513  0.45499774  0.20374399  1
  Bi2+  Bi117  1  0.60779103  0.44172270  0.70624765  1
  Bi2+  Bi118  1  0.62482168  0.77583934  0.18413897  1
  Bi2+  Bi119  1  0.63459179  0.70792887  0.71965406  1
  Bi2+  Bi120  1  0.93974242  0.03171211  0.21158795  1
  Bi2+  Bi121  1  0.84377621  0.05845209  0.69350131  1
  Bi2+  Bi122  1  0.82175941  0.28366379  0.20238921  1
  Bi2+  Bi123  1  0.86046125  0.27972298  0.71185153  1
  Bi2+  Bi124  1  0.88297252  0.50106073  0.21178557  1
  Bi2+  Bi125  1  0.87531400  0.49590594  0.70981858  1
  Bi2+  Bi126  1  0.92161438  0.76061813  0.21525909  1
  Bi2+  Bi127  1  0.86762657  0.75897637  0.70888701  1
  S2-  S128  1  0.05616928  0.12745814  0.15274241  1
  S2-  S129  1  -0.00812671  0.12510878  0.65502792  1
  S2-  S130  1  0.01376245  0.38724710  0.14925945  1
  S2-  S131  1  -0.02181293  0.37840165  0.65626232  1
  S2-  S132  1  0.07480419  0.63619229  0.13926972  1
  S2-  S133  1  -0.01193811  0.69668438  0.64089578  1
  S2-  S134  1  -0.04314090  0.87598024  0.14402750  1
  S2-  S135  1  0.10023860  0.89442085  0.65816779  1
  S2-  S136  1  0.26290344  0.24964345  0.14019216  1
  S2-  S137  1  0.18757319  0.09478355  0.70747738  1
  S2-  S138  1  0.23746298  0.47623663  0.14796136  1
  S2-  S139  1  0.25040900  0.27320052  0.65054607  1
  S2-  S140  1  0.36898205  0.63565090  0.16072188  1
  S2-  S141  1  0.23919525  0.73008724  0.64496927  1
  S2-  S142  1  0.22828042  0.80258234  0.13696784  1
  S2-  S143  1  0.30782639  0.93241997  0.66247876  1
  S2-  S144  1  0.48744529  0.06327239  0.16650798  1
  S2-  S145  1  0.41232787  0.12197531  0.65496258  1
  S2-  S146  1  0.47939331  0.44245785  0.14121203  1
  S2-  S147  1  0.49574863  0.35934789  0.64574667  1
  S2-  S148  1  0.57495798  0.62140176  0.17935040  1
  S2-  S149  1  0.41288216  0.61828282  0.63951353  1
  S2-  S150  1  0.46594976  0.84579034  0.16819638  1
  S2-  S151  1  0.51017841  0.85633185  0.65411608  1
  S2-  S152  1  0.84682004  0.06909748  0.13196562  1
  S2-  S153  1  0.62511664  0.11401325  0.64376673  1
  S2-  S154  1  0.75613085  0.50011309  0.14281672  1
  S2-  S155  1  0.74183396  0.48570152  0.63910740  1
  S2-  S156  1  0.78491682  0.73075783  0.15013943  1
  S2-  S157  1  0.74015436  0.72213725  0.64152275  1
  S2-  S158  1  0.70451251  0.93592722  0.19530901  1
  S2-  S159  1  0.85715512  0.89424963  0.64592728  1
  S2-  S160  1  0.12130686  -0.01541789  0.34634250  1
  S2-  S161  1  0.11638191  -0.00523546  0.83845297  1
  S2-  S162  1  0.13749487  0.24108208  0.35099665  1
  S2-  S163  1  0.16228698  0.21909487  0.84251488  1
  S2-  S164  1  0.14529519  0.48326218  0.34659890  1
  S2-  S165  1  0.17100786  0.49741524  0.84495264  1
  S2-  S166  1  0.22541628  0.74523877  0.36205464  1
  S2-  S167  1  0.02139722  0.74391935  0.84800982  1
  S2-  S168  1  0.39996836  -0.01508117  0.35017265  1
  S2-  S169  1  0.33951633  -0.04467680  0.81547381  1
  S2-  S170  1  0.36399888  0.35751715  0.35988135  1
  S2-  S171  1  0.39745269  0.15327363  0.85339184  1
  S2-  S172  1  0.38286635  0.58259083  0.34840861  1
  S2-  S173  1  0.38527489  0.59514410  0.85773572  1
  S2-  S174  1  0.46087548  0.77021844  0.34217699  1
  S2-  S175  1  0.25981156  0.75445398  0.85189413  1
  S2-  S176  1  0.63178678  -0.06670982  0.35342580  1
  S2-  S177  1  0.56309106  0.00181769  0.86524389  1
  S2-  S178  1  0.64551005  0.19537663  0.34950637  1
  S2-  S179  1  0.61184361  0.25996895  0.84791012  1
  S2-  S180  1  0.62138231  0.58491939  0.34650758  1
  S2-  S181  1  0.59116138  0.53455031  0.83741600  1
  S2-  S182  1  0.61835057  0.76585640  0.27984481  1
  S2-  S183  1  0.53244836  0.75873725  0.86872372  1
  S2-  S184  1  0.86592413  -0.02424970  0.34306513  1
  S2-  S185  1  0.84944261  -0.01562267  0.83403034  1
  S2-  S186  1  0.88640931  0.23753798  0.35013126  1
  S2-  S187  1  0.86923480  0.21714981  0.84999964  1
  S2-  S188  1  0.85458202  0.48826877  0.34467212  1
  S2-  S189  1  0.78321197  0.46684383  0.86347139  1
  S2-  S190  1  0.79029367  0.74899665  0.34984328  1
  S2-  S191  1  0.79829153  0.71034869  0.84580713  1
  S2-  S192  1  -0.00172575  0.11147108  0.45392352  1
  S2-  S193  1  0.00238162  0.12108781  0.95196564  1
  S2-  S194  1  0.00148260  0.35882726  0.45245934  1
  S2-  S195  1  0.00123750  0.37139127  0.94772398  1
  S2-  S196  1  0.00293338  0.61356249  0.45106940  1
  S2-  S197  1  0.00326490  0.61421246  0.94457358  1
  S2-  S198  1  0.00103440  0.85875372  0.45329799  1
  S2-  S199  1  0.00878082  0.87715172  0.94349160  1
  S2-  S200  1  0.25374748  0.11198628  0.44601378  1
  S2-  S201  1  0.26005043  0.12007722  0.95665240  1
  S2-  S202  1  0.24670728  0.35715227  0.45944107  1
  S2-  S203  1  0.25539317  0.36970487  0.95418280  1
  S2-  S204  1  0.24813680  0.60768988  0.46237287  1
  S2-  S205  1  0.25027526  0.61869143  0.95411907  1
  S2-  S206  1  0.25224804  0.86496676  0.46172291  1
  S2-  S207  1  0.26910709  0.88180556  0.94567796  1
  S2-  S208  1  0.50289156  0.11225032  0.45637423  1
  S2-  S209  1  0.50691674  0.12163703  0.96498546  1
  S2-  S210  1  0.50838123  0.36078202  0.44524256  1
  S2-  S211  1  0.50551718  0.37145464  0.94831602  1
  S2-  S212  1  0.49880330  0.61141946  0.45068804  1
  S2-  S213  1  0.50795856  0.61658342  0.96397851  1
  S2-  S214  1  0.50166065  0.86225696  0.45285422  1
  S2-  S215  1  0.50227020  0.87619987  0.96489729  1
  S2-  S216  1  0.74916357  0.10961977  0.46057209  1
  S2-  S217  1  0.75097492  0.12109474  0.95409806  1
  S2-  S218  1  0.74890790  0.36365398  0.45578081  1
  S2-  S219  1  0.75392320  0.36423443  0.96474245  1
  S2-  S220  1  0.75199730  0.61088025  0.45622535  1
  S2-  S221  1  0.75588899  0.62415298  0.96093968  1
  S2-  S222  1  0.74769488  0.86067368  0.45900376  1
  S2-  S223  1  0.74887689  0.87017254  0.94334969  1
  S2-  S224  1  0.13023389  -0.00098932  0.04396698  1
  S2-  S225  1  0.12816559  -0.00417079  0.55304609  1
  S2-  S226  1  0.11978614  0.24473956  0.04418756  1
  S2-  S227  1  0.12722841  0.22986698  0.55218772  1
  S2-  S228  1  0.12416787  0.49522451  0.04153113  1
  S2-  S229  1  0.12761400  0.48699999  0.55080078  1
  S2-  S230  1  0.13036579  0.74580514  0.02986440  1
  S2-  S231  1  0.12406164  0.73551671  0.54409971  1
  S2-  S232  1  0.37772742  -0.00141930  0.05643973  1
  S2-  S233  1  0.37426861  -0.00892933  0.55005414  1
  S2-  S234  1  0.38376921  0.24767166  0.04284374  1
  S2-  S235  1  0.37787581  0.23695854  0.53944855  1
  S2-  S236  1  0.37239572  0.49627186  0.04349639  1
  S2-  S237  1  0.37426363  0.48170600  0.54041262  1
  S2-  S238  1  0.37984425  0.74342686  0.04436395  1
  S2-  S239  1  0.37278272  0.74029854  0.53832052  1
  S2-  S240  1  0.63684765  -0.00742301  0.06060237  1
  S2-  S241  1  0.62497984  -0.01928400  0.54991767  1
  S2-  S242  1  0.62861455  0.24928549  0.04755888  1
  S2-  S243  1  0.63007049  0.24329254  0.54600048  1
  S2-  S244  1  0.62840273  0.49526789  0.04395161  1
  S2-  S245  1  0.62052554  0.48531174  0.53846506  1
  S2-  S246  1  0.62194980  0.74274658  0.05515108  1
  S2-  S247  1  0.61696709  0.73552274  0.54784578  1
  S2-  S248  1  0.87556869  -0.01052836  0.03171751  1
  S2-  S249  1  0.87607537  -0.01132893  0.54537552  1
  S2-  S250  1  0.87629955  0.24933212  0.05018618  1
  S2-  S251  1  0.87017091  0.23926743  0.55347824  1
  S2-  S252  1  0.88077361  0.49688188  0.04482202  1
  S2-  S253  1  0.87982710  0.48714920  0.54622540  1
  S2-  S254  1  0.87937004  0.75059918  0.03775809  1
  S2-  S255  1  0.87498007  0.73190628  0.54047538  1
