# generated using pymatgen
data_La6Ce7Pr13Nd19Sm19(BiS2)64
_symmetry_space_group_name_H-M   'P 1'
_cell_length_a   16.06489410
_cell_length_b   15.97346692
_cell_length_c   27.33074767
_cell_angle_alpha   90.20123500
_cell_angle_beta   89.90079512
_cell_angle_gamma   89.96140067
_symmetry_Int_Tables_number   1
_chemical_formula_structural   La6Ce7Pr13Nd19Sm19(BiS2)64
_chemical_formula_sum   'La6 Ce7 Pr13 Nd19 Sm19 Bi64 S128'
_cell_volume   7013.34392007
_cell_formula_units_Z   1
loop_
 _symmetry_equiv_pos_site_id
 _symmetry_equiv_pos_as_xyz
  1  'x, y, z'
loop_
 _atom_type_symbol
 _atom_type_oxidation_number
  La3+  3.0
  Ce3+  3.0
  Pr3+  3.0
  Nd3+  3.0
  Sm3+  3.0
  Bi2+  2.0
  S2-  -2.0
loop_
 _atom_site_type_symbol
 _atom_site_label
 _atom_site_symmetry_multiplicity
 _atom_site_fract_x
 _atom_site_fract_y
 _atom_site_fract_z
 _atom_site_occupancy
  La3+  La0  1  0.11711690  0.23746972  0.39506107  1
  La3+  La1  1  0.13161242  0.49559280  0.43621923  1
  La3+  La2  1  0.00472465  0.37860166  0.58868628  1
  La3+  La3  1  0.37650821  0.75720049  0.92946700  1
  La3+  La4  1  0.25232591  0.62477959  0.59168930  1
  La3+  La5  1  0.38697392  0.25222444  0.40693341  1
  Ce3+  Ce6  1  0.37043482  0.00476557  0.92872223  1
  Ce3+  Ce7  1  0.11923490  0.75664860  0.94207656  1
  Ce3+  Ce8  1  0.25164428  0.37192142  0.54826265  1
  Ce3+  Ce9  1  0.37998520  0.00014722  0.43634572  1
  Ce3+  Ce10  1  0.00641245  0.12112451  0.57285638  1
  Ce3+  Ce11  1  0.61968705  0.50532858  0.94800225  1
  Ce3+  Ce12  1  0.37221086  0.25679046  0.94397461  1
  Pr3+  Pr13  1  0.75645091  0.12350005  0.57810987  1
  Pr3+  Pr14  1  0.38268821  0.49865736  0.90366371  1
  Pr3+  Pr15  1  0.12769239  0.74195733  0.42917277  1
  Pr3+  Pr16  1  0.87458933  0.75370663  0.93232478  1
  Pr3+  Pr17  1  0.00777549  0.86796858  0.56869571  1
  Pr3+  Pr18  1  0.75010942  0.38094408  0.05870597  1
  Pr3+  Pr19  1  0.88110707  0.50389903  0.92373783  1
  Pr3+  Pr20  1  0.87334545  0.00156036  0.90948315  1
  Pr3+  Pr21  1  0.63404582  0.74334944  0.42924472  1
  Pr3+  Pr22  1  0.87793437  0.25502012  0.92891929  1
  Pr3+  Pr23  1  0.12883892  0.50417544  0.93408049  1
  Pr3+  Pr24  1  0.87979394  0.74626133  0.42972046  1
  Pr3+  Pr25  1  0.49825705  0.37017275  0.56512011  1
  Nd3+  Nd26  1  0.62997307  -0.00006605  0.44651293  1
  Nd3+  Nd27  1  0.62143422  0.25689798  0.93701034  1
  Nd3+  Nd28  1  0.75084186  0.87098504  0.55938026  1
  Nd3+  Nd29  1  -0.00745761  0.88701054  0.09064907  1
  Nd3+  Nd30  1  0.75428096  0.36751870  0.56620510  1
  Nd3+  Nd31  1  -0.00176009  0.62555290  0.56956607  1
  Nd3+  Nd32  1  0.25237757  0.39081330  0.07448983  1
  Nd3+  Nd33  1  0.75322685  0.13057070  0.05278643  1
  Nd3+  Nd34  1  -0.00158055  0.13257982  0.06778955  1
  Nd3+  Nd35  1  0.25345864  0.12549212  0.55227785  1
  Nd3+  Nd36  1  0.49680139  0.37766917  0.07124009  1
  Nd3+  Nd37  1  -0.00036725  0.63040535  0.06658581  1
  Nd3+  Nd38  1  0.49796843  0.12801172  0.06164697  1
  Nd3+  Nd39  1  0.38162416  0.50240238  0.43581526  1
  Nd3+  Nd40  1  0.24579520  0.12997525  0.05895567  1
  Nd3+  Nd41  1  0.88567603  0.48996752  0.43886300  1
  Nd3+  Nd42  1  0.75540948  0.62298281  0.55699407  1
  Nd3+  Nd43  1  0.12939245  -0.00252434  0.44384353  1
  Nd3+  Nd44  1  0.75290186  0.63255004  0.06115347  1
  Sm3+  Sm45  1  0.12274307  0.25936717  0.94805844  1
  Sm3+  Sm46  1  0.88474674  0.24576205  0.44886311  1
  Sm3+  Sm47  1  0.49600405  0.88490870  0.06230364  1
  Sm3+  Sm48  1  0.49547712  0.63269036  0.06087199  1
  Sm3+  Sm49  1  -0.00738509  0.38334171  0.07333859  1
  Sm3+  Sm50  1  0.62979123  0.49379000  0.44546405  1
  Sm3+  Sm51  1  0.62540177  0.75738951  0.95169168  1
  Sm3+  Sm52  1  0.11784894  0.00555679  0.94548034  1
  Sm3+  Sm53  1  0.25714354  0.86546308  0.55081037  1
  Sm3+  Sm54  1  0.75473039  0.88283891  0.05992946  1
  Sm3+  Sm55  1  0.38141479  0.74190972  0.43613851  1
  Sm3+  Sm56  1  0.49763406  0.12635080  0.56329294  1
  Sm3+  Sm57  1  0.24963142  0.63198021  0.05420671  1
  Sm3+  Sm58  1  0.50379037  0.86836403  0.55297346  1
  Sm3+  Sm59  1  0.50381292  0.61622544  0.57042403  1
  Sm3+  Sm60  1  0.88291752  -0.00070593  0.45074256  1
  Sm3+  Sm61  1  0.24786943  0.88091096  0.05698303  1
  Sm3+  Sm62  1  0.62679142  0.00464251  0.93900729  1
  Sm3+  Sm63  1  0.63006629  0.24497075  0.44205883  1
  Bi2+  Bi64  1  -0.05602516  0.10001662  0.29437034  1
  Bi2+  Bi65  1  0.01796091  0.10323905  0.77998766  1
  Bi2+  Bi66  1  -0.03122709  0.39156063  0.29336826  1
  Bi2+  Bi67  1  0.00073530  0.35960741  0.79286744  1
  Bi2+  Bi68  1  0.01973228  0.63891597  0.29202911  1
  Bi2+  Bi69  1  -0.00457614  0.63249403  0.79126970  1
  Bi2+  Bi70  1  -0.04817941  0.88910861  0.27927013  1
  Bi2+  Bi71  1  -0.04484723  0.90562741  0.76578080  1
  Bi2+  Bi72  1  0.22713317  0.02631136  0.29923164  1
  Bi2+  Bi73  1  0.29554613  0.10824476  0.81586480  1
  Bi2+  Bi74  1  0.24242708  0.36796829  0.28164768  1
  Bi2+  Bi75  1  0.24845268  0.34440456  0.79520622  1
  Bi2+  Bi76  1  0.27434956  0.63559006  0.28318802  1
  Bi2+  Bi77  1  0.23823027  0.63369696  0.78828638  1
  Bi2+  Bi78  1  0.21416661  0.82605287  0.30755056  1
  Bi2+  Bi79  1  0.23050371  0.92225420  0.79763717  1
  Bi2+  Bi80  1  0.50957685  0.12491468  0.29059689  1
  Bi2+  Bi81  1  0.48591655  0.10551520  0.79065168  1
  Bi2+  Bi82  1  0.51247088  0.39536916  0.29414450  1
  Bi2+  Bi83  1  0.52848453  0.37258069  0.79646489  1
  Bi2+  Bi84  1  0.51910337  0.72903413  0.31529453  1
  Bi2+  Bi85  1  0.50346826  0.62605638  0.77588973  1
  Bi2+  Bi86  1  0.40311444  0.88887951  0.31568781  1
  Bi2+  Bi87  1  0.49861670  0.90865938  0.78118737  1
  Bi2+  Bi88  1  0.75113273  0.15906674  0.29645149  1
  Bi2+  Bi89  1  0.75308780  0.11778983  0.78566264  1
  Bi2+  Bi90  1  0.76003809  0.35816272  0.28786114  1
  Bi2+  Bi91  1  0.73062188  0.38742123  0.78496902  1
  Bi2+  Bi92  1  0.67861673  0.62334968  0.28379123  1
  Bi2+  Bi93  1  0.72058609  0.66049809  0.78848521  1
  Bi2+  Bi94  1  0.68345926  0.87487851  0.30242854  1
  Bi2+  Bi95  1  0.69022989  0.85999236  0.78853010  1
  Bi2+  Bi96  1  0.11276555  -0.06682194  0.21787157  1
  Bi2+  Bi97  1  0.07004793  0.00522894  0.68175241  1
  Bi2+  Bi98  1  0.11978531  0.17423788  0.20012885  1
  Bi2+  Bi99  1  0.18187116  0.16055782  0.72324945  1
  Bi2+  Bi100  1  0.14976778  0.49791487  0.21077986  1
  Bi2+  Bi101  1  0.14291618  0.45160322  0.71010647  1
  Bi2+  Bi102  1  0.14371930  0.72294749  0.21028637  1
  Bi2+  Bi103  1  0.12740424  0.82795724  0.71444609  1
  Bi2+  Bi104  1  0.37993081  -0.00391657  0.21632016  1
  Bi2+  Bi105  1  0.35098837  0.00286963  0.71781481  1
  Bi2+  Bi106  1  0.35550053  0.25045220  0.18014345  1
  Bi2+  Bi107  1  0.35124010  0.28695932  0.70019651  1
  Bi2+  Bi108  1  0.45729170  0.52215829  0.21616666  1
  Bi2+  Bi109  1  0.41470150  0.47338916  0.72245894  1
  Bi2+  Bi110  1  0.39113683  0.79798386  0.20967767  1
  Bi2+  Bi111  1  0.38623415  0.77347510  0.70510939  1
  Bi2+  Bi112  1  0.60312883  -0.03266806  0.21151705  1
  Bi2+  Bi113  1  0.61177836  0.04463647  0.70332819  1
  Bi2+  Bi114  1  0.64381811  0.24586721  0.21007904  1
  Bi2+  Bi115  1  0.59945862  0.24444474  0.71707691  1
  Bi2+  Bi116  1  0.63958034  0.45109932  0.20657104  1
  Bi2+  Bi117  1  0.65881662  0.51779597  0.71055841  1
  Bi2+  Bi118  1  0.60974946  0.76735694  0.21165694  1
  Bi2+  Bi119  1  0.61477445  0.71352772  0.69322791  1
  Bi2+  Bi120  1  0.79462990  0.00788497  0.21991135  1
  Bi2+  Bi121  1  0.79914827  -0.00761943  0.69832215  1
  Bi2+  Bi122  1  0.86826287  0.25558704  0.20753465  1
  Bi2+  Bi123  1  0.86446602  0.26505018  0.70536266  1
  Bi2+  Bi124  1  0.88419384  0.50805647  0.20849052  1
  Bi2+  Bi125  1  0.89418254  0.52153040  0.71915613  1
  Bi2+  Bi126  1  0.87211339  0.75690145  0.21150809  1
  Bi2+  Bi127  1  0.87841867  0.74725681  0.70759421  1
  S2-  S128  1  0.02138571  0.02896303  0.15311356  1
  S2-  S129  1  -0.10711341  0.12319351  0.64918210  1
  S2-  S130  1  0.00249649  0.25153766  0.14353656  1
  S2-  S131  1  0.03438028  0.30918529  0.68847721  1
  S2-  S132  1  0.01311175  0.51071665  0.14415777  1
  S2-  S133  1  0.02609342  0.52262163  0.65086265  1
  S2-  S134  1  0.00503238  0.74166675  0.14791614  1
  S2-  S135  1  0.01633327  0.75286871  0.64462370  1
  S2-  S136  1  0.25991734  0.10269532  0.15725509  1
  S2-  S137  1  0.30226146  0.12915826  0.64891270  1
  S2-  S138  1  0.19710863  0.33434287  0.16825560  1
  S2-  S139  1  0.27205090  0.41213090  0.64374103  1
  S2-  S140  1  0.23487164  0.59427365  0.15151027  1
  S2-  S141  1  0.20145751  0.60499132  0.69601832  1
  S2-  S142  1  0.25510477  0.85527598  0.15425875  1
  S2-  S143  1  0.25190984  0.80167753  0.64184081  1
  S2-  S144  1  0.51227981  0.23717875  0.14164079  1
  S2-  S145  1  0.49033075  0.24241460  0.63858542  1
  S2-  S146  1  0.38646705  0.41306493  0.14772447  1
  S2-  S147  1  0.52358073  0.48070674  0.64534156  1
  S2-  S148  1  0.48199309  0.66451803  0.15753450  1
  S2-  S149  1  0.39783517  0.64197364  0.64801953  1
  S2-  S150  1  0.48852866  1.00334130  0.13517094  1
  S2-  S151  1  0.51280256  0.84035294  0.64965162  1
  S2-  S152  1  0.75887248  0.14328490  0.15220761  1
  S2-  S153  1  0.72247584  0.25384237  0.64620486  1
  S2-  S154  1  0.84490605  0.39126901  0.14275682  1
  S2-  S155  1  0.85256492  0.40065577  0.64887735  1
  S2-  S156  1  0.79476839  0.63189722  0.15783966  1
  S2-  S157  1  0.83979015  0.62490470  0.64424541  1
  S2-  S158  1  0.83912451  0.88524341  0.14642438  1
  S2-  S159  1  0.75246715  0.83467156  0.65611416  1
  S2-  S160  1  0.08993542  0.06288029  0.35522579  1
  S2-  S161  1  0.09251883  -0.00447056  0.84769125  1
  S2-  S162  1  0.17496731  0.21918417  0.29214305  1
  S2-  S163  1  0.10994006  0.27250088  0.84892526  1
  S2-  S164  1  0.11834585  0.39858651  0.34666054  1
  S2-  S165  1  0.02085119  0.49716728  0.85145886  1
  S2-  S166  1  0.14551886  0.61196037  0.35413500  1
  S2-  S167  1  0.11787825  0.72435957  0.84452423  1
  S2-  S168  1  0.37739897  0.09508274  0.35441868  1
  S2-  S169  1  0.37898355  -0.11488863  0.85583120  1
  S2-  S170  1  0.39143720  0.24764158  0.27176605  1
  S2-  S171  1  0.38666874  0.33385486  0.85667793  1
  S2-  S172  1  0.36998651  0.40605438  0.35095361  1
  S2-  S173  1  0.23499281  0.49479089  0.84810738  1
  S2-  S174  1  0.38852479  0.62829211  0.35975027  1
  S2-  S175  1  0.37963878  0.65294754  0.84644780  1
  S2-  S176  1  0.60898270  0.01146906  0.34839679  1
  S2-  S177  1  0.71360650  -0.00243158  0.85348414  1
  S2-  S178  1  0.54867021  0.25395994  0.35601049  1
  S2-  S179  1  0.66127775  0.24935029  0.84008225  1
  S2-  S180  1  0.60981493  0.51506053  0.34840284  1
  S2-  S181  1  0.54581953  0.50611638  0.85978080  1
  S2-  S182  1  0.75640131  0.73703320  0.35432099  1
  S2-  S183  1  0.60887664  0.76018908  0.85454005  1
  S2-  S184  1  0.86603601  -0.01587230  0.35361658  1
  S2-  S185  1  0.89115475  0.14125728  0.84769595  1
  S2-  S186  1  0.95121237  0.24728904  0.35677957  1
  S2-  S187  1  0.86228466  0.37171369  0.85100790  1
  S2-  S188  1  0.90420264  0.52999791  0.34110481  1
  S2-  S189  1  0.85792084  0.63498734  0.85324046  1
  S2-  S190  1  0.99885361  0.77088187  0.35534382  1
  S2-  S191  1  0.88105784  0.85975985  0.84926584  1
  S2-  S192  1  0.00631320  0.12239747  0.46556469  1
  S2-  S193  1  0.00101293  0.13131408  0.95804350  1
  S2-  S194  1  0.00808579  0.36592635  0.45853633  1
  S2-  S195  1  -0.00017035  0.37892985  0.96158620  1
  S2-  S196  1  0.00051829  0.62082284  0.45817842  1
  S2-  S197  1  0.00049715  0.63048112  0.95827849  1
  S2-  S198  1  0.00479457  0.87574858  0.46055805  1
  S2-  S199  1  -0.00273829  0.88351184  0.95452997  1
  S2-  S200  1  0.24756238  0.12859107  0.44785961  1
  S2-  S201  1  0.24447614  0.13042960  0.95252549  1
  S2-  S202  1  0.25245682  0.36274338  0.44610450  1
  S2-  S203  1  0.25049202  0.37974847  0.95994320  1
  S2-  S204  1  0.25744659  0.62534753  0.45788823  1
  S2-  S205  1  0.25064298  0.63350248  0.95210010  1
  S2-  S206  1  0.25723834  0.87028201  0.44723964  1
  S2-  S207  1  0.24373507  0.88257500  0.95273503  1
  S2-  S208  1  0.50448144  0.12360364  0.45929583  1
  S2-  S209  1  0.49967350  0.12788938  0.95035045  1
  S2-  S210  1  0.50719734  0.37243590  0.45726652  1
  S2-  S211  1  0.49762318  0.37947803  0.96302408  1
  S2-  S212  1  0.51224729  0.62148303  0.46163316  1
  S2-  S213  1  0.50034955  0.63480261  0.95802925  1
  S2-  S214  1  0.50727545  0.87061795  0.44908897  1
  S2-  S215  1  0.50358546  0.88403237  0.95875928  1
  S2-  S216  1  0.75677304  0.12307606  0.46009214  1
  S2-  S217  1  0.74816528  0.13073140  0.94931794  1
  S2-  S218  1  0.75480522  0.36753831  0.45294392  1
  S2-  S219  1  0.74509777  0.38132236  0.95316514  1
  S2-  S220  1  0.75644802  0.61418663  0.45284316  1
  S2-  S221  1  0.74344236  0.63010241  0.95620633  1
  S2-  S222  1  0.75493104  0.87567983  0.45484261  1
  S2-  S223  1  0.74872392  0.88088461  0.95737244  1
  S2-  S224  1  0.12359818  0.00161987  0.04900661  1
  S2-  S225  1  0.13447870  -0.00748708  0.54961320  1
  S2-  S226  1  0.12835202  0.26089285  0.04978984  1
  S2-  S227  1  0.12863874  0.24674993  0.56517232  1
  S2-  S228  1  0.12811246  0.50631852  0.04297211  1
  S2-  S229  1  0.13170733  0.50218586  0.54687788  1
  S2-  S230  1  0.12504659  0.75893116  0.04746737  1
  S2-  S231  1  0.13273279  0.74383445  0.54009819  1
  S2-  S232  1  0.36984295  0.00420910  0.03682748  1
  S2-  S233  1  0.38008397  -0.00548438  0.54507813  1
  S2-  S234  1  0.36975776  0.25476481  0.04760375  1
  S2-  S235  1  0.37665824  0.24611849  0.53632135  1
  S2-  S236  1  0.37586288  0.51302932  0.04582517  1
  S2-  S237  1  0.37739884  0.50077529  0.54308229  1
  S2-  S238  1  0.37492618  0.75936425  0.04463730  1
  S2-  S239  1  0.38341252  0.74560427  0.53980208  1
  S2-  S240  1  0.62891141  0.00420385  0.04340980  1
  S2-  S241  1  0.62512139  0.00006159  0.55323765  1
  S2-  S242  1  0.62592455  0.25464522  0.04269737  1
  S2-  S243  1  0.62784040  0.24304849  0.54286941  1
  S2-  S244  1  0.62159590  0.50863659  0.05592185  1
  S2-  S245  1  0.63365469  0.49577440  0.54768393  1
  S2-  S246  1  0.62414654  0.76089885  0.05640053  1
  S2-  S247  1  0.62783884  0.74454297  0.54138842  1
  S2-  S248  1  0.87613456  0.00699184  0.04674411  1
  S2-  S249  1  0.87940558  -0.00766758  0.55353819  1
  S2-  S250  1  0.87456078  0.25604514  0.03919404  1
  S2-  S251  1  0.88368579  0.24819627  0.55044967  1
  S2-  S252  1  0.87323341  0.50875458  0.03831991  1
  S2-  S253  1  0.87832424  0.49516885  0.54265238  1
  S2-  S254  1  0.87413715  0.75744218  0.04267160  1
  S2-  S255  1  0.87608740  0.75100436  0.53921536  1
