# generated using pymatgen
data_La6Ce7Pr13Nd19Sm19(BiS2)64
_symmetry_space_group_name_H-M   'P 1'
_cell_length_a   16.11636423
_cell_length_b   16.11908145
_cell_length_c   27.11868371
_cell_angle_alpha   89.94104841
_cell_angle_beta   90.03322725
_cell_angle_gamma   90.02157827
_symmetry_Int_Tables_number   1
_chemical_formula_structural   La6Ce7Pr13Nd19Sm19(BiS2)64
_chemical_formula_sum   'La6 Ce7 Pr13 Nd19 Sm19 Bi64 S128'
_cell_volume   7044.91302949
_cell_formula_units_Z   1
loop_
 _symmetry_equiv_pos_site_id
 _symmetry_equiv_pos_as_xyz
  1  'x, y, z'
loop_
 _atom_type_symbol
 _atom_type_oxidation_number
  La3+  3.0
  Ce3+  3.0
  Pr3+  3.0
  Nd3+  3.0
  Sm3+  3.0
  Bi2+  2.0
  S2-  -2.0
loop_
 _atom_site_type_symbol
 _atom_site_label
 _atom_site_symmetry_multiplicity
 _atom_site_fract_x
 _atom_site_fract_y
 _atom_site_fract_z
 _atom_site_occupancy
  La3+  La0  1  0.51362407  0.37099170  0.61233793  1
  La3+  La1  1  0.88299044  0.50486826  0.40046994  1
  La3+  La2  1  0.85930496  0.00739537  0.90083359  1
  La3+  La3  1  0.36957843  0.00530878  0.42717843  1
  La3+  La4  1  0.88290948  0.75184056  0.43654754  1
  La3+  La5  1  0.74992582  0.10904410  0.10747461  1
  Ce3+  Ce6  1  0.49556082  0.62614424  0.05369185  1
  Ce3+  Ce7  1  -0.00569575  0.87771921  0.05596770  1
  Ce3+  Ce8  1  0.49788701  0.37143143  0.05983038  1
  Ce3+  Ce9  1  0.62854836  0.25186786  0.43652255  1
  Ce3+  Ce10  1  0.00450874  0.37515407  0.56390310  1
  Ce3+  Ce11  1  0.74863644  0.62597625  0.06227375  1
  Ce3+  Ce12  1  0.50555374  0.87653570  0.56838014  1
  Pr3+  Pr13  1  0.86990674  0.50282367  0.93495364  1
  Pr3+  Pr14  1  0.50600146  0.12045243  0.56093312  1
  Pr3+  Pr15  1  -0.00152228  0.88272776  0.61483339  1
  Pr3+  Pr16  1  0.11805190  0.24875250  0.94221709  1
  Pr3+  Pr17  1  0.00487858  0.62268577  0.56500332  1
  Pr3+  Pr18  1  0.75185652  0.37345853  0.07021082  1
  Pr3+  Pr19  1  0.36962580  0.00251678  0.93318194  1
  Pr3+  Pr20  1  0.62000129  0.00572052  0.93603671  1
  Pr3+  Pr21  1  0.87927582  0.25236210  0.43468576  1
  Pr3+  Pr22  1  0.25623847  0.62473521  0.06840531  1
  Pr3+  Pr23  1  0.49615813  0.87934184  0.05783791  1
  Pr3+  Pr24  1  0.24721933  0.37342779  0.05897494  1
  Pr3+  Pr25  1  0.11920186  0.00249604  0.93511055  1
  Nd3+  Nd26  1  0.00356434  0.13014237  0.56670826  1
  Nd3+  Nd27  1  0.75235710  0.12382840  0.55614482  1
  Nd3+  Nd28  1  0.37073739  0.25448368  0.92987553  1
  Nd3+  Nd29  1  0.38120257  0.25143830  0.44053234  1
  Nd3+  Nd30  1  0.25309487  0.87394607  0.56961467  1
  Nd3+  Nd31  1  0.61929396  -0.01162228  0.42050095  1
  Nd3+  Nd32  1  0.25658871  0.12498444  0.56570957  1
  Nd3+  Nd33  1  0.37762915  0.50346354  0.43068938  1
  Nd3+  Nd34  1  0.12730824  0.75410200  0.44492334  1
  Nd3+  Nd35  1  0.37095095  0.74947229  0.93059426  1
  Nd3+  Nd36  1  0.86832194  0.24927379  0.94466602  1
  Nd3+  Nd37  1  0.13058994  0.50071386  0.43023123  1
  Nd3+  Nd38  1  0.87154738  0.74984390  0.93183958  1
  Nd3+  Nd39  1  0.11985392  0.50356819  0.94577204  1
  Nd3+  Nd40  1  0.37013727  0.50204402  0.93491410  1
  Nd3+  Nd41  1  0.62183690  0.49867667  0.94785337  1
  Nd3+  Nd42  1  -0.00748565  0.63591166  0.07438862  1
  Nd3+  Nd43  1  0.75470857  0.62117715  0.55608886  1
  Nd3+  Nd44  1  0.49320242  0.12655098  0.06880690  1
  Sm3+  Sm45  1  0.26091605  0.37837923  0.55965151  1
  Sm3+  Sm46  1  0.62404828  0.24763997  0.95090512  1
  Sm3+  Sm47  1  0.37911397  0.75506557  0.44496272  1
  Sm3+  Sm48  1  0.62767170  0.50118613  0.43868545  1
  Sm3+  Sm49  1  0.24564694  0.87706746  0.05153056  1
  Sm3+  Sm50  1  0.12681794  0.25507598  0.44862761  1
  Sm3+  Sm51  1  0.74637800  0.88034318  0.05435940  1
  Sm3+  Sm52  1  0.62755058  0.75078653  0.44569005  1
  Sm3+  Sm53  1  0.12821989  0.00331338  0.44610293  1
  Sm3+  Sm54  1  0.50281869  0.62111290  0.55531395  1
  Sm3+  Sm55  1  0.75766380  0.87402884  0.55532613  1
  Sm3+  Sm56  1  0.24803797  0.12379876  0.06285973  1
  Sm3+  Sm57  1  -0.00778795  0.12407795  0.05631483  1
  Sm3+  Sm58  1  0.75109826  0.37488191  0.55204676  1
  Sm3+  Sm59  1  0.25354611  0.62381132  0.55171599  1
  Sm3+  Sm60  1  -0.00274459  0.37872082  0.05956907  1
  Sm3+  Sm61  1  0.87950780  0.00371456  0.44409547  1
  Sm3+  Sm62  1  0.62247298  0.75258887  0.94665934  1
  Sm3+  Sm63  1  0.11930903  0.74939896  0.94304294  1
  Bi2+  Bi64  1  0.04750008  0.08906441  0.29344213  1
  Bi2+  Bi65  1  0.00195603  0.19017885  0.79511817  1
  Bi2+  Bi66  1  0.07777133  0.35125648  0.26889458  1
  Bi2+  Bi67  1  -0.05170408  0.40947515  0.80981755  1
  Bi2+  Bi68  1  0.00657451  0.62843349  0.28831249  1
  Bi2+  Bi69  1  0.00226768  0.60165488  0.79002892  1
  Bi2+  Bi70  1  0.03767437  0.87464889  0.30548397  1
  Bi2+  Bi71  1  0.02631377  0.87354531  0.81080570  1
  Bi2+  Bi72  1  0.24499422  0.10484229  0.28421884  1
  Bi2+  Bi73  1  0.24818380  0.11519417  0.80237132  1
  Bi2+  Bi74  1  0.26560818  0.34001561  0.30091012  1
  Bi2+  Bi75  1  0.22068041  0.44165902  0.77486472  1
  Bi2+  Bi76  1  0.27488593  0.60795341  0.28384535  1
  Bi2+  Bi77  1  0.28405883  0.63599509  0.80775247  1
  Bi2+  Bi78  1  0.25416552  0.87948058  0.28302853  1
  Bi2+  Bi79  1  0.25615254  0.83165922  0.74091978  1
  Bi2+  Bi80  1  0.49789862  0.11565463  0.29866700  1
  Bi2+  Bi81  1  0.50461114  0.11467594  0.80039510  1
  Bi2+  Bi82  1  0.45172355  0.34709398  0.26787508  1
  Bi2+  Bi83  1  0.52020015  0.37527507  0.81712118  1
  Bi2+  Bi84  1  0.46918915  0.62227448  0.29919293  1
  Bi2+  Bi85  1  0.47154812  0.63292947  0.78231258  1
  Bi2+  Bi86  1  0.49070712  0.81886924  0.29730108  1
  Bi2+  Bi87  1  0.51141307  0.82562699  0.79351492  1
  Bi2+  Bi88  1  0.77089154  0.13618754  0.31245334  1
  Bi2+  Bi89  1  0.72615474  0.14120555  0.78946150  1
  Bi2+  Bi90  1  0.73262708  0.36316799  0.29578054  1
  Bi2+  Bi91  1  0.76327914  0.40825152  0.77371236  1
  Bi2+  Bi92  1  0.73203465  0.62229765  0.28943552  1
  Bi2+  Bi93  1  0.74191607  0.60887373  0.79590977  1
  Bi2+  Bi94  1  0.73310987  0.83662676  0.27402656  1
  Bi2+  Bi95  1  0.73564861  0.82038446  0.77848877  1
  Bi2+  Bi96  1  0.09266718  -0.01388252  0.19531293  1
  Bi2+  Bi97  1  0.14804421  0.04067860  0.71162340  1
  Bi2+  Bi98  1  0.12804008  0.18315534  0.19325404  1
  Bi2+  Bi99  1  0.10695644  0.30830514  0.72028020  1
  Bi2+  Bi100  1  0.14618223  0.50922618  0.21824765  1
  Bi2+  Bi101  1  0.09048067  0.48347372  0.67273968  1
  Bi2+  Bi102  1  0.11490623  0.77856644  0.21373177  1
  Bi2+  Bi103  1  0.14101088  0.67031008  0.72038337  1
  Bi2+  Bi104  1  0.35916812  -0.01253979  0.20777733  1
  Bi2+  Bi105  1  0.39756084  -0.03116421  0.71058329  1
  Bi2+  Bi106  1  0.31114598  0.25716361  0.19679353  1
  Bi2+  Bi107  1  0.37640817  0.25392112  0.71274728  1
  Bi2+  Bi108  1  0.39720100  0.49872194  0.20344727  1
  Bi2+  Bi109  1  0.35907264  0.52615326  0.71083328  1
  Bi2+  Bi110  1  0.34238395  0.73936795  0.20773522  1
  Bi2+  Bi111  1  0.41469364  0.78159015  0.68088708  1
  Bi2+  Bi112  1  0.61927835  -0.03124816  0.21048528  1
  Bi2+  Bi113  1  0.59847038  -0.01953597  0.73500233  1
  Bi2+  Bi114  1  0.61417708  0.25971310  0.20594492  1
  Bi2+  Bi115  1  0.65264919  0.23761987  0.70199136  1
  Bi2+  Bi116  1  0.59125136  0.52141756  0.22783044  1
  Bi2+  Bi117  1  0.62247047  0.60438582  0.70575465  1
  Bi2+  Bi118  1  0.61087204  0.71647664  0.21533943  1
  Bi2+  Bi119  1  0.61095375  0.79700707  0.68512613  1
  Bi2+  Bi120  1  0.90645280  -0.02421520  0.24206021  1
  Bi2+  Bi121  1  0.86511496  0.01080607  0.71525607  1
  Bi2+  Bi122  1  0.92039032  0.22914936  0.21917392  1
  Bi2+  Bi123  1  0.88638334  0.28604719  0.71607610  1
  Bi2+  Bi124  1  0.86723908  0.48770922  0.19165143  1
  Bi2+  Bi125  1  0.90143188  0.49343977  0.70140864  1
  Bi2+  Bi126  1  0.89610503  0.78062409  0.22402586  1
  Bi2+  Bi127  1  0.86485677  0.74446873  0.70496790  1
  S2-  S128  1  -0.08087815  0.11821013  0.14611333  1
  S2-  S129  1  0.00060085  0.04729458  0.65605037  1
  S2-  S130  1  -0.04824355  0.35030238  0.15271089  1
  S2-  S131  1  -0.00334779  0.25906750  0.63940281  1
  S2-  S132  1  0.00872591  0.55317422  0.16295275  1
  S2-  S133  1  0.00404938  0.71549071  0.65103783  1
  S2-  S134  1  -0.01368720  0.78065440  0.13789666  1
  S2-  S135  1  -0.02620647  0.87614421  0.72101803  1
  S2-  S136  1  0.36130047  0.12137366  0.13858906  1
  S2-  S137  1  0.25568180  0.14015049  0.66740892  1
  S2-  S138  1  0.25200981  0.42092596  0.15586642  1
  S2-  S139  1  0.34011662  0.37278169  0.64733400  1
  S2-  S140  1  0.20005985  0.67093600  0.16106022  1
  S2-  S141  1  0.25352614  0.61678261  0.65054757  1
  S2-  S142  1  0.23917847  0.92553115  0.14613517  1
  S2-  S143  1  0.16676748  0.89294292  0.65602116  1
  S2-  S144  1  0.58645758  0.11137111  0.15447433  1
  S2-  S145  1  0.49654273  0.20600078  0.65169700  1
  S2-  S146  1  0.48289950  0.33113306  0.15371320  1
  S2-  S147  1  0.50879750  0.36447577  0.72375388  1
  S2-  S148  1  0.40188351  0.63492687  0.13523872  1
  S2-  S149  1  0.49882070  0.54178048  0.64229257  1
  S2-  S150  1  0.48627963  0.89825524  0.15834743  1
  S2-  S151  1  0.51820716  0.99784303  0.63851773  1
  S2-  S152  1  0.75576438  0.16885874  0.21026869  1
  S2-  S153  1  0.76026513  0.12042905  0.65661619  1
  S2-  S154  1  0.72351881  0.38297835  0.17071218  1
  S2-  S155  1  0.68417398  0.36710401  0.64393298  1
  S2-  S156  1  0.80564366  0.62695932  0.15339411  1
  S2-  S157  1  0.78195827  0.61300033  0.65500194  1
  S2-  S158  1  0.74084790  0.94360060  0.14786791  1
  S2-  S159  1  0.81687361  0.88674188  0.64785401  1
  S2-  S160  1  0.22354511  -0.00767282  0.36319114  1
  S2-  S161  1  0.15729805  -0.00991022  0.83615561  1
  S2-  S162  1  0.12402535  0.26266269  0.35007535  1
  S2-  S163  1  0.15426952  0.24064882  0.84431060  1
  S2-  S164  1  0.03398304  0.49684018  0.34626942  1
  S2-  S165  1  0.10540288  0.48591008  0.84619998  1
  S2-  S166  1  0.10159689  0.72604914  0.34634667  1
  S2-  S167  1  0.08877049  0.72939905  0.84691685  1
  S2-  S168  1  0.47036975  -0.02617151  0.34613428  1
  S2-  S169  1  0.38596063  0.01263877  0.83273619  1
  S2-  S170  1  0.37187779  0.15979723  0.35489051  1
  S2-  S171  1  0.38268308  0.22424714  0.83040775  1
  S2-  S172  1  0.25818409  0.49129760  0.35717230  1
  S2-  S173  1  0.37103787  0.42718211  0.84562333  1
  S2-  S174  1  0.34267544  0.78384367  0.35030626  1
  S2-  S175  1  0.33494327  0.79497280  0.83681314  1
  S2-  S176  1  0.64843020  0.03723634  0.32329861  1
  S2-  S177  1  0.70578937  0.00769823  0.84737509  1
  S2-  S178  1  0.61735147  0.24305748  0.33755889  1
  S2-  S179  1  0.60989329  0.23391977  0.85191235  1
  S2-  S180  1  0.64120914  0.49300650  0.33970735  1
  S2-  S181  1  0.65437782  0.47899246  0.85078573  1
  S2-  S182  1  0.63185261  0.82906884  0.35892646  1
  S2-  S183  1  0.64215768  0.73709134  0.84925799  1
  S2-  S184  1  0.86057896  0.00459825  0.34583765  1
  S2-  S185  1  0.94141860  0.03120836  0.80870389  1
  S2-  S186  1  0.87210185  0.28167421  0.33486263  1
  S2-  S187  1  0.85314559  0.20079818  0.84912706  1
  S2-  S188  1  0.84106582  0.48084853  0.29723703  1
  S2-  S189  1  0.87339884  0.62201436  0.86037465  1
  S2-  S190  1  0.87297859  0.66600310  0.34910945  1
  S2-  S191  1  0.87055731  0.84893207  0.84874499  1
  S2-  S192  1  0.00501660  0.12742040  0.45528033  1
  S2-  S193  1  -0.00895226  0.12233387  0.95016842  1
  S2-  S194  1  0.00143460  0.37786261  0.45414924  1
  S2-  S195  1  -0.00530668  0.37631774  0.95409713  1
  S2-  S196  1  0.00452508  0.62301636  0.45670879  1
  S2-  S197  1  -0.00229437  0.62651635  0.96291526  1
  S2-  S198  1  0.00456670  0.88224052  0.44648215  1
  S2-  S199  1  -0.00265044  0.87636854  0.95036036  1
  S2-  S200  1  0.24794445  0.13233623  0.45966983  1
  S2-  S201  1  0.24735604  0.12736088  0.95514348  1
  S2-  S202  1  0.25521086  0.37256761  0.45579608  1
  S2-  S203  1  0.24364745  0.37614480  0.95131638  1
  S2-  S204  1  0.25437192  0.63253062  0.44852404  1
  S2-  S205  1  0.24662778  0.62653275  0.95475068  1
  S2-  S206  1  0.25217027  0.87413891  0.46275474  1
  S2-  S207  1  0.24402462  0.87442637  0.94700751  1
  S2-  S208  1  0.50768242  0.12311093  0.45241896  1
  S2-  S209  1  0.49372977  0.12900829  0.95587044  1
  S2-  S210  1  0.50183518  0.37956951  0.43613326  1
  S2-  S211  1  0.49772940  0.37328409  0.95345254  1
  S2-  S212  1  0.50329738  0.62794332  0.44889283  1
  S2-  S213  1  0.49759047  0.62634602  0.94621963  1
  S2-  S214  1  0.50111654  0.87283499  0.46049217  1
  S2-  S215  1  0.49599354  0.87487459  0.94827252  1
  S2-  S216  1  0.75236298  0.12415761  0.44831340  1
  S2-  S217  1  0.74583111  0.12645727  0.95355154  1
  S2-  S218  1  0.75657091  0.38324782  0.44577550  1
  S2-  S219  1  0.74668601  0.37492753  0.95917233  1
  S2-  S220  1  0.75062967  0.62453439  0.44957755  1
  S2-  S221  1  0.74178197  0.62624191  0.95729986  1
  S2-  S222  1  0.75773829  0.87734750  0.45124831  1
  S2-  S223  1  0.74354823  0.87690363  0.95125208  1
  S2-  S224  1  0.12160263  0.00421516  0.04337874  1
  S2-  S225  1  0.12833923  0.00343708  0.54951719  1
  S2-  S226  1  0.11879050  0.24820074  0.05036340  1
  S2-  S227  1  0.13709881  0.25432450  0.55223878  1
  S2-  S228  1  0.12206893  0.50276488  0.05127718  1
  S2-  S229  1  0.13346940  0.49847325  0.53982242  1
  S2-  S230  1  0.12661472  0.75190182  0.04625654  1
  S2-  S231  1  0.13110406  0.74947926  0.55000376  1
  S2-  S232  1  0.36879730  -0.00016315  0.03974697  1
  S2-  S233  1  0.37396077  -0.00148567  0.54438163  1
  S2-  S234  1  0.36958161  0.25044753  0.03882798  1
  S2-  S235  1  0.37974327  0.25025237  0.54496237  1
  S2-  S236  1  0.37470390  0.49557765  0.04121354  1
  S2-  S237  1  0.37677290  0.50423746  0.53627368  1
  S2-  S238  1  0.37034359  0.75691264  0.03818883  1
  S2-  S239  1  0.37899475  0.74733166  0.54931219  1
  S2-  S240  1  0.62115669  0.00301599  0.04331200  1
  S2-  S241  1  0.63584758  -0.00510497  0.53689140  1
  S2-  S242  1  0.62752085  0.24703208  0.05484984  1
  S2-  S243  1  0.62796838  0.25016351  0.54203711  1
  S2-  S244  1  0.62139734  0.49987232  0.05552418  1
  S2-  S245  1  0.62708238  0.49914343  0.54241517  1
  S2-  S246  1  0.62230422  0.75303179  0.05247023  1
  S2-  S247  1  0.62985096  0.74782885  0.54943304  1
  S2-  S248  1  0.87025962  -0.00028285  0.04628741  1
  S2-  S249  1  0.88081030  0.00016169  0.54779634  1
  S2-  S250  1  0.87329378  0.25042552  0.04910210  1
  S2-  S251  1  0.87284856  0.25131196  0.54190232  1
  S2-  S252  1  0.87385924  0.50052554  0.04474139  1
  S2-  S253  1  0.87751591  0.49580903  0.55111287  1
  S2-  S254  1  0.86564317  0.75432775  0.03982148  1
  S2-  S255  1  0.87731379  0.74868950  0.54422896  1
