# generated using pymatgen
data_La6Ce7Pr13Nd19Sm19(BiS2)64
_symmetry_space_group_name_H-M   'P 1'
_cell_length_a   16.09057303
_cell_length_b   16.08611684
_cell_length_c   27.36080913
_cell_angle_alpha   89.89566478
_cell_angle_beta   90.08648087
_cell_angle_gamma   90.18121920
_symmetry_Int_Tables_number   1
_chemical_formula_structural   La6Ce7Pr13Nd19Sm19(BiS2)64
_chemical_formula_sum   'La6 Ce7 Pr13 Nd19 Sm19 Bi64 S128'
_cell_volume   7081.87542203
_cell_formula_units_Z   1
loop_
 _symmetry_equiv_pos_site_id
 _symmetry_equiv_pos_as_xyz
  1  'x, y, z'
loop_
 _atom_type_symbol
 _atom_type_oxidation_number
  La3+  3.0
  Ce3+  3.0
  Pr3+  3.0
  Nd3+  3.0
  Sm3+  3.0
  Bi2+  2.0
  S2-  -2.0
loop_
 _atom_site_type_symbol
 _atom_site_label
 _atom_site_symmetry_multiplicity
 _atom_site_fract_x
 _atom_site_fract_y
 _atom_site_fract_z
 _atom_site_occupancy
  La3+  La0  1  0.87509349  0.75010712  0.41762891  1
  La3+  La1  1  0.24767698  0.12980095  0.07529506  1
  La3+  La2  1  0.26082105  0.61126214  0.58742076  1
  La3+  La3  1  0.76034779  0.87105711  0.07841074  1
  La3+  La4  1  0.24117424  0.38183866  0.07449006  1
  La3+  La5  1  0.50010560  0.12725414  0.10982500  1
  Ce3+  Ce6  1  0.37820275  0.25592480  0.42286931  1
  Ce3+  Ce7  1  0.62796701  0.50488339  0.43395839  1
  Ce3+  Ce8  1  0.50057017  0.62598033  0.06071762  1
  Ce3+  Ce9  1  0.62548789  -0.00054979  0.43807226  1
  Ce3+  Ce10  1  0.00121224  0.37446182  0.54593005  1
  Ce3+  Ce11  1  0.37197198  0.24993420  0.94556427  1
  Ce3+  Ce12  1  0.86855874  0.00608509  0.93909703  1
  Pr3+  Pr13  1  0.75394102  0.37459634  0.06000139  1
  Pr3+  Pr14  1  -0.00639775  0.62490370  0.57191398  1
  Pr3+  Pr15  1  0.12514186  0.24506093  0.43540850  1
  Pr3+  Pr16  1  0.75147696  0.37473698  0.56200962  1
  Pr3+  Pr17  1  0.87121320  0.50296767  0.42857881  1
  Pr3+  Pr18  1  0.26007310  0.87325382  0.57862878  1
  Pr3+  Pr19  1  0.24847380  0.87699922  0.06068295  1
  Pr3+  Pr20  1  0.63071136  0.24924917  0.42864781  1
  Pr3+  Pr21  1  0.36464337  0.00173659  0.41874968  1
  Pr3+  Pr22  1  0.75879712  0.62422544  0.07665827  1
  Pr3+  Pr23  1  0.11842921  0.00258416  0.92549616  1
  Pr3+  Pr24  1  0.87143977  0.75453542  0.93864940  1
  Pr3+  Pr25  1  0.36378021  0.50687321  0.41749496  1
  Nd3+  Nd26  1  0.37495312  0.75194029  0.94491835  1
  Nd3+  Nd27  1  0.50261537  0.37600933  0.54521324  1
  Nd3+  Nd28  1  0.50198322  0.62324995  0.56045538  1
  Nd3+  Nd29  1  0.00577341  0.12594660  0.06103554  1
  Nd3+  Nd30  1  0.62616544  0.00373928  0.94581767  1
  Nd3+  Nd31  1  0.26366729  0.12461663  0.56340786  1
  Nd3+  Nd32  1  0.01552972  0.12605894  0.57498487  1
  Nd3+  Nd33  1  0.75205323  0.12032394  0.07397777  1
  Nd3+  Nd34  1  0.13512290  0.25133142  0.92900590  1
  Nd3+  Nd35  1  0.49912788  0.88201756  0.06631737  1
  Nd3+  Nd36  1  0.62607073  0.25113668  0.94337707  1
  Nd3+  Nd37  1  0.37164112  0.74880246  0.44194064  1
  Nd3+  Nd38  1  0.25024360  0.62630727  0.06895090  1
  Nd3+  Nd39  1  0.75155783  0.87752532  0.55701574  1
  Nd3+  Nd40  1  0.86207212  0.51304447  0.92154445  1
  Nd3+  Nd41  1  0.12216551  0.50635598  0.44135550  1
  Nd3+  Nd42  1  0.37315689  0.00272504  0.94341173  1
  Nd3+  Nd43  1  0.75376063  0.12875394  0.56748020  1
  Nd3+  Nd44  1  0.12328275  0.50303466  0.93575745  1
  Sm3+  Sm45  1  0.62737306  0.50296955  0.95203634  1
  Sm3+  Sm46  1  0.50088810  0.37038191  0.05906191  1
  Sm3+  Sm47  1  0.12915348  -0.00257220  0.45090407  1
  Sm3+  Sm48  1  0.00212677  0.87415250  0.56233242  1
  Sm3+  Sm49  1  0.50100533  0.12498439  0.55365922  1
  Sm3+  Sm50  1  0.12771251  0.74842688  0.45776071  1
  Sm3+  Sm51  1  0.00078802  0.62740780  0.05819399  1
  Sm3+  Sm52  1  0.25365308  0.37552571  0.55000647  1
  Sm3+  Sm53  1  0.75068901  0.62774350  0.55904067  1
  Sm3+  Sm54  1  0.00107814  0.37837058  0.04785771  1
  Sm3+  Sm55  1  0.62496987  0.75401476  0.95055081  1
  Sm3+  Sm56  1  0.87505049  0.23790817  0.43348798  1
  Sm3+  Sm57  1  0.87962678  -0.00223555  0.44257058  1
  Sm3+  Sm58  1  0.12756628  0.74986643  0.93213113  1
  Sm3+  Sm59  1  0.37361026  0.50310146  0.94565578  1
  Sm3+  Sm60  1  0.49788949  0.87441533  0.55399073  1
  Sm3+  Sm61  1  0.62640426  0.75106021  0.43901910  1
  Sm3+  Sm62  1  0.87768022  0.25228136  0.94481366  1
  Sm3+  Sm63  1  0.00394596  0.87555101  0.05599078  1
  Bi2+  Bi64  1  0.01612988  0.18427691  0.30021960  1
  Bi2+  Bi65  1  -0.03871432  0.12987915  0.79642464  1
  Bi2+  Bi66  1  -0.02923478  0.38300899  0.27078807  1
  Bi2+  Bi67  1  -0.04158995  0.40207237  0.73559601  1
  Bi2+  Bi68  1  0.04034491  0.66031306  0.23808194  1
  Bi2+  Bi69  1  -0.01153326  0.58163540  0.79523717  1
  Bi2+  Bi70  1  0.01545897  0.84276501  0.28744842  1
  Bi2+  Bi71  1  -0.08592325  0.88917286  0.77819904  1
  Bi2+  Bi72  1  0.21964105  0.10852016  0.29205900  1
  Bi2+  Bi73  1  0.22888925  0.14610619  0.80366973  1
  Bi2+  Bi74  1  0.24569196  0.39367367  0.28161396  1
  Bi2+  Bi75  1  0.24939046  0.35284591  0.72864321  1
  Bi2+  Bi76  1  0.23160752  0.64462750  0.29289315  1
  Bi2+  Bi77  1  0.25984175  0.63843295  0.81557483  1
  Bi2+  Bi78  1  0.21112972  0.85482975  0.29257291  1
  Bi2+  Bi79  1  0.26021764  0.88710083  0.80312113  1
  Bi2+  Bi80  1  0.52240547  0.10241730  0.32385587  1
  Bi2+  Bi81  1  0.51284640  0.08581164  0.78802042  1
  Bi2+  Bi82  1  0.50473308  0.41324812  0.27798372  1
  Bi2+  Bi83  1  0.52844783  0.38245735  0.74935257  1
  Bi2+  Bi84  1  0.53330503  0.59582830  0.31203091  1
  Bi2+  Bi85  1  0.55150672  0.61565485  0.76870502  1
  Bi2+  Bi86  1  0.45896109  0.77871032  0.29279185  1
  Bi2+  Bi87  1  0.50673814  0.86592760  0.79938606  1
  Bi2+  Bi88  1  0.80360880  0.13739937  0.28413295  1
  Bi2+  Bi89  1  0.70196236  0.14116302  0.80648791  1
  Bi2+  Bi90  1  0.77967323  0.37817872  0.28785865  1
  Bi2+  Bi91  1  0.71348420  0.39625396  0.78840398  1
  Bi2+  Bi92  1  0.79271178  0.62458873  0.29341903  1
  Bi2+  Bi93  1  0.74959339  0.61616797  0.78649355  1
  Bi2+  Bi94  1  0.76604001  0.87545873  0.29222947  1
  Bi2+  Bi95  1  0.72519817  0.87468576  0.79837857  1
  Bi2+  Bi96  1  0.09612780  -0.00438278  0.22953272  1
  Bi2+  Bi97  1  0.08332128  0.00108216  0.70313080  1
  Bi2+  Bi98  1  0.10367119  0.24308245  0.19744058  1
  Bi2+  Bi99  1  0.08398112  0.24584498  0.69986578  1
  Bi2+  Bi100  1  0.11809415  0.48742953  0.21257268  1
  Bi2+  Bi101  1  0.15574733  0.52223653  0.70776268  1
  Bi2+  Bi102  1  0.12630729  0.74714381  0.14897285  1
  Bi2+  Bi103  1  0.10516713  0.76403882  0.71602711  1
  Bi2+  Bi104  1  0.38382906  -0.02602537  0.22374185  1
  Bi2+  Bi105  1  0.38298488  0.01903629  0.70739412  1
  Bi2+  Bi106  1  0.36998263  0.24581188  0.21726945  1
  Bi2+  Bi107  1  0.39382943  0.21685734  0.73060279  1
  Bi2+  Bi108  1  0.38203914  0.52866459  0.21860046  1
  Bi2+  Bi109  1  0.38690549  0.51568192  0.74147777  1
  Bi2+  Bi110  1  0.30294564  0.73690572  0.20131132  1
  Bi2+  Bi111  1  0.44356250  0.75219558  0.70957479  1
  Bi2+  Bi112  1  0.63650871  0.00956410  0.22158219  1
  Bi2+  Bi113  1  0.57490672  -0.03922819  0.70495504  1
  Bi2+  Bi114  1  0.62536173  0.27047450  0.21695082  1
  Bi2+  Bi115  1  0.60408513  0.23238716  0.68778084  1
  Bi2+  Bi116  1  0.65614045  0.53471871  0.22108662  1
  Bi2+  Bi117  1  0.62597706  0.57040777  0.66549734  1
  Bi2+  Bi118  1  0.59339785  0.72285649  0.22029944  1
  Bi2+  Bi119  1  0.63823000  0.76295186  0.68495350  1
  Bi2+  Bi120  1  0.90063973  0.00835605  0.20882955  1
  Bi2+  Bi121  1  0.78955660  0.00923566  0.71765574  1
  Bi2+  Bi122  1  0.90717190  0.20534680  0.19512521  1
  Bi2+  Bi123  1  0.81797567  0.26160623  0.73258360  1
  Bi2+  Bi124  1  0.84746359  0.47403017  0.19481377  1
  Bi2+  Bi125  1  0.78756041  0.47595621  0.68821582  1
  Bi2+  Bi126  1  0.86661823  0.75087436  0.21107124  1
  Bi2+  Bi127  1  0.84041303  0.73920452  0.71576188  1
  S2-  S128  1  0.10920045  0.09736914  0.14074800  1
  S2-  S129  1  -0.03955732  0.12419625  0.67104864  1
  S2-  S130  1  0.07202453  0.38027124  0.13651943  1
  S2-  S131  1  0.02012709  0.37555835  0.64203270  1
  S2-  S132  1  -0.09858916  0.60236128  0.13774013  1
  S2-  S133  1  0.04225911  0.62225814  0.67243728  1
  S2-  S134  1  -0.07417403  0.87262152  0.14387041  1
  S2-  S135  1  0.00060509  0.87220254  0.66022941  1
  S2-  S136  1  0.34857782  0.10185074  0.16043105  1
  S2-  S137  1  0.16016837  0.12806608  0.64492152  1
  S2-  S138  1  0.25558350  0.27062312  0.15101580  1
  S2-  S139  1  0.26707548  0.44468339  0.63882105  1
  S2-  S140  1  0.25738490  0.51489513  0.14738811  1
  S2-  S141  1  0.22799858  0.67726515  0.68414014  1
  S2-  S142  1  0.29293942  0.89690253  0.15914831  1
  S2-  S143  1  0.19910084  0.89780736  0.67760440  1
  S2-  S144  1  0.50770242  0.13654918  0.22956892  1
  S2-  S145  1  0.39556325  0.13159651  0.63289555  1
  S2-  S146  1  0.49170765  0.30657803  0.15030974  1
  S2-  S147  1  0.52575445  0.35684907  0.64360963  1
  S2-  S148  1  0.48061572  0.63237353  0.15715599  1
  S2-  S149  1  0.41616679  0.61162944  0.64749367  1
  S2-  S150  1  0.51403806  0.95164522  0.15771297  1
  S2-  S151  1  0.40684247  0.87890896  0.63856954  1
  S2-  S152  1  0.65709704  0.14633479  0.15632365  1
  S2-  S153  1  0.66858914  0.07750546  0.65173327  1
  S2-  S154  1  0.73290115  0.34718351  0.15860728  1
  S2-  S155  1  0.75965854  0.26174181  0.63827850  1
  S2-  S156  1  0.72829497  0.74403485  0.15120316  1
  S2-  S157  1  0.85144845  0.62661160  0.63841848  1
  S2-  S158  1  0.74838216  0.98055563  0.15585271  1
  S2-  S159  1  0.77728173  0.87188853  0.65502562  1
  S2-  S160  1  0.20578867  -0.01220727  0.36301314  1
  S2-  S161  1  0.14869857  -0.00387962  0.82302371  1
  S2-  S162  1  0.16520729  0.26258266  0.33783932  1
  S2-  S163  1  0.08074859  0.22345721  0.83251409  1
  S2-  S164  1  0.20493948  0.51093146  0.35440465  1
  S2-  S165  1  0.14261448  0.52909595  0.83729333  1
  S2-  S166  1  0.12918927  0.74925348  0.35894002  1
  S2-  S167  1  0.13831452  0.77008513  0.83430018  1
  S2-  S168  1  0.43090938  -0.06123547  0.32621802  1
  S2-  S169  1  0.34439801  0.01541777  0.84501019  1
  S2-  S170  1  0.35718819  0.14173651  0.35019273  1
  S2-  S171  1  0.28133942  0.26646240  0.86276361  1
  S2-  S172  1  0.37011953  0.37616986  0.34640063  1
  S2-  S173  1  0.36649479  0.52410254  0.84851814  1
  S2-  S174  1  0.37207055  0.65643610  0.35710290  1
  S2-  S175  1  0.37324143  0.77052765  0.84635462  1
  S2-  S176  1  0.66769273  -0.00201966  0.34130335  1
  S2-  S177  1  0.73780845  0.00546322  0.86954063  1
  S2-  S178  1  0.54919388  0.26058221  0.33715930  1
  S2-  S179  1  0.61961051  0.27612531  0.84495338  1
  S2-  S180  1  0.73548276  0.49498349  0.35777575  1
  S2-  S181  1  0.70724269  0.51647437  0.86663551  1
  S2-  S182  1  0.72141011  0.75290234  0.35474450  1
  S2-  S183  1  0.62270488  0.77258170  0.85312359  1
  S2-  S184  1  0.90783003  0.10744218  0.36622839  1
  S2-  S185  1  0.96275639  -0.00865038  0.85791821  1
  S2-  S186  1  0.76117376  0.24999289  0.35697253  1
  S2-  S187  1  0.85445093  0.21217978  0.85051761  1
  S2-  S188  1  0.92004344  0.61603342  0.35421419  1
  S2-  S189  1  0.93224180  0.44805387  0.83805016  1
  S2-  S190  1  0.89075458  0.89535516  0.35759595  1
  S2-  S191  1  0.88048798  0.65815801  0.85503994  1
  S2-  S192  1  0.00819518  0.11976194  0.46700679  1
  S2-  S193  1  0.00129397  0.13093294  0.95493265  1
  S2-  S194  1  -0.00206752  0.37347915  0.43893661  1
  S2-  S195  1  0.00396108  0.37357205  0.94603692  1
  S2-  S196  1  0.00156045  0.62900468  0.46353629  1
  S2-  S197  1  0.00341607  0.62927255  0.95300140  1
  S2-  S198  1  0.00666527  0.87454289  0.45866185  1
  S2-  S199  1  0.00308578  0.86990687  0.95159070  1
  S2-  S200  1  0.24973515  0.12617465  0.45882242  1
  S2-  S201  1  0.24803158  0.12243716  0.95815369  1
  S2-  S202  1  0.24533994  0.37576697  0.44941043  1
  S2-  S203  1  0.24980677  0.38478121  0.96146494  1
  S2-  S204  1  0.24787953  0.62557518  0.46409864  1
  S2-  S205  1  0.25039833  0.62746170  0.95841480  1
  S2-  S206  1  0.25102235  0.87130961  0.46445550  1
  S2-  S207  1  0.24745452  0.87527248  0.95200613  1
  S2-  S208  1  0.50066200  0.12401898  0.44993254  1
  S2-  S209  1  0.49999703  0.12686019  0.94205276  1
  S2-  S210  1  0.50522785  0.38214283  0.44211253  1
  S2-  S211  1  0.50037307  0.38064903  0.95318059  1
  S2-  S212  1  0.50335655  0.62762756  0.45408555  1
  S2-  S213  1  0.50248635  0.62573995  0.95283240  1
  S2-  S214  1  0.49971988  0.87182831  0.44928086  1
  S2-  S215  1  0.50067021  0.87828686  0.95862592  1
  S2-  S216  1  0.75261686  0.11804385  0.46059901  1
  S2-  S217  1  0.75088251  0.13368628  0.96668947  1
  S2-  S218  1  0.75423667  0.37213775  0.45719805  1
  S2-  S219  1  0.75165670  0.37512695  0.95425173  1
  S2-  S220  1  0.75060262  0.62992726  0.45706167  1
  S2-  S221  1  0.74508141  0.63263397  0.96757810  1
  S2-  S222  1  0.74922717  0.87753807  0.45433085  1
  S2-  S223  1  0.74820854  0.87406221  0.96594916  1
  S2-  S224  1  0.12430952  -0.00346050  0.03650265  1
  S2-  S225  1  0.13269617  -0.00655392  0.55250665  1
  S2-  S226  1  0.12342498  0.25315861  0.03696259  1
  S2-  S227  1  0.13189321  0.25294670  0.54276739  1
  S2-  S228  1  0.12172767  0.50897548  0.04163095  1
  S2-  S229  1  0.12611566  0.50074847  0.54640979  1
  S2-  S230  1  0.12565046  0.74965427  0.03699656  1
  S2-  S231  1  0.12857864  0.74894400  0.56143129  1
  S2-  S232  1  0.37650415  0.00371797  0.04825949  1
  S2-  S233  1  0.38017250  -0.00159975  0.53393659  1
  S2-  S234  1  0.37949001  0.24862751  0.04758035  1
  S2-  S235  1  0.37787275  0.25477076  0.53348864  1
  S2-  S236  1  0.37983991  0.49887241  0.04949691  1
  S2-  S237  1  0.37958674  0.49855579  0.53407476  1
  S2-  S238  1  0.37511259  0.75181129  0.05083604  1
  S2-  S239  1  0.37611756  0.74495947  0.54599819  1
  S2-  S240  1  0.62307231  0.00480625  0.04978942  1
  S2-  S241  1  0.62059061  -0.00202421  0.54367694  1
  S2-  S242  1  0.62508595  0.25008317  0.04817736  1
  S2-  S243  1  0.62465586  0.24687561  0.53696850  1
  S2-  S244  1  0.62578912  0.49885608  0.05656558  1
  S2-  S245  1  0.62976075  0.50072504  0.54022805  1
  S2-  S246  1  0.62061096  0.75303097  0.05295344  1
  S2-  S247  1  0.62532303  0.75199190  0.54349095  1
  S2-  S248  1  0.88106939  0.00311857  0.04553933  1
  S2-  S249  1  0.88050369  0.00113080  0.55148077  1
  S2-  S250  1  0.87987746  0.25026482  0.05013611  1
  S2-  S251  1  0.88320554  0.24579777  0.54018054  1
  S2-  S252  1  0.87740692  0.49847317  0.03342964  1
  S2-  S253  1  0.87460226  0.49797171  0.53874733  1
  S2-  S254  1  0.88156289  0.74953522  0.04304764  1
  S2-  S255  1  0.87595799  0.75656565  0.54255610  1
