# generated using pymatgen
data_La6Ce7Pr13Nd19Sm19(BiS2)64
_symmetry_space_group_name_H-M   'P 1'
_cell_length_a   16.00382922
_cell_length_b   16.02673265
_cell_length_c   27.53885646
_cell_angle_alpha   90.05707984
_cell_angle_beta   89.65423246
_cell_angle_gamma   89.98977681
_symmetry_Int_Tables_number   1
_chemical_formula_structural   La6Ce7Pr13Nd19Sm19(BiS2)64
_chemical_formula_sum   'La6 Ce7 Pr13 Nd19 Sm19 Bi64 S128'
_cell_volume   7063.28405149
_cell_formula_units_Z   1
loop_
 _symmetry_equiv_pos_site_id
 _symmetry_equiv_pos_as_xyz
  1  'x, y, z'
loop_
 _atom_type_symbol
 _atom_type_oxidation_number
  La3+  3.0
  Ce3+  3.0
  Pr3+  3.0
  Nd3+  3.0
  Sm3+  3.0
  Bi2+  2.0
  S2-  -2.0
loop_
 _atom_site_type_symbol
 _atom_site_label
 _atom_site_symmetry_multiplicity
 _atom_site_fract_x
 _atom_site_fract_y
 _atom_site_fract_z
 _atom_site_occupancy
  La3+  La0  1  0.75248547  0.62013739  0.60613781  1
  La3+  La1  1  0.86426669  -0.01925089  0.38418570  1
  La3+  La2  1  0.25681041  0.13605424  0.07638948  1
  La3+  La3  1  0.37910419  0.49805530  0.38651508  1
  La3+  La4  1  -0.01159325  0.88319295  0.07514711  1
  La3+  La5  1  0.24199045  0.39925409  0.09513182  1
  Ce3+  Ce6  1  0.88687972  0.49506776  0.43723257  1
  Ce3+  Ce7  1  0.75871687  0.14007823  0.06453892  1
  Ce3+  Ce8  1  0.62169129  0.01624916  0.93288570  1
  Ce3+  Ce9  1  0.87207480  0.76831201  0.91895279  1
  Ce3+  Ce10  1  0.88575268  0.74734786  0.45168606  1
  Ce3+  Ce11  1  0.25994623  0.87362878  0.55671391  1
  Ce3+  Ce12  1  0.76267352  0.37917471  0.56022149  1
  Pr3+  Pr13  1  0.75728970  0.87459531  0.56876506  1
  Pr3+  Pr14  1  0.12980361  -0.00492218  0.43394153  1
  Pr3+  Pr15  1  0.62799190  0.50667615  0.92192057  1
  Pr3+  Pr16  1  0.63879910  0.74694611  0.44154357  1
  Pr3+  Pr17  1  0.37872792  0.51233161  0.93506467  1
  Pr3+  Pr18  1  0.00377513  0.87440320  0.57288503  1
  Pr3+  Pr19  1  0.26119034  0.37561312  0.56032971  1
  Pr3+  Pr20  1  0.00634095  0.13754463  0.07679632  1
  Pr3+  Pr21  1  0.76162183  0.12298597  0.55752880  1
  Pr3+  Pr22  1  0.50261273  0.88523113  0.06197198  1
  Pr3+  Pr23  1  0.37651250  0.02451070  0.92941648  1
  Pr3+  Pr24  1  0.01895083  0.62621719  0.58362164  1
  Pr3+  Pr25  1  0.37759888  0.26647043  0.95196590  1
  Nd3+  Nd26  1  0.00889136  0.12019661  0.55663901  1
  Nd3+  Nd27  1  0.63446120  0.49318597  0.43164496  1
  Nd3+  Nd28  1  0.12152623  0.01442193  0.94668387  1
  Nd3+  Nd29  1  0.13737292  0.49826488  0.43643864  1
  Nd3+  Nd30  1  0.62950307  0.26357209  0.95088414  1
  Nd3+  Nd31  1  0.50829821  0.12400654  0.55757711  1
  Nd3+  Nd32  1  0.75455073  0.39212074  0.05464030  1
  Nd3+  Nd33  1  0.51175762  0.87318177  0.56422892  1
  Nd3+  Nd34  1  0.88531464  0.51954909  0.90802364  1
  Nd3+  Nd35  1  0.87761439  0.01648045  0.92671783  1
  Nd3+  Nd36  1  0.51053406  0.37750781  0.55721306  1
  Nd3+  Nd37  1  0.37836364  0.76663494  0.93242905  1
  Nd3+  Nd38  1  0.88655728  0.26157471  0.93112202  1
  Nd3+  Nd39  1  0.25436472  0.88854574  0.05482429  1
  Nd3+  Nd40  1  0.50399462  0.63924307  0.05916261  1
  Nd3+  Nd41  1  0.38241656  -0.00378828  0.42888536  1
  Nd3+  Nd42  1  0.12698518  0.51700544  0.93290128  1
  Nd3+  Nd43  1  0.13560016  0.74522003  0.44158250  1
  Nd3+  Nd44  1  0.50223151  0.39766348  0.07374868  1
  Sm3+  Sm45  1  0.50985740  0.13630362  0.07304249  1
  Sm3+  Sm46  1  0.26013002  0.62144064  0.55855943  1
  Sm3+  Sm47  1  0.75226623  0.88951074  0.04897330  1
  Sm3+  Sm48  1  0.88618341  0.24576392  0.43229727  1
  Sm3+  Sm49  1  0.62870453  0.75604815  0.93030528  1
  Sm3+  Sm50  1  0.51348974  0.62106054  0.55320066  1
  Sm3+  Sm51  1  0.75377086  0.63824299  0.04772339  1
  Sm3+  Sm52  1  0.14074705  0.24875415  0.44739655  1
  Sm3+  Sm53  1  0.63376196  0.24883167  0.44647070  1
  Sm3+  Sm54  1  0.26158585  0.12069165  0.55799547  1
  Sm3+  Sm55  1  0.25248713  0.63603458  0.05773440  1
  Sm3+  Sm56  1  0.63499945  -0.00102234  0.44083392  1
  Sm3+  Sm57  1  0.38781499  0.74608937  0.44558244  1
  Sm3+  Sm58  1  0.38621083  0.25166865  0.43319034  1
  Sm3+  Sm59  1  0.12617454  0.26572117  0.94855820  1
  Sm3+  Sm60  1  0.00928248  0.37716788  0.55694792  1
  Sm3+  Sm61  1  0.12241931  0.76599218  0.94821856  1
  Sm3+  Sm62  1  0.00189839  0.39037632  0.05792935  1
  Sm3+  Sm63  1  -0.00022817  0.64095591  0.05607248  1
  Bi2+  Bi64  1  0.03207948  0.13916759  0.29092564  1
  Bi2+  Bi65  1  -0.03601253  0.12265632  0.78338066  1
  Bi2+  Bi66  1  0.00954801  0.40126034  0.28673017  1
  Bi2+  Bi67  1  -0.06006360  0.35298698  0.79686297  1
  Bi2+  Bi68  1  -0.04591777  0.58957149  0.31361450  1
  Bi2+  Bi69  1  0.04705226  0.62504708  0.79059558  1
  Bi2+  Bi70  1  0.00421013  0.85435538  0.28970490  1
  Bi2+  Bi71  1  0.03564907  0.89631075  0.79506522  1
  Bi2+  Bi72  1  0.25206409  0.12492124  0.28260616  1
  Bi2+  Bi73  1  0.22393308  0.08875400  0.75638014  1
  Bi2+  Bi74  1  0.24669411  0.33192819  0.28197066  1
  Bi2+  Bi75  1  0.27465209  0.36118421  0.78433839  1
  Bi2+  Bi76  1  0.14807055  0.62543704  0.30998233  1
  Bi2+  Bi77  1  0.23446002  0.54982464  0.81228170  1
  Bi2+  Bi78  1  0.27612991  0.87057411  0.29258365  1
  Bi2+  Bi79  1  0.30502752  0.93151752  0.80600955  1
  Bi2+  Bi80  1  0.43922990  0.11387078  0.32115983  1
  Bi2+  Bi81  1  0.42494762  0.09865741  0.78546562  1
  Bi2+  Bi82  1  0.53284059  0.37572283  0.28871859  1
  Bi2+  Bi83  1  0.45365286  0.29864806  0.81092654  1
  Bi2+  Bi84  1  0.48661471  0.67408473  0.28503057  1
  Bi2+  Bi85  1  0.48941721  0.57215943  0.78671216  1
  Bi2+  Bi86  1  0.47141196  0.92298803  0.29270108  1
  Bi2+  Bi87  1  0.48640902  0.84578550  0.79632299  1
  Bi2+  Bi88  1  0.63688231  0.13219148  0.29885816  1
  Bi2+  Bi89  1  0.71342441  0.14438320  0.79156975  1
  Bi2+  Bi90  1  0.75415475  0.40463791  0.29504460  1
  Bi2+  Bi91  1  0.68601906  0.35636645  0.79530188  1
  Bi2+  Bi92  1  0.76021454  0.60515092  0.28367628  1
  Bi2+  Bi93  1  0.74036786  0.63633188  0.79385371  1
  Bi2+  Bi94  1  0.73460446  0.83118936  0.29440507  1
  Bi2+  Bi95  1  0.76488242  0.89327426  0.78018083  1
  Bi2+  Bi96  1  0.13007150  0.02741965  0.21513937  1
  Bi2+  Bi97  1  0.10409447  -0.05276151  0.69784991  1
  Bi2+  Bi98  1  0.01304585  0.26339727  0.20102589  1
  Bi2+  Bi99  1  0.10921516  0.25403944  0.76501969  1
  Bi2+  Bi100  1  0.11696965  0.52754135  0.21196551  1
  Bi2+  Bi101  1  0.13747632  0.47023940  0.70135655  1
  Bi2+  Bi102  1  0.10364586  0.73001810  0.21312648  1
  Bi2+  Bi103  1  0.23894898  0.74730426  0.77709846  1
  Bi2+  Bi104  1  0.41153220  -0.04633547  0.18464243  1
  Bi2+  Bi105  1  0.41274736  -0.08067730  0.69500596  1
  Bi2+  Bi106  1  0.48642652  0.19429358  0.21933638  1
  Bi2+  Bi107  1  0.36868183  0.23170143  0.68315630  1
  Bi2+  Bi108  1  0.38637154  0.47307538  0.20323704  1
  Bi2+  Bi109  1  0.34733585  0.52264850  0.71659515  1
  Bi2+  Bi110  1  0.29215039  0.77891367  0.19531641  1
  Bi2+  Bi111  1  0.37196871  0.71873367  0.69486779  1
  Bi2+  Bi112  1  0.60511139  -0.00984348  0.20926574  1
  Bi2+  Bi113  1  0.60836542  0.00131342  0.70463369  1
  Bi2+  Bi114  1  0.67944958  0.26480864  0.20246692  1
  Bi2+  Bi115  1  0.61831558  0.25225988  0.70643517  1
  Bi2+  Bi116  1  0.64841789  0.53225163  0.19991116  1
  Bi2+  Bi117  1  0.60560887  0.46586759  0.71169513  1
  Bi2+  Bi118  1  0.58414590  0.79264423  0.21404199  1
  Bi2+  Bi119  1  0.56985306  0.73721562  0.70826673  1
  Bi2+  Bi120  1  0.84902905  0.03324509  0.19371916  1
  Bi2+  Bi121  1  0.86862764  0.01441477  0.70798834  1
  Bi2+  Bi122  1  0.84157101  0.22578955  0.26079185  1
  Bi2+  Bi123  1  0.82039021  0.26292425  0.71562645  1
  Bi2+  Bi124  1  0.88742818  0.49955870  0.21668307  1
  Bi2+  Bi125  1  0.88358959  0.46444379  0.71506928  1
  Bi2+  Bi126  1  0.83528903  0.75079019  0.19963698  1
  Bi2+  Bi127  1  0.91743995  0.75462647  0.71055526  1
  S2-  S128  1  -0.12747285  0.17868698  0.13988639  1
  S2-  S129  1  0.00868055  0.06645426  0.65215638  1
  S2-  S130  1  0.07959991  0.40376984  0.14526935  1
  S2-  S131  1  0.00784353  0.38566709  0.65432109  1
  S2-  S132  1  -0.02061362  0.73431207  0.13926673  1
  S2-  S133  1  -0.09131495  0.60312896  0.66045872  1
  S2-  S134  1  0.00005981  0.99733479  0.15195623  1
  S2-  S135  1  0.04836069  0.77901079  0.65529422  1
  S2-  S136  1  0.13673216  0.16180345  0.15078671  1
  S2-  S137  1  0.24551975  0.13827101  0.65501363  1
  S2-  S138  1  0.28142979  0.33672893  0.19073619  1
  S2-  S139  1  0.26170413  0.35721580  0.65958310  1
  S2-  S140  1  0.26419654  0.55573586  0.14545636  1
  S2-  S141  1  0.16717997  0.59500531  0.64184024  1
  S2-  S142  1  0.24099666  0.92863793  0.15142662  1
  S2-  S143  1  0.25822073  0.91010416  0.65082478  1
  S2-  S144  1  0.39013096  0.11669353  0.14441954  1
  S2-  S145  1  0.48000131  0.08641096  0.65231750  1
  S2-  S146  1  0.49633058  0.34189783  0.17107589  1
  S2-  S147  1  0.50041148  0.34995307  0.65579487  1
  S2-  S148  1  0.51228200  0.53800810  0.14125142  1
  S2-  S149  1  0.57798359  0.60298044  0.64349828  1
  S2-  S150  1  0.49453878  0.76090023  0.13415569  1
  S2-  S151  1  0.62294201  0.86907254  0.64135864  1
  S2-  S152  1  0.64555517  0.11715231  0.14173490  1
  S2-  S153  1  0.72907692  0.06691831  0.65115606  1
  S2-  S154  1  0.74362806  0.40102844  0.15408617  1
  S2-  S155  1  0.74644832  0.45578415  0.64788601  1
  S2-  S156  1  0.72635599  0.65625491  0.14503987  1
  S2-  S157  1  0.74461258  0.70742938  0.69840728  1
  S2-  S158  1  0.81321743  0.88455715  0.14167919  1
  S2-  S159  1  0.86659350  0.87679728  0.64903477  1
  S2-  S160  1  0.03224789  -0.01290089  0.34947076  1
  S2-  S161  1  0.05738468  0.02863884  0.85472033  1
  S2-  S162  1  0.15281621  0.23038627  0.35020134  1
  S2-  S163  1  0.03998055  0.26509109  0.86415847  1
  S2-  S164  1  0.21284169  0.47002825  0.34868890  1
  S2-  S165  1  0.03168360  0.49453054  0.84899036  1
  S2-  S166  1  0.13745587  0.79373175  0.34619415  1
  S2-  S167  1  0.10960882  0.76130467  0.85109872  1
  S2-  S168  1  0.25472144  -0.00087106  0.35862664  1
  S2-  S169  1  0.49942251  -0.00085894  0.85779055  1
  S2-  S170  1  0.39045869  0.33492600  0.34555483  1
  S2-  S171  1  0.35477642  0.17484348  0.86625585  1
  S2-  S172  1  0.36763314  0.56456864  0.28710566  1
  S2-  S173  1  0.48457815  0.45345927  0.86008743  1
  S2-  S174  1  0.38453173  0.75971718  0.34864021  1
  S2-  S175  1  0.39634103  0.71345244  0.83896807  1
  S2-  S176  1  0.69279526  -0.01320152  0.34958472  1
  S2-  S177  1  0.70549469  0.00271224  0.84529300  1
  S2-  S178  1  0.64424315  0.28944700  0.35143464  1
  S2-  S179  1  0.59607267  0.22415847  0.85693337  1
  S2-  S180  1  0.54622752  0.50746864  0.34583419  1
  S2-  S181  1  0.60665743  0.63612287  0.85210124  1
  S2-  S182  1  0.62001105  0.74961031  0.34238226  1
  S2-  S183  1  0.72743803  0.78314788  0.84749878  1
  S2-  S184  1  0.86611327  -0.04279676  0.27626491  1
  S2-  S185  1  0.89610090  -0.10432872  0.85135110  1
  S2-  S186  1  0.88065135  0.15136305  0.34963590  1
  S2-  S187  1  0.85406235  0.14671002  0.85722624  1
  S2-  S188  1  0.88666403  0.37812115  0.36250599  1
  S2-  S189  1  0.75444604  0.48808697  0.84423838  1
  S2-  S190  1  0.88238744  0.80384969  0.35887901  1
  S2-  S191  1  0.89708952  0.65698658  0.83996471  1
  S2-  S192  1  0.01485923  0.13090563  0.45382794  1
  S2-  S193  1  0.00353248  0.13964803  0.96539029  1
  S2-  S194  1  0.01672672  0.36962615  0.45383379  1
  S2-  S195  1  0.00119267  0.39614897  0.95705431  1
  S2-  S196  1  0.01118181  0.62100104  0.45210804  1
  S2-  S197  1  0.00143715  0.64031072  0.95365892  1
  S2-  S198  1  0.01252484  0.86748346  0.46289026  1
  S2-  S199  1  0.00086411  0.88743009  0.96174125  1
  S2-  S200  1  0.26536756  0.12650714  0.45496025  1
  S2-  S201  1  0.24450411  0.14026217  0.96552390  1
  S2-  S202  1  0.26619526  0.37438231  0.45499428  1
  S2-  S203  1  0.24905709  0.38895297  0.94080819  1
  S2-  S204  1  0.26766718  0.61916590  0.45230043  1
  S2-  S205  1  0.25124032  0.64235640  0.95189368  1
  S2-  S206  1  0.26283090  0.86907173  0.45372050  1
  S2-  S207  1  0.25078252  0.88988825  0.94873296  1
  S2-  S208  1  0.50936640  0.12362537  0.45133637  1
  S2-  S209  1  0.50209333  0.14161862  0.96791590  1
  S2-  S210  1  0.50781164  0.37296870  0.45335500  1
  S2-  S211  1  0.50459124  0.38739084  0.96732199  1
  S2-  S212  1  0.50745885  0.62095022  0.45004346  1
  S2-  S213  1  0.49934720  0.63868188  0.95451592  1
  S2-  S214  1  0.50963844  0.87438266  0.45434154  1
  S2-  S215  1  0.50462003  0.88101636  0.95532189  1
  S2-  S216  1  0.75722519  0.12513180  0.45221898  1
  S2-  S217  1  0.75156503  0.13829513  0.95969853  1
  S2-  S218  1  0.75830816  0.36992014  0.45721802  1
  S2-  S219  1  0.75954687  0.38681299  0.94978446  1
  S2-  S220  1  0.76131633  0.61837037  0.43640296  1
  S2-  S221  1  0.75755571  0.63145333  0.94680712  1
  S2-  S222  1  0.75944149  0.87682595  0.45799158  1
  S2-  S223  1  0.74762706  0.89126141  0.94993980  1
  S2-  S224  1  0.12746604  0.00857703  0.04951849  1
  S2-  S225  1  0.13698876  -0.00034090  0.54284904  1
  S2-  S226  1  0.13240586  0.27368325  0.04860444  1
  S2-  S227  1  0.13526812  0.24798605  0.55146067  1
  S2-  S228  1  0.12554617  0.51836003  0.03985075  1
  S2-  S229  1  0.13394929  0.49756596  0.54090821  1
  S2-  S230  1  0.13004121  0.76247138  0.05068607  1
  S2-  S231  1  0.13861799  0.74657369  0.54525145  1
  S2-  S232  1  0.38025613  0.01058014  0.03856753  1
  S2-  S233  1  0.38671251  -0.00228741  0.53944772  1
  S2-  S234  1  0.37414352  0.27322130  0.05694034  1
  S2-  S235  1  0.38488746  0.24802518  0.54118744  1
  S2-  S236  1  0.37079029  0.51136092  0.04076331  1
  S2-  S237  1  0.38643214  0.50239164  0.55785328  1
  S2-  S238  1  0.37183844  0.76075434  0.03853409  1
  S2-  S239  1  0.38738769  0.74568699  0.54962321  1
  S2-  S240  1  0.62615122  0.00984866  0.04142315  1
  S2-  S241  1  0.63139457  0.00017852  0.54204882  1
  S2-  S242  1  0.62700752  0.26863492  0.05513535  1
  S2-  S243  1  0.63432580  0.25022717  0.55049966  1
  S2-  S244  1  0.63156820  0.51502095  0.03669142  1
  S2-  S245  1  0.63727374  0.49966590  0.53788060  1
  S2-  S246  1  0.63202392  0.76278510  0.03518704  1
  S2-  S247  1  0.63857798  0.74172574  0.54583440  1
  S2-  S248  1  0.87558521  0.01390350  0.04050112  1
  S2-  S249  1  0.88370336  -0.00008745  0.54753596  1
  S2-  S250  1  0.88144894  0.27123450  0.03761617  1
  S2-  S251  1  0.88702706  0.25031188  0.54622910  1
  S2-  S252  1  0.88008415  0.51687747  0.05470873  1
  S2-  S253  1  0.88837802  0.50063796  0.54419553  1
  S2-  S254  1  0.87256212  0.76087563  0.03303721  1
  S2-  S255  1  0.87863782  0.73756740  0.55456845  1
