# generated using pymatgen
data_La6Ce7Pr13Nd19Sm19(BiS2)64
_symmetry_space_group_name_H-M   'P 1'
_cell_length_a   16.01405404
_cell_length_b   16.04495056
_cell_length_c   27.56245826
_cell_angle_alpha   90.22980167
_cell_angle_beta   89.85642173
_cell_angle_gamma   90.05023392
_symmetry_Int_Tables_number   1
_chemical_formula_structural   La6Ce7Pr13Nd19Sm19(BiS2)64
_chemical_formula_sum   'La6 Ce7 Pr13 Nd19 Sm19 Bi64 S128'
_cell_volume   7081.94585657
_cell_formula_units_Z   1
loop_
 _symmetry_equiv_pos_site_id
 _symmetry_equiv_pos_as_xyz
  1  'x, y, z'
loop_
 _atom_type_symbol
 _atom_type_oxidation_number
  La3+  3.0
  Ce3+  3.0
  Pr3+  3.0
  Nd3+  3.0
  Sm3+  3.0
  Bi2+  2.0
  S2-  -2.0
loop_
 _atom_site_type_symbol
 _atom_site_label
 _atom_site_symmetry_multiplicity
 _atom_site_fract_x
 _atom_site_fract_y
 _atom_site_fract_z
 _atom_site_occupancy
  La3+  La0  1  0.39261909  0.76664316  0.42121408  1
  La3+  La1  1  0.63049215  0.26267455  0.43353579  1
  La3+  La2  1  0.37928527  0.51273887  0.43633238  1
  La3+  La3  1  0.09747985  0.51532202  0.37827151  1
  La3+  La4  1  0.87159929  0.74143610  0.88489504  1
  La3+  La5  1  0.88786180  0.75496350  0.42751223  1
  Ce3+  Ce6  1  0.88227462  0.51073336  0.44615712  1
  Ce3+  Ce7  1  0.49796854  0.13554200  0.07267767  1
  Ce3+  Ce8  1  0.50955007  0.39533179  0.57627877  1
  Ce3+  Ce9  1  0.24991847  0.87835060  0.05236142  1
  Ce3+  Ce10  1  0.11885281  0.49603437  0.93033089  1
  Ce3+  Ce11  1  0.61919616  0.75681231  0.93138687  1
  Ce3+  Ce12  1  0.24944608  0.38005703  0.05275329  1
  Pr3+  Pr13  1  0.12230332  0.00243975  0.94347775  1
  Pr3+  Pr14  1  0.25951918  0.88698911  0.56511718  1
  Pr3+  Pr15  1  0.37874979  0.25337610  0.92252153  1
  Pr3+  Pr16  1  0.74641899  0.38128075  0.06327344  1
  Pr3+  Pr17  1  0.76378747  0.88690461  0.56122836  1
  Pr3+  Pr18  1  0.88245505  0.26462196  0.42822748  1
  Pr3+  Pr19  1  0.74930965  0.12895823  0.07682702  1
  Pr3+  Pr20  1  0.49031626  0.87759105  0.06986286  1
  Pr3+  Pr21  1  0.62668748  0.51022040  0.93642532  1
  Pr3+  Pr22  1  0.14301210  0.26895411  0.43420948  1
  Pr3+  Pr23  1  0.00926641  0.38674129  0.56770749  1
  Pr3+  Pr24  1  0.24917938  0.13645922  0.06970831  1
  Pr3+  Pr25  1  0.26241786  0.64358376  0.56262593  1
  Nd3+  Nd26  1  0.51141751  0.14046247  0.56458204  1
  Nd3+  Nd27  1  -0.00152522  0.87731904  0.06822192  1
  Nd3+  Nd28  1  0.01311151  0.63688372  0.55670452  1
  Nd3+  Nd29  1  0.11944648  0.24998861  0.93888942  1
  Nd3+  Nd30  1  0.25123009  0.62689433  0.05834913  1
  Nd3+  Nd31  1  0.62036654  0.00309507  0.94851969  1
  Nd3+  Nd32  1  0.62622478  0.24894494  0.93835745  1
  Nd3+  Nd33  1  -0.00118655  0.63123647  0.06391433  1
  Nd3+  Nd34  1  0.51086758  0.64060855  0.56649417  1
  Nd3+  Nd35  1  0.37319404  0.50124045  0.93096933  1
  Nd3+  Nd36  1  0.25812441  0.39095973  0.57174066  1
  Nd3+  Nd37  1  0.76341851  0.14069803  0.56168190  1
  Nd3+  Nd38  1  0.38856109  0.00740251  0.44287870  1
  Nd3+  Nd39  1  0.86858375  0.24884485  0.94137617  1
  Nd3+  Nd40  1  -0.00183575  0.38526602  0.06675512  1
  Nd3+  Nd41  1  0.74715392  0.63607629  0.05592287  1
  Nd3+  Nd42  1  0.49936728  0.63613552  0.06508070  1
  Nd3+  Nd43  1  0.76887108  0.64056462  0.57405420  1
  Nd3+  Nd44  1  0.00253182  0.13977666  0.08821813  1
  Sm3+  Sm45  1  0.75715384  0.38597456  0.56549507  1
  Sm3+  Sm46  1  0.64111554  0.76144761  0.43828833  1
  Sm3+  Sm47  1  0.01017604  0.88734950  0.55678280  1
  Sm3+  Sm48  1  0.62930557  0.51382397  0.44613419  1
  Sm3+  Sm49  1  0.37803361  0.74672341  0.92734162  1
  Sm3+  Sm50  1  0.12054602  0.74914754  0.93963219  1
  Sm3+  Sm51  1  0.01290160  0.14153178  0.55062737  1
  Sm3+  Sm52  1  0.38637127  0.26330948  0.44097180  1
  Sm3+  Sm53  1  0.14054045  0.76157290  0.43195419  1
  Sm3+  Sm54  1  0.75011895  0.88038207  0.05240103  1
  Sm3+  Sm55  1  0.63869857  0.01075691  0.44972327  1
  Sm3+  Sm56  1  0.51068218  0.88361376  0.56570326  1
  Sm3+  Sm57  1  0.88766277  0.01311072  0.44617031  1
  Sm3+  Sm58  1  0.13555922  0.00565459  0.43525980  1
  Sm3+  Sm59  1  0.37299695  0.00473339  0.94731333  1
  Sm3+  Sm60  1  0.87477115  -0.00367845  0.94327879  1
  Sm3+  Sm61  1  0.49646590  0.38075171  0.05218743  1
  Sm3+  Sm62  1  0.87468098  0.50609017  0.94532679  1
  Sm3+  Sm63  1  0.26045583  0.13713031  0.55489544  1
  Bi2+  Bi64  1  0.08196414  0.08134685  0.31081139  1
  Bi2+  Bi65  1  0.03157264  0.19411532  0.81729183  1
  Bi2+  Bi66  1  -0.03980083  0.24185911  0.30421761  1
  Bi2+  Bi67  1  -0.03386015  0.37256366  0.79094043  1
  Bi2+  Bi68  1  -0.10303695  0.69900437  0.29717819  1
  Bi2+  Bi69  1  0.02313352  0.62535826  0.79035920  1
  Bi2+  Bi70  1  -0.00757461  0.89402708  0.30576055  1
  Bi2+  Bi71  1  0.00707573  0.94771480  0.78776403  1
  Bi2+  Bi72  1  0.27331797  0.03461463  0.30464116  1
  Bi2+  Bi73  1  0.30022515  0.14106472  0.80011878  1
  Bi2+  Bi74  1  0.23727478  0.35552519  0.29494354  1
  Bi2+  Bi75  1  0.24832710  0.32762324  0.78464433  1
  Bi2+  Bi76  1  0.24207825  0.61116553  0.27965153  1
  Bi2+  Bi77  1  0.28005094  0.71536823  0.79945541  1
  Bi2+  Bi78  1  0.24115227  0.88048007  0.23285256  1
  Bi2+  Bi79  1  0.26834461  0.91193974  0.79390782  1
  Bi2+  Bi80  1  0.51611348  0.11336233  0.29827711  1
  Bi2+  Bi81  1  0.52209864  0.08555924  0.79820652  1
  Bi2+  Bi82  1  0.49239466  0.38546228  0.29172526  1
  Bi2+  Bi83  1  0.49400949  0.33855642  0.78035371  1
  Bi2+  Bi84  1  0.50563836  0.63101806  0.29347378  1
  Bi2+  Bi85  1  0.53358040  0.65126710  0.80565912  1
  Bi2+  Bi86  1  0.50585375  0.88889676  0.29202531  1
  Bi2+  Bi87  1  0.50181721  0.86937256  0.74858978  1
  Bi2+  Bi88  1  0.75363480  0.09438481  0.29959534  1
  Bi2+  Bi89  1  0.84543510  0.12576883  0.81967595  1
  Bi2+  Bi90  1  0.80828156  0.38604071  0.29803262  1
  Bi2+  Bi91  1  0.76746193  0.36012453  0.78267830  1
  Bi2+  Bi92  1  0.71487590  0.56518822  0.29784926  1
  Bi2+  Bi93  1  0.76503701  0.59969116  0.78764545  1
  Bi2+  Bi94  1  0.72450065  0.84615166  0.27445396  1
  Bi2+  Bi95  1  0.75825225  0.96438386  0.77865211  1
  Bi2+  Bi96  1  0.07172682  -0.04862809  0.19157224  1
  Bi2+  Bi97  1  0.20033748  0.04870127  0.71465801  1
  Bi2+  Bi98  1  0.10316119  0.20945777  0.22467861  1
  Bi2+  Bi99  1  0.10511125  0.24657420  0.71027631  1
  Bi2+  Bi100  1  0.10571515  0.42683124  0.18961436  1
  Bi2+  Bi101  1  0.14998572  0.48481316  0.74253756  1
  Bi2+  Bi102  1  0.08004323  0.76487723  0.23233951  1
  Bi2+  Bi103  1  0.11940903  0.79370477  0.75535990  1
  Bi2+  Bi104  1  0.41935736  0.00473944  0.21401957  1
  Bi2+  Bi105  1  0.34359582  -0.07648595  0.68658164  1
  Bi2+  Bi106  1  0.33657617  0.18193573  0.23843017  1
  Bi2+  Bi107  1  0.38976043  0.22363996  0.70814590  1
  Bi2+  Bi108  1  0.36366019  0.46027818  0.18618063  1
  Bi2+  Bi109  1  0.38627940  0.48653565  0.71506408  1
  Bi2+  Bi110  1  0.38595193  0.71329723  0.18506006  1
  Bi2+  Bi111  1  0.36906608  0.70706983  0.69826335  1
  Bi2+  Bi112  1  0.65426707  0.00112826  0.21442354  1
  Bi2+  Bi113  1  0.61243896  0.01610721  0.70524632  1
  Bi2+  Bi114  1  0.55715964  0.24599557  0.21816645  1
  Bi2+  Bi115  1  0.64208829  0.24365603  0.72647899  1
  Bi2+  Bi116  1  0.64854086  0.42153949  0.22661980  1
  Bi2+  Bi117  1  0.63189777  0.48037088  0.71022435  1
  Bi2+  Bi118  1  0.64162824  0.69563264  0.21797801  1
  Bi2+  Bi119  1  0.64124458  0.75411320  0.70972504  1
  Bi2+  Bi120  1  0.88015844  -0.02538925  0.21427529  1
  Bi2+  Bi121  1  0.90412732  0.05132743  0.71584786  1
  Bi2+  Bi122  1  0.81954261  0.22681965  0.22392058  1
  Bi2+  Bi123  1  0.85526821  0.24737611  0.70126171  1
  Bi2+  Bi124  1  0.86339065  0.55674313  0.21631793  1
  Bi2+  Bi125  1  0.97164144  0.48941819  0.69798943  1
  Bi2+  Bi126  1  0.85038451  0.76047914  0.19189930  1
  Bi2+  Bi127  1  0.91453811  0.79434123  0.68553503  1
  S2-  S128  1  -0.13045294  0.11203576  0.15202567  1
  S2-  S129  1  -0.01019127  0.15878552  0.64680507  1
  S2-  S130  1  0.01019767  0.28742740  0.14900786  1
  S2-  S131  1  0.11957116  0.38258516  0.64996368  1
  S2-  S132  1  -0.00899359  0.51542496  0.14083601  1
  S2-  S133  1  -0.07745578  0.64261876  0.64249672  1
  S2-  S134  1  0.00727374  0.75147488  0.14154850  1
  S2-  S135  1  0.03389141  0.89072746  0.65297619  1
  S2-  S136  1  0.14008199  0.10551824  0.14948945  1
  S2-  S137  1  0.23954520  0.17385571  0.64937344  1
  S2-  S138  1  0.24859490  0.34559569  0.14814917  1
  S2-  S139  1  0.37840611  0.36618706  0.64473733  1
  S2-  S140  1  0.25377764  0.60558002  0.15806836  1
  S2-  S141  1  0.28255586  0.56726437  0.65795316  1
  S2-  S142  1  0.32795194  0.85746694  0.13782313  1
  S2-  S143  1  0.25038101  0.77196845  0.64047921  1
  S2-  S144  1  0.37444242  0.13623640  0.14439152  1
  S2-  S145  1  0.48201121  0.10679777  0.65984728  1
  S2-  S146  1  0.47350769  0.35468469  0.14796217  1
  S2-  S147  1  0.64212014  0.36146226  0.64330636  1
  S2-  S148  1  0.47437590  0.56819695  0.15783791  1
  S2-  S149  1  0.51079588  0.53344787  0.64868298  1
  S2-  S150  1  0.52697150  0.76246326  0.14285555  1
  S2-  S151  1  0.51864436  0.76720147  0.63932110  1
  S2-  S152  1  0.61840348  0.13003869  0.14779270  1
  S2-  S153  1  0.72744924  0.13428110  0.65806489  1
  S2-  S154  1  0.75306689  0.33307415  0.15843609  1
  S2-  S155  1  0.87530183  0.38322806  0.63960615  1
  S2-  S156  1  0.73553736  0.59150712  0.15257442  1
  S2-  S157  1  0.71361646  0.61660409  0.66921098  1
  S2-  S158  1  0.75300822  0.89591452  0.15026765  1
  S2-  S159  1  0.76061987  0.85291157  0.65832418  1
  S2-  S160  1  0.13546427  -0.10857365  0.36115726  1
  S2-  S161  1  0.10652053  0.04223316  0.84639835  1
  S2-  S162  1  0.08616432  0.34228031  0.34736699  1
  S2-  S163  1  0.09798641  0.35559133  0.86108341  1
  S2-  S164  1  0.09547460  0.50438922  0.26961468  1
  S2-  S165  1  0.15151795  0.56082363  0.84031478  1
  S2-  S166  1  0.13701886  0.67625431  0.34377812  1
  S2-  S167  1  0.04518752  0.76427099  0.85280102  1
  S2-  S168  1  0.38266385  -0.08319216  0.35792522  1
  S2-  S169  1  0.38758281  0.00882721  0.85026090  1
  S2-  S170  1  0.27784022  0.25523799  0.36175284  1
  S2-  S171  1  0.36688288  0.38621046  0.85097401  1
  S2-  S172  1  0.27352240  0.49041084  0.35160322  1
  S2-  S173  1  0.38817274  0.61286400  0.85447013  1
  S2-  S174  1  0.35559856  0.69579391  0.32480196  1
  S2-  S175  1  0.49997068  0.78774660  0.85847324  1
  S2-  S176  1  0.61477045  0.00544230  0.35316212  1
  S2-  S177  1  0.63880027  0.00077562  0.84947810  1
  S2-  S178  1  0.50203213  0.26542852  0.36183545  1
  S2-  S179  1  0.52036037  0.22482118  0.85868936  1
  S2-  S180  1  0.51960569  0.50818594  0.36642217  1
  S2-  S181  1  0.62233648  0.51015657  0.83560701  1
  S2-  S182  1  0.54053276  0.76082161  0.35737234  1
  S2-  S183  1  0.70322369  0.72494444  0.84590377  1
  S2-  S184  1  0.86475760  0.00197256  0.34984163  1
  S2-  S185  1  0.87963187  -0.08522287  0.85507222  1
  S2-  S186  1  0.74886022  0.25397082  0.35685524  1
  S2-  S187  1  0.75046440  0.25328636  0.86562371  1
  S2-  S188  1  0.92478660  0.55735309  0.35639596  1
  S2-  S189  1  0.88744582  0.56315774  0.85364203  1
  S2-  S190  1  0.75833748  0.76840890  0.35981597  1
  S2-  S191  1  0.86833528  0.72470194  0.77644872  1
  S2-  S192  1  0.01265567  0.13756571  0.44694724  1
  S2-  S193  1  -0.00626765  0.12620775  0.95529744  1
  S2-  S194  1  0.00732974  0.39007328  0.45499519  1
  S2-  S195  1  -0.01103859  0.37652048  0.96049611  1
  S2-  S196  1  0.01682505  0.63493716  0.45334919  1
  S2-  S197  1  0.00012967  0.62732675  0.95686222  1
  S2-  S198  1  0.00683476  0.88595850  0.45394412  1
  S2-  S199  1  0.00175531  0.87714236  0.96199875  1
  S2-  S200  1  0.26002699  0.12752112  0.45313947  1
  S2-  S201  1  0.24927221  0.13070059  0.95343406  1
  S2-  S202  1  0.26633088  0.38277237  0.46588128  1
  S2-  S203  1  0.24773000  0.37526841  0.95046838  1
  S2-  S204  1  0.26676100  0.64916153  0.45519706  1
  S2-  S205  1  0.24656113  0.62764248  0.95204252  1
  S2-  S206  1  0.25985719  0.88804022  0.46000336  1
  S2-  S207  1  0.25008937  0.87421209  0.94621966  1
  S2-  S208  1  0.51062727  0.13091901  0.45879852  1
  S2-  S209  1  0.49610551  0.12637667  0.96313261  1
  S2-  S210  1  0.50945769  0.38712381  0.46722129  1
  S2-  S211  1  0.50494035  0.38097003  0.94969976  1
  S2-  S212  1  0.51445139  0.64197560  0.46135741  1
  S2-  S213  1  0.50036211  0.62910748  0.95802288  1
  S2-  S214  1  0.51857188  0.88798828  0.46284193  1
  S2-  S215  1  0.49272732  0.88221917  0.96266436  1
  S2-  S216  1  0.76250112  0.13377762  0.45720631  1
  S2-  S217  1  0.74974874  0.12060547  0.96580691  1
  S2-  S218  1  0.75615658  0.38994632  0.45727716  1
  S2-  S219  1  0.74896688  0.38475082  0.95754049  1
  S2-  S220  1  0.75835322  0.63382087  0.45924044  1
  S2-  S221  1  0.75466362  0.63354172  0.95231192  1
  S2-  S222  1  0.76478498  0.89087650  0.45674372  1
  S2-  S223  1  0.74752504  0.87827527  0.95070560  1
  S2-  S224  1  0.12349920  0.00357389  0.04737524  1
  S2-  S225  1  0.13319765  0.01339806  0.54417751  1
  S2-  S226  1  0.12142382  0.25504515  0.04239861  1
  S2-  S227  1  0.13710270  0.26038346  0.54165978  1
  S2-  S228  1  0.12554684  0.50493542  0.03913755  1
  S2-  S229  1  0.13523734  0.51572000  0.55499713  1
  S2-  S230  1  0.12819280  0.75343980  0.04355082  1
  S2-  S231  1  0.12993483  0.76591283  0.53922089  1
  S2-  S232  1  0.37020439  0.00708539  0.04835378  1
  S2-  S233  1  0.38788481  0.01109181  0.54878505  1
  S2-  S234  1  0.37409670  0.25756306  0.03567411  1
  S2-  S235  1  0.38471053  0.25589666  0.54453567  1
  S2-  S236  1  0.37633008  0.50496524  0.03884250  1
  S2-  S237  1  0.38517522  0.51584358  0.54468681  1
  S2-  S238  1  0.37199369  0.75103770  0.03394773  1
  S2-  S239  1  0.38895289  0.76872007  0.54009261  1
  S2-  S240  1  0.61989187  -0.00012708  0.05222166  1
  S2-  S241  1  0.63575846  0.01118476  0.55360337  1
  S2-  S242  1  0.62246302  0.25762268  0.04446071  1
  S2-  S243  1  0.63746394  0.25844103  0.54172546  1
  S2-  S244  1  0.62085526  0.50655235  0.04514518  1
  S2-  S245  1  0.64372854  0.51796746  0.54773110  1
  S2-  S246  1  0.62483377  0.75943828  0.03916662  1
  S2-  S247  1  0.64249715  0.76257933  0.54369918  1
  S2-  S248  1  0.87748283  0.00204267  0.04755212  1
  S2-  S249  1  0.88916587  0.01492164  0.55070040  1
  S2-  S250  1  0.87222595  0.25466812  0.04694913  1
  S2-  S251  1  0.88504797  0.26100404  0.53626952  1
  S2-  S252  1  0.86840243  0.50790281  0.04633473  1
  S2-  S253  1  0.88257655  0.51257462  0.54695152  1
  S2-  S254  1  0.87141175  0.75677582  0.04861520  1
  S2-  S255  1  0.88764734  0.76399110  0.53819415  1
