# generated using pymatgen
data_La6Ce7Pr13Nd19Sm19(BiS2)64
_symmetry_space_group_name_H-M   'P 1'
_cell_length_a   16.01389321
_cell_length_b   15.98425108
_cell_length_c   27.50868514
_cell_angle_alpha   89.78509494
_cell_angle_beta   90.03628221
_cell_angle_gamma   90.08865685
_symmetry_Int_Tables_number   1
_chemical_formula_structural   La6Ce7Pr13Nd19Sm19(BiS2)64
_chemical_formula_sum   'La6 Ce7 Pr13 Nd19 Sm19 Bi64 S128'
_cell_volume   7041.34126128
_cell_formula_units_Z   1
loop_
 _symmetry_equiv_pos_site_id
 _symmetry_equiv_pos_as_xyz
  1  'x, y, z'
loop_
 _atom_type_symbol
 _atom_type_oxidation_number
  La3+  3.0
  Ce3+  3.0
  Pr3+  3.0
  Nd3+  3.0
  Sm3+  3.0
  Bi2+  2.0
  S2-  -2.0
loop_
 _atom_site_type_symbol
 _atom_site_label
 _atom_site_symmetry_multiplicity
 _atom_site_fract_x
 _atom_site_fract_y
 _atom_site_fract_z
 _atom_site_occupancy
  La3+  La0  1  0.11954382  0.25438944  0.43372920  1
  La3+  La1  1  0.85777678  -0.00390122  0.41120047  1
  La3+  La2  1  0.63932973  0.00517025  0.88696873  1
  La3+  La3  1  0.75245849  0.38594469  0.08447905  1
  La3+  La4  1  0.48974583  0.63630288  0.09352620  1
  La3+  La5  1  0.37071616  0.00695834  0.44512131  1
  Ce3+  Ce6  1  0.74688720  0.88230142  0.06090201  1
  Ce3+  Ce7  1  -0.00349262  0.37677155  0.06647515  1
  Ce3+  Ce8  1  0.74779050  0.62860347  0.05905877  1
  Ce3+  Ce9  1  -0.00070530  0.62972612  0.05807422  1
  Ce3+  Ce10  1  0.62575741  0.25270849  0.42781803  1
  Ce3+  Ce11  1  -0.00998996  0.12875326  0.55368191  1
  Ce3+  Ce12  1  0.86720543  0.25031022  0.94924536  1
  Pr3+  Pr13  1  0.12021034  0.50413141  0.43301934  1
  Pr3+  Pr14  1  0.12551401  0.25592629  0.94671994  1
  Pr3+  Pr15  1  0.62302471  0.75666544  0.93615868  1
  Pr3+  Pr16  1  0.73762161  0.11944252  0.09739486  1
  Pr3+  Pr17  1  0.61685078  0.50639114  0.39826230  1
  Pr3+  Pr18  1  0.50496183  0.37555051  0.07061782  1
  Pr3+  Pr19  1  0.36734708  0.76509291  0.42460713  1
  Pr3+  Pr20  1  0.36655525  0.50609829  0.42645044  1
  Pr3+  Pr21  1  0.74627818  0.63138264  0.57539611  1
  Pr3+  Pr22  1  0.86478126  0.50355053  0.43904280  1
  Pr3+  Pr23  1  0.37334555  0.25905898  0.92912096  1
  Pr3+  Pr24  1  0.11647855  0.75677904  0.43541278  1
  Pr3+  Pr25  1  0.74362446  0.88040138  0.57067895  1
  Nd3+  Nd26  1  0.87302919  0.50326020  0.93943025  1
  Nd3+  Nd27  1  0.24337654  0.88462008  0.56922361  1
  Nd3+  Nd28  1  0.12722600  0.00461616  0.92578982  1
  Nd3+  Nd29  1  0.86340940  0.75115587  0.44332049  1
  Nd3+  Nd30  1  0.62222727  0.50451425  0.94287639  1
  Nd3+  Nd31  1  0.24369560  0.13088002  0.57111295  1
  Nd3+  Nd32  1  0.25058896  0.62860541  0.05607918  1
  Nd3+  Nd33  1  0.61978245  0.75553202  0.43987152  1
  Nd3+  Nd34  1  0.00192172  0.88386075  0.06136584  1
  Nd3+  Nd35  1  0.49465078  0.38151061  0.55287910  1
  Nd3+  Nd36  1  0.48887772  0.86674268  0.58521094  1
  Nd3+  Nd37  1  0.25653094  0.37793625  0.07255840  1
  Nd3+  Nd38  1  0.37411899  0.75685995  0.93148025  1
  Nd3+  Nd39  1  0.50023782  0.12716406  0.05529479  1
  Nd3+  Nd40  1  0.11735212  0.00473843  0.44344791  1
  Nd3+  Nd41  1  0.74484779  0.12326452  0.56143639  1
  Nd3+  Nd42  1  0.87286434  0.00399163  0.94043344  1
  Nd3+  Nd43  1  0.24651421  0.63181094  0.55460359  1
  Nd3+  Nd44  1  0.49547915  0.14193372  0.57268318  1
  Sm3+  Sm45  1  0.12302057  0.50208275  0.94876200  1
  Sm3+  Sm46  1  0.49286757  0.62924013  0.55060255  1
  Sm3+  Sm47  1  0.37457984  0.50100178  0.94274926  1
  Sm3+  Sm48  1  0.23337662  0.37682131  0.57087804  1
  Sm3+  Sm49  1  0.25240433  0.88025760  0.05335951  1
  Sm3+  Sm50  1  0.12445955  0.75435141  0.94316754  1
  Sm3+  Sm51  1  0.36676335  0.25715662  0.44236562  1
  Sm3+  Sm52  1  -0.01225502  0.37880131  0.56646535  1
  Sm3+  Sm53  1  0.25316307  0.12730789  0.05198243  1
  Sm3+  Sm54  1  -0.00801867  0.88072973  0.55467157  1
  Sm3+  Sm55  1  0.74303702  0.37400467  0.56410662  1
  Sm3+  Sm56  1  -0.00090222  0.12683984  0.05541241  1
  Sm3+  Sm57  1  -0.00206919  0.62813683  0.55904046  1
  Sm3+  Sm58  1  0.87078078  0.25755192  0.43619221  1
  Sm3+  Sm59  1  0.49907450  0.87789201  0.05316530  1
  Sm3+  Sm60  1  0.61715500  0.01014229  0.44467168  1
  Sm3+  Sm61  1  0.62476855  0.24847896  0.94329513  1
  Sm3+  Sm62  1  0.87571708  0.75721807  0.94734869  1
  Sm3+  Sm63  1  0.37878062  0.01065749  0.92033787  1
  Bi2+  Bi64  1  0.02981148  0.15133692  0.28952432  1
  Bi2+  Bi65  1  0.03498381  0.05940878  0.80473776  1
  Bi2+  Bi66  1  -0.02845644  0.43305358  0.31585912  1
  Bi2+  Bi67  1  0.01406116  0.37796087  0.79409356  1
  Bi2+  Bi68  1  0.02755250  0.62172972  0.33248629  1
  Bi2+  Bi69  1  0.03224310  0.57778284  0.78592652  1
  Bi2+  Bi70  1  0.08900785  0.88538844  0.28564891  1
  Bi2+  Bi71  1  0.00589355  0.85862280  0.80309136  1
  Bi2+  Bi72  1  0.27793032  0.10202650  0.30995861  1
  Bi2+  Bi73  1  0.22395221  0.12795210  0.78977706  1
  Bi2+  Bi74  1  0.17842182  0.37411301  0.30350628  1
  Bi2+  Bi75  1  0.24226237  0.38366103  0.79414630  1
  Bi2+  Bi76  1  0.19554614  0.66306387  0.27497286  1
  Bi2+  Bi77  1  0.31458172  0.58798366  0.78839967  1
  Bi2+  Bi78  1  0.29590399  0.93404314  0.24242631  1
  Bi2+  Bi79  1  0.27016025  0.85789642  0.78751256  1
  Bi2+  Bi80  1  0.46587961  0.12608592  0.28995670  1
  Bi2+  Bi81  1  0.49232816  0.12851216  0.78361724  1
  Bi2+  Bi82  1  0.43115541  0.33789128  0.28027548  1
  Bi2+  Bi83  1  0.50728715  0.38859709  0.79088166  1
  Bi2+  Bi84  1  0.50507137  0.61342394  0.27949641  1
  Bi2+  Bi85  1  0.51423101  0.59431787  0.78723184  1
  Bi2+  Bi86  1  0.47744075  0.84210013  0.29961756  1
  Bi2+  Bi87  1  0.52409544  0.86206727  0.77587703  1
  Bi2+  Bi88  1  0.72259557  0.10106864  0.30190251  1
  Bi2+  Bi89  1  0.75800045  0.14949614  0.79365621  1
  Bi2+  Bi90  1  0.75487497  0.36491512  0.29074938  1
  Bi2+  Bi91  1  0.70642367  0.41321807  0.79165027  1
  Bi2+  Bi92  1  0.75343828  0.63712248  0.28207736  1
  Bi2+  Bi93  1  0.79418849  0.59084594  0.77217831  1
  Bi2+  Bi94  1  0.74317344  0.85128306  0.28404681  1
  Bi2+  Bi95  1  0.79470384  0.85810194  0.78848848  1
  Bi2+  Bi96  1  0.12509415  0.01838861  0.20199384  1
  Bi2+  Bi97  1  0.11160318  -0.04359822  0.71856488  1
  Bi2+  Bi98  1  0.11529149  0.27227379  0.21439815  1
  Bi2+  Bi99  1  0.09182408  0.26612593  0.70669557  1
  Bi2+  Bi100  1  0.08224335  0.51674777  0.22931922  1
  Bi2+  Bi101  1  0.23123652  0.49058556  0.69582351  1
  Bi2+  Bi102  1  0.09365197  0.76302132  0.19267031  1
  Bi2+  Bi103  1  0.15806112  0.71022604  0.74542216  1
  Bi2+  Bi104  1  0.43313236  0.03620996  0.18288676  1
  Bi2+  Bi105  1  0.35973153  -0.02423150  0.70858105  1
  Bi2+  Bi106  1  0.30995512  0.22349190  0.21327110  1
  Bi2+  Bi107  1  0.36239843  0.30470208  0.70880399  1
  Bi2+  Bi108  1  0.34248071  0.47340338  0.20371958  1
  Bi2+  Bi109  1  0.43588509  0.48842305  0.69586059  1
  Bi2+  Bi110  1  0.35428998  0.75715795  0.20645254  1
  Bi2+  Bi111  1  0.36952490  0.69590135  0.69476635  1
  Bi2+  Bi112  1  0.59020193  -0.04680445  0.23184311  1
  Bi2+  Bi113  1  0.62609549  0.05535706  0.68041221  1
  Bi2+  Bi114  1  0.57444043  0.24694989  0.22467170  1
  Bi2+  Bi115  1  0.62281899  0.30103247  0.70928435  1
  Bi2+  Bi116  1  0.64183052  0.47437606  0.22172148  1
  Bi2+  Bi117  1  0.70974074  0.48950641  0.68154701  1
  Bi2+  Bi118  1  0.61894649  0.75663651  0.21295910  1
  Bi2+  Bi119  1  0.64304780  0.66991045  0.71103238  1
  Bi2+  Bi120  1  0.88146424  0.01547486  0.20575012  1
  Bi2+  Bi121  1  0.91208621  0.02378580  0.70372796  1
  Bi2+  Bi122  1  0.91213933  0.27708326  0.23069536  1
  Bi2+  Bi123  1  0.90298231  0.23905109  0.74729950  1
  Bi2+  Bi124  1  0.87706775  0.52723213  0.20899705  1
  Bi2+  Bi125  1  0.93758830  0.47824984  0.70272850  1
  Bi2+  Bi126  1  0.92653449  0.75492273  0.27106173  1
  Bi2+  Bi127  1  0.89311558  0.76049724  0.70867799  1
  S2-  S128  1  0.00458977  0.10459165  0.15219798  1
  S2-  S129  1  -0.01249523  0.15390657  0.65060072  1
  S2-  S130  1  -0.10075727  0.38437275  0.14824224  1
  S2-  S131  1  0.09861927  0.39946965  0.64297324  1
  S2-  S132  1  -0.01966386  0.63653177  0.15459648  1
  S2-  S133  1  -0.05654113  0.63594574  0.65170283  1
  S2-  S134  1  -0.02124565  0.88589643  0.15912971  1
  S2-  S135  1  -0.01037284  0.88138403  0.65306282  1
  S2-  S136  1  0.25584725  0.09536145  0.14760178  1
  S2-  S137  1  0.22497020  0.01156301  0.64603302  1
  S2-  S138  1  0.19551951  0.44271831  0.16181425  1
  S2-  S139  1  0.24541715  0.25046321  0.64484497  1
  S2-  S140  1  0.32599534  0.62544953  0.14511951  1
  S2-  S141  1  0.19494783  0.64260083  0.64977415  1
  S2-  S142  1  0.23668008  0.84695272  0.14863675  1
  S2-  S143  1  0.34555082  0.83960639  0.64683944  1
  S2-  S144  1  0.57407670  0.13348100  0.14720121  1
  S2-  S145  1  0.44996265  0.09495807  0.67062711  1
  S2-  S146  1  0.38189190  0.34534111  0.14240512  1
  S2-  S147  1  0.49270245  0.29072292  0.63803247  1
  S2-  S148  1  0.50792562  0.53196222  0.17486038  1
  S2-  S149  1  0.50740042  0.69849390  0.64035480  1
  S2-  S150  1  0.49133452  0.79492124  0.14189517  1
  S2-  S151  1  0.55958405  0.90258477  0.67559685  1
  S2-  S152  1  0.80021882  0.16604348  0.19007677  1
  S2-  S153  1  0.70861037  0.21230891  0.64607124  1
  S2-  S154  1  0.62333710  0.35351183  0.14898645  1
  S2-  S155  1  0.86136756  0.38043309  0.63808300  1
  S2-  S156  1  0.74575767  0.54599733  0.14473089  1
  S2-  S157  1  0.75174889  0.75908806  0.64710296  1
  S2-  S158  1  0.75713251  0.96251895  0.14760366  1
  S2-  S159  1  0.77952729  1.00238706  0.64391390  1
  S2-  S160  1  0.12937878  0.03182824  0.34631692  1
  S2-  S161  1  0.24683433  -0.00790552  0.85319339  1
  S2-  S162  1  -0.00515011  0.27076888  0.36034877  1
  S2-  S163  1  0.17364575  0.24887601  0.85083473  1
  S2-  S164  1  0.23525765  0.50027377  0.35481804  1
  S2-  S165  1  0.13617553  0.49220645  0.85261796  1
  S2-  S166  1  0.18866927  0.78593012  0.34542340  1
  S2-  S167  1  0.14065643  0.77130172  0.84740783  1
  S2-  S168  1  0.37216541  -0.08691072  0.36056264  1
  S2-  S169  1  0.47997080  -0.01237643  0.84051910  1
  S2-  S170  1  0.25531677  0.24917241  0.36455673  1
  S2-  S171  1  0.37460141  0.16436862  0.84248097  1
  S2-  S172  1  0.46387266  0.48760450  0.34045550  1
  S2-  S173  1  0.37551892  0.39857180  0.86369654  1
  S2-  S174  1  0.39540650  0.69153940  0.33294158  1
  S2-  S175  1  0.40306615  0.78567981  0.83455787  1
  S2-  S176  1  0.69806833  -0.04191171  0.36055864  1
  S2-  S177  1  0.64206228  0.01812528  0.77248878  1
  S2-  S178  1  0.58495712  0.12109057  0.36478343  1
  S2-  S179  1  0.61806169  0.18069783  0.85099900  1
  S2-  S180  1  0.61795993  0.35410804  0.34614652  1
  S2-  S181  1  0.65111003  0.55568207  0.84827081  1
  S2-  S182  1  0.62684804  0.67123167  0.35112956  1
  S2-  S183  1  0.64281356  0.83125735  0.84521226  1
  S2-  S184  1  0.88724519  0.04737756  0.31170614  1
  S2-  S185  1  0.80781823  -0.00168832  0.84801813  1
  S2-  S186  1  0.77816831  0.22866091  0.35387039  1
  S2-  S187  1  0.85724963  0.25021114  0.85161213  1
  S2-  S188  1  0.77736911  0.51109101  0.35141411  1
  S2-  S189  1  0.89594106  0.50223006  0.84206962  1
  S2-  S190  1  0.87108763  0.83398784  0.35544782  1
  S2-  S191  1  0.88125590  0.75545962  0.85010647  1
  S2-  S192  1  -0.01316594  0.12326491  0.44855485  1
  S2-  S193  1  0.00096117  0.12772181  0.95096145  1
  S2-  S194  1  -0.00693867  0.38422159  0.46173098  1
  S2-  S195  1  -0.00282999  0.37808551  0.95864769  1
  S2-  S196  1  -0.00702398  0.62984486  0.45610034  1
  S2-  S197  1  0.00048896  0.62974411  0.95113475  1
  S2-  S198  1  -0.00884627  0.88072827  0.45082324  1
  S2-  S199  1  0.00273639  0.88079447  0.95362444  1
  S2-  S200  1  0.24303612  0.12750617  0.46482822  1
  S2-  S201  1  0.25005992  0.12758228  0.95143312  1
  S2-  S202  1  0.24487698  0.38148023  0.46337897  1
  S2-  S203  1  0.24758703  0.38226710  0.96507988  1
  S2-  S204  1  0.24455139  0.63535149  0.45060277  1
  S2-  S205  1  0.24894507  0.62727708  0.94960487  1
  S2-  S206  1  0.24019102  0.88137009  0.46243644  1
  S2-  S207  1  0.24908728  0.87823093  0.95131497  1
  S2-  S208  1  0.48906488  0.13601180  0.46526640  1
  S2-  S209  1  0.49776899  0.12894942  0.95178583  1
  S2-  S210  1  0.49160818  0.38021947  0.45016586  1
  S2-  S211  1  0.50443360  0.37681517  0.95929112  1
  S2-  S212  1  0.49451347  0.62680302  0.44966751  1
  S2-  S213  1  0.49494059  0.62836500  0.94228173  1
  S2-  S214  1  0.49928508  0.88010244  0.45622036  1
  S2-  S215  1  0.49730796  0.88159866  0.95068378  1
  S2-  S216  1  0.74858338  0.12588074  0.45729927  1
  S2-  S217  1  0.74531830  0.12345268  0.95122346  1
  S2-  S218  1  0.74174509  0.38137832  0.45860842  1
  S2-  S219  1  0.74633391  0.37958389  0.95374778  1
  S2-  S220  1  0.74013052  0.62769272  0.46079374  1
  S2-  S221  1  0.75215326  0.63218853  0.95388275  1
  S2-  S222  1  0.74320946  0.87728602  0.46405827  1
  S2-  S223  1  0.74981118  0.87870338  0.95580066  1
  S2-  S224  1  0.12736111  0.00483575  0.03927123  1
  S2-  S225  1  0.11452769  0.00447519  0.54682501  1
  S2-  S226  1  0.12664968  0.25167461  0.05412090  1
  S2-  S227  1  0.11269824  0.25468513  0.54268464  1
  S2-  S228  1  0.12310115  0.50364102  0.05147730  1
  S2-  S229  1  0.11922003  0.50762540  0.54087434  1
  S2-  S230  1  0.12596779  0.75552655  0.04599467  1
  S2-  S231  1  0.11693354  0.75708545  0.54561386  1
  S2-  S232  1  0.37472459  0.00100641  0.03842781  1
  S2-  S233  1  0.37635287  0.00516839  0.55202189  1
  S2-  S234  1  0.37529082  0.25004868  0.03888380  1
  S2-  S235  1  0.36428453  0.25820908  0.54326369  1
  S2-  S236  1  0.37917390  0.50586709  0.04531225  1
  S2-  S237  1  0.36642115  0.50344311  0.54673294  1
  S2-  S238  1  0.37319414  0.75363103  0.03771654  1
  S2-  S239  1  0.36984571  0.75483693  0.53616077  1
  S2-  S240  1  0.62058326  -0.00026553  0.05155041  1
  S2-  S241  1  0.61059972  0.00316701  0.55058979  1
  S2-  S242  1  0.63203697  0.24849817  0.04521099  1
  S2-  S243  1  0.62104351  0.25715747  0.53659003  1
  S2-  S244  1  0.61649643  0.51127949  0.04761605  1
  S2-  S245  1  0.61853341  0.50686326  0.55825033  1
  S2-  S246  1  0.62181297  0.75114830  0.04390326  1
  S2-  S247  1  0.61750886  0.75431419  0.54417674  1
  S2-  S248  1  0.87429399  0.00666716  0.04551308  1
  S2-  S249  1  0.87177231  0.00169725  0.53825528  1
  S2-  S250  1  0.86914926  0.24520224  0.05441045  1
  S2-  S251  1  0.86649121  0.25350359  0.54002364  1
  S2-  S252  1  0.87578399  0.50522863  0.04371827  1
  S2-  S253  1  0.86852161  0.50933314  0.54467907  1
  S2-  S254  1  0.87474180  0.75707557  0.05149702  1
  S2-  S255  1  0.87361785  0.75341900  0.54607782  1
