# generated using pymatgen
data_La6Ce7Pr13Nd19Sm19(BiS2)64
_symmetry_space_group_name_H-M   'P 1'
_cell_length_a   16.07299366
_cell_length_b   16.09987966
_cell_length_c   27.38463614
_cell_angle_alpha   90.03626936
_cell_angle_beta   90.06885513
_cell_angle_gamma   89.86966370
_symmetry_Int_Tables_number   1
_chemical_formula_structural   La6Ce7Pr13Nd19Sm19(BiS2)64
_chemical_formula_sum   'La6 Ce7 Pr13 Nd19 Sm19 Bi64 S128'
_cell_volume   7086.38680832
_cell_formula_units_Z   1
loop_
 _symmetry_equiv_pos_site_id
 _symmetry_equiv_pos_as_xyz
  1  'x, y, z'
loop_
 _atom_type_symbol
 _atom_type_oxidation_number
  La3+  3.0
  Ce3+  3.0
  Pr3+  3.0
  Nd3+  3.0
  Sm3+  3.0
  Bi2+  2.0
  S2-  -2.0
loop_
 _atom_site_type_symbol
 _atom_site_label
 _atom_site_symmetry_multiplicity
 _atom_site_fract_x
 _atom_site_fract_y
 _atom_site_fract_z
 _atom_site_occupancy
  La3+  La0  1  0.62615662  0.26638307  0.44266496  1
  La3+  La1  1  0.38624198  0.02394433  0.40886154  1
  La3+  La2  1  0.00615939  0.62163616  0.07922118  1
  La3+  La3  1  0.12391675  0.77012169  0.40977488  1
  La3+  La4  1  -0.00359601  0.64580656  0.56797032  1
  La3+  La5  1  0.25269850  0.88270096  0.10360765  1
  Ce3+  Ce6  1  0.37831870  0.51700839  0.44925598  1
  Ce3+  Ce7  1  0.13516256  0.25877335  0.44947362  1
  Ce3+  Ce8  1  -0.00190584  0.87009597  0.07437065  1
  Ce3+  Ce9  1  0.87603379  0.75287814  0.42441738  1
  Ce3+  Ce10  1  0.62110198  0.74948836  0.93892082  1
  Ce3+  Ce11  1  0.61967639  0.25397046  0.93509624  1
  Ce3+  Ce12  1  0.48911555  0.62951314  0.05903370  1
  Pr3+  Pr13  1  0.75471639  0.13758600  0.56927941  1
  Pr3+  Pr14  1  0.36265689  0.50898565  0.90848325  1
  Pr3+  Pr15  1  0.00815648  0.13991684  0.56551169  1
  Pr3+  Pr16  1  0.49342827  0.37687833  0.04702959  1
  Pr3+  Pr17  1  0.13075607  0.51644666  0.43682267  1
  Pr3+  Pr18  1  0.75756684  0.39232373  0.56401042  1
  Pr3+  Pr19  1  0.49923045  0.64359092  0.57379025  1
  Pr3+  Pr20  1  0.00116161  0.37361668  0.06934134  1
  Pr3+  Pr21  1  0.38736220  0.76330278  0.42723167  1
  Pr3+  Pr22  1  0.25581546  0.12955990  0.07341659  1
  Pr3+  Pr23  1  0.36904564  0.75060998  0.93871266  1
  Pr3+  Pr24  1  0.61781878  0.51229967  0.43627760  1
  Pr3+  Pr25  1  0.62991133  0.01587547  0.44006395  1
  Nd3+  Nd26  1  0.24389002  0.64688358  0.57428069  1
  Nd3+  Nd27  1  0.12106393  0.25128030  0.93570571  1
  Nd3+  Nd28  1  0.36433391  0.24917867  0.92352367  1
  Nd3+  Nd29  1  0.87196463  0.00110982  0.94898720  1
  Nd3+  Nd30  1  0.88157336  0.26285147  0.43569361  1
  Nd3+  Nd31  1  0.12973148  0.01421020  0.43958701  1
  Nd3+  Nd32  1  0.36977619  0.00446581  0.94007541  1
  Nd3+  Nd33  1  0.74525296  0.38822464  0.06856508  1
  Nd3+  Nd34  1  0.50686170  0.13711619  0.57263565  1
  Nd3+  Nd35  1  0.26494787  0.13201939  0.57216491  1
  Nd3+  Nd36  1  0.87767619  0.50592814  0.42742824  1
  Nd3+  Nd37  1  0.12259134  0.75093550  0.94986283  1
  Nd3+  Nd38  1  0.25637828  0.39112842  0.56799262  1
  Nd3+  Nd39  1  0.25412120  0.88378958  0.54842057  1
  Nd3+  Nd40  1  0.00552915  0.39144495  0.55524861  1
  Nd3+  Nd41  1  0.87042062  0.25192871  0.94618092  1
  Nd3+  Nd42  1  0.74472465  0.87755086  0.05718286  1
  Nd3+  Nd43  1  0.74610560  0.62749096  0.05693173  1
  Nd3+  Nd44  1  0.51224592  0.39352291  0.58228489  1
  Sm3+  Sm45  1  0.74419583  0.13078125  0.06395444  1
  Sm3+  Sm46  1  0.50303156  0.13225592  0.06241040  1
  Sm3+  Sm47  1  0.75458938  0.88679845  0.55322527  1
  Sm3+  Sm48  1  0.11706120  0.50528982  0.93645358  1
  Sm3+  Sm49  1  0.62540766  0.76469487  0.44402621  1
  Sm3+  Sm50  1  0.37946209  0.26122903  0.45221657  1
  Sm3+  Sm51  1  0.61959785  0.50156770  0.94101736  1
  Sm3+  Sm52  1  0.25253738  0.62411515  0.06689868  1
  Sm3+  Sm53  1  0.49356047  0.87909820  0.05410566  1
  Sm3+  Sm54  1  0.24924563  0.37608102  0.04980542  1
  Sm3+  Sm55  1  0.75486007  0.63801178  0.55130029  1
  Sm3+  Sm56  1  0.12370209  -0.00069714  0.95133346  1
  Sm3+  Sm57  1  0.87382405  0.75119680  0.94696031  1
  Sm3+  Sm58  1  0.00546543  0.88502124  0.55375129  1
  Sm3+  Sm59  1  0.62142431  0.00361544  0.94156576  1
  Sm3+  Sm60  1  -0.00019689  0.12537844  0.05686004  1
  Sm3+  Sm61  1  0.87495184  0.50150734  0.94038189  1
  Sm3+  Sm62  1  0.50193824  0.88469321  0.55983895  1
  Sm3+  Sm63  1  0.87861176  0.01222736  0.44744153  1
  Bi2+  Bi64  1  -0.02574352  0.16938923  0.31242196  1
  Bi2+  Bi65  1  0.03124206  0.08981997  0.78914379  1
  Bi2+  Bi66  1  -0.01706948  0.35249643  0.26722844  1
  Bi2+  Bi67  1  0.01041699  0.36212004  0.80269189  1
  Bi2+  Bi68  1  -0.00608638  0.62195844  0.30201545  1
  Bi2+  Bi69  1  -0.00574918  0.63569843  0.79771259  1
  Bi2+  Bi70  1  0.01063479  0.95606324  0.27588614  1
  Bi2+  Bi71  1  -0.02478037  0.90214865  0.78099941  1
  Bi2+  Bi72  1  0.25378185  0.20680250  0.28564018  1
  Bi2+  Bi73  1  0.24929705  0.09563284  0.79865611  1
  Bi2+  Bi74  1  0.31528445  0.39906361  0.29532444  1
  Bi2+  Bi75  1  0.19766239  0.35768083  0.77802866  1
  Bi2+  Bi76  1  0.26199222  0.59521256  0.30938899  1
  Bi2+  Bi77  1  0.23205815  0.62466080  0.79280980  1
  Bi2+  Bi78  1  0.24360133  0.86508767  0.28595131  1
  Bi2+  Bi79  1  0.23287194  0.83551425  0.77695328  1
  Bi2+  Bi80  1  0.49312259  0.14129307  0.28858586  1
  Bi2+  Bi81  1  0.51592471  0.10158350  0.80506447  1
  Bi2+  Bi82  1  0.52029889  0.38843048  0.31436869  1
  Bi2+  Bi83  1  0.54952742  0.35235405  0.79887756  1
  Bi2+  Bi84  1  0.56401953  0.63158817  0.29754884  1
  Bi2+  Bi85  1  0.51530815  0.60615991  0.80192873  1
  Bi2+  Bi86  1  0.56956861  0.88466271  0.28234562  1
  Bi2+  Bi87  1  0.49970945  0.86753412  0.73460007  1
  Bi2+  Bi88  1  0.76414352  0.12490168  0.29473810  1
  Bi2+  Bi89  1  0.75739221  0.06955772  0.79208187  1
  Bi2+  Bi90  1  0.74880328  0.32781576  0.30015757  1
  Bi2+  Bi91  1  0.81147488  0.33238995  0.77729419  1
  Bi2+  Bi92  1  0.75255073  0.64620472  0.26573678  1
  Bi2+  Bi93  1  0.79092035  0.52980288  0.79174983  1
  Bi2+  Bi94  1  0.75594547  0.92157634  0.30550819  1
  Bi2+  Bi95  1  0.77940958  0.83049921  0.78847979  1
  Bi2+  Bi96  1  0.12436306  0.08895203  0.23280998  1
  Bi2+  Bi97  1  0.13145408  -0.02963793  0.71288924  1
  Bi2+  Bi98  1  0.12654514  0.28847110  0.19510530  1
  Bi2+  Bi99  1  0.07602626  0.23468534  0.71576621  1
  Bi2+  Bi100  1  0.12909131  0.48438388  0.20755599  1
  Bi2+  Bi101  1  0.05213292  0.50028958  0.71931153  1
  Bi2+  Bi102  1  0.08986540  0.74981180  0.20474573  1
  Bi2+  Bi103  1  0.10591727  0.75936750  0.69538574  1
  Bi2+  Bi104  1  0.38480145  0.02611583  0.20980258  1
  Bi2+  Bi105  1  0.33153428  -0.02979200  0.71230777  1
  Bi2+  Bi106  1  0.40238600  0.27115324  0.21784106  1
  Bi2+  Bi107  1  0.34287224  0.22308591  0.70954126  1
  Bi2+  Bi108  1  0.39812966  0.54287568  0.23063253  1
  Bi2+  Bi109  1  0.37991252  0.46656890  0.70983456  1
  Bi2+  Bi110  1  0.42024540  0.75232421  0.20609382  1
  Bi2+  Bi111  1  0.36066104  0.73419298  0.70753895  1
  Bi2+  Bi112  1  0.64701777  0.02857729  0.21783567  1
  Bi2+  Bi113  1  0.65117106  -0.02110977  0.70644254  1
  Bi2+  Bi114  1  0.64293048  0.29026936  0.19690160  1
  Bi2+  Bi115  1  0.62576532  0.25169493  0.71278451  1
  Bi2+  Bi116  1  0.58345013  0.47488643  0.21485570  1
  Bi2+  Bi117  1  0.64931675  0.51746555  0.71007750  1
  Bi2+  Bi118  1  0.61473019  0.73790709  0.20055578  1
  Bi2+  Bi119  1  0.64119738  0.71377182  0.73770034  1
  Bi2+  Bi120  1  0.85090386  0.00078183  0.20445236  1
  Bi2+  Bi121  1  0.85047301  -0.03746622  0.70057140  1
  Bi2+  Bi122  1  0.88234652  0.19809129  0.20927518  1
  Bi2+  Bi123  1  0.81125516  0.18390326  0.69923853  1
  Bi2+  Bi124  1  0.84928056  0.47930784  0.21085496  1
  Bi2+  Bi125  1  0.86075723  0.45393242  0.68827084  1
  Bi2+  Bi126  1  0.84754858  0.80377795  0.22673534  1
  Bi2+  Bi127  1  0.84983731  0.68574194  0.72258362  1
  S2-  S128  1  0.02707608  0.15152407  0.15122216  1
  S2-  S129  1  -0.04109333  0.12992524  0.66035507  1
  S2-  S130  1  -0.01479364  0.48432912  0.14734801  1
  S2-  S131  1  0.00437563  0.36712960  0.65333288  1
  S2-  S132  1  -0.04632447  0.73474545  0.15211914  1
  S2-  S133  1  0.10628037  0.61015077  0.64556444  1
  S2-  S134  1  0.08871182  0.89041817  0.15584031  1
  S2-  S135  1  -0.01573263  0.79324439  0.63442153  1
  S2-  S136  1  0.24421930  0.03254622  0.16047436  1
  S2-  S137  1  0.19668056  0.16218998  0.66198450  1
  S2-  S138  1  0.24250677  0.39266765  0.14840226  1
  S2-  S139  1  0.25389164  0.38184542  0.66875003  1
  S2-  S140  1  0.15107117  0.61582775  0.14806355  1
  S2-  S141  1  0.31259403  0.58963561  0.66395216  1
  S2-  S142  1  0.26292673  0.78767590  0.19016202  1
  S2-  S143  1  0.24672362  0.79363646  0.63392897  1
  S2-  S144  1  0.39973386  0.15225927  0.14032411  1
  S2-  S145  1  0.40213148  0.10479705  0.65325634  1
  S2-  S146  1  0.50241894  0.36545671  0.14722360  1
  S2-  S147  1  0.46270035  0.31353640  0.67176575  1
  S2-  S148  1  0.38488365  0.62166628  0.13661110  1
  S2-  S149  1  0.51082292  0.52953608  0.65072939  1
  S2-  S150  1  0.43460434  0.89546655  0.14616851  1
  S2-  S151  1  0.49308624  0.78357204  0.63986079  1
  S2-  S152  1  0.62953048  0.14118890  0.13775023  1
  S2-  S153  1  0.63380428  0.12489598  0.64401731  1
  S2-  S154  1  0.79829911  0.33081941  0.15781250  1
  S2-  S155  1  0.66007550  0.38132556  0.64722933  1
  S2-  S156  1  0.75095951  0.53593039  0.14050662  1
  S2-  S157  1  0.84841538  0.61396643  0.63308873  1
  S2-  S158  1  0.72500007  0.84620052  0.15310119  1
  S2-  S159  1  0.74010328  0.86184308  0.64940144  1
  S2-  S160  1  0.12784149  -0.06780334  0.35175571  1
  S2-  S161  1  0.14027370  0.01064097  0.85336924  1
  S2-  S162  1  0.12180225  0.22480308  0.35546234  1
  S2-  S163  1  0.22467698  0.24297234  0.85503330  1
  S2-  S164  1  0.10192736  0.50531419  0.33748275  1
  S2-  S165  1  0.21187064  0.49587680  0.85041275  1
  S2-  S166  1  0.14451801  0.71284077  0.30755221  1
  S2-  S167  1  0.12113148  0.72141794  0.85134813  1
  S2-  S168  1  0.34001887  -0.01766112  0.31020102  1
  S2-  S169  1  0.39210700  0.01284082  0.84127519  1
  S2-  S170  1  0.37667444  0.18546443  0.36353745  1
  S2-  S171  1  0.43442524  0.23624621  0.83053116  1
  S2-  S172  1  0.47615608  0.52934665  0.36887081  1
  S2-  S173  1  0.41805806  0.45123390  0.81462028  1
  S2-  S174  1  0.33805557  0.74568293  0.33004485  1
  S2-  S175  1  0.36942767  0.66181419  0.85137608  1
  S2-  S176  1  0.53923700  0.01513800  0.35443918  1
  S2-  S177  1  0.62987277  -0.01364178  0.84490906  1
  S2-  S178  1  0.60483691  0.23794554  0.34406846  1
  S2-  S179  1  0.64488001  0.21821952  0.84150890  1
  S2-  S180  1  0.67481455  0.45192577  0.34560529  1
  S2-  S181  1  0.63559002  0.48984112  0.84410822  1
  S2-  S182  1  0.54047567  0.76795456  0.35934538  1
  S2-  S183  1  0.59898388  0.73464484  0.84327760  1
  S2-  S184  1  0.90722103  0.01078802  0.35128428  1
  S2-  S185  1  0.88164817  0.00316173  0.85061550  1
  S2-  S186  1  0.88366091  0.37491712  0.35698799  1
  S2-  S187  1  0.90785160  0.24738978  0.85024523  1
  S2-  S188  1  0.85071726  0.61514640  0.35099794  1
  S2-  S189  1  0.98796663  0.50666458  0.86726371  1
  S2-  S190  1  0.97445241  0.77327899  0.34799114  1
  S2-  S191  1  0.86853669  0.73100859  0.85043961  1
  S2-  S192  1  0.00249360  0.13627971  0.45856265  1
  S2-  S193  1  -0.00169186  0.12523017  0.95327866  1
  S2-  S194  1  0.01091582  0.38403534  0.45151251  1
  S2-  S195  1  -0.00228961  0.37249583  0.96163342  1
  S2-  S196  1  0.00277697  0.63514084  0.44993251  1
  S2-  S197  1  -0.00431806  0.63044506  0.96613536  1
  S2-  S198  1  0.00105550  0.89107560  0.45253162  1
  S2-  S199  1  -0.00359376  0.87633724  0.96027403  1
  S2-  S200  1  0.25796063  0.13233179  0.46361911  1
  S2-  S201  1  0.24453392  0.12481753  0.96027244  1
  S2-  S202  1  0.25650777  0.38692894  0.45692526  1
  S2-  S203  1  0.24488905  0.37922809  0.94833240  1
  S2-  S204  1  0.25358930  0.64330579  0.44525637  1
  S2-  S205  1  0.24474267  0.62490391  0.95927386  1
  S2-  S206  1  0.26212437  0.89406462  0.44441079  1
  S2-  S207  1  0.24668921  0.87743935  0.94463583  1
  S2-  S208  1  0.50373800  0.13792941  0.46497744  1
  S2-  S209  1  0.49794024  0.12748371  0.95366788  1
  S2-  S210  1  0.49818378  0.38611026  0.46694786  1
  S2-  S211  1  0.49152178  0.37985027  0.94116849  1
  S2-  S212  1  0.50515217  0.64328397  0.46643496  1
  S2-  S213  1  0.49597819  0.62360474  0.95341701  1
  S2-  S214  1  0.50351461  0.89273487  0.45734714  1
  S2-  S215  1  0.49680750  0.87792116  0.94911654  1
  S2-  S216  1  0.75697255  0.13937752  0.45662597  1
  S2-  S217  1  0.74579055  0.12569429  0.95855079  1
  S2-  S218  1  0.75361519  0.38627815  0.45834349  1
  S2-  S219  1  0.74823417  0.38060883  0.95331725  1
  S2-  S220  1  0.74301076  0.63615932  0.44956296  1
  S2-  S221  1  0.74854265  0.62386777  0.95106995  1
  S2-  S222  1  0.75356560  0.88683285  0.44814026  1
  S2-  S223  1  0.74649375  0.87601422  0.95103706  1
  S2-  S224  1  0.12479217  0.00334412  0.05215454  1
  S2-  S225  1  0.12940663  0.01103085  0.54881845  1
  S2-  S226  1  0.12488633  0.24933005  0.04320721  1
  S2-  S227  1  0.13326314  0.26432490  0.55359372  1
  S2-  S228  1  0.12588231  0.49641489  0.04167123  1
  S2-  S229  1  0.13214254  0.51244603  0.54326431  1
  S2-  S230  1  0.13283933  0.75774829  0.05368001  1
  S2-  S231  1  0.12561023  0.76471799  0.52996870  1
  S2-  S232  1  0.37558222  0.00481893  0.04390410  1
  S2-  S233  1  0.38193427  0.00517696  0.54935422  1
  S2-  S234  1  0.37143146  0.25235273  0.03319639  1
  S2-  S235  1  0.38018839  0.26397206  0.55506287  1
  S2-  S236  1  0.36893191  0.49961220  0.03740872  1
  S2-  S237  1  0.37457430  0.51647826  0.55180268  1
  S2-  S238  1  0.36735574  0.76056637  0.04420979  1
  S2-  S239  1  0.37698095  0.76188087  0.53605330  1
  S2-  S240  1  0.62029952  0.00118948  0.04631306  1
  S2-  S241  1  0.62949114  0.00649719  0.54584241  1
  S2-  S242  1  0.62727710  0.25898158  0.04023292  1
  S2-  S243  1  0.63019290  0.26354500  0.54855922  1
  S2-  S244  1  0.61624398  0.50536533  0.04454830  1
  S2-  S245  1  0.63212839  0.51714499  0.54467942  1
  S2-  S246  1  0.61835461  0.75254278  0.04558591  1
  S2-  S247  1  0.63269950  0.76271155  0.54652966  1
  S2-  S248  1  0.87093859  0.00469488  0.05497329  1
  S2-  S249  1  0.87955436  0.01100964  0.55124124  1
  S2-  S250  1  0.87213413  0.24951617  0.05101161  1
  S2-  S251  1  0.87960506  0.26302785  0.54582532  1
  S2-  S252  1  0.87431344  0.50031722  0.04169186  1
  S2-  S253  1  0.88048592  0.51153289  0.53342299  1
  S2-  S254  1  0.86717098  0.75175066  0.04848890  1
  S2-  S255  1  0.87184927  0.76545617  0.53150643  1
