# generated using pymatgen
data_La6Ce7Pr13Nd19Sm19(BiS2)64
_symmetry_space_group_name_H-M   'P 1'
_cell_length_a   16.07067762
_cell_length_b   15.94595858
_cell_length_c   27.28988475
_cell_angle_alpha   90.26137560
_cell_angle_beta   89.70896135
_cell_angle_gamma   89.98524804
_symmetry_Int_Tables_number   1
_chemical_formula_structural   La6Ce7Pr13Nd19Sm19(BiS2)64
_chemical_formula_sum   'La6 Ce7 Pr13 Nd19 Sm19 Bi64 S128'
_cell_volume   6993.20699594
_cell_formula_units_Z   1
loop_
 _symmetry_equiv_pos_site_id
 _symmetry_equiv_pos_as_xyz
  1  'x, y, z'
loop_
 _atom_type_symbol
 _atom_type_oxidation_number
  La3+  3.0
  Ce3+  3.0
  Pr3+  3.0
  Nd3+  3.0
  Sm3+  3.0
  Bi2+  2.0
  S2-  -2.0
loop_
 _atom_site_type_symbol
 _atom_site_label
 _atom_site_symmetry_multiplicity
 _atom_site_fract_x
 _atom_site_fract_y
 _atom_site_fract_z
 _atom_site_occupancy
  La3+  La0  1  0.76005324  0.13308087  0.57608652  1
  La3+  La1  1  0.61614571  0.50845490  0.89348839  1
  La3+  La2  1  0.61885107  0.76339261  0.91823740  1
  La3+  La3  1  0.01380263  0.39015801  0.56675014  1
  La3+  La4  1  0.49538881  0.13464750  0.10964760  1
  La3+  La5  1  0.37895152  -0.01158574  0.41287072  1
  Ce3+  Ce6  1  0.63673614  0.75575244  0.44162628  1
  Ce3+  Ce7  1  -0.02252988  0.62680798  0.07298001  1
  Ce3+  Ce8  1  0.51671335  0.88128501  0.56395227  1
  Ce3+  Ce9  1  0.63629820  0.25063115  0.44023629  1
  Ce3+  Ce10  1  0.88343856  0.25321798  0.45036164  1
  Ce3+  Ce11  1  0.26383917  0.13482935  0.55993060  1
  Ce3+  Ce12  1  0.89484277  0.75400467  0.42816560  1
  Pr3+  Pr13  1  0.11148022  0.25212815  0.93726872  1
  Pr3+  Pr14  1  0.23336050  0.13858778  0.07919672  1
  Pr3+  Pr15  1  0.11267811  0.50130043  0.93094184  1
  Pr3+  Pr16  1  0.01061614  0.87927480  0.56654552  1
  Pr3+  Pr17  1  0.51030275  0.63637557  0.59681118  1
  Pr3+  Pr18  1  0.26157051  0.38139562  0.56015013  1
  Pr3+  Pr19  1  0.50690520  0.37825347  0.56169624  1
  Pr3+  Pr20  1  0.72740178  0.63423756  0.06825953  1
  Pr3+  Pr21  1  0.76560508  0.87824725  0.56476794  1
  Pr3+  Pr22  1  0.38683519  0.26077485  0.42215369  1
  Pr3+  Pr23  1  0.64554999  -0.00464766  0.41667443  1
  Pr3+  Pr24  1  0.35999001  0.76537622  0.93223123  1
  Pr3+  Pr25  1  0.13574279  0.25175655  0.43335445  1
  Nd3+  Nd26  1  0.73286939  0.13281402  0.06085692  1
  Nd3+  Nd27  1  0.85910459  0.75415667  0.94029813  1
  Nd3+  Nd28  1  -0.01216874  0.13688619  0.07675034  1
  Nd3+  Nd29  1  0.12885775  0.49810686  0.42336698  1
  Nd3+  Nd30  1  0.72751138  0.38103090  0.05083324  1
  Nd3+  Nd31  1  0.26065279  0.62741879  0.57994224  1
  Nd3+  Nd32  1  -0.01641715  0.38305639  0.06627581  1
  Nd3+  Nd33  1  0.85715895  0.50664676  0.94038110  1
  Nd3+  Nd34  1  0.01170770  0.13877975  0.57668217  1
  Nd3+  Nd35  1  0.23353530  0.88499932  0.06411867  1
  Nd3+  Nd36  1  0.63649189  0.50430152  0.43391064  1
  Nd3+  Nd37  1  0.23622969  0.38615106  0.06532700  1
  Nd3+  Nd38  1  0.13690780  0.00759906  0.43877835  1
  Nd3+  Nd39  1  0.75412188  0.38975643  0.56868458  1
  Nd3+  Nd40  1  0.72858951  0.88747597  0.06228192  1
  Nd3+  Nd41  1  0.50959780  0.12474099  0.54520176  1
  Nd3+  Nd42  1  0.88781863  0.00531438  0.44234611  1
  Nd3+  Nd43  1  0.36275935  0.51011734  0.93104899  1
  Nd3+  Nd44  1  0.10945433  0.75218902  0.95002737  1
  Sm3+  Sm45  1  -0.01603961  0.88189584  0.05378717  1
  Sm3+  Sm46  1  0.13950947  0.75194677  0.43700432  1
  Sm3+  Sm47  1  0.01228037  0.62804184  0.55424748  1
  Sm3+  Sm48  1  0.76015123  0.62778436  0.55460333  1
  Sm3+  Sm49  1  0.23585558  0.62870484  0.06495821  1
  Sm3+  Sm50  1  0.87877081  0.49985502  0.42927435  1
  Sm3+  Sm51  1  0.48958255  0.63498774  0.05361996  1
  Sm3+  Sm52  1  0.36092243  0.25753156  0.94631761  1
  Sm3+  Sm53  1  0.86014467  0.25632602  0.94239458  1
  Sm3+  Sm54  1  0.86113977  0.00937646  0.94727427  1
  Sm3+  Sm55  1  0.11168259  0.01112832  0.94072451  1
  Sm3+  Sm56  1  0.38360532  0.50637386  0.44126518  1
  Sm3+  Sm57  1  0.61166831  0.01526173  0.93450260  1
  Sm3+  Sm58  1  0.36025628  0.00888065  0.94804984  1
  Sm3+  Sm59  1  0.26309515  0.87696062  0.56335469  1
  Sm3+  Sm60  1  0.48417600  0.37998120  0.05633237  1
  Sm3+  Sm61  1  0.38704760  0.75025077  0.44479317  1
  Sm3+  Sm62  1  0.60698003  0.25503402  0.93693218  1
  Sm3+  Sm63  1  0.48341926  0.88576944  0.05737393  1
  Bi2+  Bi64  1  -0.00925011  0.08356918  0.28711874  1
  Bi2+  Bi65  1  0.05951971  0.14182226  0.76306101  1
  Bi2+  Bi66  1  0.00797112  0.35750851  0.29424510  1
  Bi2+  Bi67  1  0.01308088  0.44248882  0.78698473  1
  Bi2+  Bi68  1  0.06975498  0.61889448  0.29342875  1
  Bi2+  Bi69  1  -0.01022203  0.64122659  0.80242647  1
  Bi2+  Bi70  1  -0.00184820  0.88023456  0.28916512  1
  Bi2+  Bi71  1  -0.00670265  0.84235797  0.79041366  1
  Bi2+  Bi72  1  0.23646932  0.08795039  0.29773517  1
  Bi2+  Bi73  1  0.25082349  0.05641156  0.81720938  1
  Bi2+  Bi74  1  0.26320919  0.44796405  0.28997000  1
  Bi2+  Bi75  1  0.23342721  0.40189089  0.79193673  1
  Bi2+  Bi76  1  0.26607429  0.62816029  0.34850014  1
  Bi2+  Bi77  1  0.23439371  0.66020448  0.78901361  1
  Bi2+  Bi78  1  0.26177894  0.80467410  0.29762609  1
  Bi2+  Bi79  1  0.17733610  0.90120350  0.76156420  1
  Bi2+  Bi80  1  0.49000909  0.17407260  0.30174905  1
  Bi2+  Bi81  1  0.52760543  0.10293427  0.78502897  1
  Bi2+  Bi82  1  0.52197923  0.41653539  0.28655842  1
  Bi2+  Bi83  1  0.47532124  0.36400824  0.78652142  1
  Bi2+  Bi84  1  0.47567175  0.61362777  0.29788172  1
  Bi2+  Bi85  1  0.47779338  0.62818524  0.77271455  1
  Bi2+  Bi86  1  0.51933758  0.80343456  0.27916674  1
  Bi2+  Bi87  1  0.46515660  0.91548519  0.78769467  1
  Bi2+  Bi88  1  0.74544360  0.14997116  0.30644050  1
  Bi2+  Bi89  1  0.77384509  0.12011475  0.79188450  1
  Bi2+  Bi90  1  0.81480539  0.37827508  0.27741969  1
  Bi2+  Bi91  1  0.81895744  0.37785188  0.79437831  1
  Bi2+  Bi92  1  0.68105290  0.61432711  0.30400488  1
  Bi2+  Bi93  1  0.76130430  0.65862180  0.78469036  1
  Bi2+  Bi94  1  0.78174418  0.85553826  0.29700921  1
  Bi2+  Bi95  1  0.73146363  0.92259054  0.78815609  1
  Bi2+  Bi96  1  0.12273532  -0.04059246  0.21151970  1
  Bi2+  Bi97  1  0.14518787  0.04277854  0.67200578  1
  Bi2+  Bi98  1  0.08770109  0.23044960  0.21677746  1
  Bi2+  Bi99  1  0.17437644  0.27234326  0.71187746  1
  Bi2+  Bi100  1  0.12459388  0.48347281  0.21122419  1
  Bi2+  Bi101  1  0.11543828  0.58651233  0.71141042  1
  Bi2+  Bi102  1  0.17343757  0.69017786  0.20163627  1
  Bi2+  Bi103  1  0.07304763  0.77839881  0.68273847  1
  Bi2+  Bi104  1  0.38728935  -0.02395204  0.21397252  1
  Bi2+  Bi105  1  0.34280185  0.04907393  0.67455601  1
  Bi2+  Bi106  1  0.34725426  0.26924576  0.20909732  1
  Bi2+  Bi107  1  0.35437092  0.19063685  0.75989061  1
  Bi2+  Bi108  1  0.39262721  0.50430388  0.20783156  1
  Bi2+  Bi109  1  0.34979342  0.46532429  0.70269215  1
  Bi2+  Bi110  1  0.37422399  0.70344659  0.20946531  1
  Bi2+  Bi111  1  0.34685967  0.85679293  0.70338007  1
  Bi2+  Bi112  1  0.63611004  -0.00210438  0.21342487  1
  Bi2+  Bi113  1  0.54659180  0.00914164  0.68062393  1
  Bi2+  Bi114  1  0.63516719  0.32230006  0.21366030  1
  Bi2+  Bi115  1  0.60209166  0.24402508  0.69743204  1
  Bi2+  Bi116  1  0.66594293  0.51846517  0.19754773  1
  Bi2+  Bi117  1  0.64966145  0.47215466  0.70960303  1
  Bi2+  Bi118  1  0.66836011  0.73853403  0.21340443  1
  Bi2+  Bi119  1  0.61040277  0.80635308  0.72557603  1
  Bi2+  Bi120  1  0.87538647  -0.02064900  0.20780386  1
  Bi2+  Bi121  1  0.95992423  -0.00664959  0.71181707  1
  Bi2+  Bi122  1  0.86569615  0.17449379  0.21232303  1
  Bi2+  Bi123  1  0.90272275  0.25827060  0.70854052  1
  Bi2+  Bi124  1  0.86736757  0.53474759  0.21551227  1
  Bi2+  Bi125  1  0.88177377  0.49614808  0.70741711  1
  Bi2+  Bi126  1  0.97617403  0.72523972  0.20869317  1
  Bi2+  Bi127  1  0.88398363  0.73709072  0.70933040  1
  S2-  S128  1  0.10678220  0.09829486  0.15010965  1
  S2-  S129  1  -0.11044160  0.11765074  0.65067495  1
  S2-  S130  1  -0.02826017  0.27006655  0.14615123  1
  S2-  S131  1  0.02814595  0.28212744  0.64819316  1
  S2-  S132  1  -0.00592823  0.49747188  0.14430002  1
  S2-  S133  1  -0.00004533  0.52915287  0.63628285  1
  S2-  S134  1  -0.00622432  0.88127484  0.15116504  1
  S2-  S135  1  -0.11045948  0.87786607  0.64308125  1
  S2-  S136  1  0.33746412  0.11808196  0.16168404  1
  S2-  S137  1  0.27412969  0.25570614  0.63332538  1
  S2-  S138  1  0.22248170  0.28951576  0.15105150  1
  S2-  S139  1  0.21801888  0.48555423  0.64171739  1
  S2-  S140  1  0.25041168  0.51199443  0.13807963  1
  S2-  S141  1  0.37744433  0.60968243  0.66203108  1
  S2-  S142  1  0.25478332  0.89562786  0.16241579  1
  S2-  S143  1  0.23695357  0.77162206  0.64164346  1
  S2-  S144  1  0.50587986  0.10451871  0.21383441  1
  S2-  S145  1  0.47857679  0.17321197  0.64021799  1
  S2-  S146  1  0.48847477  0.30717534  0.14809488  1
  S2-  S147  1  0.51223641  0.40392628  0.66267524  1
  S2-  S148  1  0.59019477  0.64649174  0.13819642  1
  S2-  S149  1  0.59470083  0.62026281  0.68964326  1
  S2-  S150  1  0.51317059  0.92281526  0.15230379  1
  S2-  S151  1  0.48793437  0.79540732  0.64868596  1
  S2-  S152  1  0.66498100  0.12317319  0.15073915  1
  S2-  S153  1  0.68350354  0.10968224  0.66985913  1
  S2-  S154  1  0.75101165  0.37541193  0.14945532  1
  S2-  S155  1  0.74541358  0.31333697  0.66104145  1
  S2-  S156  1  0.85090033  0.65599447  0.14423251  1
  S2-  S157  1  0.75814722  0.52881484  0.63600963  1
  S2-  S158  1  0.74414419  0.88010114  0.16194227  1
  S2-  S159  1  0.66998607  0.89238270  0.65100025  1
  S2-  S160  1  0.21587862  -0.05717300  0.35458926  1
  S2-  S161  1  0.10219956  0.12037237  0.86450514  1
  S2-  S162  1  0.10244823  0.12622313  0.36174719  1
  S2-  S163  1  0.10318570  0.36428217  0.85969144  1
  S2-  S164  1  0.14638676  0.36311878  0.35217289  1
  S2-  S165  1  0.23741187  0.53435417  0.85867519  1
  S2-  S166  1  0.03202056  0.76197893  0.35887955  1
  S2-  S167  1  0.11807434  0.74933915  0.85093292  1
  S2-  S168  1  0.39821844  0.02983398  0.31315623  1
  S2-  S169  1  0.34482463  -0.07680614  0.86224635  1
  S2-  S170  1  0.32099911  0.21840628  0.32678862  1
  S2-  S171  1  0.34717395  0.29719516  0.84982766  1
  S2-  S172  1  0.39706009  0.40981081  0.35761086  1
  S2-  S173  1  0.45869345  0.50264123  0.84446839  1
  S2-  S174  1  0.40097706  0.83024129  0.35616953  1
  S2-  S175  1  0.37408870  0.71162523  0.83377838  1
  S2-  S176  1  0.61294990  0.05413063  0.31891320  1
  S2-  S177  1  0.60715496  -0.08947633  0.85492073  1
  S2-  S178  1  0.61145240  0.28209131  0.34507779  1
  S2-  S179  1  0.63843843  0.15584787  0.85559392  1
  S2-  S180  1  0.75130269  0.48270164  0.35698328  1
  S2-  S181  1  0.63024890  0.38881758  0.81086877  1
  S2-  S182  1  0.63436308  0.84427092  0.35607043  1
  S2-  S183  1  0.59744998  0.65745694  0.83504234  1
  S2-  S184  1  0.79955416  0.00636227  0.35550987  1
  S2-  S185  1  0.85314214  0.00978732  0.84866643  1
  S2-  S186  1  0.86989686  0.26041645  0.35217998  1
  S2-  S187  1  0.87106147  0.23907325  0.84408992  1
  S2-  S188  1  0.98970025  0.50401465  0.35265496  1
  S2-  S189  1  0.78282946  0.52945322  0.85088208  1
  S2-  S190  1  0.81986431  0.71510357  0.34019469  1
  S2-  S191  1  0.77692274  0.77607698  0.85319799  1
  S2-  S192  1  0.00687106  0.12992271  0.46732859  1
  S2-  S193  1  -0.01910996  0.13163379  0.96472208  1
  S2-  S194  1  0.00672602  0.37761461  0.45671802  1
  S2-  S195  1  -0.02037907  0.38062235  0.95799148  1
  S2-  S196  1  0.01086531  0.62646039  0.45247794  1
  S2-  S197  1  -0.01668071  0.62899181  0.95627261  1
  S2-  S198  1  0.01419242  0.88263025  0.45895283  1
  S2-  S199  1  -0.01375940  0.88383285  0.94850209  1
  S2-  S200  1  0.26846905  0.12625942  0.45121655  1
  S2-  S201  1  0.23898445  0.13077559  0.96325483  1
  S2-  S202  1  0.26102008  0.38201989  0.45400216  1
  S2-  S203  1  0.24043062  0.38173770  0.95917135  1
  S2-  S204  1  0.26058337  0.62915888  0.46019962  1
  S2-  S205  1  0.23940269  0.63721895  0.96185097  1
  S2-  S206  1  0.26023531  0.87243737  0.46129750  1
  S2-  S207  1  0.22877781  0.88323478  0.95899087  1
  S2-  S208  1  0.50966912  0.12003744  0.43854673  1
  S2-  S209  1  0.48086394  0.13118553  0.94261626  1
  S2-  S210  1  0.51453505  0.38187030  0.45529543  1
  S2-  S211  1  0.48915485  0.38015588  0.95113413  1
  S2-  S212  1  0.51102473  0.62886779  0.43986300  1
  S2-  S213  1  0.48670344  0.63878972  0.95066664  1
  S2-  S214  1  0.51107246  0.88065029  0.45772714  1
  S2-  S215  1  0.48691957  0.88588926  0.95511288  1
  S2-  S216  1  0.75869861  0.12745165  0.45986074  1
  S2-  S217  1  0.73890511  0.13242303  0.95636835  1
  S2-  S218  1  0.75703163  0.37793461  0.46101214  1
  S2-  S219  1  0.73031930  0.37798070  0.94493596  1
  S2-  S220  1  0.76189716  0.63063434  0.45269009  1
  S2-  S221  1  0.73122061  0.63261303  0.95714602  1
  S2-  S222  1  0.76784946  0.87472666  0.45780124  1
  S2-  S223  1  0.73780672  0.88983509  0.95774600  1
  S2-  S224  1  0.10747075  0.00558917  0.04387854  1
  S2-  S225  1  0.13792495  0.00397323  0.54734901  1
  S2-  S226  1  0.10922518  0.25928384  0.04404612  1
  S2-  S227  1  0.13559782  0.25480630  0.53980517  1
  S2-  S228  1  0.11051363  0.51012174  0.03928216  1
  S2-  S229  1  0.13700938  0.50956862  0.53292809  1
  S2-  S230  1  0.10880033  0.75409802  0.05585886  1
  S2-  S231  1  0.13314584  0.75239922  0.54032863  1
  S2-  S232  1  0.36062896  0.00860740  0.05131469  1
  S2-  S233  1  0.38401497  -0.00006502  0.54492745  1
  S2-  S234  1  0.36381224  0.25501467  0.04858103  1
  S2-  S235  1  0.38927690  0.25459340  0.52985047  1
  S2-  S236  1  0.36861031  0.51005636  0.04016660  1
  S2-  S237  1  0.38951917  0.51064630  0.54524249  1
  S2-  S238  1  0.36024498  0.75699012  0.04912352  1
  S2-  S239  1  0.38674900  0.75000825  0.54653561  1
  S2-  S240  1  0.60380328  0.01269771  0.04168870  1
  S2-  S241  1  0.63994955  0.00529657  0.54066524  1
  S2-  S242  1  0.60488252  0.25212463  0.04126527  1
  S2-  S243  1  0.63343795  0.25513256  0.54670655  1
  S2-  S244  1  0.60446488  0.50388607  0.04569748  1
  S2-  S245  1  0.62389502  0.51373007  0.54231160  1
  S2-  S246  1  0.60794361  0.76516566  0.03944507  1
  S2-  S247  1  0.63477765  0.74765597  0.54908273  1
  S2-  S248  1  0.86223398  0.00932445  0.05311333  1
  S2-  S249  1  0.88796740  0.00831144  0.54589889  1
  S2-  S250  1  0.85570266  0.25728696  0.04606254  1
  S2-  S251  1  0.88158331  0.26426756  0.55373135  1
  S2-  S252  1  0.85203113  0.50526765  0.04487748  1
  S2-  S253  1  0.88332260  0.50714943  0.53416126  1
  S2-  S254  1  0.85675838  0.76395069  0.04429554  1
  S2-  S255  1  0.88791341  0.74801589  0.54159199  1
