# generated using pymatgen
data_La6Ce7Pr13Nd19Sm19(BiS2)64
_symmetry_space_group_name_H-M   'P 1'
_cell_length_a   16.08282160
_cell_length_b   16.06957184
_cell_length_c   27.50476984
_cell_angle_alpha   90.00285063
_cell_angle_beta   89.95646542
_cell_angle_gamma   90.09184295
_symmetry_Int_Tables_number   1
_chemical_formula_structural   La6Ce7Pr13Nd19Sm19(BiS2)64
_chemical_formula_sum   'La6 Ce7 Pr13 Nd19 Sm19 Bi64 S128'
_cell_volume   7108.43311451
_cell_formula_units_Z   1
loop_
 _symmetry_equiv_pos_site_id
 _symmetry_equiv_pos_as_xyz
  1  'x, y, z'
loop_
 _atom_type_symbol
 _atom_type_oxidation_number
  La3+  3.0
  Ce3+  3.0
  Pr3+  3.0
  Nd3+  3.0
  Sm3+  3.0
  Bi2+  2.0
  S2-  -2.0
loop_
 _atom_site_type_symbol
 _atom_site_label
 _atom_site_symmetry_multiplicity
 _atom_site_fract_x
 _atom_site_fract_y
 _atom_site_fract_z
 _atom_site_occupancy
  La3+  La0  1  -0.00721389  0.61922374  0.09338383  1
  La3+  La1  1  0.62429834  0.74369829  0.89954036  1
  La3+  La2  1  0.01109018  0.38834385  0.57307985  1
  La3+  La3  1  0.51069580  0.39833249  0.57530931  1
  La3+  La4  1  0.14999458  0.01463834  0.39227556  1
  La3+  La5  1  -0.04596692  0.66284250  0.62045154  1
  Ce3+  Ce6  1  -0.00648258  0.37654118  0.05412047  1
  Ce3+  Ce7  1  0.61482606  -0.00446510  0.94407062  1
  Ce3+  Ce8  1  0.38233681  0.25741649  0.45007517  1
  Ce3+  Ce9  1  0.12416777  0.25902897  0.42663163  1
  Ce3+  Ce10  1  0.48994833  0.87210596  0.06717296  1
  Ce3+  Ce11  1  0.86777247  0.24868420  0.94569395  1
  Ce3+  Ce12  1  0.49130856  0.12514507  0.06558055  1
  Pr3+  Pr13  1  0.12798459  0.51144443  0.43384261  1
  Pr3+  Pr14  1  0.25365099  0.13514299  0.55898496  1
  Pr3+  Pr15  1  0.37990319  0.76629768  0.44013098  1
  Pr3+  Pr16  1  0.50823164  0.88797490  0.57038109  1
  Pr3+  Pr17  1  0.11549160  0.74712061  0.92902825  1
  Pr3+  Pr18  1  0.88399304  0.01192304  0.42801533  1
  Pr3+  Pr19  1  0.75938238  0.13998205  0.55813043  1
  Pr3+  Pr20  1  0.87970326  0.51158095  0.43317797  1
  Pr3+  Pr21  1  0.23957231  0.63864429  0.56438726  1
  Pr3+  Pr22  1  0.87071578  0.75050582  0.93752457  1
  Pr3+  Pr23  1  0.74137161  0.62742885  0.06461934  1
  Pr3+  Pr24  1  0.77056022  0.87712027  0.56693846  1
  Pr3+  Pr25  1  0.12690698  0.25401425  0.91795509  1
  Nd3+  Nd26  1  0.11642668  0.00052868  0.94784821  1
  Nd3+  Nd27  1  0.37881231  0.51529054  0.44484436  1
  Nd3+  Nd28  1  0.11659515  0.50087482  0.93231044  1
  Nd3+  Nd29  1  0.51736264  0.13365207  0.57991513  1
  Nd3+  Nd30  1  0.63408332  0.01097471  0.44301234  1
  Nd3+  Nd31  1  0.62389462  0.26187022  0.44299264  1
  Nd3+  Nd32  1  -0.00824664  0.12689532  0.06338355  1
  Nd3+  Nd33  1  0.23733095  0.37868100  0.06078581  1
  Nd3+  Nd34  1  0.13092496  0.76023512  0.42932497  1
  Nd3+  Nd35  1  0.36413991  -0.00103069  0.95008674  1
  Nd3+  Nd36  1  0.36910727  0.25137368  0.94890306  1
  Nd3+  Nd37  1  0.88279561  0.26218731  0.42995828  1
  Nd3+  Nd38  1  0.22668049  0.86724930  0.07070710  1
  Nd3+  Nd39  1  0.61355074  0.49646363  0.93846539  1
  Nd3+  Nd40  1  0.37126410  0.75335705  0.93628104  1
  Nd3+  Nd41  1  0.48697789  0.38654994  0.07721279  1
  Nd3+  Nd42  1  0.73929873  0.37748256  0.06238946  1
  Nd3+  Nd43  1  0.48937536  0.63267000  0.06207457  1
  Nd3+  Nd44  1  0.61664032  0.51048463  0.42481726  1
  Sm3+  Sm45  1  0.62930036  0.76408397  0.43933442  1
  Sm3+  Sm46  1  0.39441557  0.01452588  0.44030464  1
  Sm3+  Sm47  1  0.37033887  0.50048583  0.94487141  1
  Sm3+  Sm48  1  0.86575386  0.50280959  0.94231741  1
  Sm3+  Sm49  1  0.86657087  0.00207875  0.94437072  1
  Sm3+  Sm50  1  0.23997027  0.12598352  0.06184077  1
  Sm3+  Sm51  1  0.00655992  0.88545866  0.54259663  1
  Sm3+  Sm52  1  0.75740743  0.39140701  0.54896928  1
  Sm3+  Sm53  1  0.73769738  0.12743820  0.05536679  1
  Sm3+  Sm54  1  0.24978221  0.89109348  0.55152752  1
  Sm3+  Sm55  1  0.25260844  0.38504570  0.55054469  1
  Sm3+  Sm56  1  0.23580113  0.62838156  0.05212043  1
  Sm3+  Sm57  1  0.49981514  0.64451853  0.56178465  1
  Sm3+  Sm58  1  -0.01799486  0.87603986  0.06714780  1
  Sm3+  Sm59  1  0.75266205  0.63348191  0.54007394  1
  Sm3+  Sm60  1  0.61428845  0.25343487  0.94422243  1
  Sm3+  Sm61  1  0.00492136  0.14116133  0.55366437  1
  Sm3+  Sm62  1  0.88098943  0.76093682  0.42950726  1
  Sm3+  Sm63  1  0.74327701  0.87421677  0.06256378  1
  Bi2+  Bi64  1  0.03400346  0.15832277  0.28753810  1
  Bi2+  Bi65  1  0.06330395  0.15941331  0.80169033  1
  Bi2+  Bi66  1  -0.00422622  0.37367104  0.23244532  1
  Bi2+  Bi67  1  -0.01537062  0.33967969  0.78908581  1
  Bi2+  Bi68  1  0.00814173  0.60602511  0.30072536  1
  Bi2+  Bi69  1  -0.02265611  0.63019769  0.80937888  1
  Bi2+  Bi70  1  -0.05404726  0.87660846  0.28542774  1
  Bi2+  Bi71  1  0.06757288  0.87845011  0.78379418  1
  Bi2+  Bi72  1  0.27075159  0.08760749  0.27290553  1
  Bi2+  Bi73  1  0.25795670  0.10079062  0.80418231  1
  Bi2+  Bi74  1  0.26423482  0.34499829  0.26061667  1
  Bi2+  Bi75  1  0.24166865  0.35936834  0.78207171  1
  Bi2+  Bi76  1  0.24497356  0.58518312  0.30137451  1
  Bi2+  Bi77  1  0.27023119  0.63384277  0.79947021  1
  Bi2+  Bi78  1  0.30005144  0.84658660  0.30933506  1
  Bi2+  Bi79  1  0.25498120  0.83060352  0.81985271  1
  Bi2+  Bi80  1  0.59596401  0.09516651  0.28177377  1
  Bi2+  Bi81  1  0.57395472  0.16915094  0.82633276  1
  Bi2+  Bi82  1  0.52226552  0.34874879  0.30314920  1
  Bi2+  Bi83  1  0.46107678  0.33339123  0.81852410  1
  Bi2+  Bi84  1  0.48914748  0.60753184  0.29154266  1
  Bi2+  Bi85  1  0.49564713  0.61343046  0.78990464  1
  Bi2+  Bi86  1  0.54729324  0.87077284  0.29940669  1
  Bi2+  Bi87  1  0.43542963  0.89552699  0.78899834  1
  Bi2+  Bi88  1  0.78495548  0.07938583  0.31495970  1
  Bi2+  Bi89  1  0.78015781  0.12939121  0.80139188  1
  Bi2+  Bi90  1  0.76921989  0.37157961  0.29817223  1
  Bi2+  Bi91  1  0.71795318  0.31060344  0.75444641  1
  Bi2+  Bi92  1  0.68108544  0.63184556  0.26157683  1
  Bi2+  Bi93  1  0.75310813  0.62068177  0.78612568  1
  Bi2+  Bi94  1  0.75243654  0.88679507  0.30347900  1
  Bi2+  Bi95  1  0.77394784  0.90539977  0.79918273  1
  Bi2+  Bi96  1  0.13025339  -0.00948283  0.19507772  1
  Bi2+  Bi97  1  0.13342055  0.00799956  0.70526432  1
  Bi2+  Bi98  1  0.13097420  0.24734066  0.19915274  1
  Bi2+  Bi99  1  0.11202726  0.26933180  0.70816500  1
  Bi2+  Bi100  1  0.15770700  0.50858815  0.19354576  1
  Bi2+  Bi101  1  0.12198212  0.50833557  0.70482352  1
  Bi2+  Bi102  1  0.16186676  0.74999400  0.21156318  1
  Bi2+  Bi103  1  0.17685354  0.75263735  0.72170501  1
  Bi2+  Bi104  1  0.41680149  -0.04973436  0.21247243  1
  Bi2+  Bi105  1  0.35149875  -0.03723269  0.69793101  1
  Bi2+  Bi106  1  0.41275611  0.21435385  0.24966031  1
  Bi2+  Bi107  1  0.36201300  0.15539947  0.71585703  1
  Bi2+  Bi108  1  0.37561385  0.49168374  0.22487127  1
  Bi2+  Bi109  1  0.31874301  0.49483070  0.71682458  1
  Bi2+  Bi110  1  0.40438505  0.75363169  0.22989923  1
  Bi2+  Bi111  1  0.36956566  0.68291096  0.70178336  1
  Bi2+  Bi112  1  0.61211210  -0.05814910  0.19787978  1
  Bi2+  Bi113  1  0.61097389  0.00318228  0.76812960  1
  Bi2+  Bi114  1  0.63709644  0.20505767  0.19365843  1
  Bi2+  Bi115  1  0.55354999  0.19138728  0.71123725  1
  Bi2+  Bi116  1  0.62462086  0.48166327  0.19363423  1
  Bi2+  Bi117  1  0.59438673  0.44250577  0.71020553  1
  Bi2+  Bi118  1  0.64852366  0.75306981  0.17267544  1
  Bi2+  Bi119  1  0.63555669  0.69966891  0.67156744  1
  Bi2+  Bi120  1  0.86079495  0.00833989  0.21157398  1
  Bi2+  Bi121  1  0.94839421  0.05713723  0.72665162  1
  Bi2+  Bi122  1  0.86094502  0.22699006  0.24801997  1
  Bi2+  Bi123  1  0.83260573  0.19330505  0.68505308  1
  Bi2+  Bi124  1  0.84152141  0.50172831  0.21993795  1
  Bi2+  Bi125  1  0.86082550  0.42515687  0.71849339  1
  Bi2+  Bi126  1  0.83085851  0.76608573  0.21632673  1
  Bi2+  Bi127  1  0.83411986  0.82922041  0.70651809  1
  S2-  S128  1  -0.00089376  0.06719598  0.15704329  1
  S2-  S129  1  -0.01425519  0.23928262  0.63580190  1
  S2-  S130  1  0.01489307  0.45401583  0.14038016  1
  S2-  S131  1  -0.03023418  0.49135757  0.65384639  1
  S2-  S132  1  0.04298768  0.64475895  0.19627420  1
  S2-  S133  1  -0.07197022  0.68501117  0.72578137  1
  S2-  S134  1  0.08564560  0.84725220  0.14390438  1
  S2-  S135  1  -0.06295211  0.84496781  0.62956207  1
  S2-  S136  1  0.23141172  0.12324485  0.15956321  1
  S2-  S137  1  0.21712037  0.14738441  0.65715802  1
  S2-  S138  1  0.28644942  0.38807628  0.15556921  1
  S2-  S139  1  0.16819123  0.38601003  0.63606609  1
  S2-  S140  1  0.24209277  0.64267811  0.15036108  1
  S2-  S141  1  0.12750722  0.64372538  0.64303281  1
  S2-  S142  1  0.27701580  0.89810839  0.16491129  1
  S2-  S143  1  0.21346235  0.88173788  0.64758361  1
  S2-  S144  1  0.48189063  0.13270613  0.16171054  1
  S2-  S145  1  0.48826878  0.00486492  0.64547879  1
  S2-  S146  1  0.54508699  0.34088860  0.16811928  1
  S2-  S147  1  0.48083749  0.33735818  0.66766421  1
  S2-  S148  1  0.48569875  0.52936707  0.14327497  1
  S2-  S149  1  0.54471269  0.54603312  0.63836340  1
  S2-  S150  1  0.47568467  0.75135233  0.13900115  1
  S2-  S151  1  0.48198724  0.76134611  0.63873370  1
  S2-  S152  1  0.75849811  0.11603975  0.15143286  1
  S2-  S153  1  0.67041840  0.13756129  0.64391873  1
  S2-  S154  1  0.76303228  0.38821870  0.16048878  1
  S2-  S155  1  0.73271410  0.39952092  0.64605437  1
  S2-  S156  1  0.84305160  0.62397601  0.14811410  1
  S2-  S157  1  0.77964996  0.64771196  0.63628123  1
  S2-  S158  1  0.85591539  0.87704834  0.13931215  1
  S2-  S159  1  0.68721936  0.86635898  0.65424787  1
  S2-  S160  1  0.16640669  -0.06033860  0.29367362  1
  S2-  S161  1  0.12871581  0.00435458  0.85002055  1
  S2-  S162  1  0.17853959  0.17052016  0.34644586  1
  S2-  S163  1  0.11934609  0.38972288  0.85278717  1
  S2-  S164  1  0.12562574  0.48545543  0.33265024  1
  S2-  S165  1  0.12911968  0.61521052  0.85621387  1
  S2-  S166  1  0.13856026  0.71692637  0.33168386  1
  S2-  S167  1  -0.00845909  0.78065826  0.85879641  1
  S2-  S168  1  0.32335667  0.00264479  0.35226352  1
  S2-  S169  1  0.38934395  0.02071691  0.85283744  1
  S2-  S170  1  0.42618787  0.24229778  0.35645246  1
  S2-  S171  1  0.29592543  0.25072560  0.85835959  1
  S2-  S172  1  0.47362070  0.48544587  0.36374558  1
  S2-  S173  1  0.41311332  0.48434935  0.85009657  1
  S2-  S174  1  0.36205508  0.68795273  0.35181738  1
  S2-  S175  1  0.46591291  0.74810093  0.85245066  1
  S2-  S176  1  0.53118639  0.01691494  0.36370013  1
  S2-  S177  1  0.62390193  -0.08807847  0.85886573  1
  S2-  S178  1  0.64598294  0.26864323  0.34401046  1
  S2-  S179  1  0.60306325  0.36267260  0.86792932  1
  S2-  S180  1  0.68548310  0.49945945  0.33294701  1
  S2-  S181  1  0.62934483  0.58355490  0.85216943  1
  S2-  S182  1  0.59429857  0.72338075  0.34735217  1
  S2-  S183  1  0.62205998  0.72465149  0.76557610  1
  S2-  S184  1  0.98759370  0.01624735  0.34564801  1
  S2-  S185  1  0.88207365  0.00429661  0.84748598  1
  S2-  S186  1  0.99656776  0.27483542  0.35586245  1
  S2-  S187  1  0.86220019  0.25986893  0.84948914  1
  S2-  S188  1  0.90405188  0.49553406  0.33352873  1
  S2-  S189  1  0.86213428  0.51671861  0.84409967  1
  S2-  S190  1  0.89804727  0.72498712  0.33355549  1
  S2-  S191  1  0.78060738  0.74312778  0.84943353  1
  S2-  S192  1  0.00646138  0.13310096  0.45167591  1
  S2-  S193  1  -0.00512143  0.12776559  0.95544320  1
  S2-  S194  1  0.00320680  0.38893476  0.45601945  1
  S2-  S195  1  -0.00890712  0.37416143  0.95122900  1
  S2-  S196  1  0.00454128  0.63834903  0.43843275  1
  S2-  S197  1  -0.01020027  0.62026198  0.95353933  1
  S2-  S198  1  0.00695538  0.88389956  0.44057713  1
  S2-  S199  1  -0.00968794  0.88222414  0.96309426  1
  S2-  S200  1  0.25993081  0.13000455  0.45427279  1
  S2-  S201  1  0.23979576  0.12772418  0.95831693  1
  S2-  S202  1  0.25745568  0.38401979  0.44554096  1
  S2-  S203  1  0.24461937  0.37746213  0.95659658  1
  S2-  S204  1  0.25289574  0.63707652  0.45653003  1
  S2-  S205  1  0.24895777  0.62516458  0.95081117  1
  S2-  S206  1  0.25250186  0.89150509  0.44799200  1
  S2-  S207  1  0.23842069  0.87352435  0.95978611  1
  S2-  S208  1  0.51062191  0.13545333  0.47031596  1
  S2-  S209  1  0.49117912  0.12559401  0.96001777  1
  S2-  S210  1  0.50152166  0.38469940  0.46573487  1
  S2-  S211  1  0.48767091  0.37598994  0.97012848  1
  S2-  S212  1  0.50383989  0.64126634  0.45838935  1
  S2-  S213  1  0.49154305  0.62570829  0.95677449  1
  S2-  S214  1  0.50814835  0.88450818  0.46088070  1
  S2-  S215  1  0.48910234  0.87683337  0.96114415  1
  S2-  S216  1  0.75595701  0.13933852  0.45128128  1
  S2-  S217  1  0.73841360  0.12584486  0.95127017  1
  S2-  S218  1  0.75291368  0.38496207  0.44543731  1
  S2-  S219  1  0.74465731  0.37440640  0.95785014  1
  S2-  S220  1  0.75187024  0.63889275  0.43697762  1
  S2-  S221  1  0.74121852  0.62315805  0.95789563  1
  S2-  S222  1  0.75853832  0.88451297  0.45148795  1
  S2-  S223  1  0.74644876  0.87757100  0.95946196  1
  S2-  S224  1  0.11508262  0.00213533  0.05132327  1
  S2-  S225  1  0.12283264  0.01317774  0.54883345  1
  S2-  S226  1  0.11757669  0.25003209  0.04646096  1
  S2-  S227  1  0.13132302  0.25903567  0.53447590  1
  S2-  S228  1  0.11618856  0.50434935  0.03962519  1
  S2-  S229  1  0.13369179  0.50634639  0.53730667  1
  S2-  S230  1  0.10683334  0.74284941  0.04149003  1
  S2-  S231  1  0.12858918  0.76875490  0.53527938  1
  S2-  S232  1  0.36150689  -0.00018874  0.05513495  1
  S2-  S233  1  0.37828803  0.00977046  0.54450385  1
  S2-  S234  1  0.36407864  0.25197706  0.05511381  1
  S2-  S235  1  0.38142931  0.26039648  0.55638645  1
  S2-  S236  1  0.35959453  0.50552622  0.04702802  1
  S2-  S237  1  0.37241225  0.51588392  0.55062744  1
  S2-  S238  1  0.35704196  0.75299121  0.04194182  1
  S2-  S239  1  0.36781352  0.76392665  0.54389409  1
  S2-  S240  1  0.61820339  -0.00059715  0.05157222  1
  S2-  S241  1  0.64091360  0.00520157  0.54617243  1
  S2-  S242  1  0.61438498  0.25261363  0.04872561  1
  S2-  S243  1  0.63186479  0.26663763  0.54796504  1
  S2-  S244  1  0.61711991  0.50172385  0.04619129  1
  S2-  S245  1  0.63247059  0.51324138  0.53159135  1
  S2-  S246  1  0.62023265  0.75448485  0.04653731  1
  S2-  S247  1  0.63361673  0.76040326  0.54155404  1
  S2-  S248  1  0.86368642  0.00767373  0.04649648  1
  S2-  S249  1  0.88334220  0.01355334  0.53978676  1
  S2-  S250  1  0.86519989  0.25054476  0.05269299  1
  S2-  S251  1  0.87863496  0.26710187  0.53505626  1
  S2-  S252  1  0.86780274  0.49971611  0.04629793  1
  S2-  S253  1  0.87844370  0.51468554  0.53984934  1
  S2-  S254  1  0.86981307  0.74675853  0.04488338  1
  S2-  S255  1  0.88342743  0.75188034  0.53134938  1
