# generated using pymatgen
data_La6Ce7Pr13Nd19Sm19(BiS2)64
_symmetry_space_group_name_H-M   'P 1'
_cell_length_a   16.13821478
_cell_length_b   16.12931565
_cell_length_c   27.21167095
_cell_angle_alpha   89.88229867
_cell_angle_beta   90.02256514
_cell_angle_gamma   89.96378301
_symmetry_Int_Tables_number   1
_chemical_formula_structural   La6Ce7Pr13Nd19Sm19(BiS2)64
_chemical_formula_sum   'La6 Ce7 Pr13 Nd19 Sm19 Bi64 S128'
_cell_volume   7083.13641413
_cell_formula_units_Z   1
loop_
 _symmetry_equiv_pos_site_id
 _symmetry_equiv_pos_as_xyz
  1  'x, y, z'
loop_
 _atom_type_symbol
 _atom_type_oxidation_number
  La3+  3.0
  Ce3+  3.0
  Pr3+  3.0
  Nd3+  3.0
  Sm3+  3.0
  Bi2+  2.0
  S2-  -2.0
loop_
 _atom_site_type_symbol
 _atom_site_label
 _atom_site_symmetry_multiplicity
 _atom_site_fract_x
 _atom_site_fract_y
 _atom_site_fract_z
 _atom_site_occupancy
  La3+  La0  1  -0.01170987  0.63297186  0.59417828  1
  La3+  La1  1  0.75454783  0.62632593  0.08493403  1
  La3+  La2  1  0.36041535  0.01377546  0.91456061  1
  La3+  La3  1  0.12707839  0.51275596  0.90738959  1
  La3+  La4  1  0.36556171  0.49884055  0.40094801  1
  La3+  La5  1  0.86552879  0.75285037  0.40670873  1
  Ce3+  Ce6  1  0.24611318  0.87961621  0.05415380  1
  Ce3+  Ce7  1  0.87177494  0.25818381  0.93953667  1
  Ce3+  Ce8  1  -0.00285755  0.12451103  0.56144657  1
  Ce3+  Ce9  1  0.24596676  0.87866674  0.55811274  1
  Ce3+  Ce10  1  0.49475721  0.37770394  0.55742010  1
  Ce3+  Ce11  1  0.62141499  0.50712677  0.94068890  1
  Ce3+  Ce12  1  0.24507279  0.38129527  0.56269532  1
  Pr3+  Pr13  1  0.61995485  0.25272949  0.94107495  1
  Pr3+  Pr14  1  0.24506391  0.62882442  0.56492633  1
  Pr3+  Pr15  1  0.12103191  0.50532217  0.44251304  1
  Pr3+  Pr16  1  0.12497099  0.00209508  0.43371728  1
  Pr3+  Pr17  1  0.61681939  0.74726963  0.42836232  1
  Pr3+  Pr18  1  0.87062082  0.25307088  0.44631294  1
  Pr3+  Pr19  1  0.37215473  0.75026654  0.44408711  1
  Pr3+  Pr20  1  -0.01140470  0.88209869  0.09594552  1
  Pr3+  Pr21  1  0.87138463  0.50404522  0.43923230  1
  Pr3+  Pr22  1  0.49723207  0.62767478  0.56081858  1
  Pr3+  Pr23  1  0.11708976  0.00529179  0.93717677  1
  Pr3+  Pr24  1  0.24579891  0.12543746  0.05823688  1
  Pr3+  Pr25  1  0.24895604  0.63409923  0.06879727  1
  Nd3+  Nd26  1  0.74931594  0.37930622  0.06193658  1
  Nd3+  Nd27  1  0.74675862  0.63216004  0.55825259  1
  Nd3+  Nd28  1  0.12232764  0.74979232  0.43650844  1
  Nd3+  Nd29  1  0.62120492  0.25207011  0.44372915  1
  Nd3+  Nd30  1  0.87166252  0.75356292  0.94161492  1
  Nd3+  Nd31  1  0.24663529  0.12615193  0.56091636  1
  Nd3+  Nd32  1  0.87784356  0.00314060  0.42823119  1
  Nd3+  Nd33  1  0.74845312  0.12989390  0.05932038  1
  Nd3+  Nd34  1  0.74811142  0.12540805  0.55900197  1
  Nd3+  Nd35  1  0.12454910  0.25438181  0.44493491  1
  Nd3+  Nd36  1  0.75010858  0.87288654  0.55327377  1
  Nd3+  Nd37  1  -0.00118018  0.62355673  0.06079969  1
  Nd3+  Nd38  1  0.37319235  0.25501359  0.44014356  1
  Nd3+  Nd39  1  0.74687701  0.37975980  0.56286458  1
  Nd3+  Nd40  1  0.24528447  0.38198765  0.06226644  1
  Nd3+  Nd41  1  0.49731743  0.38029408  0.05934839  1
  Nd3+  Nd42  1  0.37272180  0.00382561  0.43114537  1
  Nd3+  Nd43  1  0.49885633  0.63177017  0.06142697  1
  Nd3+  Nd44  1  0.62314781  0.75395494  0.94182690  1
  Sm3+  Sm45  1  0.49655379  0.12632719  0.56013865  1
  Sm3+  Sm46  1  0.62222259  0.00235906  0.44738174  1
  Sm3+  Sm47  1  0.87289800  0.00376654  0.94271497  1
  Sm3+  Sm48  1  0.11898982  0.25989817  0.94739058  1
  Sm3+  Sm49  1  0.74846446  0.87960229  0.06055412  1
  Sm3+  Sm50  1  -0.00298893  0.12682203  0.05984048  1
  Sm3+  Sm51  1  0.36895750  0.25730421  0.94593809  1
  Sm3+  Sm52  1  0.11822001  0.75194978  0.94752562  1
  Sm3+  Sm53  1  0.86057969  0.51035901  0.93071001  1
  Sm3+  Sm54  1  -0.00407138  0.37772171  0.56125456  1
  Sm3+  Sm55  1  0.37061371  0.50780125  0.94435687  1
  Sm3+  Sm56  1  0.62166170  0.00313279  0.94360478  1
  Sm3+  Sm57  1  0.49648976  0.87812266  0.55418833  1
  Sm3+  Sm58  1  -0.00178472  0.38356109  0.05131446  1
  Sm3+  Sm59  1  0.49565795  0.12678009  0.05449657  1
  Sm3+  Sm60  1  0.36979144  0.75431399  0.94009063  1
  Sm3+  Sm61  1  0.49580379  0.88028572  0.04933667  1
  Sm3+  Sm62  1  0.62172557  0.50273100  0.44290980  1
  Sm3+  Sm63  1  -0.00463301  0.87320698  0.55369481  1
  Bi2+  Bi64  1  -0.03257415  0.14113713  0.28370401  1
  Bi2+  Bi65  1  0.02526501  0.06580899  0.79988205  1
  Bi2+  Bi66  1  0.00164602  0.36082469  0.25181400  1
  Bi2+  Bi67  1  -0.00528264  0.34256265  0.79220251  1
  Bi2+  Bi68  1  -0.00244527  0.56193365  0.28836670  1
  Bi2+  Bi69  1  -0.01163492  0.61410318  0.79958271  1
  Bi2+  Bi70  1  0.00693543  0.87932406  0.30192226  1
  Bi2+  Bi71  1  0.05868961  0.87280216  0.78198930  1
  Bi2+  Bi72  1  0.21338071  0.13856547  0.29942190  1
  Bi2+  Bi73  1  0.29340633  0.09302655  0.78376495  1
  Bi2+  Bi74  1  0.24819667  0.33039142  0.28210074  1
  Bi2+  Bi75  1  0.26295839  0.29552201  0.79314221  1
  Bi2+  Bi76  1  0.25350879  0.64722414  0.30180838  1
  Bi2+  Bi77  1  0.25769008  0.64780421  0.79516206  1
  Bi2+  Bi78  1  0.29146459  0.92379678  0.27084854  1
  Bi2+  Bi79  1  0.25218895  0.86173955  0.75874551  1
  Bi2+  Bi80  1  0.47255772  0.11081587  0.31831447  1
  Bi2+  Bi81  1  0.50225088  0.11081743  0.78756688  1
  Bi2+  Bi82  1  0.51193513  0.29873766  0.28528513  1
  Bi2+  Bi83  1  0.52388064  0.37221930  0.80491456  1
  Bi2+  Bi84  1  0.50982023  0.67375493  0.29542068  1
  Bi2+  Bi85  1  0.54262854  0.56545961  0.81810821  1
  Bi2+  Bi86  1  0.49650081  0.91902603  0.30374606  1
  Bi2+  Bi87  1  0.55918090  0.83285732  0.76211670  1
  Bi2+  Bi88  1  0.76948783  0.16760650  0.29512593  1
  Bi2+  Bi89  1  0.76131114  0.13850410  0.80679911  1
  Bi2+  Bi90  1  0.77501897  0.37185185  0.29334021  1
  Bi2+  Bi91  1  0.70591493  0.36468069  0.75596718  1
  Bi2+  Bi92  1  0.71609851  0.61028642  0.28779432  1
  Bi2+  Bi93  1  0.71511956  0.63419988  0.78019272  1
  Bi2+  Bi94  1  0.73417861  0.93518797  0.27627496  1
  Bi2+  Bi95  1  0.79137483  0.86793516  0.79871617  1
  Bi2+  Bi96  1  0.14240280  0.01355977  0.21427631  1
  Bi2+  Bi97  1  0.11877475  0.01535424  0.69790705  1
  Bi2+  Bi98  1  0.10538984  0.20943838  0.20576664  1
  Bi2+  Bi99  1  0.11661483  0.20978742  0.72994446  1
  Bi2+  Bi100  1  0.13407948  0.49148045  0.21467843  1
  Bi2+  Bi101  1  0.14255830  0.47372118  0.70444755  1
  Bi2+  Bi102  1  0.16466913  0.75791995  0.22549308  1
  Bi2+  Bi103  1  0.12803081  0.73959135  0.70081521  1
  Bi2+  Bi104  1  0.41613876  -0.00884642  0.19423294  1
  Bi2+  Bi105  1  0.38726958  -0.01812043  0.68781477  1
  Bi2+  Bi106  1  0.37414802  0.19162608  0.22910259  1
  Bi2+  Bi107  1  0.39894962  0.30751728  0.71006152  1
  Bi2+  Bi108  1  0.37717056  0.48875640  0.20161930  1
  Bi2+  Bi109  1  0.36882653  0.47649966  0.76715332  1
  Bi2+  Bi110  1  0.39340440  0.76359316  0.20437039  1
  Bi2+  Bi111  1  0.40480651  0.72492053  0.73506867  1
  Bi2+  Bi112  1  0.60325622  0.05036893  0.21665994  1
  Bi2+  Bi113  1  0.66268692  -0.00558358  0.74866551  1
  Bi2+  Bi114  1  0.66096233  0.24021936  0.20051551  1
  Bi2+  Bi115  1  0.60538288  0.22072946  0.70228864  1
  Bi2+  Bi116  1  0.62715101  0.42923011  0.22311323  1
  Bi2+  Bi117  1  0.60716448  0.51811287  0.70878211  1
  Bi2+  Bi118  1  0.60990558  0.80290406  0.22929585  1
  Bi2+  Bi119  1  0.62690969  0.70869546  0.68029889  1
  Bi2+  Bi120  1  0.87196452  0.01877793  0.21183854  1
  Bi2+  Bi121  1  0.92807072  -0.03142467  0.70839109  1
  Bi2+  Bi122  1  0.85405954  0.25305996  0.19670737  1
  Bi2+  Bi123  1  0.87469616  0.15673318  0.71752313  1
  Bi2+  Bi124  1  0.87870461  0.50186246  0.20467033  1
  Bi2+  Bi125  1  0.87379087  0.48306252  0.70491703  1
  Bi2+  Bi126  1  0.86055677  0.75302408  0.21383627  1
  Bi2+  Bi127  1  0.84683038  0.76281026  0.70716882  1
  S2-  S128  1  0.00403598  0.03764316  0.14443636  1
  S2-  S129  1  0.00829926  0.18399658  0.65347795  1
  S2-  S130  1  0.00842477  0.43645045  0.14387167  1
  S2-  S131  1  0.00100067  0.40595450  0.65838786  1
  S2-  S132  1  -0.09480145  0.63808957  0.14384140  1
  S2-  S133  1  0.02094981  0.59850556  0.69636116  1
  S2-  S134  1  0.02289369  0.80861390  0.18820267  1
  S2-  S135  1  -0.01209877  0.79354291  0.64179039  1
  S2-  S136  1  0.23809521  0.12376723  0.15764155  1
  S2-  S137  1  0.25868925  0.09707875  0.65829235  1
  S2-  S138  1  0.25822461  0.38822069  0.16151326  1
  S2-  S139  1  0.24677553  0.35960396  0.65942735  1
  S2-  S140  1  0.19813330  0.61840958  0.16478479  1
  S2-  S141  1  0.22571859  0.60687425  0.66441390  1
  S2-  S142  1  0.25927480  0.83558537  0.14758564  1
  S2-  S143  1  0.24816885  0.84569502  0.65360972  1
  S2-  S144  1  0.48713885  0.14280303  0.15118066  1
  S2-  S145  1  0.48714652  0.10888547  0.65754241  1
  S2-  S146  1  0.48723090  0.39737278  0.15814139  1
  S2-  S147  1  0.53143383  0.36608535  0.65276803  1
  S2-  S148  1  0.43995402  0.62757232  0.15526909  1
  S2-  S149  1  0.47033366  0.62746583  0.66104344  1
  S2-  S150  1  0.50707671  0.86172248  0.14641415  1
  S2-  S151  1  0.49232638  0.87909675  0.65208116  1
  S2-  S152  1  0.73849027  0.07114530  0.15180410  1
  S2-  S153  1  0.72923948  0.13347092  0.65745172  1
  S2-  S154  1  0.74222965  0.47425649  0.14496000  1
  S2-  S155  1  0.78229651  0.37335495  0.66017780  1
  S2-  S156  1  0.70480616  0.68817139  0.18083152  1
  S2-  S157  1  0.83064840  0.61769821  0.64530273  1
  S2-  S158  1  0.83144485  0.87336165  0.14666689  1
  S2-  S159  1  0.73582536  0.84360911  0.65113587  1
  S2-  S160  1  0.01253224  0.01877720  0.35595080  1
  S2-  S161  1  0.21177175  0.01860388  0.85328453  1
  S2-  S162  1  0.13238902  0.27912483  0.34689526  1
  S2-  S163  1  0.12213186  0.26740460  0.84977619  1
  S2-  S164  1  0.20515744  0.51575244  0.35382837  1
  S2-  S165  1  0.09961892  0.47759986  0.80532724  1
  S2-  S166  1  0.13908828  0.77997417  0.33782524  1
  S2-  S167  1  0.12018493  0.67573752  0.85938623  1
  S2-  S168  1  0.25038283  -0.00338530  0.35936206  1
  S2-  S169  1  0.41742485  -0.02097796  0.82093645  1
  S2-  S170  1  0.37226684  0.34169875  0.35291676  1
  S2-  S171  1  0.38463940  0.19764349  0.85480767  1
  S2-  S172  1  0.39564807  0.54543159  0.30131861  1
  S2-  S173  1  0.28776370  0.50723091  0.85937498  1
  S2-  S174  1  0.37797944  0.74902953  0.34389575  1
  S2-  S175  1  0.37725991  0.73665786  0.84298868  1
  S2-  S176  1  0.62919356  0.01016369  0.35020349  1
  S2-  S177  1  0.62604561  0.04218006  0.84871392  1
  S2-  S178  1  0.64681005  0.28233812  0.34775387  1
  S2-  S179  1  0.65520214  0.27160990  0.84392632  1
  S2-  S180  1  0.60214042  0.54240182  0.34765070  1
  S2-  S181  1  0.71876530  0.53387684  0.86230670  1
  S2-  S182  1  0.71594346  0.73844698  0.34587838  1
  S2-  S183  1  0.64606128  0.79361163  0.84569381  1
  S2-  S184  1  0.85679083  -0.09913720  0.34663256  1
  S2-  S185  1  0.86874178  0.01027157  0.84495339  1
  S2-  S186  1  0.89020111  0.26534237  0.34799539  1
  S2-  S187  1  0.88519305  0.25441010  0.84202227  1
  S2-  S188  1  0.84590961  0.51613770  0.33953295  1
  S2-  S189  1  0.91392000  0.48499622  0.83652189  1
  S2-  S190  1  0.93416131  0.71835826  0.30985374  1
  S2-  S191  1  0.88091091  0.73668716  0.84186075  1
  S2-  S192  1  -0.00170774  0.13107423  0.45638737  1
  S2-  S193  1  -0.00435469  0.13202278  0.95439854  1
  S2-  S194  1  -0.00255906  0.37788939  0.45434070  1
  S2-  S195  1  -0.00189599  0.38691777  0.94711969  1
  S2-  S196  1  -0.00528657  0.62975559  0.43817123  1
  S2-  S197  1  -0.00628229  0.62591214  0.95471733  1
  S2-  S198  1  -0.00320382  0.87265733  0.45035885  1
  S2-  S199  1  -0.00369653  0.87799298  0.94254874  1
  S2-  S200  1  0.24997075  0.13105511  0.45453474  1
  S2-  S201  1  0.24177707  0.13783129  0.95360860  1
  S2-  S202  1  0.24958869  0.38038734  0.45715881  1
  S2-  S203  1  0.24577410  0.37963707  0.95549382  1
  S2-  S204  1  0.25052736  0.62584493  0.45701798  1
  S2-  S205  1  0.24826471  0.63298524  0.96085115  1
  S2-  S206  1  0.24854999  0.87405502  0.45387066  1
  S2-  S207  1  0.24432350  0.87458175  0.94705446  1
  S2-  S208  1  0.49730568  0.12724217  0.45494243  1
  S2-  S209  1  0.49553072  0.12649371  0.95138726  1
  S2-  S210  1  0.49795266  0.38119142  0.45108344  1
  S2-  S211  1  0.49268941  0.38063265  0.95215815  1
  S2-  S212  1  0.49161908  0.61942946  0.45214417  1
  S2-  S213  1  0.49465426  0.63222974  0.95443792  1
  S2-  S214  1  0.49732636  0.87990760  0.44886432  1
  S2-  S215  1  0.49458780  0.88097730  0.94436751  1
  S2-  S216  1  0.74728055  0.12440376  0.45229695  1
  S2-  S217  1  0.74774825  0.12725789  0.95341732  1
  S2-  S218  1  0.74426086  0.37886509  0.45572449  1
  S2-  S219  1  0.74546904  0.37916842  0.95543093  1
  S2-  S220  1  0.74455290  0.62596550  0.45268246  1
  S2-  S221  1  0.74656232  0.63489032  0.96517340  1
  S2-  S222  1  0.74282021  0.87909917  0.44916843  1
  S2-  S223  1  0.74743373  0.88230133  0.95527306  1
  S2-  S224  1  0.11813812  0.00047988  0.04398827  1
  S2-  S225  1  0.11983172  -0.00022772  0.54485587  1
  S2-  S226  1  0.11914592  0.25460588  0.05252347  1
  S2-  S227  1  0.12221884  0.25350026  0.55066935  1
  S2-  S228  1  0.12558638  0.50539377  0.04482461  1
  S2-  S229  1  0.11308415  0.50766030  0.55030791  1
  S2-  S230  1  0.11462433  0.75716532  0.05207306  1
  S2-  S231  1  0.11805444  0.74925504  0.54400506  1
  S2-  S232  1  0.37243605  0.00380211  0.03871353  1
  S2-  S233  1  0.37334215  0.00279091  0.54108107  1
  S2-  S234  1  0.37162850  0.25366439  0.05074914  1
  S2-  S235  1  0.37186547  0.24983897  0.54846403  1
  S2-  S236  1  0.37168114  0.50542794  0.04830085  1
  S2-  S237  1  0.37134978  0.50258552  0.55733973  1
  S2-  S238  1  0.37433983  0.75627794  0.04452452  1
  S2-  S239  1  0.37343519  0.75412155  0.55048484  1
  S2-  S240  1  0.62143221  0.00313292  0.04796343  1
  S2-  S241  1  0.62173428  0.00113744  0.55226139  1
  S2-  S242  1  0.62092857  0.25301125  0.04915003  1
  S2-  S243  1  0.62263649  0.25007077  0.54954119  1
  S2-  S244  1  0.62016866  0.50559217  0.04764890  1
  S2-  S245  1  0.62387987  0.50385469  0.54893110  1
  S2-  S246  1  0.62369646  0.75716379  0.04987842  1
  S2-  S247  1  0.61935807  0.75410337  0.53744554  1
  S2-  S248  1  0.87251671  0.00404495  0.04539598  1
  S2-  S249  1  0.87270772  -0.00065336  0.54342396  1
  S2-  S250  1  0.87589023  0.25485562  0.04803150  1
  S2-  S251  1  0.87109257  0.25345153  0.55258547  1
  S2-  S252  1  0.87245436  0.50104623  0.03875792  1
  S2-  S253  1  0.87486862  0.50231471  0.54563810  1
  S2-  S254  1  0.87630073  0.75987188  0.04640473  1
  S2-  S255  1  0.87269682  0.75020177  0.53754403  1
