# generated using pymatgen
data_La6Ce7Pr13Nd19Sm19(BiS2)64
_symmetry_space_group_name_H-M   'P 1'
_cell_length_a   16.07622188
_cell_length_b   16.07820287
_cell_length_c   27.34869347
_cell_angle_alpha   89.88830930
_cell_angle_beta   90.08024659
_cell_angle_gamma   90.08180707
_symmetry_Int_Tables_number   1
_chemical_formula_structural   La6Ce7Pr13Nd19Sm19(BiS2)64
_chemical_formula_sum   'La6 Ce7 Pr13 Nd19 Sm19 Bi64 S128'
_cell_volume   7068.97404859
_cell_formula_units_Z   1
loop_
 _symmetry_equiv_pos_site_id
 _symmetry_equiv_pos_as_xyz
  1  'x, y, z'
loop_
 _atom_type_symbol
 _atom_type_oxidation_number
  La3+  3.0
  Ce3+  3.0
  Pr3+  3.0
  Nd3+  3.0
  Sm3+  3.0
  Bi2+  2.0
  S2-  -2.0
loop_
 _atom_site_type_symbol
 _atom_site_label
 _atom_site_symmetry_multiplicity
 _atom_site_fract_x
 _atom_site_fract_y
 _atom_site_fract_z
 _atom_site_occupancy
  La3+  La0  1  0.87552782  0.00188767  0.43482496  1
  La3+  La1  1  0.01011318  0.62357803  0.08870801  1
  La3+  La2  1  0.51079381  0.38339384  0.61608732  1
  La3+  La3  1  0.62232524  0.73900349  0.38711683  1
  La3+  La4  1  0.37655895  0.00554991  0.43332373  1
  La3+  La5  1  0.87936145  0.74970028  0.41252307  1
  Ce3+  Ce6  1  0.49990806  0.62791689  0.06295986  1
  Ce3+  Ce7  1  -0.00139870  0.38071721  0.56799508  1
  Ce3+  Ce8  1  0.50518116  0.37799544  0.06171187  1
  Ce3+  Ce9  1  0.50293299  0.87946796  0.56524089  1
  Ce3+  Ce10  1  0.12507691  0.25301637  0.93555217  1
  Ce3+  Ce11  1  0.12000805  0.75003269  0.44375871  1
  Ce3+  Ce12  1  0.49988153  0.62837049  0.56075706  1
  Pr3+  Pr13  1  0.75805428  0.87629891  0.56513734  1
  Pr3+  Pr14  1  0.50226665  0.12654547  0.56729560  1
  Pr3+  Pr15  1  0.12009752  0.49723184  0.43209747  1
  Pr3+  Pr16  1  0.49080480  0.88328949  0.08636526  1
  Pr3+  Pr17  1  0.12251328  0.00162024  0.43946749  1
  Pr3+  Pr18  1  0.62917754  0.75629481  0.94865410  1
  Pr3+  Pr19  1  0.25221630  0.12978172  0.55644639  1
  Pr3+  Pr20  1  0.62914327  -0.00148385  0.43726871  1
  Pr3+  Pr21  1  0.87981574  0.74927342  0.93597964  1
  Pr3+  Pr22  1  0.62865940  0.50352131  0.94199951  1
  Pr3+  Pr23  1  0.12729917  0.50342955  0.93714315  1
  Pr3+  Pr24  1  0.74846590  0.62968870  0.56053273  1
  Pr3+  Pr25  1  0.75863728  0.88283084  0.07747157  1
  Nd3+  Nd26  1  0.88445845  0.25141237  0.93087194  1
  Nd3+  Nd27  1  0.00311748  0.12553888  0.05981119  1
  Nd3+  Nd28  1  0.11824142  0.00279656  0.92286224  1
  Nd3+  Nd29  1  0.75514701  0.12585339  0.05848311  1
  Nd3+  Nd30  1  0.25287537  0.12447517  0.04884757  1
  Nd3+  Nd31  1  0.87304039  -0.00587125  0.92724393  1
  Nd3+  Nd32  1  0.00369129  0.88282184  0.06533033  1
  Nd3+  Nd33  1  0.00334574  0.62581034  0.57938046  1
  Nd3+  Nd34  1  0.75604285  0.37792623  0.05464906  1
  Nd3+  Nd35  1  0.50299839  0.12667525  0.06474720  1
  Nd3+  Nd36  1  0.00502558  0.37639417  0.06329160  1
  Nd3+  Nd37  1  0.25239906  0.37692489  0.05215804  1
  Nd3+  Nd38  1  0.38108362  0.50476299  0.43890892  1
  Nd3+  Nd39  1  0.00587703  0.87941846  0.57478573  1
  Nd3+  Nd40  1  0.26059575  0.63023994  0.06500313  1
  Nd3+  Nd41  1  0.75195682  0.12977293  0.56127062  1
  Nd3+  Nd42  1  0.12609157  0.74900494  0.93688788  1
  Nd3+  Nd43  1  0.37867527  0.75405382  0.44109111  1
  Nd3+  Nd44  1  0.62431770  0.00259907  0.93706002  1
  Sm3+  Sm45  1  0.24671054  0.87590908  0.56214773  1
  Sm3+  Sm46  1  0.87444815  0.50653608  0.44913183  1
  Sm3+  Sm47  1  0.87494104  0.25330091  0.43377685  1
  Sm3+  Sm48  1  0.37966028  0.50245666  0.94011527  1
  Sm3+  Sm49  1  0.63065312  0.25230574  0.94316298  1
  Sm3+  Sm50  1  0.25666392  0.38086065  0.56199610  1
  Sm3+  Sm51  1  0.00092742  0.13104039  0.55801596  1
  Sm3+  Sm52  1  0.12552148  0.25805358  0.44777207  1
  Sm3+  Sm53  1  0.38108766  0.00180560  0.93222719  1
  Sm3+  Sm54  1  0.62471154  0.24848726  0.43590741  1
  Sm3+  Sm55  1  0.37968047  0.75205596  0.94034715  1
  Sm3+  Sm56  1  0.37967771  0.25214707  0.94399057  1
  Sm3+  Sm57  1  0.62663447  0.50309112  0.44394932  1
  Sm3+  Sm58  1  0.88007608  0.50994580  0.94208603  1
  Sm3+  Sm59  1  0.25242387  0.87925767  0.04413215  1
  Sm3+  Sm60  1  0.74634962  0.37524374  0.55418435  1
  Sm3+  Sm61  1  0.37823756  0.25706348  0.44542645  1
  Sm3+  Sm62  1  0.25041765  0.62419096  0.54837378  1
  Sm3+  Sm63  1  0.75447544  0.63245936  0.06434557  1
  Bi2+  Bi64  1  -0.00824973  0.13151657  0.28262567  1
  Bi2+  Bi65  1  -0.04150985  0.16866832  0.77889270  1
  Bi2+  Bi66  1  -0.03569136  0.33095549  0.30042039  1
  Bi2+  Bi67  1  0.06336824  0.41290355  0.80825140  1
  Bi2+  Bi68  1  -0.00334405  0.61830276  0.29090324  1
  Bi2+  Bi69  1  0.00517411  0.65697104  0.78173141  1
  Bi2+  Bi70  1  0.01422491  0.88151118  0.29131725  1
  Bi2+  Bi71  1  0.02211266  0.91006941  0.79540667  1
  Bi2+  Bi72  1  0.19527966  0.11164434  0.26570376  1
  Bi2+  Bi73  1  0.19700251  0.15745376  0.78204738  1
  Bi2+  Bi74  1  0.24303642  0.29807577  0.28818234  1
  Bi2+  Bi75  1  0.25248151  0.34609539  0.78772999  1
  Bi2+  Bi76  1  0.25688862  0.61828681  0.28813065  1
  Bi2+  Bi77  1  0.24995177  0.61821066  0.77963813  1
  Bi2+  Bi78  1  0.23335683  0.81675880  0.29174725  1
  Bi2+  Bi79  1  0.29920838  0.87983592  0.78419321  1
  Bi2+  Bi80  1  0.47206207  0.12199926  0.29803474  1
  Bi2+  Bi81  1  0.47061530  0.12932273  0.79299860  1
  Bi2+  Bi82  1  0.55573811  0.32359649  0.29658773  1
  Bi2+  Bi83  1  0.51499183  0.37936393  0.82109364  1
  Bi2+  Bi84  1  0.47020566  0.59313249  0.29247762  1
  Bi2+  Bi85  1  0.45726479  0.63971270  0.77834710  1
  Bi2+  Bi86  1  0.49454218  0.86866627  0.28350630  1
  Bi2+  Bi87  1  0.51108210  0.87836647  0.78512276  1
  Bi2+  Bi88  1  0.74449974  0.13162575  0.29266533  1
  Bi2+  Bi89  1  0.69670730  0.10880731  0.78995894  1
  Bi2+  Bi90  1  0.76067505  0.32120553  0.32338874  1
  Bi2+  Bi91  1  0.79945185  0.34829989  0.77746222  1
  Bi2+  Bi92  1  0.74831972  0.50910211  0.29251389  1
  Bi2+  Bi93  1  0.74873311  0.61457460  0.79809770  1
  Bi2+  Bi94  1  0.74672516  0.88122462  0.28430128  1
  Bi2+  Bi95  1  0.75849114  0.86234367  0.79255196  1
  Bi2+  Bi96  1  0.14053310  -0.05399482  0.20778971  1
  Bi2+  Bi97  1  0.14068687  0.02793977  0.70269768  1
  Bi2+  Bi98  1  0.08728411  0.24929485  0.20280998  1
  Bi2+  Bi99  1  0.10503126  0.28015872  0.70736760  1
  Bi2+  Bi100  1  0.13311647  0.48323005  0.20974583  1
  Bi2+  Bi101  1  0.15159019  0.47847888  0.70848427  1
  Bi2+  Bi102  1  0.11766972  0.75079380  0.20692757  1
  Bi2+  Bi103  1  0.23520164  0.76070295  0.69921944  1
  Bi2+  Bi104  1  0.34632138  0.01096576  0.20014010  1
  Bi2+  Bi105  1  0.38064876  0.00071636  0.71207391  1
  Bi2+  Bi106  1  0.43382165  0.25299848  0.21164623  1
  Bi2+  Bi107  1  0.36732297  0.23212259  0.71532900  1
  Bi2+  Bi108  1  0.32635337  0.43158155  0.21966163  1
  Bi2+  Bi109  1  0.36114097  0.52483757  0.70373327  1
  Bi2+  Bi110  1  0.33940199  0.73950048  0.20257573  1
  Bi2+  Bi111  1  0.42630340  0.78984308  0.68513076  1
  Bi2+  Bi112  1  0.62607714  0.06430466  0.21538499  1
  Bi2+  Bi113  1  0.62754956  -0.01781071  0.71426714  1
  Bi2+  Bi114  1  0.63176728  0.25652080  0.19739845  1
  Bi2+  Bi115  1  0.64578724  0.25369608  0.71466108  1
  Bi2+  Bi116  1  0.58936423  0.47719578  0.22597036  1
  Bi2+  Bi117  1  0.66079487  0.51611623  0.71213877  1
  Bi2+  Bi118  1  0.60042409  0.68936945  0.18483490  1
  Bi2+  Bi119  1  0.60928654  0.73607853  0.72310324  1
  Bi2+  Bi120  1  0.89443236  0.00560146  0.19695811  1
  Bi2+  Bi121  1  0.86723638  0.03789340  0.71184800  1
  Bi2+  Bi122  1  0.89718528  0.22771785  0.19357514  1
  Bi2+  Bi123  1  0.91285536  0.30378358  0.68889840  1
  Bi2+  Bi124  1  0.87395058  0.42992562  0.21802985  1
  Bi2+  Bi125  1  0.91962264  0.48840628  0.73854650  1
  Bi2+  Bi126  1  0.82568982  0.74377270  0.21251879  1
  Bi2+  Bi127  1  0.84861629  0.75612216  0.69342475  1
  S2-  S128  1  0.03444365  0.01798436  0.13581303  1
  S2-  S129  1  0.01003652  0.08092299  0.65247601  1
  S2-  S130  1  -0.00106506  0.46939108  0.14647794  1
  S2-  S131  1  0.01108890  0.49015074  0.64390591  1
  S2-  S132  1  -0.03564260  0.66705234  0.18822038  1
  S2-  S133  1  -0.00181692  0.70044454  0.67530799  1
  S2-  S134  1  -0.10282914  0.86177834  0.14616101  1
  S2-  S135  1  -0.11364718  0.89630547  0.64795946  1
  S2-  S136  1  0.27323658  0.12503251  0.14739367  1
  S2-  S137  1  0.27577686  0.11634129  0.65488289  1
  S2-  S138  1  0.21705811  0.37049764  0.14921606  1
  S2-  S139  1  0.34019914  0.37561030  0.64901291  1
  S2-  S140  1  0.16426834  0.61416311  0.14699470  1
  S2-  S141  1  0.23192826  0.60588636  0.64453384  1
  S2-  S142  1  0.30945871  0.88344660  0.13593137  1
  S2-  S143  1  0.14419518  0.88699775  0.64307998  1
  S2-  S144  1  0.49616875  0.02866817  0.14654682  1
  S2-  S145  1  0.51466166  0.21950052  0.65333068  1
  S2-  S146  1  0.46966926  0.40835154  0.15533163  1
  S2-  S147  1  0.53257012  0.38651761  0.72713090  1
  S2-  S148  1  0.39047607  0.62535709  0.13932216  1
  S2-  S149  1  0.51370943  0.55347315  0.64895810  1
  S2-  S150  1  0.48868328  0.82081832  0.18278253  1
  S2-  S151  1  0.50544206  0.99765055  0.64014303  1
  S2-  S152  1  0.75683761  0.03596710  0.14355594  1
  S2-  S153  1  0.75604838  0.12901919  0.66137772  1
  S2-  S154  1  0.76336333  0.34907192  0.15212952  1
  S2-  S155  1  0.68863525  0.37829766  0.64619569  1
  S2-  S156  1  0.75639179  0.61145310  0.16197962  1
  S2-  S157  1  0.77043959  0.60617936  0.66084100  1
  S2-  S158  1  0.69366162  0.82816614  0.16884277  1
  S2-  S159  1  0.68779732  0.84698877  0.66088503  1
  S2-  S160  1  0.10649112  0.01399782  0.34041584  1
  S2-  S161  1  0.18032627  -0.02565310  0.82930827  1
  S2-  S162  1  0.11486538  0.32306297  0.35836294  1
  S2-  S163  1  0.01895411  0.26563145  0.85915974  1
  S2-  S164  1  0.12268599  0.53984158  0.33329712  1
  S2-  S165  1  0.12369530  0.57807350  0.84570939  1
  S2-  S166  1  0.03453782  0.74804260  0.35799075  1
  S2-  S167  1  0.08079446  0.77573372  0.83988472  1
  S2-  S168  1  0.38630352  -0.01377757  0.33329063  1
  S2-  S169  1  0.50009191  0.00658780  0.86083799  1
  S2-  S170  1  0.36126136  0.21988455  0.34981956  1
  S2-  S171  1  0.38585057  0.26315539  0.84661684  1
  S2-  S172  1  0.36480437  0.49670919  0.33967821  1
  S2-  S173  1  0.40802035  0.50410649  0.84424133  1
  S2-  S174  1  0.44938897  0.74719175  0.35091711  1
  S2-  S175  1  0.38692244  0.75552828  0.84321934  1
  S2-  S176  1  0.62222045  -0.09247741  0.34900993  1
  S2-  S177  1  0.73413207  -0.00890728  0.85889816  1
  S2-  S178  1  0.61637383  0.12739506  0.36292996  1
  S2-  S179  1  0.59958765  0.22862027  0.84791425  1
  S2-  S180  1  0.61719124  0.56794860  0.35315040  1
  S2-  S181  1  0.65193374  0.48848077  0.84300966  1
  S2-  S182  1  0.60294001  0.74105416  0.27538411  1
  S2-  S183  1  0.66934962  0.74328817  0.85086979  1
  S2-  S184  1  0.88067660  -0.09198351  0.34830779  1
  S2-  S185  1  0.98562556  0.03667875  0.85247783  1
  S2-  S186  1  0.87586414  0.13202759  0.36099575  1
  S2-  S187  1  0.81765656  0.21551054  0.83977248  1
  S2-  S188  1  0.89423470  0.56333530  0.35716069  1
  S2-  S189  1  0.88561089  0.61623342  0.86129882  1
  S2-  S190  1  0.77541886  0.74102773  0.33060028  1
  S2-  S191  1  0.88342003  0.85559008  0.85296250  1
  S2-  S192  1  0.00520256  0.13458849  0.45473861  1
  S2-  S193  1  0.00341018  0.12820253  0.95668093  1
  S2-  S194  1  -0.00598462  0.37731877  0.45900239  1
  S2-  S195  1  -0.00033129  0.38410090  0.95815115  1
  S2-  S196  1  0.00091258  0.62322538  0.46522522  1
  S2-  S197  1  0.00657682  0.62670311  0.96218431  1
  S2-  S198  1  0.00130247  0.87629684  0.46187813  1
  S2-  S199  1  0.00687991  0.87471046  0.95723063  1
  S2-  S200  1  0.24736016  0.13275988  0.45015760  1
  S2-  S201  1  0.25476047  0.12640505  0.94166636  1
  S2-  S202  1  0.25390330  0.37989189  0.45555092  1
  S2-  S203  1  0.25463817  0.37696033  0.94578209  1
  S2-  S204  1  0.25085835  0.62716943  0.44430281  1
  S2-  S205  1  0.25720412  0.62761653  0.95324259  1
  S2-  S206  1  0.24853636  0.87629133  0.45379682  1
  S2-  S207  1  0.25549212  0.87744728  0.94132954  1
  S2-  S208  1  0.49702469  0.13063054  0.45971184  1
  S2-  S209  1  0.50265319  0.13274428  0.95872721  1
  S2-  S210  1  0.50413895  0.37710451  0.44081624  1
  S2-  S211  1  0.50377491  0.37554851  0.95537174  1
  S2-  S212  1  0.50397686  0.63004062  0.45551362  1
  S2-  S213  1  0.50187739  0.62760565  0.95416651  1
  S2-  S214  1  0.49803422  0.87984539  0.45791454  1
  S2-  S215  1  0.49881572  0.87572732  0.95590266  1
  S2-  S216  1  0.75198575  0.13247085  0.45774498  1
  S2-  S217  1  0.75291008  0.13052089  0.95435471  1
  S2-  S218  1  0.75097138  0.37810297  0.45050138  1
  S2-  S219  1  0.75799580  0.37806687  0.94868945  1
  S2-  S220  1  0.74929115  0.62880212  0.45397479  1
  S2-  S221  1  0.75169302  0.62635305  0.96018019  1
  S2-  S222  1  0.75403970  0.87113636  0.45635021  1
  S2-  S223  1  0.75314969  0.87476538  0.96651468  1
  S2-  S224  1  0.13188781  0.00133065  0.03118132  1
  S2-  S225  1  0.12468998  0.00698038  0.54428907  1
  S2-  S226  1  0.12732583  0.25068213  0.04277135  1
  S2-  S227  1  0.12662130  0.25713250  0.55306414  1
  S2-  S228  1  0.13091312  0.50152749  0.04261689  1
  S2-  S229  1  0.12928319  0.49870568  0.54061958  1
  S2-  S230  1  0.13094260  0.75585290  0.04637090  1
  S2-  S231  1  0.12661669  0.74813375  0.54864635  1
  S2-  S232  1  0.37898520  0.00359424  0.03524587  1
  S2-  S233  1  0.36868422  -0.00097027  0.54254659  1
  S2-  S234  1  0.37830324  0.25198936  0.04880945  1
  S2-  S235  1  0.37783430  0.25546361  0.54766771  1
  S2-  S236  1  0.37734629  0.49876180  0.04295051  1
  S2-  S237  1  0.37648794  0.50267272  0.54392979  1
  S2-  S238  1  0.38070428  0.75789029  0.04262147  1
  S2-  S239  1  0.36985681  0.75297277  0.54763761  1
  S2-  S240  1  0.62451791  0.00213953  0.04395466  1
  S2-  S241  1  0.63252409  0.00335107  0.54459294  1
  S2-  S242  1  0.62975970  0.25126948  0.04843463  1
  S2-  S243  1  0.62620368  0.25279121  0.54058289  1
  S2-  S244  1  0.63078450  0.50389716  0.05086262  1
  S2-  S245  1  0.62326454  0.49857899  0.54595044  1
  S2-  S246  1  0.62313517  0.75433636  0.05479939  1
  S2-  S247  1  0.62226906  0.75254461  0.55561846  1
  S2-  S248  1  0.88018198  0.00441047  0.03779847  1
  S2-  S249  1  0.87984282  0.00913594  0.54365343  1
  S2-  S250  1  0.88040905  0.25181810  0.04295134  1
  S2-  S251  1  0.87584777  0.25451405  0.54352683  1
  S2-  S252  1  0.87611141  0.50562016  0.04652929  1
  S2-  S253  1  0.87014480  0.49967103  0.55177286  1
  S2-  S254  1  0.88326512  0.74462593  0.04781379  1
  S2-  S255  1  0.88156285  0.74775682  0.55550949  1
