# generated using pymatgen
data_La6Ce7Pr13Nd19Sm19(BiS2)64
_symmetry_space_group_name_H-M   'P 1'
_cell_length_a   16.10625393
_cell_length_b   16.08613009
_cell_length_c   27.28726138
_cell_angle_alpha   89.73798172
_cell_angle_beta   89.89382870
_cell_angle_gamma   90.03362868
_symmetry_Int_Tables_number   1
_chemical_formula_structural   La6Ce7Pr13Nd19Sm19(BiS2)64
_chemical_formula_sum   'La6 Ce7 Pr13 Nd19 Sm19 Bi64 S128'
_cell_volume   7069.69544882
_cell_formula_units_Z   1
loop_
 _symmetry_equiv_pos_site_id
 _symmetry_equiv_pos_as_xyz
  1  'x, y, z'
loop_
 _atom_type_symbol
 _atom_type_oxidation_number
  La3+  3.0
  Ce3+  3.0
  Pr3+  3.0
  Nd3+  3.0
  Sm3+  3.0
  Bi2+  2.0
  S2-  -2.0
loop_
 _atom_site_type_symbol
 _atom_site_label
 _atom_site_symmetry_multiplicity
 _atom_site_fract_x
 _atom_site_fract_y
 _atom_site_fract_z
 _atom_site_occupancy
  La3+  La0  1  0.49675423  0.61176482  0.08836920  1
  La3+  La1  1  -0.00109052  0.12212720  0.60942797  1
  La3+  La2  1  0.62565381  -0.01628366  0.88546134  1
  La3+  La3  1  0.88025718  0.74056020  0.92332680  1
  La3+  La4  1  0.88492864  0.76102447  0.40798263  1
  La3+  La5  1  0.38602482  0.00983762  0.42511046  1
  Ce3+  Ce6  1  0.62515636  0.75529310  0.43173064  1
  Ce3+  Ce7  1  0.50717812  0.36919699  0.05843306  1
  Ce3+  Ce8  1  0.38186199  -0.00067557  0.92777308  1
  Ce3+  Ce9  1  0.25616081  0.87123583  0.05241464  1
  Ce3+  Ce10  1  0.63197930  0.50026334  0.94428777  1
  Ce3+  Ce11  1  0.00031652  0.62000058  0.06337670  1
  Ce3+  Ce12  1  0.00032979  0.87322143  0.56930593  1
  Pr3+  Pr13  1  0.00057035  0.63089061  0.56875299  1
  Pr3+  Pr14  1  0.00010121  0.86930936  0.06227216  1
  Pr3+  Pr15  1  0.00251261  0.37959854  0.56578938  1
  Pr3+  Pr16  1  0.38108613  0.24439703  0.93292198  1
  Pr3+  Pr17  1  0.38212364  0.49243120  0.93179501  1
  Pr3+  Pr18  1  0.25466983  0.61875144  0.05748963  1
  Pr3+  Pr19  1  0.88056699  -0.01163862  0.90895859  1
  Pr3+  Pr20  1  0.38175662  0.25322869  0.44064343  1
  Pr3+  Pr21  1  0.87874622  0.50671015  0.43865222  1
  Pr3+  Pr22  1  0.12749514  0.25574094  0.43902994  1
  Pr3+  Pr23  1  0.50815639  0.11785614  0.05233177  1
  Pr3+  Pr24  1  0.63340531  0.24494579  0.92646674  1
  Pr3+  Pr25  1  0.50431070  0.37577287  0.56904007  1
  Nd3+  Nd26  1  0.87917851  0.00460228  0.44205034  1
  Nd3+  Nd27  1  0.12778186  0.49458580  0.94742498  1
  Nd3+  Nd28  1  0.50040432  0.12008681  0.57309872  1
  Nd3+  Nd29  1  0.00379502  0.36587369  0.05808237  1
  Nd3+  Nd30  1  0.12674646  -0.00801073  0.93497024  1
  Nd3+  Nd31  1  0.12921047  0.74372605  0.93966776  1
  Nd3+  Nd32  1  0.62980461  0.73883388  0.94303628  1
  Nd3+  Nd33  1  0.50003679  0.87439676  0.56532403  1
  Nd3+  Nd34  1  0.87737628  0.25527887  0.44568207  1
  Nd3+  Nd35  1  0.37551990  0.76460403  0.42808025  1
  Nd3+  Nd36  1  0.12106613  0.24642880  0.93203618  1
  Nd3+  Nd37  1  0.75424968  0.11339628  0.04761266  1
  Nd3+  Nd38  1  0.75396377  0.36618305  0.06598612  1
  Nd3+  Nd39  1  0.25485060  0.11811970  0.05383138  1
  Nd3+  Nd40  1  0.25541150  0.62978377  0.55508222  1
  Nd3+  Nd41  1  0.25477013  0.36550093  0.05749667  1
  Nd3+  Nd42  1  0.50581459  0.86942797  0.06268091  1
  Nd3+  Nd43  1  0.76124597  0.61396456  0.08464038  1
  Nd3+  Nd44  1  0.24752460  0.12698162  0.56252214  1
  Sm3+  Sm45  1  0.62726583  0.50850416  0.44595322  1
  Sm3+  Sm46  1  0.75348561  0.12554543  0.56064781  1
  Sm3+  Sm47  1  0.38418967  0.74478293  0.94712791  1
  Sm3+  Sm48  1  0.75418461  0.87764003  0.55768227  1
  Sm3+  Sm49  1  0.00154561  0.11578858  0.05301151  1
  Sm3+  Sm50  1  0.87538460  0.24314383  0.94020854  1
  Sm3+  Sm51  1  0.12498865  0.75482341  0.44488322  1
  Sm3+  Sm52  1  0.75294355  0.37930027  0.55813234  1
  Sm3+  Sm53  1  0.62815704  0.00451729  0.44348368  1
  Sm3+  Sm54  1  0.25177525  0.88039017  0.55396455  1
  Sm3+  Sm55  1  0.75367160  0.63154792  0.55214938  1
  Sm3+  Sm56  1  0.12315680  0.00539424  0.44662729  1
  Sm3+  Sm57  1  0.75315261  0.86474386  0.05214473  1
  Sm3+  Sm58  1  0.62850568  0.25555799  0.44944759  1
  Sm3+  Sm59  1  0.38090415  0.50810764  0.44355954  1
  Sm3+  Sm60  1  0.50387198  0.63446159  0.56164974  1
  Sm3+  Sm61  1  0.12807560  0.50718060  0.44757858  1
  Sm3+  Sm62  1  0.87477782  0.49766179  0.94101145  1
  Sm3+  Sm63  1  0.25460941  0.37824784  0.55381116  1
  Bi2+  Bi64  1  -0.02125502  0.13652687  0.25685225  1
  Bi2+  Bi65  1  0.00650353  0.14112379  0.80859337  1
  Bi2+  Bi66  1  -0.01331885  0.33597661  0.27070380  1
  Bi2+  Bi67  1  -0.00193882  0.40425979  0.78978303  1
  Bi2+  Bi68  1  0.00011931  0.61372007  0.29668158  1
  Bi2+  Bi69  1  0.00501814  0.59892507  0.79789309  1
  Bi2+  Bi70  1  0.02163622  0.88281122  0.29316901  1
  Bi2+  Bi71  1  -0.00074969  0.85218483  0.78651712  1
  Bi2+  Bi72  1  0.25368780  0.15518244  0.28202403  1
  Bi2+  Bi73  1  0.26535414  0.15299294  0.76835880  1
  Bi2+  Bi74  1  0.26019322  0.35279419  0.29531935  1
  Bi2+  Bi75  1  0.26728730  0.43237538  0.78637415  1
  Bi2+  Bi76  1  0.25848992  0.55737091  0.30000576  1
  Bi2+  Bi77  1  0.24462188  0.71264454  0.80250556  1
  Bi2+  Bi78  1  0.23148465  0.81105977  0.28719686  1
  Bi2+  Bi79  1  0.23307231  0.90804526  0.79599538  1
  Bi2+  Bi80  1  0.50823087  0.13338304  0.29374607  1
  Bi2+  Bi81  1  0.47725172  0.10454419  0.78384062  1
  Bi2+  Bi82  1  0.45968313  0.32893814  0.26938749  1
  Bi2+  Bi83  1  0.53505341  0.35923403  0.81352564  1
  Bi2+  Bi84  1  0.50959735  0.59790975  0.28945737  1
  Bi2+  Bi85  1  0.49803354  0.55299522  0.82017065  1
  Bi2+  Bi86  1  0.49489387  0.86206707  0.30293059  1
  Bi2+  Bi87  1  0.49021874  0.81403589  0.78545077  1
  Bi2+  Bi88  1  0.79482592  0.13246747  0.30680883  1
  Bi2+  Bi89  1  0.75627222  0.21905507  0.79201210  1
  Bi2+  Bi90  1  0.72075223  0.31893937  0.29205503  1
  Bi2+  Bi91  1  0.72733367  0.39399208  0.83834462  1
  Bi2+  Bi92  1  0.75381827  0.58942319  0.28411206  1
  Bi2+  Bi93  1  0.74475742  0.56755196  0.78385922  1
  Bi2+  Bi94  1  0.77552740  0.94496512  0.27602511  1
  Bi2+  Bi95  1  0.73200369  0.82339942  0.76937504  1
  Bi2+  Bi96  1  0.16853406  -0.01242045  0.25132148  1
  Bi2+  Bi97  1  0.12459944  -0.01955981  0.71379540  1
  Bi2+  Bi98  1  0.10530518  0.24776596  0.19407826  1
  Bi2+  Bi99  1  0.13256042  0.26527142  0.71023120  1
  Bi2+  Bi100  1  0.11104256  0.49172184  0.23177630  1
  Bi2+  Bi101  1  0.13565281  0.49912561  0.70924216  1
  Bi2+  Bi102  1  0.15300267  0.68156026  0.21487574  1
  Bi2+  Bi103  1  0.12478544  0.69920673  0.71091368  1
  Bi2+  Bi104  1  0.38313964  -0.01583928  0.19208234  1
  Bi2+  Bi105  1  0.35444033  -0.00425263  0.71600403  1
  Bi2+  Bi106  1  0.35838402  0.22871403  0.18751772  1
  Bi2+  Bi107  1  0.35441717  0.30436931  0.71470465  1
  Bi2+  Bi108  1  0.35524816  0.46534157  0.20708037  1
  Bi2+  Bi109  1  0.36204519  0.58365136  0.73872761  1
  Bi2+  Bi110  1  0.35312399  0.73699013  0.20767590  1
  Bi2+  Bi111  1  0.35103045  0.78588873  0.70206654  1
  Bi2+  Bi112  1  0.65916359  0.07401899  0.22576200  1
  Bi2+  Bi113  1  0.63597685  0.03430041  0.68832746  1
  Bi2+  Bi114  1  0.60054336  0.25202780  0.17674872  1
  Bi2+  Bi115  1  0.62369631  0.29297057  0.71805959  1
  Bi2+  Bi116  1  0.61442758  0.43274400  0.22073547  1
  Bi2+  Bi117  1  0.57574694  0.50007184  0.71680840  1
  Bi2+  Bi118  1  0.63015904  0.78944309  0.21343368  1
  Bi2+  Bi119  1  0.60139235  0.69668118  0.71426467  1
  Bi2+  Bi120  1  0.91147225  -0.01069268  0.19273233  1
  Bi2+  Bi121  1  0.85323640  0.00665640  0.71569713  1
  Bi2+  Bi122  1  0.79783424  0.24029985  0.19480114  1
  Bi2+  Bi123  1  0.86332170  0.34597181  0.71655870  1
  Bi2+  Bi124  1  0.88067725  0.47115474  0.20871241  1
  Bi2+  Bi125  1  0.95083437  0.50897823  0.67674596  1
  Bi2+  Bi126  1  0.86766325  0.75328461  0.20206908  1
  Bi2+  Bi127  1  0.86689183  0.67645872  0.71306823  1
  S2-  S128  1  0.02748185  0.10951959  0.15008199  1
  S2-  S129  1  -0.03518296  0.12241842  0.71541900  1
  S2-  S130  1  -0.01997124  0.35343647  0.15562328  1
  S2-  S131  1  0.00040797  0.28780791  0.65089666  1
  S2-  S132  1  -0.08405283  0.61490817  0.14872371  1
  S2-  S133  1  0.00107617  0.74317360  0.64657421  1
  S2-  S134  1  -0.00303528  0.84880221  0.16318314  1
  S2-  S135  1  -0.01422640  0.95925009  0.65458280  1
  S2-  S136  1  0.26322005  0.10200078  0.15261453  1
  S2-  S137  1  0.16266205  0.12583010  0.64993932  1
  S2-  S138  1  0.23874656  0.35395175  0.15617752  1
  S2-  S139  1  0.22993509  0.37112231  0.65042756  1
  S2-  S140  1  0.33457710  0.60223056  0.14510397  1
  S2-  S141  1  0.27461374  0.63970739  0.65264460  1
  S2-  S142  1  0.27951509  0.87129816  0.14891371  1
  S2-  S143  1  0.23912507  0.89372248  0.65154197  1
  S2-  S144  1  0.48119359  0.11614267  0.15255585  1
  S2-  S145  1  0.53710433  0.18493885  0.66550075  1
  S2-  S146  1  0.49817861  0.45760341  0.14348790  1
  S2-  S147  1  0.45451890  0.41734939  0.66201090  1
  S2-  S148  1  0.51140091  0.68022177  0.18598440  1
  S2-  S149  1  0.49361227  0.74561758  0.63613294  1
  S2-  S150  1  0.50992111  0.89742866  0.16319079  1
  S2-  S151  1  0.48618967  0.98443884  0.64277405  1
  S2-  S152  1  0.78238213  0.09242878  0.14599155  1
  S2-  S153  1  0.77579129  0.12676866  0.65803738  1
  S2-  S154  1  0.75358276  0.46438867  0.14827861  1
  S2-  S155  1  0.73586403  0.38949913  0.65493547  1
  S2-  S156  1  0.71898467  0.66388342  0.18389770  1
  S2-  S157  1  0.73654148  0.64816212  0.64938098  1
  S2-  S158  1  0.76094316  0.85784305  0.15245727  1
  S2-  S159  1  0.73721109  0.90469748  0.65565493  1
  S2-  S160  1  0.10689400  -0.00316789  0.34822680  1
  S2-  S161  1  0.03452147  -0.01635805  0.85056757  1
  S2-  S162  1  0.14051009  0.25410651  0.33888749  1
  S2-  S163  1  0.15187175  0.23070733  0.83479281  1
  S2-  S164  1  0.10736991  0.51300185  0.35122671  1
  S2-  S165  1  0.12846001  0.48752198  0.84866264  1
  S2-  S166  1  0.04223535  0.74804502  0.35906864  1
  S2-  S167  1  0.03419663  0.74353961  0.85619009  1
  S2-  S168  1  0.34940467  -0.10669330  0.35249515  1
  S2-  S169  1  0.46597905  -0.04253676  0.84349892  1
  S2-  S170  1  0.37539666  0.14968373  0.35944923  1
  S2-  S171  1  0.36799261  0.13262653  0.85475762  1
  S2-  S172  1  0.40637185  0.49666066  0.34744151  1
  S2-  S173  1  0.37198581  0.36773253  0.85842154  1
  S2-  S174  1  0.43243325  0.70917991  0.33831795  1
  S2-  S175  1  0.40485760  0.71036957  0.85158349  1
  S2-  S176  1  0.54083020  0.00406442  0.35845522  1
  S2-  S177  1  0.66745365  -0.02674867  0.77885780  1
  S2-  S178  1  0.59933111  0.24917243  0.35369073  1
  S2-  S179  1  0.61448678  0.14722473  0.84128554  1
  S2-  S180  1  0.62760780  0.52515068  0.34859780  1
  S2-  S181  1  0.64051469  0.60937435  0.86740264  1
  S2-  S182  1  0.62967301  0.78186017  0.33327294  1
  S2-  S183  1  0.62684317  0.81511036  0.85036970  1
  S2-  S184  1  0.88453343  -0.08252471  0.35521212  1
  S2-  S185  1  0.84426536  0.07984697  0.82221197  1
  S2-  S186  1  0.87733367  0.28527343  0.34835219  1
  S2-  S187  1  0.94210216  0.27915736  0.85174849  1
  S2-  S188  1  0.87239976  0.51443674  0.33809498  1
  S2-  S189  1  0.86658376  0.59892865  0.85875567  1
  S2-  S190  1  0.84211128  0.71764997  0.30796817  1
  S2-  S191  1  0.85363485  0.85066833  0.84134321  1
  S2-  S192  1  0.00058720  0.13096227  0.44428169  1
  S2-  S193  1  -0.00135185  0.11818169  0.94905014  1
  S2-  S194  1  0.00367426  0.38188691  0.45615673  1
  S2-  S195  1  -0.00050758  0.37315828  0.95394688  1
  S2-  S196  1  0.00266515  0.62920334  0.45979261  1
  S2-  S197  1  0.00477421  0.61693217  0.95926362  1
  S2-  S198  1  0.00283184  0.87906313  0.46045551  1
  S2-  S199  1  0.00263047  0.86793965  0.95584966  1
  S2-  S200  1  0.24871359  0.12858614  0.45634909  1
  S2-  S201  1  0.24573723  0.12112741  0.94945205  1
  S2-  S202  1  0.25591239  0.38330824  0.44930249  1
  S2-  S203  1  0.24783298  0.36663431  0.95289029  1
  S2-  S204  1  0.25359230  0.63163010  0.44850597  1
  S2-  S205  1  0.25583992  0.61924525  0.95052332  1
  S2-  S206  1  0.24375324  0.88114452  0.45170468  1
  S2-  S207  1  0.25595140  0.86761904  0.94520050  1
  S2-  S208  1  0.50903456  0.13196211  0.46537342  1
  S2-  S209  1  0.51283782  0.11461676  0.94811723  1
  S2-  S210  1  0.50466762  0.38183051  0.45935506  1
  S2-  S211  1  0.51079850  0.36873421  0.95391039  1
  S2-  S212  1  0.50218235  0.63066447  0.45685102  1
  S2-  S213  1  0.49927707  0.61777317  0.96604995  1
  S2-  S214  1  0.50538872  0.87863897  0.45819507  1
  S2-  S215  1  0.50551867  0.86729077  0.95614836  1
  S2-  S216  1  0.75127341  0.12957788  0.45449290  1
  S2-  S217  1  0.75695702  0.11545748  0.94263745  1
  S2-  S218  1  0.74997366  0.38158339  0.45305688  1
  S2-  S219  1  0.75763072  0.36962257  0.95962349  1
  S2-  S220  1  0.75459651  0.63366339  0.44683135  1
  S2-  S221  1  0.75844979  0.61972841  0.96929353  1
  S2-  S222  1  0.75109333  0.87964348  0.45150419  1
  S2-  S223  1  0.74970865  0.87299363  0.94889027  1
  S2-  S224  1  0.12746193  -0.00558317  0.04195174  1
  S2-  S225  1  0.12328290  0.00297669  0.54914105  1
  S2-  S226  1  0.12632862  0.24061616  0.04133682  1
  S2-  S227  1  0.12918986  0.25625699  0.54489763  1
  S2-  S228  1  0.12836163  0.49242043  0.05470281  1
  S2-  S229  1  0.13042323  0.50447029  0.55150547  1
  S2-  S230  1  0.12940976  0.74458302  0.04699875  1
  S2-  S231  1  0.13185336  0.75361552  0.54759046  1
  S2-  S232  1  0.38023836  -0.00492753  0.03835500  1
  S2-  S233  1  0.37216538  0.00410810  0.53977489  1
  S2-  S234  1  0.38011444  0.24370451  0.04153993  1
  S2-  S235  1  0.37691148  0.25138727  0.55022396  1
  S2-  S236  1  0.37567875  0.48849309  0.03905834  1
  S2-  S237  1  0.38037501  0.50471407  0.54847370  1
  S2-  S238  1  0.38068707  0.74474369  0.05053572  1
  S2-  S239  1  0.37354189  0.75550348  0.53644489  1
  S2-  S240  1  0.63184979  -0.00919821  0.05392817  1
  S2-  S241  1  0.63016133  0.00218172  0.54634627  1
  S2-  S242  1  0.63379967  0.24369414  0.03854239  1
  S2-  S243  1  0.63107244  0.25248309  0.55316225  1
  S2-  S244  1  0.63157500  0.49568846  0.04930772  1
  S2-  S245  1  0.62649529  0.50700820  0.55107772  1
  S2-  S246  1  0.62788845  0.74050457  0.05478020  1
  S2-  S247  1  0.63092993  0.75375930  0.54032875  1
  S2-  S248  1  0.87913655  -0.00845436  0.04059173  1
  S2-  S249  1  0.87667465  0.00606473  0.54734372  1
  S2-  S250  1  0.87956541  0.24126341  0.04548622  1
  S2-  S251  1  0.87443791  0.25172580  0.55120466  1
  S2-  S252  1  0.88119446  0.49034590  0.04518777  1
  S2-  S253  1  0.87479167  0.50407299  0.54591010  1
  S2-  S254  1  0.87740898  0.74425157  0.04503902  1
  S2-  S255  1  0.87325437  0.75400230  0.54503239  1
