# generated using pymatgen
data_La6Ce7Pr13Nd19Sm19(BiS2)64
_symmetry_space_group_name_H-M   'P 1'
_cell_length_a   16.01699368
_cell_length_b   16.09822106
_cell_length_c   27.17221705
_cell_angle_alpha   90.14760553
_cell_angle_beta   89.87915926
_cell_angle_gamma   89.93744115
_symmetry_Int_Tables_number   1
_chemical_formula_structural   La6Ce7Pr13Nd19Sm19(BiS2)64
_chemical_formula_sum   'La6 Ce7 Pr13 Nd19 Sm19 Bi64 S128'
_cell_volume   7006.18010652
_cell_formula_units_Z   1
loop_
 _symmetry_equiv_pos_site_id
 _symmetry_equiv_pos_as_xyz
  1  'x, y, z'
loop_
 _atom_type_symbol
 _atom_type_oxidation_number
  La3+  3.0
  Ce3+  3.0
  Pr3+  3.0
  Nd3+  3.0
  Sm3+  3.0
  Bi2+  2.0
  S2-  -2.0
loop_
 _atom_site_type_symbol
 _atom_site_label
 _atom_site_symmetry_multiplicity
 _atom_site_fract_x
 _atom_site_fract_y
 _atom_site_fract_z
 _atom_site_occupancy
  La3+  La0  1  0.12294020  -0.00952884  0.41980369  1
  La3+  La1  1  0.25906540  0.63441007  0.07341528  1
  La3+  La2  1  -0.00676479  0.11605874  0.59885346  1
  La3+  La3  1  0.36796143  0.49400289  0.39546015  1
  La3+  La4  1  0.26972495  0.14060569  0.08189166  1
  La3+  La5  1  0.11537762  0.73382110  0.41984881  1
  Ce3+  Ce6  1  -0.00375802  0.61595133  0.56165250  1
  Ce3+  Ce7  1  0.64223305  0.51127352  0.93351296  1
  Ce3+  Ce8  1  0.01648310  0.13919183  0.06088501  1
  Ce3+  Ce9  1  0.87587849  0.23804334  0.43509561  1
  Ce3+  Ce10  1  0.75939374  0.13865467  0.06336910  1
  Ce3+  Ce11  1  -0.00501393  0.36265407  0.56636807  1
  Ce3+  Ce12  1  0.89375344  0.26342282  0.93073892  1
  Pr3+  Pr13  1  0.38946751  0.01152725  0.93724957  1
  Pr3+  Pr14  1  0.48964440  0.11400905  0.56640215  1
  Pr3+  Pr15  1  0.13689417  0.51889612  0.92974147  1
  Pr3+  Pr16  1  0.87342469  0.48638984  0.43755664  1
  Pr3+  Pr17  1  0.74556566  0.61238522  0.56675949  1
  Pr3+  Pr18  1  0.51173012  0.38944013  0.05106821  1
  Pr3+  Pr19  1  0.01377971  0.38644594  0.05678699  1
  Pr3+  Pr20  1  0.01136571  0.63594397  0.07012488  1
  Pr3+  Pr21  1  0.38739355  0.75956070  0.93030995  1
  Pr3+  Pr22  1  0.14094445  0.01279154  0.93850320  1
  Pr3+  Pr23  1  0.76466702  0.88532517  0.05940760  1
  Pr3+  Pr24  1  0.12385259  0.23837323  0.42490913  1
  Pr3+  Pr25  1  0.61957517  0.48558242  0.43928321  1
  Nd3+  Nd26  1  0.62203506  0.73547287  0.43893979  1
  Nd3+  Nd27  1  0.86913543  0.73753912  0.43702654  1
  Nd3+  Nd28  1  0.51178981  0.63559728  0.05701317  1
  Nd3+  Nd29  1  0.74696203  0.86754390  0.56248795  1
  Nd3+  Nd30  1  0.26486522  0.38729926  0.06179517  1
  Nd3+  Nd31  1  0.76651710  0.63391809  0.06658422  1
  Nd3+  Nd32  1  0.89199467  0.51939804  0.92065464  1
  Nd3+  Nd33  1  0.23805800  0.36128065  0.55682606  1
  Nd3+  Nd34  1  0.61770266  0.24010649  0.43553287  1
  Nd3+  Nd35  1  0.88843119  0.01367898  0.94212779  1
  Nd3+  Nd36  1  0.49425723  0.60662118  0.57169182  1
  Nd3+  Nd37  1  0.63975674  0.01043682  0.94207925  1
  Nd3+  Nd38  1  0.38850944  0.25506220  0.92701466  1
  Nd3+  Nd39  1  0.87458796  -0.01211222  0.43061707  1
  Nd3+  Nd40  1  0.51629376  0.14134153  0.06653697  1
  Nd3+  Nd41  1  0.14157009  0.25804047  0.92743173  1
  Nd3+  Nd42  1  0.74840686  0.35956721  0.56647184  1
  Nd3+  Nd43  1  0.61875895  -0.01198230  0.44649121  1
  Nd3+  Nd44  1  0.37037233  -0.01129178  0.42703482  1
  Sm3+  Sm45  1  0.74694944  0.11575737  0.55445247  1
  Sm3+  Sm46  1  0.76478023  0.38887981  0.05154659  1
  Sm3+  Sm47  1  0.11743475  0.48484239  0.43693909  1
  Sm3+  Sm48  1  0.01631990  0.88952722  0.06017966  1
  Sm3+  Sm49  1  0.26566483  0.88799626  0.06320097  1
  Sm3+  Sm50  1  0.89003419  0.76003183  0.94122768  1
  Sm3+  Sm51  1  0.13922757  0.76208149  0.94408698  1
  Sm3+  Sm52  1  0.48270584  0.36355916  0.56126220  1
  Sm3+  Sm53  1  0.51200582  0.88445835  0.05611702  1
  Sm3+  Sm54  1  -0.00261483  0.87053050  0.55621267  1
  Sm3+  Sm55  1  0.37438770  0.23804688  0.42489119  1
  Sm3+  Sm56  1  0.24318016  0.61459417  0.55663729  1
  Sm3+  Sm57  1  0.24467167  0.11243076  0.55741387  1
  Sm3+  Sm58  1  0.49306462  0.86120910  0.55842951  1
  Sm3+  Sm59  1  0.24292272  0.86759885  0.55174610  1
  Sm3+  Sm60  1  0.64107675  0.25914769  0.93528027  1
  Sm3+  Sm61  1  0.64108618  0.75835585  0.94473439  1
  Sm3+  Sm62  1  0.37158527  0.73233755  0.44425249  1
  Sm3+  Sm63  1  0.38220492  0.51655377  0.92766844  1
  Bi2+  Bi64  1  -0.01428033  0.11400965  0.29694343  1
  Bi2+  Bi65  1  -0.02131030  0.15152260  0.80102553  1
  Bi2+  Bi66  1  -0.04506529  0.37582223  0.28304913  1
  Bi2+  Bi67  1  -0.06493402  0.39779907  0.78557090  1
  Bi2+  Bi68  1  -0.00742037  0.59565123  0.27962083  1
  Bi2+  Bi69  1  0.00669300  0.63865486  0.78865505  1
  Bi2+  Bi70  1  -0.08073526  0.84519307  0.28338454  1
  Bi2+  Bi71  1  0.02385406  0.87909522  0.80403072  1
  Bi2+  Bi72  1  0.26904880  0.11499348  0.29165980  1
  Bi2+  Bi73  1  0.26185875  0.12585345  0.79802421  1
  Bi2+  Bi74  1  0.21233739  0.37392944  0.27773002  1
  Bi2+  Bi75  1  0.22504317  0.38518958  0.77551554  1
  Bi2+  Bi76  1  0.24231185  0.62597772  0.28294755  1
  Bi2+  Bi77  1  0.25957477  0.62585698  0.79438423  1
  Bi2+  Bi78  1  0.26458576  0.86879514  0.26391826  1
  Bi2+  Bi79  1  0.21813592  0.90911869  0.82712408  1
  Bi2+  Bi80  1  0.53918257  0.13685887  0.29244407  1
  Bi2+  Bi81  1  0.52776750  0.12531937  0.78364809  1
  Bi2+  Bi82  1  0.58500340  0.39525338  0.28911558  1
  Bi2+  Bi83  1  0.42950425  0.39504144  0.77952586  1
  Bi2+  Bi84  1  0.57663666  0.67037032  0.30275454  1
  Bi2+  Bi85  1  0.48618214  0.61152594  0.76174900  1
  Bi2+  Bi86  1  0.50439835  0.86013145  0.30622784  1
  Bi2+  Bi87  1  0.41055859  0.87516136  0.80928441  1
  Bi2+  Bi88  1  0.74668784  0.20332008  0.32163707  1
  Bi2+  Bi89  1  0.74229684  0.10303631  0.78276169  1
  Bi2+  Bi90  1  0.76016739  0.40429293  0.33740079  1
  Bi2+  Bi91  1  0.62993834  0.34825966  0.76283913  1
  Bi2+  Bi92  1  0.78001414  0.59511300  0.29554808  1
  Bi2+  Bi93  1  0.73323754  0.61726689  0.80620483  1
  Bi2+  Bi94  1  0.72987618  0.88529637  0.31163491  1
  Bi2+  Bi95  1  0.73706388  0.88508252  0.80031097  1
  Bi2+  Bi96  1  0.10183350  -0.02346478  0.20051731  1
  Bi2+  Bi97  1  0.12814266  -0.01988401  0.71085251  1
  Bi2+  Bi98  1  0.12095084  0.23195914  0.19721157  1
  Bi2+  Bi99  1  0.14368827  0.24230843  0.71135793  1
  Bi2+  Bi100  1  0.13301599  0.49871054  0.20359253  1
  Bi2+  Bi101  1  0.11589050  0.50239584  0.70557526  1
  Bi2+  Bi102  1  0.05314358  0.75212373  0.21750936  1
  Bi2+  Bi103  1  0.07202678  0.77275960  0.71056822  1
  Bi2+  Bi104  1  0.44752571  -0.00718505  0.22124206  1
  Bi2+  Bi105  1  0.37558289  -0.01335227  0.70731651  1
  Bi2+  Bi106  1  0.39767015  0.25834785  0.20775340  1
  Bi2+  Bi107  1  0.38499170  0.23764151  0.71268317  1
  Bi2+  Bi108  1  0.41254041  0.49338582  0.20416544  1
  Bi2+  Bi109  1  0.36005827  0.49047769  0.68870671  1
  Bi2+  Bi110  1  0.40412249  0.71615618  0.24898616  1
  Bi2+  Bi111  1  0.27328974  0.78804437  0.73623743  1
  Bi2+  Bi112  1  0.63971378  0.01408593  0.20755366  1
  Bi2+  Bi113  1  0.64405264  -0.02914649  0.71104580  1
  Bi2+  Bi114  1  0.66363512  0.26386131  0.21611908  1
  Bi2+  Bi115  1  0.57454525  0.21315787  0.67634755  1
  Bi2+  Bi116  1  0.66185612  0.53809227  0.20619639  1
  Bi2+  Bi117  1  0.64035349  0.51492140  0.70449186  1
  Bi2+  Bi118  1  0.60192675  0.79417836  0.20561787  1
  Bi2+  Bi119  1  0.54024323  0.79323414  0.73135517  1
  Bi2+  Bi120  1  0.81689354  0.03956951  0.25638872  1
  Bi2+  Bi121  1  0.86765605  -0.00850982  0.71258370  1
  Bi2+  Bi122  1  0.85739228  0.23078448  0.22324137  1
  Bi2+  Bi123  1  0.76229166  0.25306142  0.69728855  1
  Bi2+  Bi124  1  0.85767792  0.48797052  0.20187031  1
  Bi2+  Bi125  1  0.84503668  0.50288636  0.70461526  1
  Bi2+  Bi126  1  0.79224983  0.74030590  0.20982922  1
  Bi2+  Bi127  1  0.87618158  0.79472909  0.73558066  1
  S2-  S128  1  0.00982079  0.11342187  0.15870591  1
  S2-  S129  1  -0.00954269  0.19260000  0.70249894  1
  S2-  S130  1  0.04538495  0.37670183  0.15729341  1
  S2-  S131  1  0.11826988  0.36730823  0.63908276  1
  S2-  S132  1  0.12788341  0.65183611  0.14750505  1
  S2-  S133  1  -0.02129507  0.57889281  0.65783907  1
  S2-  S134  1  -0.01917508  0.86730368  0.15555690  1
  S2-  S135  1  -0.00222188  0.95601502  0.64384777  1
  S2-  S136  1  0.21627541  0.08942172  0.18334049  1
  S2-  S137  1  0.15382447  0.10948321  0.64548836  1
  S2-  S138  1  0.26120862  0.28419186  0.14629870  1
  S2-  S139  1  0.35056124  0.34341938  0.63503889  1
  S2-  S140  1  0.28606745  0.50372638  0.14199709  1
  S2-  S141  1  0.22735543  0.59926939  0.65663506  1
  S2-  S142  1  0.22182716  0.87371021  0.15857047  1
  S2-  S143  1  0.25206504  0.89470269  0.65020666  1
  S2-  S144  1  0.41582638  0.12704208  0.14846791  1
  S2-  S145  1  0.36457125  0.10641203  0.63860388  1
  S2-  S146  1  0.48402842  0.35632803  0.15022336  1
  S2-  S147  1  0.51194478  0.47323650  0.64025357  1
  S2-  S148  1  0.52795411  0.59896841  0.15365120  1
  S2-  S149  1  0.47844751  0.69032418  0.66404079  1
  S2-  S150  1  0.47039033  0.86878730  0.15116035  1
  S2-  S151  1  0.49989812  0.92105153  0.65118595  1
  S2-  S152  1  0.64659344  0.14551054  0.13926263  1
  S2-  S153  1  0.82337827  0.10994367  0.64253890  1
  S2-  S154  1  0.73389875  0.39755690  0.14939505  1
  S2-  S155  1  0.86742561  0.36453622  0.64173863  1
  S2-  S156  1  0.88151165  0.63391707  0.14249872  1
  S2-  S157  1  0.74457284  0.63684791  0.66758147  1
  S2-  S158  1  0.74068429  0.88635781  0.15867338  1
  S2-  S159  1  0.76231149  0.86871629  0.66124503  1
  S2-  S160  1  0.25809553  -0.03842901  0.34425668  1
  S2-  S161  1  0.12722742  0.11175698  0.85398062  1
  S2-  S162  1  0.13062451  0.11770689  0.34445912  1
  S2-  S163  1  0.01820116  0.28685341  0.85231037  1
  S2-  S164  1  0.20532268  0.50121942  0.35024465  1
  S2-  S165  1  0.02094202  0.50185090  0.84763880  1
  S2-  S166  1  0.17206771  0.76558752  0.32248391  1
  S2-  S167  1  0.13321705  0.68076832  0.85731019  1
  S2-  S168  1  0.39768468  0.10660381  0.35267350  1
  S2-  S169  1  0.40255681  0.11636272  0.85647663  1
  S2-  S170  1  0.25826526  0.26588786  0.34739355  1
  S2-  S171  1  0.26574979  0.27142375  0.85318282  1
  S2-  S172  1  0.37371798  0.43129922  0.29124756  1
  S2-  S173  1  0.25892300  0.49547807  0.85667258  1
  S2-  S174  1  0.36524484  0.65974089  0.35420073  1
  S2-  S175  1  0.39958512  0.64541479  0.85342782  1
  S2-  S176  1  0.60554514  -0.00380038  0.34753446  1
  S2-  S177  1  0.62442385  0.00685139  0.84333512  1
  S2-  S178  1  0.51736217  0.27204183  0.35438260  1
  S2-  S179  1  0.57442662  0.25616818  0.84436967  1
  S2-  S180  1  0.53465855  0.52236036  0.35307400  1
  S2-  S181  1  0.60194220  0.53826424  0.83884938  1
  S2-  S182  1  0.74102460  0.73635112  0.36306445  1
  S2-  S183  1  0.65150264  0.75700058  0.84596219  1
  S2-  S184  1  0.98403922  -0.03579135  0.34974370  1
  S2-  S185  1  0.92304843  0.00001336  0.84477080  1
  S2-  S186  1  0.98313636  0.25927937  0.35588459  1
  S2-  S187  1  0.82599691  0.21309834  0.84277710  1
  S2-  S188  1  0.99282412  0.48866703  0.36001637  1
  S2-  S189  1  0.80551228  0.46434673  0.83554951  1
  S2-  S190  1  0.96994777  0.72450504  0.35395489  1
  S2-  S191  1  0.88030965  0.66987480  0.85747741  1
  S2-  S192  1  -0.00686154  0.11186186  0.44768160  1
  S2-  S193  1  0.01175675  0.13613232  0.95676212  1
  S2-  S194  1  -0.00283594  0.36274244  0.46096788  1
  S2-  S195  1  0.01211318  0.39109046  0.95322604  1
  S2-  S196  1  -0.00472134  0.61476948  0.45842804  1
  S2-  S197  1  0.01289085  0.64210616  0.96210311  1
  S2-  S198  1  -0.00397645  0.86027887  0.45427754  1
  S2-  S199  1  0.01357360  0.88548642  0.95403287  1
  S2-  S200  1  0.25036309  0.11361840  0.45214285  1
  S2-  S201  1  0.26547334  0.13354793  0.96132147  1
  S2-  S202  1  0.24893816  0.36995202  0.45124239  1
  S2-  S203  1  0.26481148  0.38578590  0.95668267  1
  S2-  S204  1  0.24248743  0.61561288  0.45353465  1
  S2-  S205  1  0.26402140  0.64143986  0.96117966  1
  S2-  S206  1  0.24674157  0.85422408  0.44816372  1
  S2-  S207  1  0.26530178  0.88435829  0.95716793  1
  S2-  S208  1  0.49925967  0.11373795  0.45857410  1
  S2-  S209  1  0.51952398  0.13642975  0.95838833  1
  S2-  S210  1  0.48842064  0.36965730  0.45680822  1
  S2-  S211  1  0.51084589  0.38916353  0.94344785  1
  S2-  S212  1  0.49773727  0.61674690  0.46314140  1
  S2-  S213  1  0.51649913  0.63716218  0.95247196  1
  S2-  S214  1  0.49532252  0.85931269  0.45251414  1
  S2-  S215  1  0.51570214  0.88230647  0.95042776  1
  S2-  S216  1  0.74495182  0.11156888  0.44997015  1
  S2-  S217  1  0.76206386  0.13612330  0.95630567  1
  S2-  S218  1  0.74605071  0.35981996  0.46003080  1
  S2-  S219  1  0.76351687  0.38346717  0.94747621  1
  S2-  S220  1  0.74570796  0.60990300  0.45941653  1
  S2-  S221  1  0.76373189  0.63727591  0.95935407  1
  S2-  S222  1  0.74621324  0.86682250  0.45738268  1
  S2-  S223  1  0.76515933  0.88384211  0.95156214  1
  S2-  S224  1  0.14170936  0.01087248  0.04845008  1
  S2-  S225  1  0.12196485  -0.01182341  0.53613123  1
  S2-  S226  1  0.13866113  0.26000868  0.04153866  1
  S2-  S227  1  0.11643837  0.23155717  0.54095608  1
  S2-  S228  1  0.13650975  0.51133349  0.04216499  1
  S2-  S229  1  0.11888335  0.49436076  0.54206738  1
  S2-  S230  1  0.13825562  0.76809004  0.04715819  1
  S2-  S231  1  0.11981183  0.74310321  0.54712162  1
  S2-  S232  1  0.39013146  0.00745014  0.04528143  1
  S2-  S233  1  0.37188126  -0.01703617  0.53563834  1
  S2-  S234  1  0.39141460  0.26119720  0.03729128  1
  S2-  S235  1  0.36796181  0.23518276  0.53319980  1
  S2-  S236  1  0.38920195  0.51477179  0.03524153  1
  S2-  S237  1  0.36363966  0.49471582  0.54691471  1
  S2-  S238  1  0.38661466  0.76073819  0.04490346  1
  S2-  S239  1  0.36751632  0.74082156  0.54969265  1
  S2-  S240  1  0.63564758  0.00658407  0.04727428  1
  S2-  S241  1  0.62043114  -0.00880145  0.55171576  1
  S2-  S242  1  0.64018513  0.26752899  0.03961164  1
  S2-  S243  1  0.61964530  0.24023812  0.54441617  1
  S2-  S244  1  0.64115792  0.51321894  0.04216159  1
  S2-  S245  1  0.62591533  0.48388090  0.54571088  1
  S2-  S246  1  0.63870796  0.75928201  0.05066610  1
  S2-  S247  1  0.62012566  0.74095413  0.54943821  1
  S2-  S248  1  0.88822363  0.01219040  0.05018900  1
  S2-  S249  1  0.86983894  -0.01000641  0.53905709  1
  S2-  S250  1  0.88525211  0.26156646  0.04791305  1
  S2-  S251  1  0.87328401  0.23301794  0.54244471  1
  S2-  S252  1  0.88658856  0.50979470  0.03932456  1
  S2-  S253  1  0.86992019  0.49113362  0.54427034  1
  S2-  S254  1  0.89091217  0.76510931  0.04502782  1
  S2-  S255  1  0.87124709  0.74323277  0.55100298  1
