# generated using pymatgen
data_La6Ce7Pr13Nd19Sm19(BiS2)64
_symmetry_space_group_name_H-M   'P 1'
_cell_length_a   16.06516912
_cell_length_b   16.05243747
_cell_length_c   27.49906826
_cell_angle_alpha   89.94230209
_cell_angle_beta   89.94375937
_cell_angle_gamma   90.02033495
_symmetry_Int_Tables_number   1
_chemical_formula_structural   La6Ce7Pr13Nd19Sm19(BiS2)64
_chemical_formula_sum   'La6 Ce7 Pr13 Nd19 Sm19 Bi64 S128'
_cell_volume   7091.59312844
_cell_formula_units_Z   1
loop_
 _symmetry_equiv_pos_site_id
 _symmetry_equiv_pos_as_xyz
  1  'x, y, z'
loop_
 _atom_type_symbol
 _atom_type_oxidation_number
  La3+  3.0
  Ce3+  3.0
  Pr3+  3.0
  Nd3+  3.0
  Sm3+  3.0
  Bi2+  2.0
  S2-  -2.0
loop_
 _atom_site_type_symbol
 _atom_site_label
 _atom_site_symmetry_multiplicity
 _atom_site_fract_x
 _atom_site_fract_y
 _atom_site_fract_z
 _atom_site_occupancy
  La3+  La0  1  0.00139836  0.62951359  0.56449025  1
  La3+  La1  1  0.12140243  0.49449650  0.88798865  1
  La3+  La2  1  0.74478853  0.87810202  0.58108740  1
  La3+  La3  1  0.87303822  0.78199568  0.38215958  1
  La3+  La4  1  0.62034855  0.48028978  0.93065939  1
  La3+  La5  1  0.86967629  0.23100438  0.94727114  1
  Ce3+  Ce6  1  -0.00862745  0.10087801  0.07203047  1
  Ce3+  Ce7  1  0.11422077  -0.02020963  0.94007803  1
  Ce3+  Ce8  1  0.87803969  0.51217263  0.43829804  1
  Ce3+  Ce9  1  0.37747842  0.75018168  0.42998550  1
  Ce3+  Ce10  1  0.87908661  0.25190373  0.44536937  1
  Ce3+  Ce11  1  0.25425855  0.37530932  0.56708319  1
  Ce3+  Ce12  1  0.87835809  0.48203114  0.95013772  1
  Pr3+  Pr13  1  0.13036042  0.50166162  0.43773387  1
  Pr3+  Pr14  1  0.73631971  0.60229807  0.07771872  1
  Pr3+  Pr15  1  0.24274372  0.10369846  0.06469418  1
  Pr3+  Pr16  1  0.25674337  0.12465575  0.55917616  1
  Pr3+  Pr17  1  0.50193506  0.10663018  0.06854285  1
  Pr3+  Pr18  1  0.24243602  0.85311659  0.06425742  1
  Pr3+  Pr19  1  0.86743417  0.72896812  0.94019929  1
  Pr3+  Pr20  1  0.12852828  0.74512459  0.42277672  1
  Pr3+  Pr21  1  0.36507008  0.22821359  0.94201608  1
  Pr3+  Pr22  1  0.37995633  0.00951191  0.41063078  1
  Pr3+  Pr23  1  0.36210353  0.72584228  0.94342648  1
  Pr3+  Pr24  1  0.25394092  0.63115261  0.56208942  1
  Pr3+  Pr25  1  0.73680033  0.85030994  0.06844132  1
  Nd3+  Nd26  1  0.61365355  -0.02896049  0.92287975  1
  Nd3+  Nd27  1  0.61714320  0.23059653  0.93143418  1
  Nd3+  Nd28  1  0.50346728  0.62777774  0.55799472  1
  Nd3+  Nd29  1  0.37140154  0.25927131  0.41620346  1
  Nd3+  Nd30  1  0.63139223  0.75103702  0.43986659  1
  Nd3+  Nd31  1  0.10795789  0.23056863  0.93411808  1
  Nd3+  Nd32  1  0.86276792  -0.02023832  0.94027065  1
  Nd3+  Nd33  1  0.49286852  0.60130578  0.05902222  1
  Nd3+  Nd34  1  0.50503687  0.37340109  0.56355269  1
  Nd3+  Nd35  1  0.36852138  -0.01723280  0.94153476  1
  Nd3+  Nd36  1  -0.01016677  0.85180859  0.06600778  1
  Nd3+  Nd37  1  -0.00324001  0.35702350  0.07460946  1
  Nd3+  Nd38  1  0.00343515  0.12397981  0.55772864  1
  Nd3+  Nd39  1  0.11453391  0.73751814  0.93500132  1
  Nd3+  Nd40  1  0.00174646  0.87310854  0.55750770  1
  Nd3+  Nd41  1  -0.00440515  0.60527442  0.07046396  1
  Nd3+  Nd42  1  0.63284232  -0.00115388  0.43794654  1
  Nd3+  Nd43  1  0.61876255  0.72283058  0.93201178  1
  Nd3+  Nd44  1  0.74946480  0.62486634  0.56539991  1
  Sm3+  Sm45  1  0.73915263  0.09617736  0.05983528  1
  Sm3+  Sm46  1  0.38046515  0.49790020  0.44654666  1
  Sm3+  Sm47  1  0.12822379  -0.00081755  0.44357806  1
  Sm3+  Sm48  1  0.25630481  0.87582691  0.54894792  1
  Sm3+  Sm49  1  0.13092089  0.24958383  0.44582688  1
  Sm3+  Sm50  1  0.23803731  0.35396908  0.05645983  1
  Sm3+  Sm51  1  0.62863497  0.25122925  0.44466938  1
  Sm3+  Sm52  1  0.75406299  0.12610694  0.55875957  1
  Sm3+  Sm53  1  0.87788331  -0.00036840  0.44710699  1
  Sm3+  Sm54  1  0.49213255  0.35494450  0.05415861  1
  Sm3+  Sm55  1  0.00388067  0.37752532  0.55517377  1
  Sm3+  Sm56  1  0.50388325  0.87712346  0.55289653  1
  Sm3+  Sm57  1  0.62841674  0.50024680  0.44227118  1
  Sm3+  Sm58  1  0.73989648  0.35706616  0.06390815  1
  Sm3+  Sm59  1  0.49434615  0.85397463  0.05386998  1
  Sm3+  Sm60  1  0.75447355  0.37644223  0.55431769  1
  Sm3+  Sm61  1  0.23832133  0.60288317  0.05692346  1
  Sm3+  Sm62  1  0.50171354  0.12612282  0.55094379  1
  Sm3+  Sm63  1  0.35895141  0.47744720  0.94142467  1
  Bi2+  Bi64  1  -0.00163247  0.16277246  0.29733048  1
  Bi2+  Bi65  1  0.08756275  0.09208978  0.82204208  1
  Bi2+  Bi66  1  0.05658320  0.43579873  0.30356187  1
  Bi2+  Bi67  1  -0.01832094  0.33577855  0.80224236  1
  Bi2+  Bi68  1  0.01339755  0.66036905  0.28386120  1
  Bi2+  Bi69  1  -0.01516945  0.60878265  0.79002077  1
  Bi2+  Bi70  1  0.00909038  0.96156697  0.29316841  1
  Bi2+  Bi71  1  0.02469287  0.90559029  0.78600631  1
  Bi2+  Bi72  1  0.25581805  0.12839614  0.29488118  1
  Bi2+  Bi73  1  0.28465491  0.05027748  0.82163907  1
  Bi2+  Bi74  1  0.24934013  0.38928340  0.29589374  1
  Bi2+  Bi75  1  0.22600347  0.23363791  0.78330090  1
  Bi2+  Bi76  1  0.27694666  0.61262492  0.29013614  1
  Bi2+  Bi77  1  0.26580266  0.65709044  0.78972151  1
  Bi2+  Bi78  1  0.23371214  0.85300408  0.27466303  1
  Bi2+  Bi79  1  0.26187950  0.88941135  0.75620581  1
  Bi2+  Bi80  1  0.51276839  0.23164885  0.27122488  1
  Bi2+  Bi81  1  0.46952407  0.15160744  0.81893951  1
  Bi2+  Bi82  1  0.51242778  0.47398217  0.30021410  1
  Bi2+  Bi83  1  0.50103480  0.37182750  0.79185700  1
  Bi2+  Bi84  1  0.46647460  0.66490553  0.31943432  1
  Bi2+  Bi85  1  0.51590938  0.62974343  0.78814713  1
  Bi2+  Bi86  1  0.50272733  0.84387569  0.27788953  1
  Bi2+  Bi87  1  0.48714603  0.84196882  0.79283479  1
  Bi2+  Bi88  1  0.70216883  0.14036093  0.30090221  1
  Bi2+  Bi89  1  0.69729753  0.19809168  0.80122649  1
  Bi2+  Bi90  1  0.78305178  0.36237902  0.29044189  1
  Bi2+  Bi91  1  0.77476119  0.38017309  0.78621564  1
  Bi2+  Bi92  1  0.75000932  0.62464093  0.29048163  1
  Bi2+  Bi93  1  0.72993642  0.59667104  0.75940884  1
  Bi2+  Bi94  1  0.71037020  0.91685248  0.29385267  1
  Bi2+  Bi95  1  0.77933244  0.84848662  0.80253962  1
  Bi2+  Bi96  1  0.09481924  0.04999966  0.20904569  1
  Bi2+  Bi97  1  0.12804110  0.01998611  0.71391052  1
  Bi2+  Bi98  1  0.09840855  0.28687279  0.22840558  1
  Bi2+  Bi99  1  0.05752024  0.21686517  0.72136614  1
  Bi2+  Bi100  1  0.14312971  0.50007872  0.19967373  1
  Bi2+  Bi101  1  0.13507320  0.48647924  0.68384624  1
  Bi2+  Bi102  1  0.12029890  0.77373340  0.20110902  1
  Bi2+  Bi103  1  0.15533421  0.73820000  0.69551227  1
  Bi2+  Bi104  1  0.34297121  0.00627643  0.21701159  1
  Bi2+  Bi105  1  0.40459790  0.00733893  0.70694981  1
  Bi2+  Bi106  1  0.37811414  0.32778418  0.21481170  1
  Bi2+  Bi107  1  0.36564507  0.20633670  0.70359770  1
  Bi2+  Bi108  1  0.39549033  0.52504742  0.20797229  1
  Bi2+  Bi109  1  0.37245754  0.50563951  0.76108182  1
  Bi2+  Bi110  1  0.38760443  0.72260949  0.21568259  1
  Bi2+  Bi111  1  0.43509716  0.81377988  0.68076739  1
  Bi2+  Bi112  1  0.60212681  0.00699507  0.19446415  1
  Bi2+  Bi113  1  0.57895312  0.01567293  0.76316085  1
  Bi2+  Bi114  1  0.67951386  0.26111477  0.20871270  1
  Bi2+  Bi115  1  0.56225344  0.24097988  0.71246038  1
  Bi2+  Bi116  1  0.61460798  0.47488155  0.20429910  1
  Bi2+  Bi117  1  0.60964923  0.47334114  0.70313543  1
  Bi2+  Bi118  1  0.62234070  0.74406631  0.20529529  1
  Bi2+  Bi119  1  0.61558761  0.74411382  0.71112229  1
  Bi2+  Bi120  1  0.85118452  0.09988222  0.23230719  1
  Bi2+  Bi121  1  0.85991275  0.03022260  0.71533584  1
  Bi2+  Bi122  1  0.87779221  0.29179875  0.19839367  1
  Bi2+  Bi123  1  0.83667846  0.21879825  0.72140332  1
  Bi2+  Bi124  1  0.90108037  0.48620101  0.23615683  1
  Bi2+  Bi125  1  0.86383279  0.46571346  0.69936738  1
  Bi2+  Bi126  1  0.87348006  0.85016105  0.19085379  1
  Bi2+  Bi127  1  0.90794398  0.75462737  0.69604387  1
  S2-  S128  1  0.00978697  0.22504030  0.14188553  1
  S2-  S129  1  -0.00352905  0.09793950  0.65453292  1
  S2-  S130  1  -0.00600043  0.48713538  0.14834462  1
  S2-  S131  1  -0.00663876  0.39224127  0.65220358  1
  S2-  S132  1  -0.01137613  0.73400056  0.14400304  1
  S2-  S133  1  0.02499800  0.62739270  0.66424730  1
  S2-  S134  1  -0.01434072  0.96931583  0.14365880  1
  S2-  S135  1  0.02543681  0.84395861  0.65497140  1
  S2-  S136  1  0.23289931  0.11290338  0.16556005  1
  S2-  S137  1  0.25191703  0.10816436  0.65801836  1
  S2-  S138  1  0.20581808  0.35714645  0.15328700  1
  S2-  S139  1  0.23486789  0.36276484  0.66267100  1
  S2-  S140  1  0.19673808  0.63724302  0.14980184  1
  S2-  S141  1  0.25893424  0.60968809  0.66135201  1
  S2-  S142  1  0.25043525  0.88122007  0.16242787  1
  S2-  S143  1  0.26304662  0.83649111  0.64384286  1
  S2-  S144  1  0.45282741  0.08932534  0.16809206  1
  S2-  S145  1  0.50703222  0.11675398  0.64815577  1
  S2-  S146  1  0.51215060  0.35460638  0.15072266  1
  S2-  S147  1  0.48340585  0.38289179  0.66054806  1
  S2-  S148  1  0.58458194  0.61299773  0.14303524  1
  S2-  S149  1  0.55552415  0.61498662  0.65104258  1
  S2-  S150  1  0.53971376  0.86772682  0.14718801  1
  S2-  S151  1  0.58855083  0.87751184  0.63906568  1
  S2-  S152  1  0.64014117  0.13677164  0.13536923  1
  S2-  S153  1  0.75013225  0.10076322  0.65501510  1
  S2-  S154  1  0.74164121  0.46278869  0.14313656  1
  S2-  S155  1  0.73698270  0.38146230  0.65030960  1
  S2-  S156  1  0.75987166  0.73471242  0.14817777  1
  S2-  S157  1  0.79810404  0.62483066  0.66136322  1
  S2-  S158  1  0.75051397  0.95860960  0.14958988  1
  S2-  S159  1  0.80715500  0.87940361  0.67752836  1
  S2-  S160  1  0.14567877  0.01811702  0.34695519  1
  S2-  S161  1  0.11623475  -0.12766556  0.86306719  1
  S2-  S162  1  0.21585420  0.25065207  0.36054688  1
  S2-  S163  1  0.13257727  0.32875420  0.85201532  1
  S2-  S164  1  0.12328752  0.59530972  0.35284123  1
  S2-  S165  1  0.09976385  0.49179734  0.77686323  1
  S2-  S166  1  0.03628561  0.79664360  0.34149411  1
  S2-  S167  1  0.11040937  0.65807714  0.84534975  1
  S2-  S168  1  0.36714735  -0.06231141  0.31791054  1
  S2-  S169  1  0.46886997  -0.01914033  0.86013439  1
  S2-  S170  1  0.39925935  0.14427859  0.34241758  1
  S2-  S171  1  0.37377459  0.28534332  0.84685013  1
  S2-  S172  1  0.38274876  0.40872557  0.36229295  1
  S2-  S173  1  0.29318644  0.50707824  0.85215394  1
  S2-  S174  1  0.26448573  0.75315310  0.35477991  1
  S2-  S175  1  0.34997961  0.75975454  0.84543215  1
  S2-  S176  1  0.59900231  0.00534817  0.34033959  1
  S2-  S177  1  0.68667328  0.04259597  0.83975470  1
  S2-  S178  1  0.60674946  0.27137404  0.34914582  1
  S2-  S179  1  0.63059068  0.35428894  0.85838167  1
  S2-  S180  1  0.66824389  0.52237051  0.34738669  1
  S2-  S181  1  0.63684232  0.60189121  0.85539352  1
  S2-  S182  1  0.70293191  0.76383819  0.34948261  1
  S2-  S183  1  0.64317112  0.83242147  0.85480491  1
  S2-  S184  1  0.85658507  -0.04604876  0.35315969  1
  S2-  S185  1  0.88624082  -0.03719173  0.84127841  1
  S2-  S186  1  0.87902610  0.25814872  0.34888593  1
  S2-  S187  1  0.95841150  0.20487178  0.86212633  1
  S2-  S188  1  0.88142785  0.60668861  0.35604867  1
  S2-  S189  1  0.94269691  0.48631624  0.85944780  1
  S2-  S190  1  0.86879012  0.75784497  0.26950787  1
  S2-  S191  1  0.87346081  0.72865596  0.83770471  1
  S2-  S192  1  0.00490747  0.12467996  0.45164398  1
  S2-  S193  1  -0.00953540  0.09890992  0.96520660  1
  S2-  S194  1  0.00519668  0.37585548  0.45091584  1
  S2-  S195  1  -0.00584005  0.35373196  0.96637270  1
  S2-  S196  1  0.00677113  0.62656232  0.45851995  1
  S2-  S197  1  -0.00232941  0.60920662  0.95947586  1
  S2-  S198  1  0.00090844  0.87748118  0.45273819  1
  S2-  S199  1  -0.01312103  0.85722994  0.95973644  1
  S2-  S200  1  0.25561942  0.12273156  0.45418487  1
  S2-  S201  1  0.23948436  0.10531614  0.95664050  1
  S2-  S202  1  0.25287641  0.37607203  0.46137357  1
  S2-  S203  1  0.24066338  0.35475878  0.95463558  1
  S2-  S204  1  0.25988104  0.62186692  0.45577169  1
  S2-  S205  1  0.23487330  0.60228826  0.95438520  1
  S2-  S206  1  0.25806809  0.88548263  0.44684119  1
  S2-  S207  1  0.24647593  0.85850885  0.95872002  1
  S2-  S208  1  0.50469678  0.12774033  0.44871728  1
  S2-  S209  1  0.49612682  0.10858266  0.95914051  1
  S2-  S210  1  0.50627288  0.37370646  0.45800740  1
  S2-  S211  1  0.48696461  0.35724080  0.95194599  1
  S2-  S212  1  0.50441503  0.62303911  0.45242444  1
  S2-  S213  1  0.48514988  0.59983767  0.95315852  1
  S2-  S214  1  0.50205352  0.87880225  0.44611456  1
  S2-  S215  1  0.48918320  0.84791133  0.95287430  1
  S2-  S216  1  0.75421845  0.12649070  0.45341692  1
  S2-  S217  1  0.73933771  0.10666704  0.95517570  1
  S2-  S218  1  0.75325229  0.37768289  0.45035151  1
  S2-  S219  1  0.74767129  0.35765042  0.95933505  1
  S2-  S220  1  0.74767609  0.62446870  0.45969618  1
  S2-  S221  1  0.74686971  0.60228244  0.96080666  1
  S2-  S222  1  0.75553719  0.87560144  0.45905707  1
  S2-  S223  1  0.74233155  0.85366652  0.95815178  1
  S2-  S224  1  0.12035618  -0.02207809  0.04714422  1
  S2-  S225  1  0.12952459  -0.00184055  0.54832094  1
  S2-  S226  1  0.12097401  0.22691844  0.04183857  1
  S2-  S227  1  0.12641267  0.25009338  0.54973611  1
  S2-  S228  1  0.12122773  0.47976709  0.05071162  1
  S2-  S229  1  0.12916005  0.50102483  0.54639295  1
  S2-  S230  1  0.11967053  0.73120661  0.04174594  1
  S2-  S231  1  0.13087575  0.75410738  0.53851712  1
  S2-  S232  1  0.37149003  -0.01979699  0.04803605  1
  S2-  S233  1  0.38156142  -0.00098251  0.54484423  1
  S2-  S234  1  0.36822270  0.23122220  0.05105764  1
  S2-  S235  1  0.37990642  0.25087372  0.54813609  1
  S2-  S236  1  0.36441986  0.47802030  0.04810700  1
  S2-  S237  1  0.38027772  0.50084054  0.55063718  1
  S2-  S238  1  0.36844377  0.72709507  0.05145818  1
  S2-  S239  1  0.38161699  0.75284309  0.53795536  1
  S2-  S240  1  0.61520151  -0.02329582  0.03669327  1
  S2-  S241  1  0.62839232  0.00553897  0.54267668  1
  S2-  S242  1  0.61879983  0.23817197  0.03615971  1
  S2-  S243  1  0.63056301  0.24885204  0.54894905  1
  S2-  S244  1  0.61444354  0.47653864  0.03936010  1
  S2-  S245  1  0.62797543  0.49838086  0.54610253  1
  S2-  S246  1  0.61267484  0.72723252  0.03845792  1
  S2-  S247  1  0.62812645  0.75044117  0.54461468  1
  S2-  S248  1  0.86274892  -0.02222381  0.04425460  1
  S2-  S249  1  0.87612880  -0.00001815  0.55085095  1
  S2-  S250  1  0.85690633  0.22617764  0.05375105  1
  S2-  S251  1  0.87897218  0.25127619  0.55182177  1
  S2-  S252  1  0.86935931  0.47819963  0.05105593  1
  S2-  S253  1  0.87713838  0.49987868  0.54541434  1
  S2-  S254  1  0.86587655  0.72512385  0.04467639  1
  S2-  S255  1  0.87261964  0.75328198  0.55882846  1
