# generated using pymatgen
data_La6Ce7Pr13Nd19Sm19(BiS2)64
_symmetry_space_group_name_H-M   'P 1'
_cell_length_a   16.02363526
_cell_length_b   16.07776000
_cell_length_c   27.42506404
_cell_angle_alpha   89.91464745
_cell_angle_beta   89.80265879
_cell_angle_gamma   89.99259259
_symmetry_Int_Tables_number   1
_chemical_formula_structural   La6Ce7Pr13Nd19Sm19(BiS2)64
_chemical_formula_sum   'La6 Ce7 Pr13 Nd19 Sm19 Bi64 S128'
_cell_volume   7065.30934140
_cell_formula_units_Z   1
loop_
 _symmetry_equiv_pos_site_id
 _symmetry_equiv_pos_as_xyz
  1  'x, y, z'
loop_
 _atom_type_symbol
 _atom_type_oxidation_number
  La3+  3.0
  Ce3+  3.0
  Pr3+  3.0
  Nd3+  3.0
  Sm3+  3.0
  Bi2+  2.0
  S2-  -2.0
loop_
 _atom_site_type_symbol
 _atom_site_label
 _atom_site_symmetry_multiplicity
 _atom_site_fract_x
 _atom_site_fract_y
 _atom_site_fract_z
 _atom_site_occupancy
  La3+  La0  1  0.61547630  -0.00242935  0.89292319  1
  La3+  La1  1  0.48021585  0.12299471  0.57071664  1
  La3+  La2  1  -0.01207454  0.87676910  0.56227474  1
  La3+  La3  1  0.48563616  0.38089106  0.56999643  1
  La3+  La4  1  0.74120679  0.65947696  0.61282965  1
  La3+  La5  1  0.11370827  0.00643442  0.40200433  1
  Ce3+  Ce6  1  0.63002934  0.74775059  0.94292206  1
  Ce3+  Ce7  1  0.49391660  0.62857354  0.55961380  1
  Ce3+  Ce8  1  0.87725344  0.74886624  0.93787898  1
  Ce3+  Ce9  1  0.87242307  -0.00201812  0.94112464  1
  Ce3+  Ce10  1  0.25555939  0.13282763  0.10494963  1
  Ce3+  Ce11  1  0.13269318  0.74907359  0.93027901  1
  Ce3+  Ce12  1  0.61280915  0.25461421  0.44935573  1
  Pr3+  Pr13  1  0.36693218  0.75671731  0.43210333  1
  Pr3+  Pr14  1  0.13184037  0.24413277  0.94394670  1
  Pr3+  Pr15  1  0.75576081  0.10950867  0.08011317  1
  Pr3+  Pr16  1  0.23931642  0.86708488  0.08980411  1
  Pr3+  Pr17  1  0.00337816  0.62256512  0.05437271  1
  Pr3+  Pr18  1  0.36658038  0.50341689  0.43328019  1
  Pr3+  Pr19  1  -0.01716472  0.38542598  0.57771365  1
  Pr3+  Pr20  1  0.11085966  0.75530278  0.42418920  1
  Pr3+  Pr21  1  0.73355620  0.38521921  0.58171385  1
  Pr3+  Pr22  1  0.23740317  0.63180837  0.55226319  1
  Pr3+  Pr23  1  0.23630962  0.87959967  0.55073361  1
  Pr3+  Pr24  1  0.61635856  0.01436182  0.42818471  1
  Pr3+  Pr25  1  0.87935624  0.49313650  0.93243431  1
  Nd3+  Nd26  1  0.86444013  0.00880056  0.42926328  1
  Nd3+  Nd27  1  0.50498582  0.11915651  0.07159987  1
  Nd3+  Nd28  1  0.23444721  0.12626265  0.55834237  1
  Nd3+  Nd29  1  0.73504815  0.12703296  0.56644328  1
  Nd3+  Nd30  1  0.61363872  0.50255751  0.43794446  1
  Nd3+  Nd31  1  0.23555989  0.38152165  0.56533591  1
  Nd3+  Nd32  1  0.13159213  0.49590668  0.94455790  1
  Nd3+  Nd33  1  0.36096060  0.25152582  0.44209076  1
  Nd3+  Nd34  1  0.87685474  0.24278240  0.94826701  1
  Nd3+  Nd35  1  0.62844102  0.49540572  0.94017504  1
  Nd3+  Nd36  1  0.50108859  0.87435721  0.06170452  1
  Nd3+  Nd37  1  0.73968921  0.88374678  0.55412823  1
  Nd3+  Nd38  1  -0.01269402  0.12534815  0.56581634  1
  Nd3+  Nd39  1  0.61805636  0.75447593  0.44032613  1
  Nd3+  Nd40  1  0.86317396  0.50259039  0.45083713  1
  Nd3+  Nd41  1  0.11021617  0.25474429  0.43781556  1
  Nd3+  Nd42  1  0.38053850  0.75025249  0.94292806  1
  Nd3+  Nd43  1  0.36770216  0.00262816  0.42123198  1
  Nd3+  Nd44  1  0.49074402  0.87806430  0.55598701  1
  Sm3+  Sm45  1  0.38127119  0.49536477  0.94422805  1
  Sm3+  Sm46  1  0.86594443  0.25573256  0.45165299  1
  Sm3+  Sm47  1  0.00362824  0.36889141  0.05962125  1
  Sm3+  Sm48  1  0.25213282  0.62377955  0.05915648  1
  Sm3+  Sm49  1  -0.01159402  0.62899117  0.56220944  1
  Sm3+  Sm50  1  0.13384151  -0.00215249  0.94514122  1
  Sm3+  Sm51  1  0.50218243  0.37008769  0.05432782  1
  Sm3+  Sm52  1  0.75361052  0.37045165  0.05865673  1
  Sm3+  Sm53  1  0.75150060  0.87218033  0.05757387  1
  Sm3+  Sm54  1  0.00555123  0.11819357  0.05905764  1
  Sm3+  Sm55  1  0.75369766  0.62036752  0.05306216  1
  Sm3+  Sm56  1  0.11635358  0.49688196  0.43206921  1
  Sm3+  Sm57  1  0.50181746  0.62089999  0.05703988  1
  Sm3+  Sm58  1  0.86433561  0.75091659  0.44462664  1
  Sm3+  Sm59  1  0.38043653  -0.00287721  0.95164348  1
  Sm3+  Sm60  1  0.00731539  0.87150901  0.04960417  1
  Sm3+  Sm61  1  0.38387987  0.24073779  0.93968883  1
  Sm3+  Sm62  1  0.63192648  0.23812494  0.94702932  1
  Sm3+  Sm63  1  0.25567710  0.36759664  0.05369266  1
  Bi2+  Bi64  1  -0.03100558  0.15824745  0.28853309  1
  Bi2+  Bi65  1  0.02850515  0.11163467  0.79232280  1
  Bi2+  Bi66  1  -0.02254664  0.42092218  0.29327162  1
  Bi2+  Bi67  1  0.03649125  0.36823266  0.78887433  1
  Bi2+  Bi68  1  0.07098299  0.61834107  0.29971771  1
  Bi2+  Bi69  1  0.10498107  0.54751134  0.72392302  1
  Bi2+  Bi70  1  -0.03779358  0.87294595  0.28067719  1
  Bi2+  Bi71  1  0.03050286  0.91149130  0.78394908  1
  Bi2+  Bi72  1  0.23352150  0.15396591  0.28325897  1
  Bi2+  Bi73  1  0.22821592  0.11519043  0.77277522  1
  Bi2+  Bi74  1  0.26429509  0.37548094  0.28943306  1
  Bi2+  Bi75  1  0.24416607  0.32367107  0.78016037  1
  Bi2+  Bi76  1  0.26936138  0.64687864  0.29818003  1
  Bi2+  Bi77  1  0.25724479  0.53352428  0.79711295  1
  Bi2+  Bi78  1  0.23543180  0.88896710  0.27792580  1
  Bi2+  Bi79  1  0.22256829  0.83656716  0.80610051  1
  Bi2+  Bi80  1  0.48840632  0.15016610  0.29150058  1
  Bi2+  Bi81  1  0.49846829  0.16724128  0.75632092  1
  Bi2+  Bi82  1  0.53699725  0.40618275  0.27726134  1
  Bi2+  Bi83  1  0.47392628  0.35635204  0.78834894  1
  Bi2+  Bi84  1  0.51596255  0.62437378  0.28672200  1
  Bi2+  Bi85  1  0.51632409  0.60780585  0.79316025  1
  Bi2+  Bi86  1  0.49386764  0.87411292  0.28709416  1
  Bi2+  Bi87  1  0.45698305  0.90437721  0.78373940  1
  Bi2+  Bi88  1  0.74252782  0.14970501  0.29698241  1
  Bi2+  Bi89  1  0.76280852  0.15464382  0.79785332  1
  Bi2+  Bi90  1  0.73034280  0.38679666  0.29970225  1
  Bi2+  Bi91  1  0.77404277  0.40313906  0.80756735  1
  Bi2+  Bi92  1  0.77887729  0.64050582  0.29733438  1
  Bi2+  Bi93  1  0.75915403  0.65250609  0.80659873  1
  Bi2+  Bi94  1  0.74829324  0.87906695  0.28534378  1
  Bi2+  Bi95  1  0.75833540  0.87697560  0.79148049  1
  Bi2+  Bi96  1  0.08268713  -0.00263924  0.19895306  1
  Bi2+  Bi97  1  0.12462165  -0.05098751  0.68333312  1
  Bi2+  Bi98  1  0.11623219  0.33830548  0.21526525  1
  Bi2+  Bi99  1  0.11993905  0.15501801  0.67510780  1
  Bi2+  Bi100  1  0.20053270  0.51745789  0.21461348  1
  Bi2+  Bi101  1  0.13168809  0.35491297  0.68253179  1
  Bi2+  Bi102  1  0.11672220  0.72734645  0.20787653  1
  Bi2+  Bi103  1  0.14314546  0.73778521  0.70269137  1
  Bi2+  Bi104  1  0.40972004  0.01550298  0.22021370  1
  Bi2+  Bi105  1  0.32035153  -0.02057653  0.71143930  1
  Bi2+  Bi106  1  0.38431116  0.29707514  0.20761253  1
  Bi2+  Bi107  1  0.36111819  0.24710260  0.69818228  1
  Bi2+  Bi108  1  0.39907255  0.51776527  0.20221270  1
  Bi2+  Bi109  1  0.36975425  0.53061667  0.70136468  1
  Bi2+  Bi110  1  0.38517245  0.72089915  0.21711500  1
  Bi2+  Bi111  1  0.36213810  0.71062745  0.74473905  1
  Bi2+  Bi112  1  0.62792158  -0.00394951  0.20774254  1
  Bi2+  Bi113  1  0.64734573  -0.01554322  0.68220602  1
  Bi2+  Bi114  1  0.63402028  0.25878838  0.22158265  1
  Bi2+  Bi115  1  0.65467046  0.29191975  0.74314741  1
  Bi2+  Bi116  1  0.68306813  0.52678544  0.21966891  1
  Bi2+  Bi117  1  0.58515754  0.49160614  0.71072348  1
  Bi2+  Bi118  1  0.66882473  0.74174337  0.21763033  1
  Bi2+  Bi119  1  0.55474795  0.75844840  0.72137113  1
  Bi2+  Bi120  1  0.84648924  0.02786248  0.22122949  1
  Bi2+  Bi121  1  0.88808657  0.02486467  0.72545657  1
  Bi2+  Bi122  1  0.84222392  0.30084690  0.21695533  1
  Bi2+  Bi123  1  0.95268891  0.24339334  0.71338203  1
  Bi2+  Bi124  1  0.91866119  0.56732783  0.22363023  1
  Bi2+  Bi125  1  0.87019853  0.48658677  0.71378252  1
  Bi2+  Bi126  1  0.86726160  0.76024600  0.20537793  1
  Bi2+  Bi127  1  0.89540755  0.80835384  0.70926627  1
  S2-  S128  1  -0.04292305  0.09240603  0.15101969  1
  S2-  S129  1  -0.02815738  -0.00334253  0.63757319  1
  S2-  S130  1  -0.01635050  0.35570652  0.15584930  1
  S2-  S131  1  -0.13630711  0.34773050  0.65395956  1
  S2-  S132  1  0.03400314  0.60854710  0.15191283  1
  S2-  S133  1  -0.00620688  0.52588201  0.64394822  1
  S2-  S134  1  0.07064577  0.85590738  0.13946719  1
  S2-  S135  1  0.00553720  0.75059652  0.63743902  1
  S2-  S136  1  0.15568125  0.14103620  0.18782996  1
  S2-  S137  1  0.34030350  0.09993985  0.63848635  1
  S2-  S138  1  0.25155552  0.30501139  0.14343179  1
  S2-  S139  1  0.35334407  0.39271395  0.64139023  1
  S2-  S140  1  0.25269030  0.71584228  0.14272361  1
  S2-  S141  1  0.22441929  0.60382754  0.65092928  1
  S2-  S142  1  0.25560099  0.95900302  0.17525429  1
  S2-  S143  1  0.25785523  0.84438995  0.64873563  1
  S2-  S144  1  0.40480971  0.14285919  0.15423248  1
  S2-  S145  1  0.56344881  0.11613494  0.66061706  1
  S2-  S146  1  0.49173081  0.38670380  0.15047647  1
  S2-  S147  1  0.59316874  0.35878009  0.65044453  1
  S2-  S148  1  0.49920228  0.63441477  0.15356818  1
  S2-  S149  1  0.57162400  0.64382687  0.64788232  1
  S2-  S150  1  0.50871664  0.90131985  0.16020238  1
  S2-  S151  1  0.50566264  0.88921788  0.65473750  1
  S2-  S152  1  0.62582048  0.13644125  0.14892941  1
  S2-  S153  1  0.77285476  0.09542353  0.66135178  1
  S2-  S154  1  0.74145776  0.39037542  0.15486177  1
  S2-  S155  1  0.73505900  0.50476839  0.65850859  1
  S2-  S156  1  0.75954431  0.63868438  0.14891694  1
  S2-  S157  1  0.82230761  0.65914751  0.70968043  1
  S2-  S158  1  0.76055472  0.95840441  0.14181732  1
  S2-  S159  1  0.74976071  0.83863154  0.65084692  1
  S2-  S160  1  0.26209238  0.02214339  0.33862086  1
  S2-  S161  1  0.15898157  -0.00914828  0.84756911  1
  S2-  S162  1  0.11379207  0.16517587  0.34928718  1
  S2-  S163  1  0.12200550  0.24192289  0.84467044  1
  S2-  S164  1  0.07217482  0.37543887  0.36569103  1
  S2-  S165  1  0.10909171  0.48384757  0.84800936  1
  S2-  S166  1  0.11422604  0.85688794  0.33978067  1
  S2-  S167  1  0.12398051  0.71560511  0.83544398  1
  S2-  S168  1  0.49953972  0.01090866  0.35093691  1
  S2-  S169  1  0.44562970  0.00393488  0.86043008  1
  S2-  S170  1  0.35654945  0.24323987  0.34139268  1
  S2-  S171  1  0.40443781  0.23263706  0.84238201  1
  S2-  S172  1  0.24972849  0.50126158  0.35814561  1
  S2-  S173  1  0.40948223  0.49790058  0.84857426  1
  S2-  S174  1  0.36184460  0.84230470  0.34415779  1
  S2-  S175  1  0.38032704  0.77344881  0.84526316  1
  S2-  S176  1  0.73993732  0.00222410  0.35441807  1
  S2-  S177  1  0.62327732  -0.03079718  0.78559453  1
  S2-  S178  1  0.60591641  0.19816588  0.35858466  1
  S2-  S179  1  0.63360496  0.16535226  0.85888981  1
  S2-  S180  1  0.49699881  0.49894965  0.36074154  1
  S2-  S181  1  0.65214481  0.52075246  0.84303601  1
  S2-  S182  1  0.57081554  0.75194934  0.34445947  1
  S2-  S183  1  0.64615824  0.77486356  0.84768270  1
  S2-  S184  1  0.96279986  0.01071522  0.34506569  1
  S2-  S185  1  0.79057615  0.00795647  0.85625125  1
  S2-  S186  1  0.87526868  0.22542812  0.35355196  1
  S2-  S187  1  0.86125877  0.26301825  0.85030456  1
  S2-  S188  1  0.84038373  0.48726785  0.35146889  1
  S2-  S189  1  0.87779385  0.53350423  0.83429615  1
  S2-  S190  1  0.86815577  0.76363570  0.34662222  1
  S2-  S191  1  0.87361050  0.75887019  0.84004644  1
  S2-  S192  1  -0.01293300  0.13130114  0.45975051  1
  S2-  S193  1  0.00454380  0.11892605  0.95362544  1
  S2-  S194  1  -0.01565806  0.37981163  0.47009637  1
  S2-  S195  1  0.00399868  0.36980706  0.95442626  1
  S2-  S196  1  -0.00915975  0.62636461  0.44988374  1
  S2-  S197  1  0.00406613  0.62078350  0.94803274  1
  S2-  S198  1  -0.01443232  0.87766486  0.45118031  1
  S2-  S199  1  0.00576403  0.87504576  0.94562549  1
  S2-  S200  1  0.23784033  0.12709530  0.45363090  1
  S2-  S201  1  0.25853112  0.12043538  0.94605093  1
  S2-  S202  1  0.23851936  0.37739142  0.45988657  1
  S2-  S203  1  0.25973632  0.36978610  0.94870249  1
  S2-  S204  1  0.23705809  0.63385128  0.44739720  1
  S2-  S205  1  0.25810706  0.62028496  0.95302408  1
  S2-  S206  1  0.23785526  0.88022046  0.44569278  1
  S2-  S207  1  0.25613475  0.87428285  0.95323616  1
  S2-  S208  1  0.48503690  0.13012382  0.45992490  1
  S2-  S209  1  0.50564306  0.12035751  0.96334367  1
  S2-  S210  1  0.48615209  0.37554436  0.45970010  1
  S2-  S211  1  0.50611199  0.36779502  0.94993759  1
  S2-  S212  1  0.49011723  0.63305590  0.45475628  1
  S2-  S213  1  0.50350769  0.62135302  0.95269564  1
  S2-  S214  1  0.49430240  0.87990508  0.45111644  1
  S2-  S215  1  0.50770301  0.87369367  0.95524683  1
  S2-  S216  1  0.74132930  0.13359963  0.45937566  1
  S2-  S217  1  0.75490300  0.12218996  0.96873832  1
  S2-  S218  1  0.73826015  0.37787428  0.46042750  1
  S2-  S219  1  0.75164307  0.36931317  0.95422545  1
  S2-  S220  1  0.73826010  0.62730153  0.44385411  1
  S2-  S221  1  0.75493171  0.61969218  0.95036587  1
  S2-  S222  1  0.74242619  0.87718948  0.45043435  1
  S2-  S223  1  0.75038673  0.87310003  0.95438605  1
  S2-  S224  1  0.13178460  0.00014521  0.04921409  1
  S2-  S225  1  0.11258949  0.00375502  0.54169584  1
  S2-  S226  1  0.12726500  0.24378705  0.04951509  1
  S2-  S227  1  0.11114445  0.25558764  0.54814704  1
  S2-  S228  1  0.13137922  0.49262037  0.05017647  1
  S2-  S229  1  0.11405361  0.50589555  0.53923487  1
  S2-  S230  1  0.13031750  0.74520509  0.03691467  1
  S2-  S231  1  0.11240826  0.75246615  0.53203789  1
  S2-  S232  1  0.37035692  -0.00534547  0.05550648  1
  S2-  S233  1  0.36375603  -0.00237982  0.53386970  1
  S2-  S234  1  0.37995263  0.24630047  0.04373523  1
  S2-  S235  1  0.35784954  0.25396287  0.54586457  1
  S2-  S236  1  0.37627571  0.49656851  0.04844861  1
  S2-  S237  1  0.36307841  0.50907451  0.53968821  1
  S2-  S238  1  0.37853670  0.74630493  0.04767539  1
  S2-  S239  1  0.36683205  0.75389337  0.54075198  1
  S2-  S240  1  0.62635646  -0.00691464  0.05063822  1
  S2-  S241  1  0.61345225  0.00405014  0.54076291  1
  S2-  S242  1  0.62850560  0.25098206  0.04981401  1
  S2-  S243  1  0.61190982  0.24975407  0.55204641  1
  S2-  S244  1  0.62785482  0.49650045  0.04711221  1
  S2-  S245  1  0.61259827  0.50415017  0.54290549  1
  S2-  S246  1  0.62807563  0.74541435  0.05038442  1
  S2-  S247  1  0.61987315  0.75410899  0.54524646  1
  S2-  S248  1  0.88318264  -0.00874564  0.04441303  1
  S2-  S249  1  0.86067969  0.00648108  0.53788397  1
  S2-  S250  1  0.87787321  0.24455833  0.05385753  1
  S2-  S251  1  0.86082637  0.25065140  0.55291080  1
  S2-  S252  1  0.87822391  0.49427270  0.04456295  1
  S2-  S253  1  0.85463491  0.51605757  0.55290379  1
  S2-  S254  1  0.87780552  0.74924411  0.04556868  1
  S2-  S255  1  0.85833020  0.74879751  0.54712023  1
