# generated using pymatgen
data_La6Ce7Pr13Nd19Sm19(BiS2)64
_symmetry_space_group_name_H-M   'P 1'
_cell_length_a   16.09612769
_cell_length_b   16.01987224
_cell_length_c   27.17099422
_cell_angle_alpha   90.07178749
_cell_angle_beta   90.07421126
_cell_angle_gamma   90.00076118
_symmetry_Int_Tables_number   1
_chemical_formula_structural   La6Ce7Pr13Nd19Sm19(BiS2)64
_chemical_formula_sum   'La6 Ce7 Pr13 Nd19 Sm19 Bi64 S128'
_cell_volume   7006.24438159
_cell_formula_units_Z   1
loop_
 _symmetry_equiv_pos_site_id
 _symmetry_equiv_pos_as_xyz
  1  'x, y, z'
loop_
 _atom_type_symbol
 _atom_type_oxidation_number
  La3+  3.0
  Ce3+  3.0
  Pr3+  3.0
  Nd3+  3.0
  Sm3+  3.0
  Bi2+  2.0
  S2-  -2.0
loop_
 _atom_site_type_symbol
 _atom_site_label
 _atom_site_symmetry_multiplicity
 _atom_site_fract_x
 _atom_site_fract_y
 _atom_site_fract_z
 _atom_site_occupancy
  La3+  La0  1  0.25793295  0.12038545  0.07750679  1
  La3+  La1  1  0.73061531  0.61564747  0.11609675  1
  La3+  La2  1  0.25367144  0.86685270  0.59020645  1
  La3+  La3  1  0.37929701  0.74453379  0.43375522  1
  La3+  La4  1  0.00812449  0.37270256  0.59744037  1
  La3+  La5  1  -0.00245877  0.62474119  0.08689220  1
  Ce3+  Ce6  1  0.87879939  0.00312750  0.93593110  1
  Ce3+  Ce7  1  0.37719620  0.24165217  0.93006428  1
  Ce3+  Ce8  1  0.63043902  0.00344198  0.93936514  1
  Ce3+  Ce9  1  0.75390804  0.86442543  0.55756374  1
  Ce3+  Ce10  1  0.13126919  -0.00220584  0.93703590  1
  Ce3+  Ce11  1  0.87936049  0.74651765  0.94381818  1
  Ce3+  Ce12  1  0.88103069  0.73918327  0.43786649  1
  Pr3+  Pr13  1  0.50392007  0.12836049  0.06119448  1
  Pr3+  Pr14  1  0.50440337  0.36332342  0.56959096  1
  Pr3+  Pr15  1  0.51105634  0.86749402  0.57048657  1
  Pr3+  Pr16  1  0.75545550  0.87305803  0.06242391  1
  Pr3+  Pr17  1  0.63116671  0.24657058  0.43381699  1
  Pr3+  Pr18  1  0.38542108  -0.00560341  0.42265618  1
  Pr3+  Pr19  1  0.87931243  -0.00722737  0.44153629  1
  Pr3+  Pr20  1  0.88965055  0.48098414  0.41435459  1
  Pr3+  Pr21  1  0.00076414  0.36897682  0.07069750  1
  Pr3+  Pr22  1  0.25310598  0.62809867  0.07324729  1
  Pr3+  Pr23  1  0.00389673  0.61731251  0.56862464  1
  Pr3+  Pr24  1  0.12838151  0.49031976  0.44239167  1
  Pr3+  Pr25  1  0.25893347  0.36857752  0.56910013  1
  Nd3+  Nd26  1  0.89040295  0.26088234  0.91996389  1
  Nd3+  Nd27  1  0.50337875  0.11388905  0.56554336  1
  Nd3+  Nd28  1  0.37444728  0.50297091  0.93032892  1
  Nd3+  Nd29  1  0.50654326  0.87120849  0.05548310  1
  Nd3+  Nd30  1  0.75603546  0.12101517  0.56723538  1
  Nd3+  Nd31  1  0.62946314  0.49124844  0.43386637  1
  Nd3+  Nd32  1  0.62914026  0.73718016  0.43014588  1
  Nd3+  Nd33  1  0.13017072  -0.00870690  0.43846918  1
  Nd3+  Nd34  1  0.74953654  0.36990959  0.56987217  1
  Nd3+  Nd35  1  0.63229153  0.74819404  0.93198812  1
  Nd3+  Nd36  1  0.00325235  0.87543979  0.05943199  1
  Nd3+  Nd37  1  0.00737752  0.11703108  0.55863918  1
  Nd3+  Nd38  1  0.25473004  0.37590264  0.05473620  1
  Nd3+  Nd39  1  0.50500423  0.62534790  0.04994418  1
  Nd3+  Nd40  1  0.38258943  0.75241725  0.92180733  1
  Nd3+  Nd41  1  0.38059407  0.49215781  0.43701522  1
  Nd3+  Nd42  1  0.50487544  0.37598577  0.05317101  1
  Nd3+  Nd43  1  0.75294801  0.36595339  0.06107672  1
  Nd3+  Nd44  1  0.62710261  0.25770337  0.91109763  1
  Sm3+  Sm45  1  0.88050295  0.24767356  0.44979353  1
  Sm3+  Sm46  1  0.12954334  0.74704327  0.94352790  1
  Sm3+  Sm47  1  0.00347262  0.12636323  0.05834439  1
  Sm3+  Sm48  1  0.37844287  -0.00250039  0.93597681  1
  Sm3+  Sm49  1  0.38024243  0.24377954  0.43635623  1
  Sm3+  Sm50  1  0.25508819  0.87333758  0.06300838  1
  Sm3+  Sm51  1  0.12711871  0.50200351  0.94661646  1
  Sm3+  Sm52  1  0.12794621  0.74155444  0.44519806  1
  Sm3+  Sm53  1  0.00416932  0.86665635  0.56367961  1
  Sm3+  Sm54  1  0.88100388  0.49807216  0.94848167  1
  Sm3+  Sm55  1  0.25837021  0.61989277  0.56327170  1
  Sm3+  Sm56  1  0.50686030  0.62211939  0.56417145  1
  Sm3+  Sm57  1  0.25600440  0.11435885  0.55487417  1
  Sm3+  Sm58  1  0.62936937  -0.00869048  0.43703784  1
  Sm3+  Sm59  1  0.75600406  0.61339295  0.55164831  1
  Sm3+  Sm60  1  0.12821839  0.24703995  0.44791434  1
  Sm3+  Sm61  1  0.75448101  0.12936770  0.04876538  1
  Sm3+  Sm62  1  0.63262295  0.49560602  0.93832558  1
  Sm3+  Sm63  1  0.13004059  0.24750635  0.94434601  1
  Bi2+  Bi64  1  -0.01592961  0.12161907  0.28305523  1
  Bi2+  Bi65  1  0.01025842  0.11487703  0.81206119  1
  Bi2+  Bi66  1  0.01921596  0.31298711  0.28967663  1
  Bi2+  Bi67  1  0.00853410  0.40500191  0.79602912  1
  Bi2+  Bi68  1  -0.00148560  0.63643010  0.30697506  1
  Bi2+  Bi69  1  -0.01523620  0.62873163  0.79157097  1
  Bi2+  Bi70  1  0.03412318  0.92641320  0.27848995  1
  Bi2+  Bi71  1  0.03378695  0.82979617  0.73439476  1
  Bi2+  Bi72  1  0.23541949  0.13923857  0.28803505  1
  Bi2+  Bi73  1  0.27828288  0.21402643  0.78544453  1
  Bi2+  Bi74  1  0.27054772  0.39984421  0.28662731  1
  Bi2+  Bi75  1  0.29829296  0.40185648  0.81425219  1
  Bi2+  Bi76  1  0.23560838  0.59972157  0.29755861  1
  Bi2+  Bi77  1  0.22472619  0.66244169  0.78699250  1
  Bi2+  Bi78  1  0.25515716  0.87948943  0.27661347  1
  Bi2+  Bi79  1  0.24245790  0.90136117  0.78942606  1
  Bi2+  Bi80  1  0.50792887  0.17434270  0.30114796  1
  Bi2+  Bi81  1  0.48849797  0.12870478  0.79379409  1
  Bi2+  Bi82  1  0.50191062  0.37150652  0.28797880  1
  Bi2+  Bi83  1  0.48752634  0.40647963  0.78547570  1
  Bi2+  Bi84  1  0.48819964  0.58522400  0.28650577  1
  Bi2+  Bi85  1  0.48472004  0.61179455  0.78816141  1
  Bi2+  Bi86  1  0.51066949  0.89113756  0.28939162  1
  Bi2+  Bi87  1  0.49731977  0.87414383  0.78357985  1
  Bi2+  Bi88  1  0.69817227  0.13315061  0.32286285  1
  Bi2+  Bi89  1  0.74923225  0.06329185  0.80544356  1
  Bi2+  Bi90  1  0.75301651  0.31018950  0.28857434  1
  Bi2+  Bi91  1  0.75915544  0.45061944  0.78225198  1
  Bi2+  Bi92  1  0.74530598  0.69016105  0.30230485  1
  Bi2+  Bi93  1  0.75845129  0.64186630  0.80699108  1
  Bi2+  Bi94  1  0.76023714  0.95776338  0.27846160  1
  Bi2+  Bi95  1  0.76465368  0.82688495  0.77019335  1
  Bi2+  Bi96  1  0.06864622  0.02681206  0.18367068  1
  Bi2+  Bi97  1  0.09787308  0.03659032  0.70906850  1
  Bi2+  Bi98  1  0.13751121  0.20847666  0.19521843  1
  Bi2+  Bi99  1  0.13284592  0.23626314  0.71445704  1
  Bi2+  Bi100  1  0.12888903  0.47575910  0.21666312  1
  Bi2+  Bi101  1  0.22409835  0.49165739  0.72283166  1
  Bi2+  Bi102  1  0.15128949  0.75153207  0.20858420  1
  Bi2+  Bi103  1  0.10020643  0.65088298  0.69381101  1
  Bi2+  Bi104  1  0.34305120  0.02328276  0.21880918  1
  Bi2+  Bi105  1  0.36919380  0.05957525  0.71051941  1
  Bi2+  Bi106  1  0.32999536  0.25438504  0.20956982  1
  Bi2+  Bi107  1  0.37866758  0.32393813  0.69797398  1
  Bi2+  Bi108  1  0.35493012  0.53066065  0.20483032  1
  Bi2+  Bi109  1  0.39633451  0.51668083  0.66547300  1
  Bi2+  Bi110  1  0.36013953  0.72440256  0.23379731  1
  Bi2+  Bi111  1  0.37445709  0.72600669  0.71834167  1
  Bi2+  Bi112  1  0.62081817  -0.00180923  0.19709275  1
  Bi2+  Bi113  1  0.61306651  -0.02048599  0.71223813  1
  Bi2+  Bi114  1  0.63084597  0.19645224  0.21144828  1
  Bi2+  Bi115  1  0.63708247  0.25158469  0.70283881  1
  Bi2+  Bi116  1  0.59180468  0.46321696  0.20018482  1
  Bi2+  Bi117  1  0.59244270  0.51858648  0.70834471  1
  Bi2+  Bi118  1  0.58709952  0.77390872  0.20274223  1
  Bi2+  Bi119  1  0.62629457  0.73482533  0.70654783  1
  Bi2+  Bi120  1  0.81596818  0.01139946  0.16944650  1
  Bi2+  Bi121  1  0.88224151  -0.03712278  0.72197070  1
  Bi2+  Bi122  1  0.85804315  0.20844888  0.20887828  1
  Bi2+  Bi123  1  0.87485328  0.20527740  0.71925081  1
  Bi2+  Bi124  1  0.85978517  0.49788963  0.22101207  1
  Bi2+  Bi125  1  0.85394791  0.57676210  0.71017534  1
  Bi2+  Bi126  1  0.87721708  0.84020723  0.21069311  1
  Bi2+  Bi127  1  0.87781398  0.78754392  0.66986094  1
  S2-  S128  1  -0.01428831  0.23006697  0.13747305  1
  S2-  S129  1  -0.03145140  0.10041126  0.65553449  1
  S2-  S130  1  -0.00565069  0.44604413  0.16431974  1
  S2-  S131  1  -0.01652400  0.32266755  0.70036323  1
  S2-  S132  1  -0.11384411  0.62575209  0.16538606  1
  S2-  S133  1  -0.00399998  0.52449592  0.65496629  1
  S2-  S134  1  0.01024247  0.80508906  0.15163971  1
  S2-  S135  1  0.09956204  0.89168089  0.64592347  1
  S2-  S136  1  0.23189573  -0.01790753  0.14358729  1
  S2-  S137  1  0.23142673  0.12033014  0.65337737  1
  S2-  S138  1  0.26381803  0.40510754  0.15307235  1
  S2-  S139  1  0.16377224  0.36805286  0.65343722  1
  S2-  S140  1  0.13513296  0.61394172  0.15343131  1
  S2-  S141  1  0.25222019  0.71473008  0.64661115  1
  S2-  S142  1  0.28256735  0.76401241  0.13975523  1
  S2-  S143  1  0.30728848  0.91317516  0.68965151  1
  S2-  S144  1  0.39806083  0.13501210  0.14397990  1
  S2-  S145  1  0.49488345  0.22643156  0.64634713  1
  S2-  S146  1  0.51766640  0.34308693  0.15136772  1
  S2-  S147  1  0.62224859  0.38806800  0.64387806  1
  S2-  S148  1  0.55389759  0.62779514  0.14586600  1
  S2-  S149  1  0.49403454  0.73561083  0.64202129  1
  S2-  S150  1  0.49403587  0.88947448  0.15540277  1
  S2-  S151  1  0.49066270  0.99801225  0.64357156  1
  S2-  S152  1  0.74069603  0.22773958  0.12994620  1
  S2-  S153  1  0.70177928  0.10745671  0.66261850  1
  S2-  S154  1  0.74371412  0.44433011  0.15196771  1
  S2-  S155  1  0.79055079  0.30398276  0.66372193  1
  S2-  S156  1  0.71103826  0.59690126  0.22698745  1
  S2-  S157  1  0.71037844  0.61258503  0.64722521  1
  S2-  S158  1  0.73214856  0.78815944  0.15133359  1
  S2-  S159  1  0.66134822  0.86740707  0.63943028  1
  S2-  S160  1  0.16209951  -0.00611196  0.34002736  1
  S2-  S161  1  0.15313657  0.01544969  0.83896009  1
  S2-  S162  1  0.14154164  0.28724851  0.35162807  1
  S2-  S163  1  0.05684304  0.26783662  0.85515754  1
  S2-  S164  1  0.03936882  0.49982211  0.35462431  1
  S2-  S165  1  0.09404882  0.51702681  0.84877298  1
  S2-  S166  1  0.13225825  0.72200993  0.34625905  1
  S2-  S167  1  0.15598017  0.78244427  0.84710311  1
  S2-  S168  1  0.37702988  -0.14149809  0.35264322  1
  S2-  S169  1  0.35869031  0.10743516  0.85899955  1
  S2-  S170  1  0.36403865  0.13562116  0.35676011  1
  S2-  S171  1  0.48155319  0.26591987  0.85151693  1
  S2-  S172  1  0.37995828  0.36831760  0.36310995  1
  S2-  S173  1  0.35150314  0.62095114  0.85635432  1
  S2-  S174  1  0.37593116  0.61300772  0.36137108  1
  S2-  S175  1  0.36742051  0.88706804  0.85324539  1
  S2-  S176  1  0.53045713  0.01021403  0.35549354  1
  S2-  S177  1  0.60542275  -0.01891237  0.84232454  1
  S2-  S178  1  0.63672886  0.37117121  0.35781962  1
  S2-  S179  1  0.65406151  0.19413703  0.81013924  1
  S2-  S180  1  0.61871323  0.60847902  0.35651932  1
  S2-  S181  1  0.64484449  0.41073465  0.85133416  1
  S2-  S182  1  0.64091793  0.82404250  0.34061396  1
  S2-  S183  1  0.53864162  0.75254594  0.84673995  1
  S2-  S184  1  0.90170613  -0.00474313  0.34168456  1
  S2-  S185  1  0.90713285  -0.01464193  0.83929118  1
  S2-  S186  1  0.88769727  0.32296271  0.36000849  1
  S2-  S187  1  0.85996666  0.19675536  0.82611730  1
  S2-  S188  1  0.84477207  0.55162900  0.32361881  1
  S2-  S189  1  0.88444654  0.41334360  0.85890798  1
  S2-  S190  1  0.89455362  0.76340979  0.34104159  1
  S2-  S191  1  0.89571557  0.74437740  0.84487053  1
  S2-  S192  1  0.00485114  0.12142828  0.45102982  1
  S2-  S193  1  0.00590067  0.12488431  0.95298604  1
  S2-  S194  1  0.00545221  0.36695100  0.46578998  1
  S2-  S195  1  0.01024131  0.37648546  0.96251959  1
  S2-  S196  1  0.00308074  0.61619775  0.46018393  1
  S2-  S197  1  0.00411371  0.62368995  0.95782133  1
  S2-  S198  1  0.00505532  0.86726737  0.45569606  1
  S2-  S199  1  0.00488868  0.87354853  0.95136356  1
  S2-  S200  1  0.24902424  0.12034549  0.45276031  1
  S2-  S201  1  0.24999274  0.12230053  0.96252600  1
  S2-  S202  1  0.25334362  0.36680330  0.46206081  1
  S2-  S203  1  0.25110278  0.37486693  0.94871438  1
  S2-  S204  1  0.24962568  0.61772154  0.45953680  1
  S2-  S205  1  0.24933503  0.62463962  0.96092537  1
  S2-  S206  1  0.24804488  0.86675718  0.45191697  1
  S2-  S207  1  0.25272262  0.87223520  0.95765215  1
  S2-  S208  1  0.50682952  0.12199066  0.45851739  1
  S2-  S209  1  0.50517519  0.12263646  0.95303955  1
  S2-  S210  1  0.50437890  0.36633389  0.46183479  1
  S2-  S211  1  0.49905547  0.38171392  0.94872142  1
  S2-  S212  1  0.50470454  0.61642461  0.46066693  1
  S2-  S213  1  0.50850128  0.61944051  0.94582000  1
  S2-  S214  1  0.51152802  0.86773254  0.45772098  1
  S2-  S215  1  0.50786872  0.87609159  0.95097269  1
  S2-  S216  1  0.75723912  0.12048203  0.45758990  1
  S2-  S217  1  0.75436440  0.13159859  0.94325965  1
  S2-  S218  1  0.75915163  0.36997087  0.46183584  1
  S2-  S219  1  0.75567150  0.37220460  0.95383269  1
  S2-  S220  1  0.76451183  0.60862202  0.44861747  1
  S2-  S221  1  0.75483207  0.61879409  0.94286742  1
  S2-  S222  1  0.75473314  0.86788089  0.45016327  1
  S2-  S223  1  0.75462619  0.87487780  0.94936093  1
  S2-  S224  1  0.12526272  0.00078070  0.04240062  1
  S2-  S225  1  0.13020316  -0.00797905  0.54427285  1
  S2-  S226  1  0.13384201  0.24672864  0.04814141  1
  S2-  S227  1  0.12943882  0.24167931  0.55243461  1
  S2-  S228  1  0.12741122  0.49824629  0.04995061  1
  S2-  S229  1  0.13358416  0.49601079  0.55089765  1
  S2-  S230  1  0.12741176  0.75159417  0.04645950  1
  S2-  S231  1  0.12764460  0.74415262  0.54866286  1
  S2-  S232  1  0.38240326  -0.00465679  0.04233353  1
  S2-  S233  1  0.37255099  -0.01151213  0.54290600  1
  S2-  S234  1  0.37838347  0.25251566  0.03971597  1
  S2-  S235  1  0.37550346  0.23956244  0.54335409  1
  S2-  S236  1  0.37813653  0.50238750  0.04167985  1
  S2-  S237  1  0.38102821  0.49570591  0.54494805  1
  S2-  S238  1  0.38336544  0.74964761  0.03454750  1
  S2-  S239  1  0.37693982  0.74516660  0.54300824  1
  S2-  S240  1  0.63075094  0.00221799  0.04694024  1
  S2-  S241  1  0.63534402  -0.00300132  0.54060988  1
  S2-  S242  1  0.62368022  0.24924580  0.02970628  1
  S2-  S243  1  0.63186414  0.23912743  0.54277212  1
  S2-  S244  1  0.63129657  0.50026894  0.04274929  1
  S2-  S245  1  0.62616755  0.49762344  0.54121143  1
  S2-  S246  1  0.63167514  0.74722023  0.03834917  1
  S2-  S247  1  0.63347920  0.73726775  0.53766873  1
  S2-  S248  1  0.87911379  0.00339228  0.04286367  1
  S2-  S249  1  0.88020928  -0.00831080  0.54954713  1
  S2-  S250  1  0.88032044  0.24627990  0.03106005  1
  S2-  S251  1  0.88491314  0.24469533  0.55392632  1
  S2-  S252  1  0.87598219  0.49675014  0.05027929  1
  S2-  S253  1  0.87687639  0.48909588  0.55692730  1
  S2-  S254  1  0.87899249  0.74988683  0.04800424  1
  S2-  S255  1  0.87953688  0.74129096  0.54463126  1
