# generated using pymatgen
data_La6Ce7Pr13Nd19Sm19(BiS2)64
_symmetry_space_group_name_H-M   'P 1'
_cell_length_a   16.08756383
_cell_length_b   16.10071115
_cell_length_c   27.44294093
_cell_angle_alpha   89.88559869
_cell_angle_beta   89.94984772
_cell_angle_gamma   90.01553580
_symmetry_Int_Tables_number   1
_chemical_formula_structural   La6Ce7Pr13Nd19Sm19(BiS2)64
_chemical_formula_sum   'La6 Ce7 Pr13 Nd19 Sm19 Bi64 S128'
_cell_volume   7108.28683689
_cell_formula_units_Z   1
loop_
 _symmetry_equiv_pos_site_id
 _symmetry_equiv_pos_as_xyz
  1  'x, y, z'
loop_
 _atom_type_symbol
 _atom_type_oxidation_number
  La3+  3.0
  Ce3+  3.0
  Pr3+  3.0
  Nd3+  3.0
  Sm3+  3.0
  Bi2+  2.0
  S2-  -2.0
loop_
 _atom_site_type_symbol
 _atom_site_label
 _atom_site_symmetry_multiplicity
 _atom_site_fract_x
 _atom_site_fract_y
 _atom_site_fract_z
 _atom_site_occupancy
  La3+  La0  1  -0.00100915  0.64085500  0.06557681  1
  La3+  La1  1  0.50846436  0.39052916  0.56806729  1
  La3+  La2  1  0.49206727  0.64622702  0.60709241  1
  La3+  La3  1  0.74605567  0.63387603  0.06356770  1
  La3+  La4  1  0.75282811  0.36424367  0.11465717  1
  La3+  La5  1  0.12313043  0.27907264  0.91978678  1
  Ce3+  Ce6  1  0.74875159  0.13489214  0.05788343  1
  Ce3+  Ce7  1  0.87347714  0.76852805  0.93693653  1
  Ce3+  Ce8  1  0.61762736  0.76716633  0.92757698  1
  Ce3+  Ce9  1  0.24890109  0.14320661  0.04379649  1
  Ce3+  Ce10  1  0.49724759  0.64113090  0.05277962  1
  Ce3+  Ce11  1  0.38581086  0.26415732  0.43769220  1
  Ce3+  Ce12  1  0.63269250  0.75933801  0.44429471  1
  Pr3+  Pr13  1  0.00637742  0.89834883  0.57175136  1
  Pr3+  Pr14  1  0.87270468  0.52262427  0.93170083  1
  Pr3+  Pr15  1  0.75533078  0.88140833  0.07201079  1
  Pr3+  Pr16  1  0.88599994  0.76312596  0.43295065  1
  Pr3+  Pr17  1  0.49758520  0.89191548  0.05679902  1
  Pr3+  Pr18  1  0.37210087  0.01450577  0.92449200  1
  Pr3+  Pr19  1  0.88200923  0.26638184  0.43708288  1
  Pr3+  Pr20  1  0.25298278  0.39069253  0.06469103  1
  Pr3+  Pr21  1  0.13221203  0.01055753  0.43644915  1
  Pr3+  Pr22  1  0.62506178  0.01332609  0.93332382  1
  Pr3+  Pr23  1  0.75669892  0.13600655  0.55719326  1
  Pr3+  Pr24  1  0.75574775  0.63842698  0.56637752  1
  Pr3+  Pr25  1  0.38025993  0.50830227  0.91707373  1
  Nd3+  Nd26  1  0.12310571  0.77171945  0.93736654  1
  Nd3+  Nd27  1  0.38375715  0.51353926  0.44325591  1
  Nd3+  Nd28  1  0.50027594  0.39745364  0.06549473  1
  Nd3+  Nd29  1  0.25210332  0.63950608  0.05244797  1
  Nd3+  Nd30  1  0.75821503  0.88707437  0.55874548  1
  Nd3+  Nd31  1  0.25767698  0.88532689  0.55971547  1
  Nd3+  Nd32  1  0.25812735  0.13792624  0.55662286  1
  Nd3+  Nd33  1  0.00632140  0.89590997  0.06509084  1
  Nd3+  Nd34  1  -0.00313131  0.38869893  0.06003493  1
  Nd3+  Nd35  1  0.63477213  0.51470733  0.43690280  1
  Nd3+  Nd36  1  0.38290158  0.00773398  0.43803280  1
  Nd3+  Nd37  1  0.87310229  0.01038416  0.93557195  1
  Nd3+  Nd38  1  0.50663429  0.88646062  0.56489824  1
  Nd3+  Nd39  1  0.63087771  0.26203839  0.44031319  1
  Nd3+  Nd40  1  0.63251595  0.52145053  0.92856487  1
  Nd3+  Nd41  1  0.88053973  0.00893015  0.42914016  1
  Nd3+  Nd42  1  0.13157462  0.26309910  0.44476219  1
  Nd3+  Nd43  1  0.12308260  0.02413662  0.92687995  1
  Nd3+  Nd44  1  0.00545701  0.39007286  0.56761105  1
  Sm3+  Sm45  1  0.12999383  0.51389855  0.44205520  1
  Sm3+  Sm46  1  0.25789441  0.38887699  0.55355363  1
  Sm3+  Sm47  1  0.89127494  0.51884907  0.42703611  1
  Sm3+  Sm48  1  0.12701419  0.51606873  0.94359478  1
  Sm3+  Sm49  1  0.50605356  0.13610907  0.55468901  1
  Sm3+  Sm50  1  0.75802296  0.39033303  0.55527754  1
  Sm3+  Sm51  1  0.37142181  0.76804069  0.93198843  1
  Sm3+  Sm52  1  0.63056637  0.00883063  0.44279075  1
  Sm3+  Sm53  1  0.12914418  0.76309506  0.45293394  1
  Sm3+  Sm54  1  0.37854203  0.27021186  0.93845531  1
  Sm3+  Sm55  1  0.38320455  0.75969734  0.44218217  1
  Sm3+  Sm56  1  0.00046756  0.63845192  0.56639837  1
  Sm3+  Sm57  1  -0.00038796  0.13996579  0.04810028  1
  Sm3+  Sm58  1  0.25517226  0.63701305  0.55712332  1
  Sm3+  Sm59  1  0.62780624  0.27193790  0.94755059  1
  Sm3+  Sm60  1  0.49957209  0.14052890  0.05135228  1
  Sm3+  Sm61  1  0.00554233  0.13862708  0.55329132  1
  Sm3+  Sm62  1  0.86994501  0.27060300  0.94574406  1
  Sm3+  Sm63  1  0.24793716  0.89889558  0.06182113  1
  Bi2+  Bi64  1  0.00075658  0.05716170  0.28930723  1
  Bi2+  Bi65  1  0.00839531  0.08133813  0.78809847  1
  Bi2+  Bi66  1  -0.02310599  0.34168903  0.30900522  1
  Bi2+  Bi67  1  0.00899827  0.38483174  0.79506967  1
  Bi2+  Bi68  1  0.02907751  0.61889429  0.29650055  1
  Bi2+  Bi69  1  -0.02924371  0.57657989  0.77590231  1
  Bi2+  Bi70  1  0.02717240  0.86053300  0.29086498  1
  Bi2+  Bi71  1  -0.01995858  0.81485559  0.80523893  1
  Bi2+  Bi72  1  0.19068266  0.17606219  0.26150782  1
  Bi2+  Bi73  1  0.29348691  0.03151124  0.79833836  1
  Bi2+  Bi74  1  0.22556338  0.37024713  0.28989099  1
  Bi2+  Bi75  1  0.18719386  0.42070757  0.74766790  1
  Bi2+  Bi76  1  0.23463621  0.62713328  0.29074515  1
  Bi2+  Bi77  1  0.24873121  0.62193685  0.74464206  1
  Bi2+  Bi78  1  0.28593783  0.91329062  0.29183215  1
  Bi2+  Bi79  1  0.20249959  0.84318302  0.78950208  1
  Bi2+  Bi80  1  0.47951964  0.07406653  0.25253920  1
  Bi2+  Bi81  1  0.51040031  0.07322206  0.82334197  1
  Bi2+  Bi82  1  0.47898986  0.38712607  0.30850290  1
  Bi2+  Bi83  1  0.50639184  0.35286179  0.79731719  1
  Bi2+  Bi84  1  0.43440444  0.66358684  0.28435355  1
  Bi2+  Bi85  1  0.48979529  0.62240483  0.79293874  1
  Bi2+  Bi86  1  0.52848973  0.91218760  0.30996777  1
  Bi2+  Bi87  1  0.49125447  0.88324766  0.79290634  1
  Bi2+  Bi88  1  0.73045525  0.10603630  0.23995353  1
  Bi2+  Bi89  1  0.81406392  0.07021851  0.81210755  1
  Bi2+  Bi90  1  0.72696967  0.32352672  0.31126337  1
  Bi2+  Bi91  1  0.77025711  0.35081467  0.78856339  1
  Bi2+  Bi92  1  0.75132501  0.58965277  0.30808766  1
  Bi2+  Bi93  1  0.76460869  0.61618125  0.78816718  1
  Bi2+  Bi94  1  0.76326532  0.90118232  0.28611271  1
  Bi2+  Bi95  1  0.73199483  0.90091473  0.77375409  1
  Bi2+  Bi96  1  0.13029636  0.01869493  0.19465798  1
  Bi2+  Bi97  1  0.15838471  0.03607463  0.69973333  1
  Bi2+  Bi98  1  0.14633384  0.32021012  0.17135863  1
  Bi2+  Bi99  1  0.18850822  0.21442111  0.74563595  1
  Bi2+  Bi100  1  0.14326073  0.50117094  0.21803134  1
  Bi2+  Bi101  1  0.07786278  0.53878699  0.67510477  1
  Bi2+  Bi102  1  0.17677535  0.78158197  0.22808582  1
  Bi2+  Bi103  1  0.08969505  0.72568193  0.71087084  1
  Bi2+  Bi104  1  0.35097875  -0.02271386  0.18690063  1
  Bi2+  Bi105  1  0.42958615  0.01076621  0.71236356  1
  Bi2+  Bi106  1  0.33116402  0.27939331  0.20965256  1
  Bi2+  Bi107  1  0.37300868  0.21140231  0.79056731  1
  Bi2+  Bi108  1  0.37152194  0.54020085  0.20124106  1
  Bi2+  Bi109  1  0.38248862  0.41043878  0.71422831  1
  Bi2+  Bi110  1  0.37035936  0.78869570  0.19951871  1
  Bi2+  Bi111  1  0.34404937  0.79336971  0.71018030  1
  Bi2+  Bi112  1  0.64688857  -0.05879803  0.19592457  1
  Bi2+  Bi113  1  0.63175782  0.01084203  0.69547304  1
  Bi2+  Bi114  1  0.58384751  0.22393571  0.20917931  1
  Bi2+  Bi115  1  0.65814238  0.16158509  0.76826429  1
  Bi2+  Bi116  1  0.61970076  0.50155320  0.21088354  1
  Bi2+  Bi117  1  0.62829372  0.47061636  0.69816168  1
  Bi2+  Bi118  1  0.61362794  0.75784113  0.25776121  1
  Bi2+  Bi119  1  0.63463627  0.76214122  0.71278055  1
  Bi2+  Bi120  1  0.87685238  -0.00352871  0.20420445  1
  Bi2+  Bi121  1  0.88775577  -0.00596368  0.70042565  1
  Bi2+  Bi122  1  0.99751584  0.22087230  0.22142277  1
  Bi2+  Bi123  1  0.91241021  0.23882697  0.73983210  1
  Bi2+  Bi124  1  0.88179195  0.49965919  0.21166906  1
  Bi2+  Bi125  1  0.89438731  0.45523922  0.68767160  1
  Bi2+  Bi126  1  0.85397068  0.73890763  0.20480457  1
  Bi2+  Bi127  1  0.86854046  0.73690465  0.71366353  1
  S2-  S128  1  -0.00667967  0.09864048  0.14321297  1
  S2-  S129  1  0.01261290  0.04918101  0.63570794  1
  S2-  S130  1  -0.07700972  0.38507277  0.14970310  1
  S2-  S131  1  -0.01537028  0.31664058  0.65750049  1
  S2-  S132  1  -0.02912416  0.63258174  0.16543801  1
  S2-  S133  1  -0.11888112  0.62203318  0.63803413  1
  S2-  S134  1  -0.09118664  0.86298800  0.14599866  1
  S2-  S135  1  -0.01391953  0.84647493  0.66784549  1
  S2-  S136  1  0.25442216  0.09436363  0.13643389  1
  S2-  S137  1  0.26000649  0.14521782  0.65505139  1
  S2-  S138  1  0.37158806  0.39728377  0.14102230  1
  S2-  S139  1  0.25772061  0.38830453  0.65012032  1
  S2-  S140  1  0.24054666  0.60104057  0.14899153  1
  S2-  S141  1  0.31609323  0.65546326  0.64665539  1
  S2-  S142  1  0.13506719  0.88602332  0.13771932  1
  S2-  S143  1  0.24030607  0.89531637  0.65746276  1
  S2-  S144  1  0.49847201  0.12615620  0.14883867  1
  S2-  S145  1  0.51817843  0.11729845  0.65068380  1
  S2-  S146  1  0.58548045  0.37481837  0.15347928  1
  S2-  S147  1  0.52316290  0.34564749  0.66445620  1
  S2-  S148  1  0.51405139  0.59075691  0.14717893  1
  S2-  S149  1  0.47599664  0.55372069  0.69505168  1
  S2-  S150  1  0.51525765  0.84925636  0.15382264  1
  S2-  S151  1  0.49853476  0.80412876  0.65264336  1
  S2-  S152  1  0.74609656  0.19370634  0.14988659  1
  S2-  S153  1  0.78014717  0.08505953  0.65232644  1
  S2-  S154  1  0.75332700  0.38139909  0.22474254  1
  S2-  S155  1  0.74486217  0.38002382  0.65309980  1
  S2-  S156  1  0.74818488  0.53384322  0.14957422  1
  S2-  S157  1  0.65382301  0.62014962  0.65013473  1
  S2-  S158  1  0.73576316  0.75170167  0.14287892  1
  S2-  S159  1  0.74950188  0.82805454  0.65143538  1
  S2-  S160  1  0.14030329  -0.01792035  0.33872347  1
  S2-  S161  1  0.08387044  -0.05546364  0.84188777  1
  S2-  S162  1  0.11150712  0.25918562  0.34716821  1
  S2-  S163  1  0.12284019  0.17160105  0.84015381  1
  S2-  S164  1  0.03756739  0.49577575  0.36077305  1
  S2-  S165  1  0.13379194  0.42721790  0.85965740  1
  S2-  S166  1  0.08888761  0.75088857  0.35884710  1
  S2-  S167  1  0.12240964  0.72111522  0.84209109  1
  S2-  S168  1  0.38556686  0.03566551  0.34116193  1
  S2-  S169  1  0.33143304  -0.11501962  0.85687943  1
  S2-  S170  1  0.36160765  0.28683093  0.34206203  1
  S2-  S171  1  0.36047571  0.35673836  0.85455983  1
  S2-  S172  1  0.38586465  0.51684305  0.34434679  1
  S2-  S173  1  0.33847277  0.60031348  0.82860000  1
  S2-  S174  1  0.39029038  0.80056971  0.34724016  1
  S2-  S175  1  0.48109300  0.75222467  0.85476096  1
  S2-  S176  1  0.65600158  0.00647264  0.34686603  1
  S2-  S177  1  0.63574267  -0.10244829  0.85665594  1
  S2-  S178  1  0.57677080  0.25710466  0.34626756  1
  S2-  S179  1  0.64281162  0.27771818  0.84930979  1
  S2-  S180  1  0.61330832  0.49068204  0.33743965  1
  S2-  S181  1  0.52338949  0.49340230  0.85140430  1
  S2-  S182  1  0.66701748  0.72754150  0.35052579  1
  S2-  S183  1  0.65064503  0.65949499  0.84977111  1
  S2-  S184  1  0.89105814  -0.11279200  0.35843584  1
  S2-  S185  1  0.87037969  -0.11400638  0.86165097  1
  S2-  S186  1  0.86187320  0.22043463  0.34136187  1
  S2-  S187  1  0.89191007  0.28053207  0.84834874  1
  S2-  S188  1  0.83248953  0.44436147  0.34334044  1
  S2-  S189  1  0.76211203  0.47968555  0.85092038  1
  S2-  S190  1  0.88369478  0.64897195  0.35480844  1
  S2-  S191  1  0.88851964  0.65481212  0.85994372  1
  S2-  S192  1  0.00550739  0.13549733  0.44918304  1
  S2-  S193  1  -0.00593882  0.14309622  0.94499771  1
  S2-  S194  1  0.00827175  0.38659535  0.46075961  1
  S2-  S195  1  -0.00530611  0.39502797  0.95426185  1
  S2-  S196  1  0.01042608  0.63735522  0.46352119  1
  S2-  S197  1  0.00835900  0.64015522  0.95748296  1
  S2-  S198  1  0.00985631  0.88951066  0.46130818  1
  S2-  S199  1  0.00311305  0.89539031  0.95866279  1
  S2-  S200  1  0.25859195  0.13730544  0.44948287  1
  S2-  S201  1  0.25249348  0.14715892  0.93966506  1
  S2-  S202  1  0.25455408  0.39002707  0.44974866  1
  S2-  S203  1  0.25285486  0.39197706  0.95919151  1
  S2-  S204  1  0.25478525  0.63838268  0.45186295  1
  S2-  S205  1  0.24833135  0.64116351  0.94733087  1
  S2-  S206  1  0.25708590  0.88315329  0.45348490  1
  S2-  S207  1  0.24330834  0.89592474  0.95857050  1
  S2-  S208  1  0.50736022  0.13303106  0.45073260  1
  S2-  S209  1  0.50102180  0.14443320  0.94784924  1
  S2-  S210  1  0.50835438  0.38914916  0.45770123  1
  S2-  S211  1  0.50230417  0.38770701  0.95788141  1
  S2-  S212  1  0.50539778  0.63745802  0.44511166  1
  S2-  S213  1  0.49189029  0.63955272  0.95114825  1
  S2-  S214  1  0.50652392  0.88533228  0.45758200  1
  S2-  S215  1  0.49290090  0.89441203  0.95223058  1
  S2-  S216  1  0.75527023  0.13353712  0.45042390  1
  S2-  S217  1  0.74900626  0.14108425  0.95110843  1
  S2-  S218  1  0.75508960  0.38679559  0.45237344  1
  S2-  S219  1  0.75057586  0.38973816  0.95547341  1
  S2-  S220  1  0.76001339  0.63519529  0.45863544  1
  S2-  S221  1  0.74920122  0.64716889  0.95730543  1
  S2-  S222  1  0.75475609  0.88789023  0.45357780  1
  S2-  S223  1  0.74787855  0.89311271  0.96402033  1
  S2-  S224  1  0.12473520  0.02034125  0.03407637  1
  S2-  S225  1  0.13651584  0.01404880  0.54161512  1
  S2-  S226  1  0.12131538  0.26523996  0.03455806  1
  S2-  S227  1  0.13159980  0.26261033  0.55022509  1
  S2-  S228  1  0.12548430  0.51223045  0.04759827  1
  S2-  S229  1  0.13238515  0.51255881  0.54531971  1
  S2-  S230  1  0.12806585  0.76440481  0.04424071  1
  S2-  S231  1  0.12961399  0.76061165  0.55680150  1
  S2-  S232  1  0.37421367  0.01763746  0.03489427  1
  S2-  S233  1  0.38216993  0.01121717  0.54633816  1
  S2-  S234  1  0.37786019  0.26314490  0.04259810  1
  S2-  S235  1  0.38278390  0.26311516  0.54621383  1
  S2-  S236  1  0.37343440  0.51709478  0.03643741  1
  S2-  S237  1  0.38180977  0.51599288  0.54998277  1
  S2-  S238  1  0.36766294  0.77062259  0.04237040  1
  S2-  S239  1  0.38193280  0.76017288  0.54491095  1
  S2-  S240  1  0.62334879  0.01466226  0.04462129  1
  S2-  S241  1  0.62981713  0.01060542  0.54708613  1
  S2-  S242  1  0.62475986  0.26258701  0.04938275  1
  S2-  S243  1  0.63183227  0.25994215  0.54731256  1
  S2-  S244  1  0.61795081  0.51835913  0.03748350  1
  S2-  S245  1  0.63288278  0.51017148  0.54393965  1
  S2-  S246  1  0.61903600  0.76715640  0.03909177  1
  S2-  S247  1  0.62809151  0.76231358  0.54784703  1
  S2-  S248  1  0.87507884  0.01438117  0.04202396  1
  S2-  S249  1  0.88107328  0.01395813  0.53564360  1
  S2-  S250  1  0.87377137  0.26148506  0.04834302  1
  S2-  S251  1  0.88146248  0.26160603  0.54481420  1
  S2-  S252  1  0.87982679  0.51600616  0.04189291  1
  S2-  S253  1  0.88306812  0.50768230  0.53815974  1
  S2-  S254  1  0.87951782  0.76506731  0.04182596  1
  S2-  S255  1  0.88670703  0.76772932  0.54334867  1
