# generated using pymatgen
data_La6Ce7Pr13Nd19Sm19(BiS2)64
_symmetry_space_group_name_H-M   'P 1'
_cell_length_a   16.05010020
_cell_length_b   16.01110272
_cell_length_c   27.39294108
_cell_angle_alpha   90.01780549
_cell_angle_beta   89.74155071
_cell_angle_gamma   89.99899148
_symmetry_Int_Tables_number   1
_chemical_formula_structural   La6Ce7Pr13Nd19Sm19(BiS2)64
_chemical_formula_sum   'La6 Ce7 Pr13 Nd19 Sm19 Bi64 S128'
_cell_volume   7039.36064266
_cell_formula_units_Z   1
loop_
 _symmetry_equiv_pos_site_id
 _symmetry_equiv_pos_as_xyz
  1  'x, y, z'
loop_
 _atom_type_symbol
 _atom_type_oxidation_number
  La3+  3.0
  Ce3+  3.0
  Pr3+  3.0
  Nd3+  3.0
  Sm3+  3.0
  Bi2+  2.0
  S2-  -2.0
loop_
 _atom_site_type_symbol
 _atom_site_label
 _atom_site_symmetry_multiplicity
 _atom_site_fract_x
 _atom_site_fract_y
 _atom_site_fract_z
 _atom_site_occupancy
  La3+  La0  1  0.37598684  -0.00926085  0.89232234  1
  La3+  La1  1  0.63147792  0.73058184  0.91317370  1
  La3+  La2  1  0.12221154  0.24926158  0.92052176  1
  La3+  La3  1  0.24022868  0.61646859  0.11168447  1
  La3+  La4  1  0.74958281  0.39024161  0.58053458  1
  La3+  La5  1  0.50873128  0.90075517  0.58017807  1
  Ce3+  Ce6  1  0.61952986  -0.00793885  0.93603355  1
  Ce3+  Ce7  1  0.24863413  0.39778321  0.57284161  1
  Ce3+  Ce8  1  0.62383278  0.49679961  0.95226157  1
  Ce3+  Ce9  1  0.12791835  -0.00060595  0.93366538  1
  Ce3+  Ce10  1  0.25730705  0.64885296  0.56216463  1
  Ce3+  Ce11  1  0.13084683  0.02441784  0.44719862  1
  Ce3+  Ce12  1  0.87359629  0.74093228  0.94114895  1
  Pr3+  Pr13  1  0.49644694  0.36911029  0.06185764  1
  Pr3+  Pr14  1  0.75646983  0.65463320  0.56638955  1
  Pr3+  Pr15  1  0.87445867  -0.00487269  0.93577004  1
  Pr3+  Pr16  1  0.13034741  0.75012268  0.92484628  1
  Pr3+  Pr17  1  -0.00020561  0.90299132  0.56765510  1
  Pr3+  Pr18  1  0.25079827  0.86771512  0.05362966  1
  Pr3+  Pr19  1  0.74902538  0.62290898  0.07547300  1
  Pr3+  Pr20  1  0.86899027  0.24882213  0.92519628  1
  Pr3+  Pr21  1  0.87600080  0.52559418  0.43821970  1
  Pr3+  Pr22  1  -0.00619745  0.12146035  0.06218465  1
  Pr3+  Pr23  1  0.24792987  0.90317775  0.58616941  1
  Pr3+  Pr24  1  0.49958552  0.62835386  0.07395856  1
  Pr3+  Pr25  1  -0.00075555  0.15672762  0.55890272  1
  Nd3+  Nd26  1  0.00219441  0.86891248  0.05420061  1
  Nd3+  Nd27  1  -0.00147230  0.65078673  0.55993547  1
  Nd3+  Nd28  1  0.74751284  0.86807545  0.05418652  1
  Nd3+  Nd29  1  0.25387813  0.15182963  0.56782326  1
  Nd3+  Nd30  1  0.00049422  0.36888222  0.05624315  1
  Nd3+  Nd31  1  0.37763665  0.27889837  0.44433064  1
  Nd3+  Nd32  1  0.87951866  0.27309473  0.42386071  1
  Nd3+  Nd33  1  0.37483892  0.49782695  0.94346414  1
  Nd3+  Nd34  1  0.38059515  0.78027900  0.44203963  1
  Nd3+  Nd35  1  0.49724310  0.86775793  0.05091015  1
  Nd3+  Nd36  1  0.75171168  0.90330883  0.55930615  1
  Nd3+  Nd37  1  -0.00042735  0.40011774  0.56380615  1
  Nd3+  Nd38  1  0.50403598  0.15280505  0.56663170  1
  Nd3+  Nd39  1  0.62242341  0.02935005  0.43484771  1
  Nd3+  Nd40  1  0.37706877  0.53147956  0.42902166  1
  Nd3+  Nd41  1  0.24081526  0.12238308  0.06719791  1
  Nd3+  Nd42  1  0.24934346  0.36669933  0.06941739  1
  Nd3+  Nd43  1  0.63190519  0.78196341  0.42611981  1
  Nd3+  Nd44  1  0.50868411  0.65280343  0.56772187  1
  Sm3+  Sm45  1  0.88080766  0.02800253  0.43203952  1
  Sm3+  Sm46  1  0.75182537  0.15393794  0.54759090  1
  Sm3+  Sm47  1  0.62518224  0.24449658  0.94032026  1
  Sm3+  Sm48  1  0.49861715  0.41182747  0.56495398  1
  Sm3+  Sm49  1  0.13323213  0.27745283  0.43707414  1
  Sm3+  Sm50  1  0.12847564  0.49354874  0.94107199  1
  Sm3+  Sm51  1  0.12775955  0.77850326  0.44892057  1
  Sm3+  Sm52  1  0.49791298  0.11969780  0.05777575  1
  Sm3+  Sm53  1  0.37723334  0.73721423  0.93472547  1
  Sm3+  Sm54  1  0.87238746  0.49647485  0.94589333  1
  Sm3+  Sm55  1  0.37323045  0.24040253  0.93968317  1
  Sm3+  Sm56  1  0.87599537  0.78268346  0.43031668  1
  Sm3+  Sm57  1  0.37622167  0.02061806  0.44613169  1
  Sm3+  Sm58  1  0.75048859  0.12099493  0.05842844  1
  Sm3+  Sm59  1  0.75199790  0.37025403  0.05975014  1
  Sm3+  Sm60  1  0.00585613  0.62067950  0.05097727  1
  Sm3+  Sm61  1  0.62528005  0.27569678  0.43251438  1
  Sm3+  Sm62  1  0.62855347  0.52892569  0.44488420  1
  Sm3+  Sm63  1  0.12699087  0.52621376  0.44478250  1
  Bi2+  Bi64  1  -0.01252180  0.04868131  0.28501498  1
  Bi2+  Bi65  1  0.01505305  0.12834333  0.78463157  1
  Bi2+  Bi66  1  -0.08740519  0.38752921  0.27514893  1
  Bi2+  Bi67  1  0.00440729  0.40017634  0.79034736  1
  Bi2+  Bi68  1  -0.01420237  0.62895879  0.27294667  1
  Bi2+  Bi69  1  -0.01946901  0.67705401  0.79771825  1
  Bi2+  Bi70  1  0.00017298  0.82000869  0.29905491  1
  Bi2+  Bi71  1  -0.01117966  0.87836677  0.78485900  1
  Bi2+  Bi72  1  0.26370300  0.10638058  0.30689515  1
  Bi2+  Bi73  1  0.25254366  0.17977660  0.78498746  1
  Bi2+  Bi74  1  0.22670208  0.36563575  0.30643912  1
  Bi2+  Bi75  1  0.29335763  0.37153013  0.80375801  1
  Bi2+  Bi76  1  0.22123760  0.62126237  0.31723185  1
  Bi2+  Bi77  1  0.27389387  0.57676195  0.78420475  1
  Bi2+  Bi78  1  0.24284880  0.89683087  0.29503345  1
  Bi2+  Bi79  1  0.23571221  0.83241773  0.78804866  1
  Bi2+  Bi80  1  0.47385156  0.09296854  0.29200975  1
  Bi2+  Bi81  1  0.52410745  0.19930349  0.79204537  1
  Bi2+  Bi82  1  0.54045402  0.28998727  0.30180439  1
  Bi2+  Bi83  1  0.49945231  0.39782101  0.79770734  1
  Bi2+  Bi84  1  0.48471487  0.60278297  0.29999367  1
  Bi2+  Bi85  1  0.51234769  0.60368250  0.79023676  1
  Bi2+  Bi86  1  0.49279642  0.88070160  0.29637852  1
  Bi2+  Bi87  1  0.48592538  0.87998949  0.77491225  1
  Bi2+  Bi88  1  0.77254404  0.13718025  0.27466391  1
  Bi2+  Bi89  1  0.79935818  0.17237467  0.77006704  1
  Bi2+  Bi90  1  0.74138539  0.32393803  0.31869593  1
  Bi2+  Bi91  1  0.69962776  0.34467614  0.77699353  1
  Bi2+  Bi92  1  0.74928998  0.60864545  0.29045318  1
  Bi2+  Bi93  1  0.77978054  0.58115652  0.80149282  1
  Bi2+  Bi94  1  0.80491244  0.83141741  0.27321455  1
  Bi2+  Bi95  1  0.78792581  0.90723197  0.78764514  1
  Bi2+  Bi96  1  0.13369416  -0.00759247  0.20398037  1
  Bi2+  Bi97  1  0.11499998  0.01868970  0.71333148  1
  Bi2+  Bi98  1  0.10725505  0.18419181  0.24610172  1
  Bi2+  Bi99  1  0.14121573  0.29179703  0.71702809  1
  Bi2+  Bi100  1  0.07376027  0.48385301  0.21170062  1
  Bi2+  Bi101  1  0.11440713  0.52003901  0.71928674  1
  Bi2+  Bi102  1  0.08422760  0.77751061  0.19774240  1
  Bi2+  Bi103  1  0.06814361  0.73334007  0.70217259  1
  Bi2+  Bi104  1  0.33792308  0.00833934  0.21575227  1
  Bi2+  Bi105  1  0.38420228  0.00993447  0.70946262  1
  Bi2+  Bi106  1  0.39465172  0.21931802  0.19733971  1
  Bi2+  Bi107  1  0.41649178  0.26991113  0.70363076  1
  Bi2+  Bi108  1  0.36564644  0.46576674  0.21833314  1
  Bi2+  Bi109  1  0.34524821  0.45652154  0.69926187  1
  Bi2+  Bi110  1  0.36774427  0.74609307  0.20910926  1
  Bi2+  Bi111  1  0.36673633  0.69390839  0.69401384  1
  Bi2+  Bi112  1  0.63903802  -0.00693634  0.25874699  1
  Bi2+  Bi113  1  0.64602629  0.04286956  0.75831358  1
  Bi2+  Bi114  1  0.64530513  0.24569408  0.20654504  1
  Bi2+  Bi115  1  0.61004269  0.22173672  0.68623814  1
  Bi2+  Bi116  1  0.63155903  0.44274035  0.24704216  1
  Bi2+  Bi117  1  0.62720955  0.49675845  0.72047128  1
  Bi2+  Bi118  1  0.63216717  0.76615004  0.19853774  1
  Bi2+  Bi119  1  0.64152192  0.76106393  0.70880569  1
  Bi2+  Bi120  1  0.85153174  -0.01320163  0.20565434  1
  Bi2+  Bi121  1  0.79864558  -0.00168379  0.68453687  1
  Bi2+  Bi122  1  0.91722516  0.24338590  0.19964297  1
  Bi2+  Bi123  1  0.90926514  0.26314904  0.69239599  1
  Bi2+  Bi124  1  0.80701683  0.48933924  0.19319096  1
  Bi2+  Bi125  1  0.91314737  0.54272638  0.71880094  1
  Bi2+  Bi126  1  0.84699651  0.68122282  0.19299638  1
  Bi2+  Bi127  1  0.87637170  0.81752210  0.69341105  1
  S2-  S128  1  0.10118113  0.12050273  0.14291841  1
  S2-  S129  1  0.00825339  0.12628053  0.65801378  1
  S2-  S130  1  0.02293275  0.36121851  0.15544025  1
  S2-  S131  1  0.11332196  0.40592643  0.64224920  1
  S2-  S132  1  0.06826529  0.62126367  0.14202421  1
  S2-  S133  1  -0.11026277  0.66101178  0.63854725  1
  S2-  S134  1  -0.00820789  0.88891606  0.15362648  1
  S2-  S135  1  0.09771881  0.88859656  0.65113865  1
  S2-  S136  1  0.26768718  0.23971809  0.14125014  1
  S2-  S137  1  0.24898982  0.04803158  0.65010057  1
  S2-  S138  1  0.23179567  0.45562935  0.15764110  1
  S2-  S139  1  0.26503020  0.26549274  0.64581463  1
  S2-  S140  1  0.24286766  0.63818007  0.22495941  1
  S2-  S141  1  0.20470274  0.65062175  0.65651847  1
  S2-  S142  1  0.24588133  0.79110255  0.14486081  1
  S2-  S143  1  0.31647551  0.84805216  0.67922465  1
  S2-  S144  1  0.53378753  0.14158862  0.15280423  1
  S2-  S145  1  0.49852706  0.04333996  0.64596619  1
  S2-  S146  1  0.45816386  0.37281481  0.16105299  1
  S2-  S147  1  0.60500098  0.38238792  0.64223313  1
  S2-  S148  1  0.40350380  0.60374489  0.15797950  1
  S2-  S149  1  0.44920183  0.53827541  0.63760368  1
  S2-  S150  1  0.49602407  0.81457871  0.14671514  1
  S2-  S151  1  0.50131005  0.76332494  0.64977624  1
  S2-  S152  1  0.86054295  0.11613546  0.13460915  1
  S2-  S153  1  0.76529759  0.22800906  0.63562573  1
  S2-  S154  1  0.77210733  0.32388509  0.15281296  1
  S2-  S155  1  0.88665907  0.40912823  0.64480912  1
  S2-  S156  1  0.62707898  0.62938892  0.14973871  1
  S2-  S157  1  0.66531260  0.63312961  0.65359000  1
  S2-  S158  1  0.72953757  0.88937162  0.15192068  1
  S2-  S159  1  0.66233270  0.89468273  0.64530425  1
  S2-  S160  1  0.12956696  0.01165396  0.35029427  1
  S2-  S161  1  0.12081402  -0.11261998  0.85505699  1
  S2-  S162  1  0.09812131  0.27442460  0.34061383  1
  S2-  S163  1  0.13793770  0.11250755  0.85597219  1
  S2-  S164  1  0.12654004  0.49201934  0.34804444  1
  S2-  S165  1  0.13966682  0.40215502  0.85700776  1
  S2-  S166  1  0.15446534  0.77481214  0.35176211  1
  S2-  S167  1  0.15974456  0.67934410  0.83042144  1
  S2-  S168  1  0.36767881  -0.09304597  0.36856005  1
  S2-  S169  1  0.28879642  -0.01377718  0.79921581  1
  S2-  S170  1  0.32254724  0.25732663  0.35051547  1
  S2-  S171  1  0.38091158  0.16066232  0.85179838  1
  S2-  S172  1  0.37046608  0.47104243  0.32891240  1
  S2-  S173  1  0.39603694  0.60475837  0.86160746  1
  S2-  S174  1  0.36665587  0.66979440  0.36261770  1
  S2-  S175  1  0.37249159  0.82271896  0.84595572  1
  S2-  S176  1  0.62974163  -0.07599546  0.35499922  1
  S2-  S177  1  0.54127796  -0.00797560  0.84793012  1
  S2-  S178  1  0.59658063  0.15553140  0.36183412  1
  S2-  S179  1  0.72900396  0.24237379  0.86011477  1
  S2-  S180  1  0.61836450  0.52324468  0.34597751  1
  S2-  S181  1  0.63612056  0.56528878  0.86380406  1
  S2-  S182  1  0.55125981  0.73468845  0.33726736  1
  S2-  S183  1  0.58626471  0.76786070  0.81258281  1
  S2-  S184  1  0.89098659  -0.08983970  0.35963113  1
  S2-  S185  1  0.89886391  0.01927845  0.83742997  1
  S2-  S186  1  0.89017526  0.14199846  0.35416555  1
  S2-  S187  1  0.98202231  0.25359794  0.84730788  1
  S2-  S188  1  0.88548885  0.52997068  0.33793231  1
  S2-  S189  1  0.86460642  0.45434830  0.85103189  1
  S2-  S190  1  0.76483266  0.73818114  0.35674802  1
  S2-  S191  1  0.79028314  0.72381891  0.85706885  1
  S2-  S192  1  0.00812456  0.15333277  0.45286341  1
  S2-  S193  1  -0.00564809  0.12225708  0.95391627  1
  S2-  S194  1  0.00420812  0.39829811  0.45121126  1
  S2-  S195  1  -0.00398743  0.37475912  0.95301577  1
  S2-  S196  1  0.00174834  0.65392835  0.45092403  1
  S2-  S197  1  0.00178321  0.61645387  0.94623386  1
  S2-  S198  1  0.00474239  0.90216600  0.46061367  1
  S2-  S199  1  -0.00436161  0.86766796  0.94935064  1
  S2-  S200  1  0.25498828  0.15066241  0.45949480  1
  S2-  S201  1  0.25769013  0.11542758  0.95744501  1
  S2-  S202  1  0.25128534  0.40307323  0.45628549  1
  S2-  S203  1  0.25513944  0.36857378  0.95788219  1
  S2-  S204  1  0.24711249  0.65185895  0.45831109  1
  S2-  S205  1  0.24642542  0.61750216  0.94805411  1
  S2-  S206  1  0.24954928  0.89984770  0.46901942  1
  S2-  S207  1  0.26080529  0.87533088  0.94885183  1
  S2-  S208  1  0.49350824  0.14993370  0.46122939  1
  S2-  S209  1  0.50165917  0.12089851  0.95353114  1
  S2-  S210  1  0.50413356  0.40293387  0.45086835  1
  S2-  S211  1  0.49948758  0.36675105  0.95250170  1
  S2-  S212  1  0.50652286  0.65020161  0.45944178  1
  S2-  S213  1  0.50336073  0.62124186  0.96412331  1
  S2-  S214  1  0.50489945  0.90341424  0.46382863  1
  S2-  S215  1  0.50299938  0.86216604  0.94679530  1
  S2-  S216  1  0.75324145  0.15266683  0.44725172  1
  S2-  S217  1  0.74552122  0.11643731  0.95499977  1
  S2-  S218  1  0.75013764  0.39792975  0.44779860  1
  S2-  S219  1  0.74729872  0.37281238  0.95685772  1
  S2-  S220  1  0.75327294  0.64901292  0.45873738  1
  S2-  S221  1  0.75181865  0.61739683  0.96740295  1
  S2-  S222  1  0.75483913  0.90772605  0.45563582  1
  S2-  S223  1  0.74637613  0.86875478  0.94775815  1
  S2-  S224  1  0.12356662  -0.00654142  0.04091376  1
  S2-  S225  1  0.12379139  0.02949708  0.55043819  1
  S2-  S226  1  0.12223457  0.24704417  0.03626620  1
  S2-  S227  1  0.12778215  0.27558371  0.54192399  1
  S2-  S228  1  0.12600661  0.49389649  0.04388693  1
  S2-  S229  1  0.12494100  0.52842942  0.54669420  1
  S2-  S230  1  0.12386484  0.74492325  0.03516487  1
  S2-  S231  1  0.12570099  0.77311488  0.55102725  1
  S2-  S232  1  0.37536275  -0.00199316  0.06077484  1
  S2-  S233  1  0.37652485  0.02501704  0.54770887  1
  S2-  S234  1  0.37785805  0.24176342  0.04182424  1
  S2-  S235  1  0.38407095  0.28138577  0.54852784  1
  S2-  S236  1  0.37169355  0.49422358  0.04797197  1
  S2-  S237  1  0.37069730  0.52202357  0.53506670  1
  S2-  S238  1  0.37374616  0.74292266  0.03990261  1
  S2-  S239  1  0.37639729  0.77639667  0.54922076  1
  S2-  S240  1  0.62442225  -0.00268476  0.04462746  1
  S2-  S241  1  0.63063221  0.03196929  0.54204226  1
  S2-  S242  1  0.62739174  0.24524205  0.04474624  1
  S2-  S243  1  0.62356888  0.27574647  0.53514372  1
  S2-  S244  1  0.62587427  0.49049673  0.05666698  1
  S2-  S245  1  0.63188816  0.52215262  0.54632676  1
  S2-  S246  1  0.62657337  0.74656680  0.04063444  1
  S2-  S247  1  0.63239358  0.77676957  0.53917233  1
  S2-  S248  1  0.87206329  -0.00883788  0.04068634  1
  S2-  S249  1  0.87687893  0.02990324  0.54158828  1
  S2-  S250  1  0.87021199  0.24819825  0.03594495  1
  S2-  S251  1  0.87632109  0.27856928  0.53137394  1
  S2-  S252  1  0.87678832  0.49719126  0.05165695  1
  S2-  S253  1  0.87551553  0.52209741  0.54237858  1
  S2-  S254  1  0.87696928  0.74357943  0.04815856  1
  S2-  S255  1  0.87867848  0.78181432  0.53716049  1
