# generated using pymatgen
data_La6Ce7Pr13Nd19Sm19(BiS2)64
_symmetry_space_group_name_H-M   'P 1'
_cell_length_a   16.04166202
_cell_length_b   16.04784699
_cell_length_c   27.26737866
_cell_angle_alpha   89.88885024
_cell_angle_beta   89.89971046
_cell_angle_gamma   90.13338187
_symmetry_Int_Tables_number   1
_chemical_formula_structural   La6Ce7Pr13Nd19Sm19(BiS2)64
_chemical_formula_sum   'La6 Ce7 Pr13 Nd19 Sm19 Bi64 S128'
_cell_volume   7019.51106813
_cell_formula_units_Z   1
loop_
 _symmetry_equiv_pos_site_id
 _symmetry_equiv_pos_as_xyz
  1  'x, y, z'
loop_
 _atom_type_symbol
 _atom_type_oxidation_number
  La3+  3.0
  Ce3+  3.0
  Pr3+  3.0
  Nd3+  3.0
  Sm3+  3.0
  Bi2+  2.0
  S2-  -2.0
loop_
 _atom_site_type_symbol
 _atom_site_label
 _atom_site_symmetry_multiplicity
 _atom_site_fract_x
 _atom_site_fract_y
 _atom_site_fract_z
 _atom_site_occupancy
  La3+  La0  1  0.74471423  0.38259997  0.59975879  1
  La3+  La1  1  0.38794103  0.50750922  0.41999842  1
  La3+  La2  1  0.74573879  0.12185959  0.59751281  1
  La3+  La3  1  0.01204874  0.13893128  0.58769713  1
  La3+  La4  1  0.01603454  0.87099727  0.60225849  1
  La3+  La5  1  0.88632604  0.24117316  0.40536277  1
  Ce3+  Ce6  1  0.50210840  0.88044167  0.54958151  1
  Ce3+  Ce7  1  0.87530423  0.02001013  0.93205519  1
  Ce3+  Ce8  1  0.88278490  0.76098980  0.44887760  1
  Ce3+  Ce9  1  -0.00081070  0.14687455  0.06223631  1
  Ce3+  Ce10  1  0.12136329  0.76956337  0.93648413  1
  Ce3+  Ce11  1  0.11738099  0.51073209  0.94049011  1
  Ce3+  Ce12  1  0.00084301  0.89797647  0.05229429  1
  Pr3+  Pr13  1  0.12812982  0.50557538  0.43923392  1
  Pr3+  Pr14  1  0.74206332  0.64738237  0.06014086  1
  Pr3+  Pr15  1  0.61830770  0.27443447  0.93504112  1
  Pr3+  Pr16  1  0.25991369  0.63008595  0.55459551  1
  Pr3+  Pr17  1  0.23782601  0.89160872  0.08851107  1
  Pr3+  Pr18  1  0.74258213  0.13847746  0.05682590  1
  Pr3+  Pr19  1  0.12863342  0.01298335  0.44807931  1
  Pr3+  Pr20  1  0.62307112  0.02216550  0.91732209  1
  Pr3+  Pr21  1  0.64474175  0.76117946  0.42595286  1
  Pr3+  Pr22  1  0.51106827  0.63197924  0.54907475  1
  Pr3+  Pr23  1  0.26019174  0.13060582  0.56739752  1
  Pr3+  Pr24  1  0.75631890  0.63450827  0.56753600  1
  Pr3+  Pr25  1  0.37846203  0.76023932  0.41424949  1
  Nd3+  Nd26  1  0.88245546  0.50428746  0.44061513  1
  Nd3+  Nd27  1  0.61711891  0.52057877  0.93275542  1
  Nd3+  Nd28  1  0.49602505  0.89200025  0.06507792  1
  Nd3+  Nd29  1  0.24509658  0.14091887  0.06187735  1
  Nd3+  Nd30  1  0.50011955  0.39702019  0.07392487  1
  Nd3+  Nd31  1  0.37278085  0.00747640  0.42323270  1
  Nd3+  Nd32  1  0.64676980  0.50219540  0.43153634  1
  Nd3+  Nd33  1  0.26325958  0.87465026  0.57043234  1
  Nd3+  Nd34  1  0.49345277  0.64498877  0.06779561  1
  Nd3+  Nd35  1  0.36737873  0.77034409  0.94439250  1
  Nd3+  Nd36  1  -0.00308646  0.64225918  0.05433791  1
  Nd3+  Nd37  1  0.13332549  0.76232164  0.43772291  1
  Nd3+  Nd38  1  0.50773586  0.38324870  0.55934329  1
  Nd3+  Nd39  1  -0.00057804  0.37587502  0.56107700  1
  Nd3+  Nd40  1  0.11917658  0.27037546  0.93574206  1
  Nd3+  Nd41  1  0.12962243  0.02297285  0.91793050  1
  Nd3+  Nd42  1  0.74341006  0.89441014  0.04728779  1
  Nd3+  Nd43  1  0.64271507  0.25747429  0.44422733  1
  Nd3+  Nd44  1  0.24605681  0.38911808  0.06676615  1
  Sm3+  Sm45  1  0.75647106  0.87978177  0.56766069  1
  Sm3+  Sm46  1  0.50795213  0.13275712  0.55327316  1
  Sm3+  Sm47  1  0.37259860  0.26911344  0.94367605  1
  Sm3+  Sm48  1  0.86693291  0.51614232  0.94348891  1
  Sm3+  Sm49  1  0.12964187  0.25613064  0.44448507  1
  Sm3+  Sm50  1  0.49548255  0.13493516  0.05646070  1
  Sm3+  Sm51  1  -0.01144801  0.39203245  0.07216444  1
  Sm3+  Sm52  1  0.87174002  0.76775454  0.93854379  1
  Sm3+  Sm53  1  0.00799588  0.62926924  0.56049776  1
  Sm3+  Sm54  1  0.86872216  0.26955399  0.94217174  1
  Sm3+  Sm55  1  0.24346864  0.64000106  0.05541744  1
  Sm3+  Sm56  1  0.61693781  0.76980411  0.92922505  1
  Sm3+  Sm57  1  0.38468511  0.25662624  0.43022524  1
  Sm3+  Sm58  1  0.63913519  0.01193695  0.44509760  1
  Sm3+  Sm59  1  0.37178618  0.51824339  0.94548575  1
  Sm3+  Sm60  1  0.36869359  0.01652742  0.94087166  1
  Sm3+  Sm61  1  0.26033279  0.38151568  0.55020564  1
  Sm3+  Sm62  1  0.88562356  0.01352651  0.46427496  1
  Sm3+  Sm63  1  0.74465497  0.39301137  0.06790130  1
  Bi2+  Bi64  1  0.00177130  0.08589294  0.29162737  1
  Bi2+  Bi65  1  -0.01430870  0.12961380  0.81212222  1
  Bi2+  Bi66  1  0.05519422  0.34627066  0.29181783  1
  Bi2+  Bi67  1  -0.01366083  0.41298663  0.79279439  1
  Bi2+  Bi68  1  -0.03121875  0.59811225  0.31259246  1
  Bi2+  Bi69  1  0.01901834  0.60652263  0.79694596  1
  Bi2+  Bi70  1  0.03497432  0.88452203  0.29245127  1
  Bi2+  Bi71  1  -0.00360099  0.81035860  0.79300907  1
  Bi2+  Bi72  1  0.26571423  0.11821592  0.28508460  1
  Bi2+  Bi73  1  0.28018588  0.14836971  0.79281729  1
  Bi2+  Bi74  1  0.25348700  0.31848795  0.29229275  1
  Bi2+  Bi75  1  0.23024837  0.39933574  0.78630898  1
  Bi2+  Bi76  1  0.15808192  0.63100195  0.29230907  1
  Bi2+  Bi77  1  0.21933840  0.59765911  0.77764760  1
  Bi2+  Bi78  1  0.25573586  0.88600846  0.28670291  1
  Bi2+  Bi79  1  0.28501498  0.87524845  0.78879149  1
  Bi2+  Bi80  1  0.54288846  0.11384764  0.28325730  1
  Bi2+  Bi81  1  0.47497245  0.09209480  0.79509980  1
  Bi2+  Bi82  1  0.47424257  0.31171124  0.27019806  1
  Bi2+  Bi83  1  0.42698329  0.38057344  0.77644594  1
  Bi2+  Bi84  1  0.51881858  0.58096574  0.29484117  1
  Bi2+  Bi85  1  0.47435669  0.63358719  0.79262975  1
  Bi2+  Bi86  1  0.47811298  0.92749084  0.25744306  1
  Bi2+  Bi87  1  0.48201517  0.88438836  0.78408564  1
  Bi2+  Bi88  1  0.77110254  0.10438343  0.29136224  1
  Bi2+  Bi89  1  0.67578299  0.07135801  0.78378793  1
  Bi2+  Bi90  1  0.72999965  0.37129040  0.29493265  1
  Bi2+  Bi91  1  0.73475587  0.34275923  0.80707610  1
  Bi2+  Bi92  1  0.75300971  0.65269530  0.29889202  1
  Bi2+  Bi93  1  0.74098605  0.59955159  0.79160667  1
  Bi2+  Bi94  1  0.66184778  0.87195228  0.27850251  1
  Bi2+  Bi95  1  0.70844805  0.79574780  0.77635342  1
  Bi2+  Bi96  1  0.10355086  0.02249485  0.20262674  1
  Bi2+  Bi97  1  0.10923820  0.01161719  0.72466208  1
  Bi2+  Bi98  1  0.19328350  0.23896073  0.19552517  1
  Bi2+  Bi99  1  0.15067550  0.26600534  0.71561455  1
  Bi2+  Bi100  1  0.09051648  0.49803782  0.21340722  1
  Bi2+  Bi101  1  0.07626824  0.54349966  0.69140664  1
  Bi2+  Bi102  1  0.09916013  0.74221712  0.20265856  1
  Bi2+  Bi103  1  0.17244879  0.75607423  0.71238048  1
  Bi2+  Bi104  1  0.40399531  0.08272018  0.20027003  1
  Bi2+  Bi105  1  0.36484170  0.01992047  0.70520241  1
  Bi2+  Bi106  1  0.38520242  0.27252588  0.16316061  1
  Bi2+  Bi107  1  0.35469563  0.21414316  0.68435133  1
  Bi2+  Bi108  1  0.37039915  0.45447854  0.21761080  1
  Bi2+  Bi109  1  0.33202969  0.49937879  0.70039599  1
  Bi2+  Bi110  1  0.37051237  0.71809451  0.20728649  1
  Bi2+  Bi111  1  0.42931484  0.74452823  0.68738200  1
  Bi2+  Bi112  1  0.68340971  0.00397134  0.18466006  1
  Bi2+  Bi113  1  0.57638607  -0.01974628  0.69723405  1
  Bi2+  Bi114  1  0.63494978  0.24403828  0.21556814  1
  Bi2+  Bi115  1  0.53852807  0.25466792  0.71560859  1
  Bi2+  Bi116  1  0.61361744  0.50489304  0.20868618  1
  Bi2+  Bi117  1  0.59490691  0.56596070  0.71455622  1
  Bi2+  Bi118  1  0.63895137  0.73369227  0.19858026  1
  Bi2+  Bi119  1  0.62760753  0.75936683  0.66960679  1
  Bi2+  Bi120  1  0.86472277  -0.05189161  0.24140829  1
  Bi2+  Bi121  1  0.84643535  -0.01301205  0.73171941  1
  Bi2+  Bi122  1  0.90476347  0.24030152  0.19547995  1
  Bi2+  Bi123  1  0.90204715  0.24141545  0.71497898  1
  Bi2+  Bi124  1  0.89926147  0.50363133  0.21923467  1
  Bi2+  Bi125  1  0.88628161  0.50473753  0.70947198  1
  Bi2+  Bi126  1  0.91064574  0.75136336  0.24444606  1
  Bi2+  Bi127  1  0.81077385  0.69187870  0.69609570  1
  S2-  S128  1  -0.03711061  0.09138953  0.15350058  1
  S2-  S129  1  -0.02800925  0.07657057  0.68265382  1
  S2-  S130  1  0.03677666  0.28166871  0.14559216  1
  S2-  S131  1  0.03171088  0.30785059  0.65270085  1
  S2-  S132  1  -0.00728758  0.61355932  0.15185716  1
  S2-  S133  1  0.04008662  0.70183526  0.64736606  1
  S2-  S134  1  0.08100821  0.88140484  0.13981376  1
  S2-  S135  1  -0.05752630  0.87045694  0.69814945  1
  S2-  S136  1  0.24129468  0.04362408  0.14448467  1
  S2-  S137  1  0.16048101  0.12838102  0.65244212  1
  S2-  S138  1  0.23168514  0.45616397  0.15899712  1
  S2-  S139  1  0.27435016  0.36322994  0.64750426  1
  S2-  S140  1  0.24501302  0.67619754  0.15198018  1
  S2-  S141  1  0.27798900  0.72611987  0.63800806  1
  S2-  S142  1  0.31774438  0.86185076  0.18358643  1
  S2-  S143  1  0.16349769  0.90412027  0.65754058  1
  S2-  S144  1  0.52767215  0.02306899  0.13171767  1
  S2-  S145  1  0.57724625  0.12878342  0.64412462  1
  S2-  S146  1  0.63135683  0.37708939  0.14235174  1
  S2-  S147  1  0.58134063  0.37068057  0.64966510  1
  S2-  S148  1  0.48252931  0.53053894  0.14639595  1
  S2-  S149  1  0.46242042  0.58014975  0.64242921  1
  S2-  S150  1  0.50162781  0.76755444  0.14141167  1
  S2-  S151  1  0.40639111  0.89050447  0.63318403  1
  S2-  S152  1  0.75852795  0.16522079  0.15658311  1
  S2-  S153  1  0.77111178  0.15055729  0.70176325  1
  S2-  S154  1  0.85970343  0.39271852  0.14687374  1
  S2-  S155  1  0.78858361  0.35675636  0.70368617  1
  S2-  S156  1  0.73178975  0.60914467  0.15842047  1
  S2-  S157  1  0.72799190  0.53789470  0.65010218  1
  S2-  S158  1  0.73188889  0.85692803  0.14412974  1
  S2-  S159  1  0.73921460  0.96195139  0.65326209  1
  S2-  S160  1  0.20972138  0.00171719  0.35755166  1
  S2-  S161  1  0.04979573  -0.01930350  0.82639998  1
  S2-  S162  1  0.05856777  0.21174100  0.35846386  1
  S2-  S163  1  0.12998159  0.17042317  0.85331040  1
  S2-  S164  1  0.15789646  0.47511172  0.34173629  1
  S2-  S165  1  0.10654669  0.39879122  0.86457566  1
  S2-  S166  1  0.22519047  0.76717882  0.35177014  1
  S2-  S167  1  0.15313346  0.78916014  0.84133575  1
  S2-  S168  1  0.40105904  -0.10598915  0.34470469  1
  S2-  S169  1  0.27668796  0.00481209  0.85662773  1
  S2-  S170  1  0.38505436  0.13921125  0.35577117  1
  S2-  S171  1  0.39365279  0.25176529  0.84688093  1
  S2-  S172  1  0.38264334  0.37296407  0.35360919  1
  S2-  S173  1  0.40988790  0.51158993  0.84985770  1
  S2-  S174  1  0.38577891  0.62563711  0.34334101  1
  S2-  S175  1  0.38900195  0.76296809  0.84545341  1
  S2-  S176  1  0.65683697  0.00481654  0.34689472  1
  S2-  S177  1  0.61793476  -0.11631459  0.85180622  1
  S2-  S178  1  0.72386193  0.23554565  0.35419409  1
  S2-  S179  1  0.65482882  0.19390295  0.84632422  1
  S2-  S180  1  0.60043919  0.43425425  0.33920235  1
  S2-  S181  1  0.61528995  0.39961441  0.85937260  1
  S2-  S182  1  0.58740930  0.72540621  0.33000595  1
  S2-  S183  1  0.60923850  0.64513798  0.85975277  1
  S2-  S184  1  0.88427194  0.07056869  0.36893254  1
  S2-  S185  1  0.83141638  0.02836814  0.83653567  1
  S2-  S186  1  0.90123943  0.35140691  0.32363862  1
  S2-  S187  1  0.88534315  0.26927064  0.84316199  1
  S2-  S188  1  0.77881271  0.52822012  0.35972065  1
  S2-  S189  1  0.82659924  0.47965181  0.84950074  1
  S2-  S190  1  0.79553102  0.77468204  0.36537901  1
  S2-  S191  1  0.85617985  0.77683470  0.84051827  1
  S2-  S192  1  0.00484163  0.13922958  0.47411475  1
  S2-  S193  1  -0.00560555  0.14582188  0.95328524  1
  S2-  S194  1  0.00314502  0.37694540  0.45414230  1
  S2-  S195  1  -0.01283414  0.39324947  0.96480571  1
  S2-  S196  1  0.00706462  0.63432468  0.45530891  1
  S2-  S197  1  -0.00640279  0.64021198  0.94732164  1
  S2-  S198  1  0.00572918  0.88611703  0.44751938  1
  S2-  S199  1  -0.00322904  0.89313944  0.94603994  1
  S2-  S200  1  0.25574267  0.13916773  0.45944076  1
  S2-  S201  1  0.25120224  0.14609115  0.95651098  1
  S2-  S202  1  0.25394703  0.37901657  0.44876588  1
  S2-  S203  1  0.25115511  0.39239400  0.95813259  1
  S2-  S204  1  0.25329454  0.62926614  0.44928599  1
  S2-  S205  1  0.24412270  0.63856664  0.94927154  1
  S2-  S206  1  0.25579917  0.88391006  0.46063197  1
  S2-  S207  1  0.24307000  0.89314863  0.95613406  1
  S2-  S208  1  0.51374594  0.13310695  0.45036378  1
  S2-  S209  1  0.49363014  0.14021341  0.95147906  1
  S2-  S210  1  0.51327053  0.37818418  0.45304450  1
  S2-  S211  1  0.49119408  0.39491065  0.96350126  1
  S2-  S212  1  0.52057977  0.63037924  0.44376130  1
  S2-  S213  1  0.49026586  0.64478863  0.96085291  1
  S2-  S214  1  0.51581686  0.88522830  0.44524759  1
  S2-  S215  1  0.49212243  0.89438764  0.95318103  1
  S2-  S216  1  0.76110512  0.13171137  0.46907931  1
  S2-  S217  1  0.74821120  0.14297070  0.95089402  1
  S2-  S218  1  0.77036292  0.37405529  0.45275969  1
  S2-  S219  1  0.74697692  0.39291074  0.96270867  1
  S2-  S220  1  0.76180243  0.63425259  0.46248084  1
  S2-  S221  1  0.74895685  0.64531325  0.95286394  1
  S2-  S222  1  0.76118375  0.89089885  0.46423745  1
  S2-  S223  1  0.74928586  0.89209613  0.94360338  1
  S2-  S224  1  0.12120209  0.02131517  0.03721436  1
  S2-  S225  1  0.13120651  0.00171314  0.55268992  1
  S2-  S226  1  0.12428115  0.26941744  0.04095334  1
  S2-  S227  1  0.13726130  0.26029907  0.54741582  1
  S2-  S228  1  0.11859082  0.51305988  0.04717316  1
  S2-  S229  1  0.13062959  0.50223531  0.54744759  1
  S2-  S230  1  0.12287377  0.76509852  0.04205111  1
  S2-  S231  1  0.13056867  0.75632280  0.54227184  1
  S2-  S232  1  0.36784500  0.01333518  0.04388055  1
  S2-  S233  1  0.38366664  0.01277103  0.53609141  1
  S2-  S234  1  0.37452280  0.26469395  0.04721595  1
  S2-  S235  1  0.38456327  0.25690998  0.53905059  1
  S2-  S236  1  0.36615069  0.51738388  0.04873802  1
  S2-  S237  1  0.38243134  0.50420618  0.53271830  1
  S2-  S238  1  0.36133353  0.77045087  0.04886928  1
  S2-  S239  1  0.38491785  0.75186210  0.52763752  1
  S2-  S240  1  0.62084375  0.01557986  0.02670419  1
  S2-  S241  1  0.62913586  0.00329187  0.54759312  1
  S2-  S242  1  0.61571734  0.26113033  0.04317338  1
  S2-  S243  1  0.63467178  0.25668127  0.54877154  1
  S2-  S244  1  0.62152140  0.52034820  0.04170876  1
  S2-  S245  1  0.63537695  0.50305507  0.54015093  1
  S2-  S246  1  0.61882574  0.76966893  0.03488604  1
  S2-  S247  1  0.63441876  0.76025121  0.53851357  1
  S2-  S248  1  0.87109263  0.01717979  0.04079115  1
  S2-  S249  1  0.88825752  -0.00015394  0.56603730  1
  S2-  S250  1  0.86734958  0.26648401  0.04641411  1
  S2-  S251  1  0.86980974  0.25577103  0.57692491  1
  S2-  S252  1  0.86781106  0.52066407  0.04719050  1
  S2-  S253  1  0.88187153  0.50514441  0.55137375  1
  S2-  S254  1  0.87347580  0.76979474  0.04462493  1
  S2-  S255  1  0.88624031  0.75988420  0.55546865  1
