# generated using pymatgen
data_La6Ce7Pr13Nd19Sm19(BiS2)64
_symmetry_space_group_name_H-M   'P 1'
_cell_length_a   16.08646366
_cell_length_b   16.07681998
_cell_length_c   27.42684871
_cell_angle_alpha   89.86387511
_cell_angle_beta   89.81344372
_cell_angle_gamma   89.97674654
_symmetry_Int_Tables_number   1
_chemical_formula_structural   La6Ce7Pr13Nd19Sm19(BiS2)64
_chemical_formula_sum   'La6 Ce7 Pr13 Nd19 Sm19 Bi64 S128'
_cell_volume   7093.05095786
_cell_formula_units_Z   1
loop_
 _symmetry_equiv_pos_site_id
 _symmetry_equiv_pos_as_xyz
  1  'x, y, z'
loop_
 _atom_type_symbol
 _atom_type_oxidation_number
  La3+  3.0
  Ce3+  3.0
  Pr3+  3.0
  Nd3+  3.0
  Sm3+  3.0
  Bi2+  2.0
  S2-  -2.0
loop_
 _atom_site_type_symbol
 _atom_site_label
 _atom_site_symmetry_multiplicity
 _atom_site_fract_x
 _atom_site_fract_y
 _atom_site_fract_z
 _atom_site_occupancy
  La3+  La0  1  0.36365831  0.76113214  0.88298039  1
  La3+  La1  1  0.62012685  0.74621082  0.42468899  1
  La3+  La2  1  0.49643164  0.36133332  0.08957372  1
  La3+  La3  1  0.24881574  0.10891061  0.06174874  1
  La3+  La4  1  0.74481561  0.10873572  0.61159593  1
  La3+  La5  1  0.87790335  0.23351998  0.42567141  1
  Ce3+  Ce6  1  0.37043480  0.48890376  0.43817572  1
  Ce3+  Ce7  1  0.62376429  0.49054935  0.95031274  1
  Ce3+  Ce8  1  0.75075708  0.36373662  0.06030587  1
  Ce3+  Ce9  1  0.37795707  -0.00676932  0.93991408  1
  Ce3+  Ce10  1  0.75438156  0.86168482  0.06414366  1
  Ce3+  Ce11  1  0.62637086  0.73809435  0.93314590  1
  Ce3+  Ce12  1  0.87110533  0.49422849  0.43847509  1
  Pr3+  Pr13  1  0.12166007  0.49061503  0.43807023  1
  Pr3+  Pr14  1  0.25190733  0.35613308  0.06735806  1
  Pr3+  Pr15  1  0.37257873  0.74257040  0.42943970  1
  Pr3+  Pr16  1  0.00111156  0.61672033  0.06878480  1
  Pr3+  Pr17  1  0.50195331  0.85903079  0.57069500  1
  Pr3+  Pr18  1  0.74841094  0.86025121  0.56553088  1
  Pr3+  Pr19  1  0.24595959  0.61556951  0.55612222  1
  Pr3+  Pr20  1  -0.00189873  0.11689790  0.05827350  1
  Pr3+  Pr21  1  0.74607752  0.35970073  0.55936760  1
  Pr3+  Pr22  1  -0.00798007  0.11436221  0.56687227  1
  Pr3+  Pr23  1  0.50265969  0.11841448  0.05846348  1
  Pr3+  Pr24  1  0.75231412  0.11796613  0.05814776  1
  Pr3+  Pr25  1  0.50222403  0.86132553  0.05472872  1
  Nd3+  Nd26  1  -0.00639417  0.61701451  0.55799651  1
  Nd3+  Nd27  1  0.73971226  0.61275582  0.07170260  1
  Nd3+  Nd28  1  0.49532648  0.61635252  0.55780393  1
  Nd3+  Nd29  1  0.88226662  0.24224110  0.92564165  1
  Nd3+  Nd30  1  0.37275442  -0.00782667  0.44840786  1
  Nd3+  Nd31  1  0.12242358  -0.00940089  0.44592409  1
  Nd3+  Nd32  1  0.25041784  0.86517541  0.06124383  1
  Nd3+  Nd33  1  0.61982685  0.49276023  0.43701273  1
  Nd3+  Nd34  1  0.49219294  0.11554332  0.56831946  1
  Nd3+  Nd35  1  0.24666546  0.86323629  0.55860439  1
  Nd3+  Nd36  1  0.48840319  0.61577831  0.06431903  1
  Nd3+  Nd37  1  0.00049622  0.36575425  0.05927179  1
  Nd3+  Nd38  1  0.62366299  -0.00784132  0.44707610  1
  Nd3+  Nd39  1  0.63064954  0.24069427  0.43505120  1
  Nd3+  Nd40  1  -0.00579654  0.36336835  0.55830322  1
  Nd3+  Nd41  1  0.37944678  0.24668743  0.93262521  1
  Nd3+  Nd42  1  0.87789088  0.73580825  0.40731704  1
  Nd3+  Nd43  1  0.37629992  0.23804719  0.43110420  1
  Nd3+  Nd44  1  0.49742567  0.36209369  0.55605293  1
  Sm3+  Sm45  1  -0.00725456  0.86562559  0.55605930  1
  Sm3+  Sm46  1  0.74629062  0.62030418  0.55198551  1
  Sm3+  Sm47  1  0.11970758  0.23592749  0.44091769  1
  Sm3+  Sm48  1  0.12893425  0.49369838  0.94824670  1
  Sm3+  Sm49  1  0.87609592  -0.00922870  0.94014236  1
  Sm3+  Sm50  1  0.86798042  -0.01483596  0.43707195  1
  Sm3+  Sm51  1  0.24673782  0.11728612  0.56617721  1
  Sm3+  Sm52  1  0.12724356  -0.00926235  0.93686733  1
  Sm3+  Sm53  1  0.87726781  0.49338961  0.94871671  1
  Sm3+  Sm54  1  0.62678853  -0.00928879  0.94188813  1
  Sm3+  Sm55  1  0.37988149  0.49437220  0.93694627  1
  Sm3+  Sm56  1  0.25461554  0.61397247  0.06297280  1
  Sm3+  Sm57  1  0.12030873  0.74148031  0.43798129  1
  Sm3+  Sm58  1  0.87053189  0.73893752  0.93933417  1
  Sm3+  Sm59  1  -0.00147166  0.86240095  0.05050764  1
  Sm3+  Sm60  1  0.13020660  0.73912828  0.94415505  1
  Sm3+  Sm61  1  0.24599239  0.36393205  0.55086835  1
  Sm3+  Sm62  1  0.12705488  0.24289011  0.93418244  1
  Sm3+  Sm63  1  0.62868207  0.24598997  0.93835033  1
  Bi2+  Bi64  1  0.00688106  0.12174470  0.29431630  1
  Bi2+  Bi65  1  0.05060020  0.11111874  0.79268346  1
  Bi2+  Bi66  1  0.06161695  0.37047987  0.28420170  1
  Bi2+  Bi67  1  0.03795751  0.38358643  0.79092853  1
  Bi2+  Bi68  1  0.10465582  0.60872236  0.29770458  1
  Bi2+  Bi69  1  -0.01145442  0.57566818  0.80188387  1
  Bi2+  Bi70  1  -0.00447161  0.86864494  0.28627179  1
  Bi2+  Bi71  1  -0.05052651  0.77154347  0.81733323  1
  Bi2+  Bi72  1  0.20195597  0.13485771  0.27292722  1
  Bi2+  Bi73  1  0.23522484  0.18390000  0.82085558  1
  Bi2+  Bi74  1  0.24001771  0.40847391  0.23106128  1
  Bi2+  Bi75  1  0.27176760  0.37157168  0.78924027  1
  Bi2+  Bi76  1  0.26238385  0.72375876  0.31243464  1
  Bi2+  Bi77  1  0.22949590  0.62097692  0.79231053  1
  Bi2+  Bi78  1  0.25699378  0.92148301  0.31127514  1
  Bi2+  Bi79  1  0.14080515  0.91368304  0.73850741  1
  Bi2+  Bi80  1  0.45318901  0.14709494  0.29711719  1
  Bi2+  Bi81  1  0.42359462  0.14402312  0.80135616  1
  Bi2+  Bi82  1  0.50447656  0.38819433  0.30252734  1
  Bi2+  Bi83  1  0.53461360  0.38445252  0.80129104  1
  Bi2+  Bi84  1  0.54888288  0.63407968  0.30107462  1
  Bi2+  Bi85  1  0.50003803  0.60437896  0.78678436  1
  Bi2+  Bi86  1  0.46740843  0.88527255  0.27632858  1
  Bi2+  Bi87  1  0.49927598  0.88497829  0.79253504  1
  Bi2+  Bi88  1  0.73359339  0.12974396  0.31084332  1
  Bi2+  Bi89  1  0.71971516  0.12372805  0.82328473  1
  Bi2+  Bi90  1  0.80173786  0.34896920  0.25863857  1
  Bi2+  Bi91  1  0.76911611  0.41512009  0.78016605  1
  Bi2+  Bi92  1  0.81552023  0.67490574  0.27014929  1
  Bi2+  Bi93  1  0.75340311  0.61128199  0.74320896  1
  Bi2+  Bi94  1  0.76823489  0.90218853  0.26683698  1
  Bi2+  Bi95  1  0.76628182  0.83645216  0.78354034  1
  Bi2+  Bi96  1  0.13886539  -0.05129633  0.21768347  1
  Bi2+  Bi97  1  0.12132416  0.08568402  0.67834208  1
  Bi2+  Bi98  1  0.11378215  0.26462580  0.19182190  1
  Bi2+  Bi99  1  0.11601834  0.27305373  0.70644055  1
  Bi2+  Bi100  1  0.14900078  0.56057284  0.18365320  1
  Bi2+  Bi101  1  0.17750043  0.46512980  0.70313222  1
  Bi2+  Bi102  1  0.16671414  0.75465762  0.19580240  1
  Bi2+  Bi103  1  0.08608341  0.71717837  0.73368192  1
  Bi2+  Bi104  1  0.34144311  0.02477201  0.22079901  1
  Bi2+  Bi105  1  0.29695725  0.05667313  0.72991773  1
  Bi2+  Bi106  1  0.37376902  0.25883727  0.20872361  1
  Bi2+  Bi107  1  0.37747918  0.25551258  0.71010142  1
  Bi2+  Bi108  1  0.37323052  0.58869506  0.25001380  1
  Bi2+  Bi109  1  0.36217220  0.52413688  0.71769792  1
  Bi2+  Bi110  1  0.36698824  0.76483838  0.20289840  1
  Bi2+  Bi111  1  0.37280986  0.77863454  0.68161526  1
  Bi2+  Bi112  1  0.60866749  0.01655952  0.25106352  1
  Bi2+  Bi113  1  0.60756598  -0.01196257  0.71354808  1
  Bi2+  Bi114  1  0.64318652  0.26312684  0.19944406  1
  Bi2+  Bi115  1  0.62001774  0.25773185  0.71170575  1
  Bi2+  Bi116  1  0.66059361  0.52027392  0.20843678  1
  Bi2+  Bi117  1  0.61818203  0.48162829  0.71145750  1
  Bi2+  Bi118  1  0.62877618  0.76849088  0.19203186  1
  Bi2+  Bi119  1  0.63802870  0.75935363  0.70706780  1
  Bi2+  Bi120  1  0.91026173  -0.00065636  0.20997004  1
  Bi2+  Bi121  1  0.92809734  -0.05189971  0.76946649  1
  Bi2+  Bi122  1  0.88383980  0.19745821  0.20106598  1
  Bi2+  Bi123  1  0.87694132  0.23694506  0.71532207  1
  Bi2+  Bi124  1  0.92363600  0.50365384  0.26247026  1
  Bi2+  Bi125  1  0.90246625  0.49374843  0.70539830  1
  Bi2+  Bi126  1  0.96753642  0.72746238  0.20087256  1
  Bi2+  Bi127  1  0.90443175  0.74979925  0.68981656  1
  S2-  S128  1  0.02500578  0.10192828  0.15610054  1
  S2-  S129  1  -0.09157174  0.11844599  0.65470670  1
  S2-  S130  1  -0.02933900  0.32952620  0.15429572  1
  S2-  S131  1  -0.03026455  0.35179767  0.65657123  1
  S2-  S132  1  -0.02097879  0.55489332  0.16228030  1
  S2-  S133  1  0.01225998  0.61256361  0.65643530  1
  S2-  S134  1  -0.05030839  0.86462848  0.14307843  1
  S2-  S135  1  -0.02168397  0.88030079  0.65316425  1
  S2-  S136  1  0.25807960  0.21485182  0.13996201  1
  S2-  S137  1  0.35811869  0.12657192  0.64060103  1
  S2-  S138  1  0.35155704  0.39108834  0.14779506  1
  S2-  S139  1  0.25264500  0.33957908  0.64688543  1
  S2-  S140  1  0.35883371  0.61763501  0.14332212  1
  S2-  S141  1  0.28632608  0.63392706  0.65229839  1
  S2-  S142  1  0.24751816  0.97848774  0.13826208  1
  S2-  S143  1  0.23160986  0.86391460  0.65711665  1
  S2-  S144  1  0.50930398  0.20626701  0.14566127  1
  S2-  S145  1  0.58140320  0.12676417  0.65383940  1
  S2-  S146  1  0.54126022  0.40992471  0.19508423  1
  S2-  S147  1  0.49969280  0.34336187  0.65430675  1
  S2-  S148  1  0.57269492  0.61948766  0.15185695  1
  S2-  S149  1  0.52052020  0.71156039  0.63897250  1
  S2-  S150  1  0.49865267  0.85692842  0.15548250  1
  S2-  S151  1  0.47753362  0.92371005  0.66543666  1
  S2-  S152  1  0.73461834  0.14241776  0.15689118  1
  S2-  S153  1  0.74256682  0.13034783  0.72909485  1
  S2-  S154  1  0.74816333  0.39474345  0.15663854  1
  S2-  S155  1  0.75025031  0.28140289  0.64875364  1
  S2-  S156  1  0.76480222  0.65446176  0.16759219  1
  S2-  S157  1  0.75463598  0.71747338  0.63299809  1
  S2-  S158  1  0.72640354  0.88701267  0.15967093  1
  S2-  S159  1  0.73051379  0.94670936  0.65425065  1
  S2-  S160  1  0.13679719  0.04540845  0.35263745  1
  S2-  S161  1  0.12205540  -0.01830917  0.83892131  1
  S2-  S162  1  0.02429092  0.25215412  0.35965912  1
  S2-  S163  1  0.01664586  0.25285550  0.85787518  1
  S2-  S164  1  0.17015529  0.47082330  0.34267114  1
  S2-  S165  1  0.13526059  0.49427484  0.85044608  1
  S2-  S166  1  0.03218455  0.74383725  0.35389025  1
  S2-  S167  1  0.19286235  0.74539081  0.85362393  1
  S2-  S168  1  0.40389649  -0.00278410  0.35154627  1
  S2-  S169  1  0.37045039  -0.06430755  0.84975253  1
  S2-  S170  1  0.36350591  0.28101039  0.33467028  1
  S2-  S171  1  0.38949066  0.37306255  0.86171932  1
  S2-  S172  1  0.41008216  0.51050393  0.34422393  1
  S2-  S173  1  0.36963613  0.59059041  0.85227496  1
  S2-  S174  1  0.48661191  0.76352785  0.35253981  1
  S2-  S175  1  0.36615143  0.77643591  0.77470104  1
  S2-  S176  1  0.64841951  -0.02062401  0.34754165  1
  S2-  S177  1  0.62545370  -0.02672410  0.84424335  1
  S2-  S178  1  0.56904238  0.23797794  0.34075973  1
  S2-  S179  1  0.57557693  0.22285410  0.84479656  1
  S2-  S180  1  0.62794251  0.48281415  0.33676193  1
  S2-  S181  1  0.60296569  0.50855671  0.85357259  1
  S2-  S182  1  0.69183938  0.71772476  0.33183165  1
  S2-  S183  1  0.53418379  0.74304210  0.84830660  1
  S2-  S184  1  0.87583097  0.09190616  0.35564194  1
  S2-  S185  1  0.87274048  0.04229574  0.84656901  1
  S2-  S186  1  0.77194267  0.28205927  0.34846130  1
  S2-  S187  1  0.79256704  0.26722493  0.84119439  1
  S2-  S188  1  0.87465037  0.58016932  0.35341446  1
  S2-  S189  1  0.85984340  0.49899911  0.85189598  1
  S2-  S190  1  0.85940743  0.88070797  0.35218142  1
  S2-  S191  1  0.75736512  0.73478829  0.86374897  1
  S2-  S192  1  -0.00010639  0.11056992  0.46020803  1
  S2-  S193  1  0.00310856  0.11223727  0.95231434  1
  S2-  S194  1  -0.00349500  0.36932052  0.45409910  1
  S2-  S195  1  0.00236613  0.37221604  0.95474591  1
  S2-  S196  1  -0.00104201  0.61599803  0.45348802  1
  S2-  S197  1  0.00178234  0.61836122  0.95786353  1
  S2-  S198  1  -0.00126992  0.86655134  0.45222834  1
  S2-  S199  1  0.00110736  0.86505426  0.94680167  1
  S2-  S200  1  0.24737517  0.11831188  0.45855626  1
  S2-  S201  1  0.24962608  0.11712511  0.95209675  1
  S2-  S202  1  0.24495410  0.35928735  0.44745410  1
  S2-  S203  1  0.24666042  0.36565304  0.95629400  1
  S2-  S204  1  0.24592225  0.61764596  0.44922942  1
  S2-  S205  1  0.24956478  0.61538514  0.95935462  1
  S2-  S206  1  0.24616689  0.86450674  0.45237703  1
  S2-  S207  1  0.24973690  0.86840675  0.95558761  1
  S2-  S208  1  0.49769209  0.11688439  0.45637052  1
  S2-  S209  1  0.50486023  0.11834123  0.95231212  1
  S2-  S210  1  0.49781445  0.36467370  0.45017924  1
  S2-  S211  1  0.50524824  0.36336994  0.96040523  1
  S2-  S212  1  0.49441847  0.61455455  0.45283553  1
  S2-  S213  1  0.50245863  0.61412113  0.95927053  1
  S2-  S214  1  0.49495216  0.86906256  0.46010055  1
  S2-  S215  1  0.50257025  0.86918849  0.95014426  1
  S2-  S216  1  0.74650698  0.11372929  0.45104263  1
  S2-  S217  1  0.75183869  0.11704311  0.95200942  1
  S2-  S218  1  0.74624930  0.37185444  0.45432235  1
  S2-  S219  1  0.75493709  0.36705091  0.95404579  1
  S2-  S220  1  0.74562709  0.61721359  0.44979682  1
  S2-  S221  1  0.75251435  0.61223775  0.96398838  1
  S2-  S222  1  0.74611220  0.86346061  0.45554570  1
  S2-  S223  1  0.75283153  0.87049944  0.95698532  1
  S2-  S224  1  0.11804036  -0.01358541  0.04114258  1
  S2-  S225  1  0.12241894  -0.01102667  0.55027526  1
  S2-  S226  1  0.12238167  0.23978244  0.03861144  1
  S2-  S227  1  0.12206899  0.24010459  0.54556378  1
  S2-  S228  1  0.12821357  0.48926865  0.05216229  1
  S2-  S229  1  0.12091253  0.48900115  0.54631740  1
  S2-  S230  1  0.12614483  0.74075246  0.04948315  1
  S2-  S231  1  0.11886199  0.74121543  0.54453333  1
  S2-  S232  1  0.38115938  -0.00960881  0.04517116  1
  S2-  S233  1  0.36847863  -0.01228505  0.55124193  1
  S2-  S234  1  0.37859390  0.23946711  0.03801655  1
  S2-  S235  1  0.36942202  0.24274812  0.53859987  1
  S2-  S236  1  0.37257756  0.48698613  0.04101842  1
  S2-  S237  1  0.37123785  0.48805292  0.54623181  1
  S2-  S238  1  0.37077465  0.74444849  0.04745508  1
  S2-  S239  1  0.37085516  0.74066789  0.53845387  1
  S2-  S240  1  0.62794490  -0.00881102  0.04790901  1
  S2-  S241  1  0.61939692  -0.00844848  0.55082759  1
  S2-  S242  1  0.62728762  0.24322465  0.04320137  1
  S2-  S243  1  0.61941665  0.23876323  0.54216594  1
  S2-  S244  1  0.61915395  0.48501091  0.05517959  1
  S2-  S245  1  0.62254480  0.49286252  0.54664348  1
  S2-  S246  1  0.62751637  0.73911935  0.04370103  1
  S2-  S247  1  0.62203872  0.73781930  0.53360643  1
  S2-  S248  1  0.87575302  -0.01033569  0.04474900  1
  S2-  S249  1  0.87056724  -0.01184426  0.54440210  1
  S2-  S250  1  0.87669229  0.24215873  0.03905782  1
  S2-  S251  1  0.87374442  0.24102282  0.54042473  1
  S2-  S252  1  0.87453277  0.49224358  0.05250830  1
  S2-  S253  1  0.86888395  0.49200271  0.54711466  1
  S2-  S254  1  0.87445116  0.73577989  0.04432773  1
  S2-  S255  1  0.87605391  0.73928007  0.53555450  1
