# generated using pymatgen
data_La6Ce7Pr13Nd19Sm19(BiS2)64
_symmetry_space_group_name_H-M   'P 1'
_cell_length_a   16.07645320
_cell_length_b   16.00666651
_cell_length_c   27.54196351
_cell_angle_alpha   89.53189933
_cell_angle_beta   90.03795131
_cell_angle_gamma   89.95934305
_symmetry_Int_Tables_number   1
_chemical_formula_structural   La6Ce7Pr13Nd19Sm19(BiS2)64
_chemical_formula_sum   'La6 Ce7 Pr13 Nd19 Sm19 Bi64 S128'
_cell_volume   7087.14527825
_cell_formula_units_Z   1
loop_
 _symmetry_equiv_pos_site_id
 _symmetry_equiv_pos_as_xyz
  1  'x, y, z'
loop_
 _atom_type_symbol
 _atom_type_oxidation_number
  La3+  3.0
  Ce3+  3.0
  Pr3+  3.0
  Nd3+  3.0
  Sm3+  3.0
  Bi2+  2.0
  S2-  -2.0
loop_
 _atom_site_type_symbol
 _atom_site_label
 _atom_site_symmetry_multiplicity
 _atom_site_fract_x
 _atom_site_fract_y
 _atom_site_fract_z
 _atom_site_occupancy
  La3+  La0  1  0.75110681  0.85268526  0.07425633  1
  La3+  La1  1  0.62192954  0.49017132  0.89953468  1
  La3+  La2  1  -0.00038782  0.35697215  0.10258696  1
  La3+  La3  1  0.85731523  0.50494433  0.39203763  1
  La3+  La4  1  0.48300208  0.37374432  0.57656249  1
  La3+  La5  1  0.12775527  0.47693468  0.92372975  1
  Ce3+  Ce6  1  0.00217416  0.60269375  0.04946102  1
  Ce3+  Ce7  1  0.50487066  0.85542141  0.06810621  1
  Ce3+  Ce8  1  0.48563560  0.62538397  0.56058765  1
  Ce3+  Ce9  1  0.36218561  0.75565325  0.44358689  1
  Ce3+  Ce10  1  0.75225307  0.10453043  0.06132735  1
  Ce3+  Ce11  1  0.87509206  0.48180079  0.94027922  1
  Ce3+  Ce12  1  0.10580527  0.26011604  0.44283170  1
  Pr3+  Pr13  1  0.23464039  0.87839296  0.55825504  1
  Pr3+  Pr14  1  0.35825008  0.49806356  0.42785149  1
  Pr3+  Pr15  1  0.73327079  0.38180394  0.57387016  1
  Pr3+  Pr16  1  0.00307546  0.10797501  0.07103196  1
  Pr3+  Pr17  1  0.10477631  0.00397985  0.44482524  1
  Pr3+  Pr18  1  0.74415300  0.36166656  0.06825487  1
  Pr3+  Pr19  1  -0.01269410  0.38248684  0.58909085  1
  Pr3+  Pr20  1  0.48511867  0.87918948  0.56408588  1
  Pr3+  Pr21  1  0.61068727  0.00629224  0.43229877  1
  Pr3+  Pr22  1  -0.01919196  0.62712986  0.57131772  1
  Pr3+  Pr23  1  0.48531077  0.12379115  0.56615791  1
  Pr3+  Pr24  1  0.00076700  0.85585858  0.08749532  1
  Pr3+  Pr25  1  0.25276976  0.36705906  0.06846903  1
  Nd3+  Nd26  1  0.63370860  -0.01894217  0.93201072  1
  Nd3+  Nd27  1  0.37829168  -0.01838220  0.94700245  1
  Nd3+  Nd28  1  0.87463953  -0.01465819  0.94076641  1
  Nd3+  Nd29  1  0.12448289  0.23368648  0.94032863  1
  Nd3+  Nd30  1  0.24749966  0.60650457  0.05120385  1
  Nd3+  Nd31  1  0.10971561  0.50588948  0.43898938  1
  Nd3+  Nd32  1  0.87652323  0.23853957  0.95068384  1
  Nd3+  Nd33  1  -0.01578905  0.13203662  0.56539088  1
  Nd3+  Nd34  1  0.37713200  0.73731562  0.94310646  1
  Nd3+  Nd35  1  0.62880053  0.74001715  0.92582130  1
  Nd3+  Nd36  1  0.73619458  0.87684794  0.55754715  1
  Nd3+  Nd37  1  0.24878527  0.10969211  0.06113323  1
  Nd3+  Nd38  1  0.12642087  -0.01058969  0.93608860  1
  Nd3+  Nd39  1  0.50154511  0.10522917  0.05164790  1
  Nd3+  Nd40  1  0.61241106  0.25910136  0.44560142  1
  Nd3+  Nd41  1  0.23858466  0.37962027  0.56619756  1
  Nd3+  Nd42  1  0.37920816  0.23843256  0.94215547  1
  Nd3+  Nd43  1  0.87661401  0.73550364  0.93788001  1
  Nd3+  Nd44  1  0.61085971  0.50309425  0.43849029  1
  Sm3+  Sm45  1  0.85923541  0.00287433  0.43993776  1
  Sm3+  Sm46  1  0.61149089  0.75438686  0.44175278  1
  Sm3+  Sm47  1  0.73723553  0.62510020  0.55455940  1
  Sm3+  Sm48  1  0.37825042  0.48487356  0.93758291  1
  Sm3+  Sm49  1  0.86206458  0.26515979  0.45127173  1
  Sm3+  Sm50  1  0.24701598  0.85586060  0.06268034  1
  Sm3+  Sm51  1  0.23496495  0.62648737  0.55742445  1
  Sm3+  Sm52  1  0.75150366  0.60638015  0.04986286  1
  Sm3+  Sm53  1  0.35976927  0.00846472  0.43398032  1
  Sm3+  Sm54  1  -0.01776149  0.87661725  0.57175329  1
  Sm3+  Sm55  1  0.23406749  0.12939224  0.55732586  1
  Sm3+  Sm56  1  0.12584030  0.73686302  0.93806409  1
  Sm3+  Sm57  1  0.73691822  0.12735287  0.55268924  1
  Sm3+  Sm58  1  0.86488100  0.75477579  0.43356897  1
  Sm3+  Sm59  1  0.50499692  0.60846665  0.05176402  1
  Sm3+  Sm60  1  0.62757637  0.23793159  0.94233103  1
  Sm3+  Sm61  1  0.10714607  0.75433563  0.44841510  1
  Sm3+  Sm62  1  0.35965952  0.25122863  0.43798253  1
  Sm3+  Sm63  1  0.50671904  0.36097228  0.05900926  1
  Bi2+  Bi64  1  0.02074340  0.11956244  0.29204648  1
  Bi2+  Bi65  1  -0.00510816  0.11036205  0.80012118  1
  Bi2+  Bi66  1  -0.00549348  0.36901224  0.29692055  1
  Bi2+  Bi67  1  0.02448178  0.43983760  0.80146084  1
  Bi2+  Bi68  1  0.01494963  0.65071933  0.29217636  1
  Bi2+  Bi69  1  0.01023441  0.71425527  0.79411916  1
  Bi2+  Bi70  1  0.00739381  0.89953332  0.30573887  1
  Bi2+  Bi71  1  -0.00399753  0.91282812  0.79388443  1
  Bi2+  Bi72  1  0.32436186  0.13742603  0.26627056  1
  Bi2+  Bi73  1  0.22249176  0.10520060  0.75707183  1
  Bi2+  Bi74  1  0.24930818  0.38875136  0.29768007  1
  Bi2+  Bi75  1  0.26859246  0.39281594  0.80536974  1
  Bi2+  Bi76  1  0.30485186  0.63185305  0.28535711  1
  Bi2+  Bi77  1  0.28704123  0.67567076  0.78696951  1
  Bi2+  Bi78  1  0.27382434  0.90311377  0.28888307  1
  Bi2+  Bi79  1  0.20887451  0.92609467  0.80884339  1
  Bi2+  Bi80  1  0.50869617  0.06318351  0.30897975  1
  Bi2+  Bi81  1  0.51155973  0.15927526  0.74313037  1
  Bi2+  Bi82  1  0.51039530  0.35032615  0.28987836  1
  Bi2+  Bi83  1  0.51435549  0.33112235  0.80313934  1
  Bi2+  Bi84  1  0.47694534  0.54755258  0.31542858  1
  Bi2+  Bi85  1  0.53637508  0.65738930  0.74890595  1
  Bi2+  Bi86  1  0.47304816  0.87318029  0.29131984  1
  Bi2+  Bi87  1  0.45396050  0.89475745  0.79555676  1
  Bi2+  Bi88  1  0.82854369  0.09934811  0.29810935  1
  Bi2+  Bi89  1  0.81829250  0.10860228  0.73977764  1
  Bi2+  Bi90  1  0.73394154  0.36393855  0.29396275  1
  Bi2+  Bi91  1  0.77576005  0.33988689  0.81419804  1
  Bi2+  Bi92  1  0.63621479  0.63694478  0.27853382  1
  Bi2+  Bi93  1  0.74497495  0.67464214  0.77109984  1
  Bi2+  Bi94  1  0.71919765  0.88446387  0.27966067  1
  Bi2+  Bi95  1  0.73107616  0.88935161  0.79678545  1
  Bi2+  Bi96  1  0.12997117  -0.03064240  0.21287260  1
  Bi2+  Bi97  1  0.13917121  -0.07187819  0.70201293  1
  Bi2+  Bi98  1  0.13414885  0.21597931  0.21692880  1
  Bi2+  Bi99  1  0.11301182  0.24706091  0.71457277  1
  Bi2+  Bi100  1  0.14539894  0.50783267  0.19655994  1
  Bi2+  Bi101  1  0.13825498  0.51398613  0.70640221  1
  Bi2+  Bi102  1  0.16618540  0.74801030  0.23501425  1
  Bi2+  Bi103  1  0.12563500  0.72245435  0.70443262  1
  Bi2+  Bi104  1  0.38366351  -0.01838454  0.20325960  1
  Bi2+  Bi105  1  0.38193203  0.01999480  0.71089384  1
  Bi2+  Bi106  1  0.39126762  0.28965089  0.20443821  1
  Bi2+  Bi107  1  0.34876315  0.28005090  0.70351271  1
  Bi2+  Bi108  1  0.39111030  0.49147798  0.21401684  1
  Bi2+  Bi109  1  0.39268298  0.51709867  0.75686168  1
  Bi2+  Bi110  1  0.33998226  0.78832512  0.18379469  1
  Bi2+  Bi111  1  0.38521076  0.78242388  0.70850556  1
  Bi2+  Bi112  1  0.63451782  0.00433268  0.20172689  1
  Bi2+  Bi113  1  0.64457644  0.01437063  0.72240364  1
  Bi2+  Bi114  1  0.56816679  0.19036546  0.22730525  1
  Bi2+  Bi115  1  0.68690531  0.26839558  0.70265588  1
  Bi2+  Bi116  1  0.63285468  0.50221312  0.19171525  1
  Bi2+  Bi117  1  0.69155681  0.51387352  0.70067971  1
  Bi2+  Bi118  1  0.52613126  0.74416159  0.20563884  1
  Bi2+  Bi119  1  0.57354833  0.83091011  0.69122713  1
  Bi2+  Bi120  1  0.85992831  -0.03422736  0.20940656  1
  Bi2+  Bi121  1  0.96574825  0.01751785  0.68023736  1
  Bi2+  Bi122  1  0.85179319  0.22856557  0.21472382  1
  Bi2+  Bi123  1  0.92188447  0.30081672  0.73515310  1
  Bi2+  Bi124  1  0.88165857  0.52986137  0.18944671  1
  Bi2+  Bi125  1  0.91107472  0.57250398  0.74375826  1
  Bi2+  Bi126  1  0.87128758  0.76326986  0.25318535  1
  Bi2+  Bi127  1  0.88391624  0.84075861  0.70919761  1
  S2-  S128  1  -0.00737135  0.20542725  0.15792892  1
  S2-  S129  1  -0.01464544  0.23047872  0.64732296  1
  S2-  S130  1  0.00627177  0.41715130  0.20317508  1
  S2-  S131  1  0.13707870  0.38137137  0.64914607  1
  S2-  S132  1  0.02592677  0.60613226  0.14586505  1
  S2-  S133  1  -0.00999750  0.52299883  0.65628049  1
  S2-  S134  1  0.00023951  0.99450645  0.15070515  1
  S2-  S135  1  -0.02049739  0.75648208  0.64316833  1
  S2-  S136  1  0.20801803  0.09978157  0.15686107  1
  S2-  S137  1  0.23726915  0.15673985  0.65390732  1
  S2-  S138  1  0.16220478  0.34722162  0.15285119  1
  S2-  S139  1  0.35244758  0.40547264  0.64390261  1
  S2-  S140  1  0.27210000  0.52273307  0.13632552  1
  S2-  S141  1  0.24533354  0.62698885  0.65482665  1
  S2-  S142  1  0.14832511  0.83983394  0.14314708  1
  S2-  S143  1  0.29668954  0.89735696  0.65021382  1
  S2-  S144  1  0.50197795  0.08646407  0.14953650  1
  S2-  S145  1  0.47470043  0.22775704  0.64746562  1
  S2-  S146  1  0.60801622  0.36507041  0.13901176  1
  S2-  S147  1  0.60784350  0.39236931  0.64983353  1
  S2-  S148  1  0.49968145  0.59043480  0.14971594  1
  S2-  S149  1  0.53458623  0.60859500  0.65315866  1
  S2-  S150  1  0.61749691  0.85576057  0.14371783  1
  S2-  S151  1  0.49563140  0.99715985  0.63760478  1
  S2-  S152  1  0.76211066  0.10649634  0.15808635  1
  S2-  S153  1  0.72614404  0.12066248  0.64935227  1
  S2-  S154  1  0.83569138  0.36883214  0.15422016  1
  S2-  S155  1  0.81504989  0.36914783  0.66646608  1
  S2-  S156  1  0.73716446  0.61352813  0.14714701  1
  S2-  S157  1  0.76940365  0.62574944  0.65140852  1
  S2-  S158  1  0.86581517  0.82381794  0.15194955  1
  S2-  S159  1  0.73143412  0.87276584  0.65586640  1
  S2-  S160  1  0.12452773  0.01949804  0.34610488  1
  S2-  S161  1  0.12404867  0.11406855  0.86537425  1
  S2-  S162  1  0.12996465  0.28407306  0.34660841  1
  S2-  S163  1  0.12930073  0.33253849  0.85526075  1
  S2-  S164  1  0.02095043  0.50534072  0.35283388  1
  S2-  S165  1  0.16353941  0.53611999  0.82937909  1
  S2-  S166  1  0.09603824  0.76423407  0.35106417  1
  S2-  S167  1  0.16876340  0.77051488  0.84572835  1
  S2-  S168  1  0.36649245  0.12902922  0.36277025  1
  S2-  S169  1  0.36006296  -0.00001094  0.85015536  1
  S2-  S170  1  0.37047204  0.35875932  0.35957328  1
  S2-  S171  1  0.36121269  0.26378819  0.84491598  1
  S2-  S172  1  0.22986124  0.52144241  0.35645689  1
  S2-  S173  1  0.45766407  0.48156180  0.85102077  1
  S2-  S174  1  0.35839377  0.77013326  0.34700184  1
  S2-  S175  1  0.39933584  0.74652176  0.84591152  1
  S2-  S176  1  0.69588080  0.01798887  0.34502534  1
  S2-  S177  1  0.59570143  -0.13053316  0.85769888  1
  S2-  S178  1  0.62482393  0.26279740  0.34670130  1
  S2-  S179  1  0.64189823  0.23842718  0.84523563  1
  S2-  S180  1  0.69318877  0.49787864  0.35068521  1
  S2-  S181  1  0.65049859  0.44037331  0.79867348  1
  S2-  S182  1  0.63671047  0.76819999  0.34557153  1
  S2-  S183  1  0.62438600  0.64005169  0.84326345  1
  S2-  S184  1  0.88325776  -0.10852108  0.36783711  1
  S2-  S185  1  0.76576739  0.00303302  0.86256563  1
  S2-  S186  1  0.86128017  0.32475023  0.35905987  1
  S2-  S187  1  0.89553472  0.21960278  0.85299800  1
  S2-  S188  1  0.85822052  0.48136826  0.27920243  1
  S2-  S189  1  0.86346265  0.48854305  0.84324481  1
  S2-  S190  1  0.86996945  0.66915493  0.34730535  1
  S2-  S191  1  0.80951363  0.75559161  0.84710176  1
  S2-  S192  1  -0.02056686  0.13073630  0.45573825  1
  S2-  S193  1  -0.00282596  0.10864264  0.96361328  1
  S2-  S194  1  -0.01434641  0.38273960  0.46149743  1
  S2-  S195  1  -0.00011602  0.36017385  0.95256008  1
  S2-  S196  1  -0.01364093  0.63287187  0.45942887  1
  S2-  S197  1  0.00380183  0.61038329  0.94228321  1
  S2-  S198  1  -0.01378785  0.87829341  0.46831148  1
  S2-  S199  1  0.00258588  0.86172954  0.94120783  1
  S2-  S200  1  0.23025475  0.12870261  0.45428319  1
  S2-  S201  1  0.25824604  0.11122483  0.95773247  1
  S2-  S202  1  0.23520244  0.37574471  0.45954496  1
  S2-  S203  1  0.25752328  0.36057837  0.95849988  1
  S2-  S204  1  0.23517081  0.63576205  0.45472279  1
  S2-  S205  1  0.25288546  0.61043091  0.94651400  1
  S2-  S206  1  0.23559482  0.88210526  0.45138550  1
  S2-  S207  1  0.24937045  0.86089459  0.95827752  1
  S2-  S208  1  0.48881425  0.12966380  0.45821337  1
  S2-  S209  1  0.50442742  0.10917059  0.94630117  1
  S2-  S210  1  0.48714501  0.37849871  0.46015390  1
  S2-  S211  1  0.50556159  0.36219254  0.95465600  1
  S2-  S212  1  0.48696099  0.63067210  0.45266315  1
  S2-  S213  1  0.50111778  0.61096309  0.94941157  1
  S2-  S214  1  0.48558490  0.88314390  0.45248011  1
  S2-  S215  1  0.50149757  0.85892024  0.96243700  1
  S2-  S216  1  0.74145501  0.13291033  0.44989200  1
  S2-  S217  1  0.74961108  0.11499228  0.95868839  1
  S2-  S218  1  0.73608634  0.38269906  0.46157940  1
  S2-  S219  1  0.74529078  0.36275269  0.95319021  1
  S2-  S220  1  0.73654514  0.63231768  0.45068172  1
  S2-  S221  1  0.75011242  0.60772507  0.94641355  1
  S2-  S222  1  0.73374561  0.87855753  0.45387072  1
  S2-  S223  1  0.75324324  0.85690177  0.96176929  1
  S2-  S224  1  0.12803762  -0.01888766  0.04207438  1
  S2-  S225  1  0.10736011  0.00391638  0.55219079  1
  S2-  S226  1  0.12709061  0.23646527  0.04723491  1
  S2-  S227  1  0.11105358  0.25254090  0.54672285  1
  S2-  S228  1  0.12465132  0.48052390  0.03848942  1
  S2-  S229  1  0.11185416  0.50709217  0.54599811  1
  S2-  S230  1  0.12368199  0.73369864  0.04014867  1
  S2-  S231  1  0.11229028  0.75335426  0.55082127  1
  S2-  S232  1  0.37289573  -0.02013554  0.05246691  1
  S2-  S233  1  0.35648539  0.00509350  0.53779616  1
  S2-  S234  1  0.37904659  0.23594084  0.04964829  1
  S2-  S235  1  0.35641097  0.24922761  0.54144459  1
  S2-  S236  1  0.38388020  0.48348119  0.03974401  1
  S2-  S237  1  0.36033762  0.50845029  0.53795307  1
  S2-  S238  1  0.37460542  0.73102102  0.04833381  1
  S2-  S239  1  0.36137218  0.75236985  0.54946874  1
  S2-  S240  1  0.62678464  -0.01683981  0.04077677  1
  S2-  S241  1  0.61518277  0.00282493  0.53890598  1
  S2-  S242  1  0.62461650  0.22916425  0.04575931  1
  S2-  S243  1  0.61432501  0.24880189  0.54841231  1
  S2-  S244  1  0.62525076  0.48784843  0.03892349  1
  S2-  S245  1  0.61087838  0.50620862  0.54268143  1
  S2-  S246  1  0.62710139  0.72967277  0.04014282  1
  S2-  S247  1  0.61015577  0.75304990  0.54610157  1
  S2-  S248  1  0.87771126  -0.02171706  0.04610574  1
  S2-  S249  1  0.86203990  0.00217485  0.54578103  1
  S2-  S250  1  0.87386207  0.23573479  0.05400992  1
  S2-  S251  1  0.85771565  0.25381360  0.55190083  1
  S2-  S252  1  0.87635035  0.48053460  0.04547381  1
  S2-  S253  1  0.85900636  0.50236752  0.55463488  1
  S2-  S254  1  0.87973062  0.73024876  0.04209276  1
  S2-  S255  1  0.85812174  0.75392208  0.54144733  1
