# generated using pymatgen
data_La6Ce7Pr13Nd19Sm19(BiS2)64
_symmetry_space_group_name_H-M   'P 1'
_cell_length_a   16.09696560
_cell_length_b   16.09181554
_cell_length_c   27.29654477
_cell_angle_alpha   90.37220627
_cell_angle_beta   89.95603391
_cell_angle_gamma   89.96071361
_symmetry_Int_Tables_number   1
_chemical_formula_structural   La6Ce7Pr13Nd19Sm19(BiS2)64
_chemical_formula_sum   'La6 Ce7 Pr13 Nd19 Sm19 Bi64 S128'
_cell_volume   7070.45468463
_cell_formula_units_Z   1
loop_
 _symmetry_equiv_pos_site_id
 _symmetry_equiv_pos_as_xyz
  1  'x, y, z'
loop_
 _atom_type_symbol
 _atom_type_oxidation_number
  La3+  3.0
  Ce3+  3.0
  Pr3+  3.0
  Nd3+  3.0
  Sm3+  3.0
  Bi2+  2.0
  S2-  -2.0
loop_
 _atom_site_type_symbol
 _atom_site_label
 _atom_site_symmetry_multiplicity
 _atom_site_fract_x
 _atom_site_fract_y
 _atom_site_fract_z
 _atom_site_occupancy
  La3+  La0  1  0.75076385  0.12606424  0.07124081  1
  La3+  La1  1  0.37743704  -0.00485694  0.91302729  1
  La3+  La2  1  0.12971675  -0.00224023  0.42192467  1
  La3+  La3  1  0.49856172  0.38574024  0.58964597  1
  La3+  La4  1  0.11806341  0.74144521  0.91097576  1
  La3+  La5  1  0.86876787  0.74583320  0.93557410  1
  Ce3+  Ce6  1  0.12709142  0.50928454  0.43825286  1
  Ce3+  Ce7  1  0.87271388  0.50640131  0.43559197  1
  Ce3+  Ce8  1  0.62018447  0.49228357  0.94265389  1
  Ce3+  Ce9  1  0.24588968  0.37468721  0.05977198  1
  Ce3+  Ce10  1  0.12827186  0.25456681  0.44099972  1
  Ce3+  Ce11  1  0.25414411  0.38357531  0.55749923  1
  Ce3+  Ce12  1  -0.00243558  0.37311720  0.05545617  1
  Pr3+  Pr13  1  -0.00042208  0.88501387  0.56463714  1
  Pr3+  Pr14  1  0.62849151  0.24900295  0.93456793  1
  Pr3+  Pr15  1  0.12661859  0.74753562  0.43043082  1
  Pr3+  Pr16  1  0.24805684  0.11508087  0.05663769  1
  Pr3+  Pr17  1  0.37775555  0.00658837  0.42482865  1
  Pr3+  Pr18  1  0.74603660  0.37513033  0.07339361  1
  Pr3+  Pr19  1  0.50056036  0.88405423  0.55987189  1
  Pr3+  Pr20  1  0.75154053  0.62568459  0.56342607  1
  Pr3+  Pr21  1  -0.00040729  0.63274361  0.06332554  1
  Pr3+  Pr22  1  0.62535103  0.24688774  0.42082671  1
  Pr3+  Pr23  1  0.38819919  0.50777714  0.42855775  1
  Pr3+  Pr24  1  0.00429603  0.88972683  0.11535720  1
  Pr3+  Pr25  1  0.25384836  0.13180277  0.55931242  1
  Nd3+  Nd26  1  0.50137524  0.13229288  0.55983839  1
  Nd3+  Nd27  1  0.74810727  0.86981791  0.06326022  1
  Nd3+  Nd28  1  0.49516708  0.62349780  0.05906507  1
  Nd3+  Nd29  1  0.48913447  0.38117281  0.07510462  1
  Nd3+  Nd30  1  0.37168834  0.49476183  0.93393163  1
  Nd3+  Nd31  1  0.50100189  0.62961282  0.56542502  1
  Nd3+  Nd32  1  0.24995575  0.88163671  0.56237655  1
  Nd3+  Nd33  1  0.00297218  0.13062981  0.56649254  1
  Nd3+  Nd34  1  0.24506341  0.62745622  0.05034801  1
  Nd3+  Nd35  1  0.75039752  0.38113553  0.55627396  1
  Nd3+  Nd36  1  0.88370993  0.00899110  0.42905185  1
  Nd3+  Nd37  1  0.49782617  0.12517143  0.06200089  1
  Nd3+  Nd38  1  0.37825799  0.25924015  0.43873492  1
  Nd3+  Nd39  1  0.12370263  0.24330315  0.94243347  1
  Nd3+  Nd40  1  0.25120106  0.86955159  0.05793455  1
  Nd3+  Nd41  1  0.75368506  0.88436784  0.55849606  1
  Nd3+  Nd42  1  0.49582412  0.87151612  0.05848944  1
  Nd3+  Nd43  1  0.62251369  0.74323906  0.92918386  1
  Nd3+  Nd44  1  0.00431331  0.63674805  0.57182909  1
  Sm3+  Sm45  1  0.87704871  0.75559875  0.44378845  1
  Sm3+  Sm46  1  0.74338791  0.61954575  0.06628499  1
  Sm3+  Sm47  1  0.00210407  0.38351328  0.54973020  1
  Sm3+  Sm48  1  0.75025668  0.13462966  0.55473755  1
  Sm3+  Sm49  1  0.62794474  0.75578320  0.45036500  1
  Sm3+  Sm50  1  0.62941434  0.00520604  0.43893104  1
  Sm3+  Sm51  1  0.37381261  0.74817315  0.92843127  1
  Sm3+  Sm52  1  0.63149180  0.50239532  0.43270515  1
  Sm3+  Sm53  1  0.87028494  0.49605782  0.94722252  1
  Sm3+  Sm54  1  0.62086881  -0.00114858  0.94404402  1
  Sm3+  Sm55  1  0.87764945  0.25364104  0.44558932  1
  Sm3+  Sm56  1  0.87238397  0.24363757  0.93989628  1
  Sm3+  Sm57  1  0.87300243  -0.00762223  0.94074303  1
  Sm3+  Sm58  1  0.38001056  0.75563537  0.44692225  1
  Sm3+  Sm59  1  0.12324504  -0.01065622  0.94065005  1
  Sm3+  Sm60  1  0.12109425  0.49630623  0.93998842  1
  Sm3+  Sm61  1  -0.00204872  0.11688445  0.05180411  1
  Sm3+  Sm62  1  0.25282044  0.62970868  0.55650235  1
  Sm3+  Sm63  1  0.37408856  0.24587253  0.94887451  1
  Bi2+  Bi64  1  -0.04421346  0.15662011  0.27510264  1
  Bi2+  Bi65  1  -0.04824435  0.18356717  0.81151101  1
  Bi2+  Bi66  1  -0.01213523  0.43843636  0.29398650  1
  Bi2+  Bi67  1  0.03252147  0.36416859  0.79745474  1
  Bi2+  Bi68  1  0.01168202  0.63397768  0.28248986  1
  Bi2+  Bi69  1  -0.01018334  0.60629819  0.79052140  1
  Bi2+  Bi70  1  -0.03522885  0.88739098  0.31786973  1
  Bi2+  Bi71  1  -0.00392153  0.87771861  0.79699271  1
  Bi2+  Bi72  1  0.28204521  0.16153360  0.28424841  1
  Bi2+  Bi73  1  0.21416654  0.15825662  0.76148738  1
  Bi2+  Bi74  1  0.19326820  0.40664016  0.28582087  1
  Bi2+  Bi75  1  0.30457408  0.34761462  0.78765511  1
  Bi2+  Bi76  1  0.27353859  0.62436969  0.29257970  1
  Bi2+  Bi77  1  0.34598445  0.61081801  0.81097639  1
  Bi2+  Bi78  1  0.26332626  0.87781523  0.29103520  1
  Bi2+  Bi79  1  0.24052587  0.90429462  0.78245728  1
  Bi2+  Bi80  1  0.49477509  0.09952147  0.28515610  1
  Bi2+  Bi81  1  0.46064466  0.13100487  0.79495494  1
  Bi2+  Bi82  1  0.48192292  0.40801997  0.28894695  1
  Bi2+  Bi83  1  0.54868202  0.38119562  0.78377536  1
  Bi2+  Bi84  1  0.54206007  0.64974028  0.28219867  1
  Bi2+  Bi85  1  0.52715115  0.68186271  0.81260383  1
  Bi2+  Bi86  1  0.45136986  0.91397441  0.30737807  1
  Bi2+  Bi87  1  0.47770331  0.85384446  0.76612550  1
  Bi2+  Bi88  1  0.73468780  0.18339341  0.29115471  1
  Bi2+  Bi89  1  0.76665213  0.10921020  0.81160504  1
  Bi2+  Bi90  1  0.75218927  0.39461613  0.27518318  1
  Bi2+  Bi91  1  0.80845083  0.31500038  0.76380117  1
  Bi2+  Bi92  1  0.74109674  0.63728214  0.29524590  1
  Bi2+  Bi93  1  0.75124894  0.58462846  0.80057279  1
  Bi2+  Bi94  1  0.72929379  0.85084586  0.28318176  1
  Bi2+  Bi95  1  0.75041204  0.84564925  0.78055841  1
  Bi2+  Bi96  1  0.12341833  0.02677555  0.20777649  1
  Bi2+  Bi97  1  0.05459128  0.05285553  0.73424840  1
  Bi2+  Bi98  1  0.11740018  0.24439080  0.23873385  1
  Bi2+  Bi99  1  0.13761153  0.31165438  0.70439500  1
  Bi2+  Bi100  1  0.10993202  0.52331665  0.20663460  1
  Bi2+  Bi101  1  0.17842087  0.48836919  0.76332085  1
  Bi2+  Bi102  1  0.15095425  0.74822314  0.20688478  1
  Bi2+  Bi103  1  0.11928664  0.70739988  0.71072544  1
  Bi2+  Bi104  1  0.36157429  0.00388217  0.19925050  1
  Bi2+  Bi105  1  0.37556373  -0.01346396  0.67982339  1
  Bi2+  Bi106  1  0.39148669  0.28679769  0.21797845  1
  Bi2+  Bi107  1  0.40294423  0.23770781  0.69207922  1
  Bi2+  Bi108  1  0.35087939  0.53922051  0.19999811  1
  Bi2+  Bi109  1  0.37970875  0.51481726  0.70924932  1
  Bi2+  Bi110  1  0.44080350  0.77142546  0.21425682  1
  Bi2+  Bi111  1  0.37614794  0.70778910  0.71180856  1
  Bi2+  Bi112  1  0.58430599  -0.09259687  0.21628658  1
  Bi2+  Bi113  1  0.62528356  -0.00580436  0.76702687  1
  Bi2+  Bi114  1  0.63555417  0.18188819  0.19739950  1
  Bi2+  Bi115  1  0.66839294  0.19813838  0.72374297  1
  Bi2+  Bi116  1  0.61234483  0.50267224  0.21752588  1
  Bi2+  Bi117  1  0.67132949  0.52559723  0.70485897  1
  Bi2+  Bi118  1  0.61023434  0.74589339  0.14661910  1
  Bi2+  Bi119  1  0.63848905  0.71727968  0.72040882  1
  Bi2+  Bi120  1  0.85497931  0.00803957  0.21071321  1
  Bi2+  Bi121  1  0.86238108  0.01948107  0.70565793  1
  Bi2+  Bi122  1  0.90403955  0.31807699  0.20943922  1
  Bi2+  Bi123  1  0.95001232  0.21268650  0.69470958  1
  Bi2+  Bi124  1  0.87206914  0.53943481  0.21293399  1
  Bi2+  Bi125  1  0.90738022  0.46864860  0.71194610  1
  Bi2+  Bi126  1  0.78952481  0.72099678  0.19682694  1
  Bi2+  Bi127  1  0.88257493  0.75814761  0.70823547  1
  S2-  S128  1  -0.01308895  0.06517743  0.14474119  1
  S2-  S129  1  0.00997141  0.01013515  0.63822453  1
  S2-  S130  1  0.02049956  0.40782430  0.14997561  1
  S2-  S131  1  -0.00031020  0.36730117  0.64711976  1
  S2-  S132  1  0.02024314  0.72057869  0.15045528  1
  S2-  S133  1  0.01184171  0.57961717  0.66886103  1
  S2-  S134  1  -0.00030964  0.89900674  0.22505265  1
  S2-  S135  1  0.02591445  0.77536469  0.64334179  1
  S2-  S136  1  0.23654972  0.11082230  0.15741941  1
  S2-  S137  1  0.26797204  0.12500248  0.65989076  1
  S2-  S138  1  0.30820234  0.38410724  0.15125846  1
  S2-  S139  1  0.33841614  0.38395143  0.64273692  1
  S2-  S140  1  0.26897805  0.65905564  0.14770044  1
  S2-  S141  1  0.24383994  0.63642973  0.65489155  1
  S2-  S142  1  0.17201801  0.88737186  0.14935087  1
  S2-  S143  1  0.24865727  0.88843567  0.66403160  1
  S2-  S144  1  0.48480174  0.08426231  0.15883309  1
  S2-  S145  1  0.50173730  0.11043107  0.65875225  1
  S2-  S146  1  0.53345898  0.30270753  0.16068734  1
  S2-  S147  1  0.54747464  0.31766897  0.68224140  1
  S2-  S148  1  0.48689900  0.52346004  0.14245415  1
  S2-  S149  1  0.51814705  0.53474914  0.64762260  1
  S2-  S150  1  0.38024497  0.87051992  0.13435250  1
  S2-  S151  1  0.50310009  0.87931597  0.65958946  1
  S2-  S152  1  0.72311721  0.04183113  0.15980914  1
  S2-  S153  1  0.74945261  0.11336876  0.65228354  1
  S2-  S154  1  0.76863669  0.25585326  0.14740625  1
  S2-  S155  1  0.76218064  0.41153297  0.65418527  1
  S2-  S156  1  0.73752801  0.50552858  0.14509761  1
  S2-  S157  1  0.78505597  0.65289487  0.66136369  1
  S2-  S158  1  0.83833210  0.87142954  0.14889436  1
  S2-  S159  1  0.81953738  0.88564667  0.64971596  1
  S2-  S160  1  0.01067534  0.04135163  0.35236335  1
  S2-  S161  1  0.11475986  -0.02440661  0.84169610  1
  S2-  S162  1  0.16248501  0.25194824  0.34520126  1
  S2-  S163  1  0.12300053  0.23558874  0.84383866  1
  S2-  S164  1  0.13628854  0.61433874  0.35986679  1
  S2-  S165  1  0.11900495  0.57421589  0.85349940  1
  S2-  S166  1  0.12913348  0.85324203  0.35043793  1
  S2-  S167  1  0.16359446  0.77098346  0.80821666  1
  S2-  S168  1  0.26077811  0.01794952  0.34879085  1
  S2-  S169  1  0.31501747  0.04867423  0.81896843  1
  S2-  S170  1  0.41168850  0.20320597  0.34588866  1
  S2-  S171  1  0.36153004  0.23631134  0.85141968  1
  S2-  S172  1  0.33533150  0.43747021  0.33856137  1
  S2-  S173  1  0.42521523  0.45536672  0.84171280  1
  S2-  S174  1  0.35949393  0.71543294  0.35150105  1
  S2-  S175  1  0.36365103  0.85215371  0.84880916  1
  S2-  S176  1  0.62621942  0.09856747  0.35677191  1
  S2-  S177  1  0.53662998  0.01014737  0.85814224  1
  S2-  S178  1  0.62708258  0.31879106  0.32832456  1
  S2-  S179  1  0.56405568  0.24846129  0.83754558  1
  S2-  S180  1  0.52327203  0.52955237  0.35768188  1
  S2-  S181  1  0.65056124  0.46647041  0.84647362  1
  S2-  S182  1  0.63304439  0.75423776  0.35275629  1
  S2-  S183  1  0.74651635  0.73465903  0.85898092  1
  S2-  S184  1  0.81123511  -0.03440272  0.33993675  1
  S2-  S185  1  0.86837859  -0.05370779  0.84380800  1
  S2-  S186  1  0.86506874  0.23633819  0.34844763  1
  S2-  S187  1  0.76938140  0.26724455  0.86361656  1
  S2-  S188  1  0.75946048  0.50443935  0.35996130  1
  S2-  S189  1  0.87872710  0.50962027  0.84883304  1
  S2-  S190  1  0.91694312  0.72766300  0.34941882  1
  S2-  S191  1  0.96899059  0.73656083  0.85021299  1
  S2-  S192  1  0.00270111  0.13467633  0.45979445  1
  S2-  S193  1  -0.00233302  0.11730933  0.94798233  1
  S2-  S194  1  0.00001718  0.38074645  0.44533105  1
  S2-  S195  1  -0.00331428  0.37068139  0.94866766  1
  S2-  S196  1  -0.00323108  0.62763203  0.46032237  1
  S2-  S197  1  -0.00376305  0.61645372  0.95677184  1
  S2-  S198  1  -0.00113306  0.87763294  0.45575381  1
  S2-  S199  1  -0.00152251  0.87236593  0.94579071  1
  S2-  S200  1  0.25431871  0.13221240  0.45297672  1
  S2-  S201  1  0.24802377  0.11841667  0.94971780  1
  S2-  S202  1  0.25201423  0.38288311  0.45271036  1
  S2-  S203  1  0.24584581  0.37076948  0.95104148  1
  S2-  S204  1  0.25959924  0.62835308  0.45511937  1
  S2-  S205  1  0.24942223  0.62359296  0.94526211  1
  S2-  S206  1  0.26011768  0.87757892  0.45501521  1
  S2-  S207  1  0.24591860  0.86821052  0.94875459  1
  S2-  S208  1  0.50222038  0.12711395  0.45501877  1
  S2-  S209  1  0.49832469  0.12671917  0.95613552  1
  S2-  S210  1  0.50782703  0.37604748  0.44787070  1
  S2-  S211  1  0.49470992  0.36940519  0.96002360  1
  S2-  S212  1  0.50617238  0.63534351  0.46077932  1
  S2-  S213  1  0.49529206  0.62078577  0.94943874  1
  S2-  S214  1  0.50450010  0.88188815  0.45240983  1
  S2-  S215  1  0.50161046  0.86780339  0.95140127  1
  S2-  S216  1  0.75406743  0.13027179  0.45245786  1
  S2-  S217  1  0.74928893  0.11828534  0.95900016  1
  S2-  S218  1  0.75024237  0.37159955  0.45180629  1
  S2-  S219  1  0.75096626  0.37300637  0.96582001  1
  S2-  S220  1  0.75041190  0.63428582  0.45731643  1
  S2-  S221  1  0.74363736  0.61426250  0.96031448  1
  S2-  S222  1  0.75160199  0.87997497  0.45336986  1
  S2-  S223  1  0.74244664  0.87682204  0.95505043  1
  S2-  S224  1  0.11917166  -0.00633405  0.04409766  1
  S2-  S225  1  0.13093357  0.00630601  0.53952105  1
  S2-  S226  1  0.12189919  0.24337930  0.04948375  1
  S2-  S227  1  0.12653009  0.25789023  0.54889057  1
  S2-  S228  1  0.12209471  0.50012433  0.04430615  1
  S2-  S229  1  0.12612584  0.50775636  0.54708805  1
  S2-  S230  1  0.12509390  0.75008603  0.03799695  1
  S2-  S231  1  0.13208976  0.75352734  0.53962299  1
  S2-  S232  1  0.37615946  -0.00169608  0.03498621  1
  S2-  S233  1  0.37607297  0.00557336  0.54018559  1
  S2-  S234  1  0.36991622  0.24650562  0.05301568  1
  S2-  S235  1  0.38076559  0.25786565  0.54477147  1
  S2-  S236  1  0.36755093  0.49986907  0.03960150  1
  S2-  S237  1  0.37867127  0.50800679  0.54095705  1
  S2-  S238  1  0.37458673  0.74472226  0.03318741  1
  S2-  S239  1  0.37688617  0.75484168  0.55237632  1
  S2-  S240  1  0.62039934  -0.00406791  0.04772997  1
  S2-  S241  1  0.62868543  0.00799743  0.54486456  1
  S2-  S242  1  0.62088842  0.24896018  0.04558024  1
  S2-  S243  1  0.62490914  0.25726080  0.55143082  1
  S2-  S244  1  0.61795643  0.49691444  0.04570211  1
  S2-  S245  1  0.62596058  0.50259053  0.54129842  1
  S2-  S246  1  0.62248256  0.74470798  0.03421647  1
  S2-  S247  1  0.62768767  0.75651705  0.55610389  1
  S2-  S248  1  0.87362429  -0.00506966  0.04396182  1
  S2-  S249  1  0.87287037  0.01144017  0.53899539  1
  S2-  S250  1  0.87934249  0.24551234  0.04388787  1
  S2-  S251  1  0.87773796  0.25663056  0.54968236  1
  S2-  S252  1  0.87560456  0.50066045  0.05100611  1
  S2-  S253  1  0.87906984  0.50532668  0.54434409  1
  S2-  S254  1  0.86190072  0.73971247  0.04359436  1
  S2-  S255  1  0.87449743  0.75421462  0.54686869  1
