# generated using pymatgen
data_La6Ce7Pr13Nd19Sm19(BiS2)64
_symmetry_space_group_name_H-M   'P 1'
_cell_length_a   16.09082458
_cell_length_b   16.12347456
_cell_length_c   27.42068418
_cell_angle_alpha   89.82800257
_cell_angle_beta   90.03922527
_cell_angle_gamma   90.06934828
_symmetry_Int_Tables_number   1
_chemical_formula_structural   La6Ce7Pr13Nd19Sm19(BiS2)64
_chemical_formula_sum   'La6 Ce7 Pr13 Nd19 Sm19 Bi64 S128'
_cell_volume   7113.98340835
_cell_formula_units_Z   1
loop_
 _symmetry_equiv_pos_site_id
 _symmetry_equiv_pos_as_xyz
  1  'x, y, z'
loop_
 _atom_type_symbol
 _atom_type_oxidation_number
  La3+  3.0
  Ce3+  3.0
  Pr3+  3.0
  Nd3+  3.0
  Sm3+  3.0
  Bi2+  2.0
  S2-  -2.0
loop_
 _atom_site_type_symbol
 _atom_site_label
 _atom_site_symmetry_multiplicity
 _atom_site_fract_x
 _atom_site_fract_y
 _atom_site_fract_z
 _atom_site_occupancy
  La3+  La0  1  0.25686978  0.35890017  0.08752215  1
  La3+  La1  1  0.25306828  0.11590881  0.58290565  1
  La3+  La2  1  0.36797657  0.23067737  0.91993650  1
  La3+  La3  1  0.74443306  0.60525497  0.08265396  1
  La3+  La4  1  0.87539253  0.75262467  0.88470291  1
  La3+  La5  1  0.73689228  0.85679811  0.57267335  1
  Ce3+  Ce6  1  0.24821530  0.36184232  0.56810352  1
  Ce3+  Ce7  1  0.62478655  0.23614366  0.94054023  1
  Ce3+  Ce8  1  0.62535638  0.48316741  0.94131525  1
  Ce3+  Ce9  1  0.63263075  0.73048082  0.94162046  1
  Ce3+  Ce10  1  0.50085026  0.60870158  0.05594867  1
  Ce3+  Ce11  1  0.86737656  0.23859323  0.43664120  1
  Ce3+  Ce12  1  0.25077171  0.85978402  0.06039905  1
  Pr3+  Pr13  1  0.86918751  -0.01255808  0.42938730  1
  Pr3+  Pr14  1  0.61956288  0.74098832  0.43196990  1
  Pr3+  Pr15  1  0.37355166  0.73504707  0.94266756  1
  Pr3+  Pr16  1  0.50533603  0.10943564  0.06223197  1
  Pr3+  Pr17  1  0.74191249  0.36255327  0.56441162  1
  Pr3+  Pr18  1  0.74165199  0.61046149  0.56228217  1
  Pr3+  Pr19  1  0.48975363  0.61161441  0.55058233  1
  Pr3+  Pr20  1  0.36794078  0.74117701  0.43817598  1
  Pr3+  Pr21  1  -0.00351427  0.85744792  0.06564965  1
  Pr3+  Pr22  1  0.36671746  0.47828605  0.42511027  1
  Pr3+  Pr23  1  0.12006184  0.73832929  0.43819822  1
  Pr3+  Pr24  1  0.35944984  -0.00672479  0.43377564  1
  Pr3+  Pr25  1  -0.00895136  0.60775595  0.56101913  1
  Nd3+  Nd26  1  0.62649155  0.23674619  0.43692598  1
  Nd3+  Nd27  1  0.86885797  0.74120268  0.43334918  1
  Nd3+  Nd28  1  -0.00837026  0.36275619  0.54994012  1
  Nd3+  Nd29  1  0.11961604  0.48336736  0.43791255  1
  Nd3+  Nd30  1  0.12287677  -0.01536084  0.95099164  1
  Nd3+  Nd31  1  0.86560165  0.49402042  0.42251131  1
  Nd3+  Nd32  1  0.25937094  0.11197610  0.07306218  1
  Nd3+  Nd33  1  0.61720673  0.48501663  0.43771789  1
  Nd3+  Nd34  1  0.48870848  0.36551613  0.56669730  1
  Nd3+  Nd35  1  0.87578281  -0.01540715  0.94400667  1
  Nd3+  Nd36  1  0.62850032  -0.01717419  0.94030177  1
  Nd3+  Nd37  1  0.37182980  0.23535273  0.43524320  1
  Nd3+  Nd38  1  0.87581614  0.23646681  0.94746200  1
  Nd3+  Nd39  1  -0.00665700  0.11105729  0.55655813  1
  Nd3+  Nd40  1  0.87387779  0.48925316  0.93998628  1
  Nd3+  Nd41  1  0.74808666  0.10535387  0.56938880  1
  Nd3+  Nd42  1  0.24445233  0.86383035  0.56964488  1
  Nd3+  Nd43  1  0.37024559  0.48273586  0.94008448  1
  Nd3+  Nd44  1  -0.00216965  0.60785265  0.06429593  1
  Sm3+  Sm45  1  0.49448109  0.11673695  0.55818151  1
  Sm3+  Sm46  1  -0.00053307  0.36115854  0.06128798  1
  Sm3+  Sm47  1  0.25071927  0.60989724  0.05602978  1
  Sm3+  Sm48  1  0.12792370  0.23524273  0.94848933  1
  Sm3+  Sm49  1  0.75067125  0.11073121  0.05716823  1
  Sm3+  Sm50  1  0.50215602  0.85947747  0.05090315  1
  Sm3+  Sm51  1  0.12207462  0.23729351  0.44286186  1
  Sm3+  Sm52  1  0.37242151  -0.01419501  0.93962948  1
  Sm3+  Sm53  1  0.00091230  0.11206079  0.06183427  1
  Sm3+  Sm54  1  0.62121102  -0.01113628  0.44780160  1
  Sm3+  Sm55  1  0.11707569  0.73340450  0.94382215  1
  Sm3+  Sm56  1  0.74901049  0.36013329  0.06389244  1
  Sm3+  Sm57  1  0.12514712  0.48318491  0.95324344  1
  Sm3+  Sm58  1  0.24433410  0.61266511  0.54911063  1
  Sm3+  Sm59  1  0.12008847  -0.00947966  0.44756476  1
  Sm3+  Sm60  1  0.75160841  0.85770535  0.06049433  1
  Sm3+  Sm61  1  -0.00794921  0.86121000  0.55732320  1
  Sm3+  Sm62  1  0.49350889  0.86373602  0.55497403  1
  Sm3+  Sm63  1  0.49603766  0.35527518  0.05420477  1
  Bi2+  Bi64  1  -0.04788247  0.14550617  0.32012220  1
  Bi2+  Bi65  1  0.04824010  0.14287679  0.80741159  1
  Bi2+  Bi66  1  -0.05502552  0.26665995  0.22409187  1
  Bi2+  Bi67  1  -0.07696345  0.42267573  0.80273296  1
  Bi2+  Bi68  1  0.01349678  0.61395498  0.29752406  1
  Bi2+  Bi69  1  0.05313670  0.59827542  0.79790810  1
  Bi2+  Bi70  1  0.02342749  0.96636354  0.31737343  1
  Bi2+  Bi71  1  0.04063055  0.94059142  0.75482233  1
  Bi2+  Bi72  1  0.22177624  0.13726047  0.31806272  1
  Bi2+  Bi73  1  0.25693376  0.12248241  0.78878594  1
  Bi2+  Bi74  1  0.23734719  0.40005445  0.29661523  1
  Bi2+  Bi75  1  0.26528411  0.38516025  0.80581429  1
  Bi2+  Bi76  1  0.26520436  0.67818770  0.25649356  1
  Bi2+  Bi77  1  0.24300106  0.64964079  0.78618964  1
  Bi2+  Bi78  1  0.35090156  0.90180148  0.31081255  1
  Bi2+  Bi79  1  0.25970039  0.92970059  0.80847352  1
  Bi2+  Bi80  1  0.54434884  0.16064443  0.27896515  1
  Bi2+  Bi81  1  0.50997962  0.05889572  0.78262216  1
  Bi2+  Bi82  1  0.48209399  0.41437199  0.30353349  1
  Bi2+  Bi83  1  0.51821326  0.40171863  0.80201643  1
  Bi2+  Bi84  1  0.50691392  0.62658869  0.23190035  1
  Bi2+  Bi85  1  0.48701802  0.66609765  0.77305882  1
  Bi2+  Bi86  1  0.54506464  0.86907602  0.29536256  1
  Bi2+  Bi87  1  0.45230494  0.86220153  0.78721435  1
  Bi2+  Bi88  1  0.75980096  0.10635899  0.28850568  1
  Bi2+  Bi89  1  0.85117702  0.13304271  0.80811343  1
  Bi2+  Bi90  1  0.75417391  0.37143449  0.29689378  1
  Bi2+  Bi91  1  0.75376369  0.37694993  0.74719371  1
  Bi2+  Bi92  1  0.74540781  0.62587442  0.28791931  1
  Bi2+  Bi93  1  0.73931500  0.61412156  0.79144624  1
  Bi2+  Bi94  1  0.75655458  0.90615633  0.29434819  1
  Bi2+  Bi95  1  0.74093372  0.89087914  0.79275435  1
  Bi2+  Bi96  1  0.19742788  -0.00874493  0.21481461  1
  Bi2+  Bi97  1  0.13360379  0.09117369  0.70373147  1
  Bi2+  Bi98  1  0.11730933  0.16788596  0.22454572  1
  Bi2+  Bi99  1  0.07012978  0.32026720  0.75491895  1
  Bi2+  Bi100  1  0.12620330  0.56059041  0.21186989  1
  Bi2+  Bi101  1  0.16489240  0.49213719  0.72784696  1
  Bi2+  Bi102  1  0.12619470  0.81974116  0.24813982  1
  Bi2+  Bi103  1  0.18430927  0.80858085  0.73001621  1
  Bi2+  Bi104  1  0.39487947  0.04222384  0.23599698  1
  Bi2+  Bi105  1  0.38314287  -0.01599407  0.70521654  1
  Bi2+  Bi106  1  0.36937704  0.23442545  0.20974599  1
  Bi2+  Bi107  1  0.38838479  0.27653009  0.69341868  1
  Bi2+  Bi108  1  0.36344612  0.50493482  0.19842773  1
  Bi2+  Bi109  1  0.37329426  0.55550340  0.70237124  1
  Bi2+  Bi110  1  0.40637092  0.79549755  0.20890470  1
  Bi2+  Bi111  1  0.36402566  0.76900787  0.69046913  1
  Bi2+  Bi112  1  0.60267246  0.00552770  0.21486867  1
  Bi2+  Bi113  1  0.64899213  0.02599246  0.70327991  1
  Bi2+  Bi114  1  0.56464177  0.28233398  0.18749819  1
  Bi2+  Bi115  1  0.66999716  0.19390249  0.76213896  1
  Bi2+  Bi116  1  0.61967728  0.45890138  0.22706808  1
  Bi2+  Bi117  1  0.60575487  0.47406509  0.69959681  1
  Bi2+  Bi118  1  0.65042942  0.76944207  0.19067557  1
  Bi2+  Bi119  1  0.61476403  0.74545333  0.70313146  1
  Bi2+  Bi120  1  0.90817812  0.01560447  0.23196486  1
  Bi2+  Bi121  1  0.88205947  0.03507822  0.71356683  1
  Bi2+  Bi122  1  0.75954096  0.24205932  0.19358677  1
  Bi2+  Bi123  1  0.90344040  0.28416167  0.69852977  1
  Bi2+  Bi124  1  0.88651543  0.49667054  0.20321626  1
  Bi2+  Bi125  1  0.89330293  0.52295640  0.69645822  1
  Bi2+  Bi126  1  0.90418891  0.76991585  0.20734144  1
  Bi2+  Bi127  1  0.89517120  0.77615482  0.68745820  1
  S2-  S128  1  -0.01975449  0.12144053  0.15816551  1
  S2-  S129  1  -0.01477582  0.14383889  0.65393733  1
  S2-  S130  1  -0.01033967  0.39391390  0.15767094  1
  S2-  S131  1  -0.01956066  0.41496622  0.64374954  1
  S2-  S132  1  -0.00584931  0.63529215  0.16279236  1
  S2-  S133  1  -0.00576282  0.64811193  0.65841241  1
  S2-  S134  1  0.01611448  0.86044974  0.16512209  1
  S2-  S135  1  0.01096101  0.88490185  0.65344706  1
  S2-  S136  1  0.22975480  0.22086761  0.14953997  1
  S2-  S137  1  0.24049146  0.25449826  0.64699128  1
  S2-  S138  1  0.21485570  0.42166699  0.18610695  1
  S2-  S139  1  0.36737539  0.41529603  0.63809059  1
  S2-  S140  1  0.26270680  0.62878745  0.15232651  1
  S2-  S141  1  0.26164880  0.64315313  0.64462518  1
  S2-  S142  1  0.26989161  0.87008676  0.15623016  1
  S2-  S143  1  0.24032580  0.97642978  0.64650816  1
  S2-  S144  1  0.40019717  0.10492154  0.14114087  1
  S2-  S145  1  0.42115726  0.12801270  0.64807091  1
  S2-  S146  1  0.41465835  0.36562733  0.14123299  1
  S2-  S147  1  0.54715175  0.33011644  0.66203353  1
  S2-  S148  1  0.58569624  0.62398051  0.13993568  1
  S2-  S149  1  0.53699283  0.60973625  0.64706946  1
  S2-  S150  1  0.52756872  0.87466934  0.14727477  1
  S2-  S151  1  0.57604916  0.86312184  0.64165958  1
  S2-  S152  1  0.69121203  0.09648641  0.14772664  1
  S2-  S153  1  0.70393872  0.17014856  0.65758117  1
  S2-  S154  1  0.76571522  0.45676780  0.14497170  1
  S2-  S155  1  0.74920327  0.48631666  0.63626022  1
  S2-  S156  1  0.78324981  0.65283169  0.18401291  1
  S2-  S157  1  0.74901450  0.72242491  0.64139069  1
  S2-  S158  1  0.77605621  0.86205230  0.15868290  1
  S2-  S159  1  0.78208771  0.97346591  0.64310636  1
  S2-  S160  1  0.19758896  -0.02115943  0.36067941  1
  S2-  S161  1  0.10700048  -0.01524177  0.85240673  1
  S2-  S162  1  0.14038362  0.28412331  0.34821012  1
  S2-  S163  1  0.21263054  0.23956715  0.86378490  1
  S2-  S164  1  0.12506460  0.51484383  0.33995366  1
  S2-  S165  1  0.13388270  0.47549761  0.85624097  1
  S2-  S166  1  0.09069157  0.74705800  0.33942230  1
  S2-  S167  1  0.04750030  0.73509096  0.85569393  1
  S2-  S168  1  0.36986662  0.11422514  0.36048979  1
  S2-  S169  1  0.38392923  0.08228399  0.85921306  1
  S2-  S170  1  0.35054949  0.33899575  0.35481449  1
  S2-  S171  1  0.40722957  0.28814065  0.81982367  1
  S2-  S172  1  0.35672818  0.52253195  0.32532834  1
  S2-  S173  1  0.38488043  0.49056742  0.84144252  1
  S2-  S174  1  0.34226171  0.74156476  0.34016160  1
  S2-  S175  1  0.36696148  0.72373895  0.84371650  1
  S2-  S176  1  0.62592726  -0.00859192  0.35055200  1
  S2-  S177  1  0.64490235  -0.00645927  0.84187122  1
  S2-  S178  1  0.55248980  0.27858464  0.34981803  1
  S2-  S179  1  0.61808759  0.27767000  0.84682143  1
  S2-  S180  1  0.65059347  0.50476278  0.34105570  1
  S2-  S181  1  0.63767828  0.51660702  0.84524821  1
  S2-  S182  1  0.66434589  0.74382700  0.33461406  1
  S2-  S183  1  0.69459300  0.75042722  0.85192613  1
  S2-  S184  1  0.87173480  -0.13649909  0.35700993  1
  S2-  S185  1  0.87036688  -0.07695295  0.85225168  1
  S2-  S186  1  0.75659885  0.23400971  0.36214989  1
  S2-  S187  1  0.85721697  0.28628045  0.85401854  1
  S2-  S188  1  0.89266206  0.42727695  0.32959208  1
  S2-  S189  1  0.86220930  0.57964029  0.85462841  1
  S2-  S190  1  0.86656783  0.63568942  0.35343754  1
  S2-  S191  1  0.85480436  0.74895358  0.77725220  1
  S2-  S192  1  -0.00391781  0.11304175  0.45150275  1
  S2-  S193  1  0.00069820  0.11231797  0.95723078  1
  S2-  S194  1  -0.00577762  0.36107756  0.44535626  1
  S2-  S195  1  0.00196963  0.35971853  0.95675122  1
  S2-  S196  1  -0.00277658  0.61162802  0.45355442  1
  S2-  S197  1  0.00258571  0.60603892  0.95976555  1
  S2-  S198  1  -0.00091124  0.86523880  0.45443105  1
  S2-  S199  1  -0.00301143  0.85869605  0.95958237  1
  S2-  S200  1  0.23986345  0.11561759  0.46674602  1
  S2-  S201  1  0.24743943  0.10562822  0.96365949  1
  S2-  S202  1  0.24072201  0.36058057  0.46033620  1
  S2-  S203  1  0.24787703  0.36121050  0.96357010  1
  S2-  S204  1  0.24455034  0.61163881  0.44516795  1
  S2-  S205  1  0.24534872  0.61125911  0.95163819  1
  S2-  S206  1  0.24223988  0.86306258  0.46248667  1
  S2-  S207  1  0.24708425  0.85964950  0.95364681  1
  S2-  S208  1  0.49958075  0.11192080  0.45556665  1
  S2-  S209  1  0.50459658  0.10730231  0.95574324  1
  S2-  S210  1  0.49533395  0.36256435  0.45805535  1
  S2-  S211  1  0.49507100  0.35845484  0.95065824  1
  S2-  S212  1  0.49229743  0.61302166  0.44195192  1
  S2-  S213  1  0.49862921  0.60901232  0.94955911  1
  S2-  S214  1  0.49305399  0.86791319  0.45039565  1
  S2-  S215  1  0.50057563  0.86100732  0.94565159  1
  S2-  S216  1  0.74588771  0.10817356  0.46035512  1
  S2-  S217  1  0.75113675  0.11078918  0.95256609  1
  S2-  S218  1  0.74628374  0.36869952  0.45642362  1
  S2-  S219  1  0.75133561  0.36090804  0.95953665  1
  S2-  S220  1  0.74038143  0.61465560  0.45405450  1
  S2-  S221  1  0.74673107  0.60410927  0.96507412  1
  S2-  S222  1  0.74134502  0.86390760  0.45879129  1
  S2-  S223  1  0.75504452  0.85790594  0.95647186  1
  S2-  S224  1  0.12462131  -0.01139345  0.05715346  1
  S2-  S225  1  0.11633063  -0.01370993  0.54914995  1
  S2-  S226  1  0.12129604  0.23675650  0.05087142  1
  S2-  S227  1  0.11438331  0.23789814  0.54705874  1
  S2-  S228  1  0.12731632  0.48399286  0.05764316  1
  S2-  S229  1  0.12186899  0.48824852  0.54552280  1
  S2-  S230  1  0.12552284  0.73320544  0.05084068  1
  S2-  S231  1  0.11982118  0.73827600  0.54661335  1
  S2-  S232  1  0.37806531  -0.01904592  0.04280200  1
  S2-  S233  1  0.37305906  -0.01373396  0.54350527  1
  S2-  S234  1  0.37691927  0.23250972  0.03801012  1
  S2-  S235  1  0.37242358  0.23807354  0.54158554  1
  S2-  S236  1  0.37390799  0.48760196  0.04529270  1
  S2-  S237  1  0.36443091  0.49281542  0.53193321  1
  S2-  S238  1  0.37692383  0.73500470  0.04885016  1
  S2-  S239  1  0.36800190  0.74121709  0.54377851  1
  S2-  S240  1  0.62869473  -0.01776091  0.04505338  1
  S2-  S241  1  0.61496752  -0.00809485  0.54935433  1
  S2-  S242  1  0.62729729  0.23711091  0.04659417  1
  S2-  S243  1  0.61800635  0.23795176  0.54434814  1
  S2-  S244  1  0.61961074  0.47674245  0.04767794  1
  S2-  S245  1  0.61407849  0.48593541  0.54178669  1
  S2-  S246  1  0.62670261  0.73922829  0.04449310  1
  S2-  S247  1  0.61235390  0.73667803  0.53723236  1
  S2-  S248  1  0.87416500  -0.01179361  0.05171954  1
  S2-  S249  1  0.87343091  -0.01512426  0.53754555  1
  S2-  S250  1  0.87528167  0.23613759  0.05341584  1
  S2-  S251  1  0.86697317  0.23716852  0.54503724  1
  S2-  S252  1  0.87710754  0.48270996  0.04538027  1
  S2-  S253  1  0.86795476  0.48684347  0.53285890  1
  S2-  S254  1  0.87197518  0.73228145  0.05957745  1
  S2-  S255  1  0.87238353  0.73814427  0.54031932  1
