# generated using pymatgen
data_La6Ce7Pr13Nd19Sm19(BiS2)64
_symmetry_space_group_name_H-M   'P 1'
_cell_length_a   16.09180368
_cell_length_b   16.13878313
_cell_length_c   27.25610400
_cell_angle_alpha   89.83507833
_cell_angle_beta   89.98099840
_cell_angle_gamma   89.98785526
_symmetry_Int_Tables_number   1
_chemical_formula_structural   La6Ce7Pr13Nd19Sm19(BiS2)64
_chemical_formula_sum   'La6 Ce7 Pr13 Nd19 Sm19 Bi64 S128'
_cell_volume   7078.43838568
_cell_formula_units_Z   1
loop_
 _symmetry_equiv_pos_site_id
 _symmetry_equiv_pos_as_xyz
  1  'x, y, z'
loop_
 _atom_type_symbol
 _atom_type_oxidation_number
  La3+  3.0
  Ce3+  3.0
  Pr3+  3.0
  Nd3+  3.0
  Sm3+  3.0
  Bi2+  2.0
  S2-  -2.0
loop_
 _atom_site_type_symbol
 _atom_site_label
 _atom_site_symmetry_multiplicity
 _atom_site_fract_x
 _atom_site_fract_y
 _atom_site_fract_z
 _atom_site_occupancy
  La3+  La0  1  0.36912955  0.26137086  0.40761858  1
  La3+  La1  1  0.75034322  0.12235204  0.05889743  1
  La3+  La2  1  -0.00044447  0.39445689  0.59705884  1
  La3+  La3  1  0.61138269  -0.00440797  0.88204926  1
  La3+  La4  1  0.24050611  0.12682176  0.09385507  1
  La3+  La5  1  0.25836436  0.86462051  0.10446627  1
  Ce3+  Ce6  1  0.74420258  0.38732136  0.56406510  1
  Ce3+  Ce7  1  0.12721895  0.51175894  0.44230456  1
  Ce3+  Ce8  1  0.37101322  0.76371145  0.43533504  1
  Ce3+  Ce9  1  0.49668766  0.12193264  0.06185779  1
  Ce3+  Ce10  1  0.62658689  0.76463363  0.44442367  1
  Ce3+  Ce11  1  0.74579919  0.63369032  0.55513307  1
  Ce3+  Ce12  1  0.49798832  0.63464689  0.55099490  1
  Pr3+  Pr13  1  0.75068915  0.37894410  0.06605132  1
  Pr3+  Pr14  1  0.75145903  0.89362675  0.58055919  1
  Pr3+  Pr15  1  -0.00613662  0.63667550  0.56177700  1
  Pr3+  Pr16  1  0.37416144  0.75359229  0.93835607  1
  Pr3+  Pr17  1  0.25112988  0.39054962  0.57047752  1
  Pr3+  Pr18  1  0.00672410  0.87967960  0.06599460  1
  Pr3+  Pr19  1  0.37249985  0.01184240  0.43661258  1
  Pr3+  Pr20  1  0.62486163  0.24782013  0.93613501  1
  Pr3+  Pr21  1  0.49850203  0.62865131  0.05936259  1
  Pr3+  Pr22  1  0.12530729  0.26420220  0.43826993  1
  Pr3+  Pr23  1  0.37367410  0.51327394  0.41776410  1
  Pr3+  Pr24  1  0.87148671  0.51133726  0.43209971  1
  Pr3+  Pr25  1  0.24373059  0.61970997  0.06832491  1
  Nd3+  Nd26  1  0.87585006  0.00196128  0.92720804  1
  Nd3+  Nd27  1  0.00200331  0.62602691  0.05695310  1
  Nd3+  Nd28  1  0.00436749  0.37744381  0.05759856  1
  Nd3+  Nd29  1  0.62744350  0.01230120  0.44392252  1
  Nd3+  Nd30  1  0.12440674  0.00427785  0.93537691  1
  Nd3+  Nd31  1  0.25783303  0.37545456  0.06990215  1
  Nd3+  Nd32  1  0.25121942  0.88315568  0.56979577  1
  Nd3+  Nd33  1  0.62624084  0.75603290  0.93834155  1
  Nd3+  Nd34  1  0.50541237  0.37594605  0.06703466  1
  Nd3+  Nd35  1  0.25131272  0.63504072  0.56518421  1
  Nd3+  Nd36  1  0.49932446  0.88683754  0.55709543  1
  Nd3+  Nd37  1  0.87807319  0.50040202  0.93122147  1
  Nd3+  Nd38  1  0.75223616  0.87782475  0.05316832  1
  Nd3+  Nd39  1  0.63591335  0.25733428  0.42808293  1
  Nd3+  Nd40  1  0.62360326  0.51025269  0.42921266  1
  Nd3+  Nd41  1  0.49620118  0.13960629  0.55270627  1
  Nd3+  Nd42  1  0.62534383  0.49974652  0.93126416  1
  Nd3+  Nd43  1  -0.00028137  0.88853207  0.56800127  1
  Nd3+  Nd44  1  -0.00010471  0.13775799  0.55650367  1
  Sm3+  Sm45  1  0.00469888  0.12614115  0.05572787  1
  Sm3+  Sm46  1  0.87796339  0.75590076  0.94077314  1
  Sm3+  Sm47  1  0.37576484  0.25002650  0.94776726  1
  Sm3+  Sm48  1  0.12328320  0.76238628  0.44788819  1
  Sm3+  Sm49  1  0.12887481  0.75297495  0.94527141  1
  Sm3+  Sm50  1  0.13044001  0.25539350  0.94287530  1
  Sm3+  Sm51  1  0.24758728  0.13882206  0.55460746  1
  Sm3+  Sm52  1  0.37677778  0.49891490  0.93646480  1
  Sm3+  Sm53  1  0.87361481  0.00986913  0.44648421  1
  Sm3+  Sm54  1  0.50020777  0.87800386  0.05524374  1
  Sm3+  Sm55  1  0.75161162  0.62773018  0.05062570  1
  Sm3+  Sm56  1  0.49448360  0.38392352  0.54514668  1
  Sm3+  Sm57  1  0.87398355  0.76536311  0.44683230  1
  Sm3+  Sm58  1  0.12393631  0.00894289  0.44319943  1
  Sm3+  Sm59  1  0.74764839  0.14665760  0.57080151  1
  Sm3+  Sm60  1  0.37450064  0.00187525  0.94666888  1
  Sm3+  Sm61  1  0.87643671  0.25372157  0.94458487  1
  Sm3+  Sm62  1  0.12667371  0.50584781  0.92697211  1
  Sm3+  Sm63  1  0.87475698  0.26156736  0.44803460  1
  Bi2+  Bi64  1  -0.02992395  0.13607238  0.27698738  1
  Bi2+  Bi65  1  0.04072779  0.09247088  0.76747572  1
  Bi2+  Bi66  1  0.03584458  0.40257303  0.28133138  1
  Bi2+  Bi67  1  -0.00237670  0.35315122  0.79237152  1
  Bi2+  Bi68  1  -0.02011713  0.57874488  0.30867899  1
  Bi2+  Bi69  1  0.04239699  0.61110491  0.78236710  1
  Bi2+  Bi70  1  -0.01448438  0.84680242  0.29672615  1
  Bi2+  Bi71  1  0.04108651  0.88959512  0.78852230  1
  Bi2+  Bi72  1  0.25556158  0.09793790  0.29878692  1
  Bi2+  Bi73  1  0.22736142  0.09714700  0.80863696  1
  Bi2+  Bi74  1  0.23481366  0.38460689  0.29162318  1
  Bi2+  Bi75  1  0.26323997  0.36751890  0.79864507  1
  Bi2+  Bi76  1  0.25824284  0.62148896  0.27916003  1
  Bi2+  Bi77  1  0.26775827  0.63450133  0.79331691  1
  Bi2+  Bi78  1  0.24962551  0.86358401  0.30547098  1
  Bi2+  Bi79  1  0.24215520  0.90134484  0.79160668  1
  Bi2+  Bi80  1  0.55459443  0.15146759  0.27973391  1
  Bi2+  Bi81  1  0.40297181  0.16454007  0.77410535  1
  Bi2+  Bi82  1  0.51007408  0.41343859  0.27361185  1
  Bi2+  Bi83  1  0.55525536  0.35329189  0.80476090  1
  Bi2+  Bi84  1  0.55008563  0.65848095  0.27796879  1
  Bi2+  Bi85  1  0.51523184  0.60940205  0.78453904  1
  Bi2+  Bi86  1  0.57057870  0.86429420  0.25452665  1
  Bi2+  Bi87  1  0.48237497  0.86221634  0.79112216  1
  Bi2+  Bi88  1  0.78355987  0.10760333  0.30915916  1
  Bi2+  Bi89  1  0.75564851  0.15626594  0.79048256  1
  Bi2+  Bi90  1  0.81813076  0.37077021  0.28677437  1
  Bi2+  Bi91  1  0.74858448  0.35341758  0.79476843  1
  Bi2+  Bi92  1  0.78232184  0.61728062  0.29204507  1
  Bi2+  Bi93  1  0.75359769  0.61985738  0.78934380  1
  Bi2+  Bi94  1  0.74688117  0.88111691  0.31780440  1
  Bi2+  Bi95  1  0.75164159  0.87125219  0.78161835  1
  Bi2+  Bi96  1  0.07454115  -0.00938843  0.22197923  1
  Bi2+  Bi97  1  0.14678392  -0.05269935  0.68465063  1
  Bi2+  Bi98  1  0.09091879  0.24639286  0.21197771  1
  Bi2+  Bi99  1  0.18554856  0.23388820  0.72264104  1
  Bi2+  Bi100  1  0.18327776  0.49366541  0.19842945  1
  Bi2+  Bi101  1  0.14905652  0.49603112  0.70959343  1
  Bi2+  Bi102  1  0.08485373  0.68550550  0.23202422  1
  Bi2+  Bi103  1  0.15952235  0.75978379  0.72191816  1
  Bi2+  Bi104  1  0.42489522  -0.00213732  0.20946571  1
  Bi2+  Bi105  1  0.33349680  0.01159205  0.71109779  1
  Bi2+  Bi106  1  0.37112659  0.24669645  0.20500271  1
  Bi2+  Bi107  1  0.36894975  0.30689286  0.69483353  1
  Bi2+  Bi108  1  0.38188697  0.51701223  0.21054101  1
  Bi2+  Bi109  1  0.36740436  0.49642661  0.73283593  1
  Bi2+  Bi110  1  0.41267128  0.73815239  0.20690464  1
  Bi2+  Bi111  1  0.40624929  0.75051780  0.70288127  1
  Bi2+  Bi112  1  0.69547829  0.03258969  0.21505625  1
  Bi2+  Bi113  1  0.61102725  -0.01108538  0.67994531  1
  Bi2+  Bi114  1  0.67135428  0.29486576  0.22509572  1
  Bi2+  Bi115  1  0.58276655  0.25662445  0.70310318  1
  Bi2+  Bi116  1  0.65301245  0.51930918  0.20432003  1
  Bi2+  Bi117  1  0.64195198  0.48056630  0.73020562  1
  Bi2+  Bi118  1  0.72942487  0.76077230  0.21829239  1
  Bi2+  Bi119  1  0.63714241  0.69125867  0.70295178  1
  Bi2+  Bi120  1  0.88659213  -0.02167119  0.20074751  1
  Bi2+  Bi121  1  0.94072054  -0.02553980  0.69719567  1
  Bi2+  Bi122  1  0.87533551  0.24970542  0.20001338  1
  Bi2+  Bi123  1  0.85410897  0.20851994  0.70088986  1
  Bi2+  Bi124  1  0.88355599  0.50937598  0.21195918  1
  Bi2+  Bi125  1  0.87543539  0.52305375  0.71505782  1
  Bi2+  Bi126  1  0.92630568  0.78334027  0.19322460  1
  Bi2+  Bi127  1  0.89902491  0.73164647  0.74524612  1
  S2-  S128  1  0.07916414  0.11546332  0.14427259  1
  S2-  S129  1  -0.00974787  0.13747338  0.65563686  1
  S2-  S130  1  -0.00971511  0.36379384  0.15621961  1
  S2-  S131  1  -0.06980122  0.35285975  0.69172380  1
  S2-  S132  1  0.09456102  0.60275427  0.13962325  1
  S2-  S133  1  0.00616314  0.55270678  0.64973401  1
  S2-  S134  1  0.10339877  0.87693303  0.15083617  1
  S2-  S135  1  -0.04312455  0.81833703  0.65586748  1
  S2-  S136  1  0.29056747  0.09270678  0.19249367  1
  S2-  S137  1  0.24056514  0.11540453  0.65215085  1
  S2-  S138  1  0.23027940  0.27713576  0.15305412  1
  S2-  S139  1  0.14253289  0.35524651  0.65130613  1
  S2-  S140  1  0.28546670  0.70825433  0.15148972  1
  S2-  S141  1  0.27212345  0.52266524  0.64230654  1
  S2-  S142  1  0.30342332  0.88980668  0.20762295  1
  S2-  S143  1  0.26653277  0.75595712  0.64024352  1
  S2-  S144  1  0.49184425  0.14663927  0.15996917  1
  S2-  S145  1  0.51678760  0.13115745  0.65178237  1
  S2-  S146  1  0.39897514  0.38258888  0.14640809  1
  S2-  S147  1  0.50404412  0.37845391  0.64465075  1
  S2-  S148  1  0.52363544  0.61576838  0.15866611  1
  S2-  S149  1  0.49117651  0.63550367  0.64850743  1
  S2-  S150  1  0.50119172  0.86895200  0.15351604  1
  S2-  S151  1  0.47239990  0.88353886  0.65582885  1
  S2-  S152  1  0.73409995  0.16969276  0.15585830  1
  S2-  S153  1  0.76213430  0.04055354  0.64844435  1
  S2-  S154  1  0.63113072  0.38692577  0.13982240  1
  S2-  S155  1  0.73114351  0.27481942  0.63960756  1
  S2-  S156  1  0.77447786  0.59134437  0.14533293  1
  S2-  S157  1  0.76252589  0.59476725  0.64879938  1
  S2-  S158  1  0.74384833  0.89689285  0.15182922  1
  S2-  S159  1  0.70841681  0.83938500  0.67609430  1
  S2-  S160  1  0.14505835  0.00428517  0.34590233  1
  S2-  S161  1  0.00607504  0.01030805  0.85929280  1
  S2-  S162  1  0.20796183  0.24241736  0.35005938  1
  S2-  S163  1  0.11522087  0.29427788  0.84613661  1
  S2-  S164  1  0.21910651  0.52426073  0.35903498  1
  S2-  S165  1  -0.00200235  0.48976141  0.85565584  1
  S2-  S166  1  0.11374016  0.77667532  0.34993299  1
  S2-  S167  1  0.13400473  0.69376979  0.85295073  1
  S2-  S168  1  0.36121987  -0.02971806  0.33832033  1
  S2-  S169  1  0.43767786  -0.01649140  0.85488561  1
  S2-  S170  1  0.40471806  0.17657523  0.31805709  1
  S2-  S171  1  0.39469092  0.27915861  0.85019187  1
  S2-  S172  1  0.38022432  0.39317957  0.34150336  1
  S2-  S173  1  0.25873261  0.50009694  0.86282097  1
  S2-  S174  1  0.35347581  0.73969153  0.33850356  1
  S2-  S175  1  0.40026127  0.72559747  0.83944615  1
  S2-  S176  1  0.63030592  0.03162008  0.34614080  1
  S2-  S177  1  0.60026503  -0.01616026  0.77365419  1
  S2-  S178  1  0.58186872  0.29016577  0.33425619  1
  S2-  S179  1  0.62022540  0.16413946  0.84744180  1
  S2-  S180  1  0.52103047  0.53746553  0.34583818  1
  S2-  S181  1  0.49829300  0.49449234  0.86068623  1
  S2-  S182  1  0.60772023  0.77956485  0.34784306  1
  S2-  S183  1  0.62497046  0.82085171  0.84535783  1
  S2-  S184  1  0.88711171  -0.02653839  0.35098820  1
  S2-  S185  1  0.78052475  0.00139822  0.84150136  1
  S2-  S186  1  0.78413930  0.24766054  0.36533314  1
  S2-  S187  1  0.88401298  0.25637536  0.84508109  1
  S2-  S188  1  0.74968162  0.49024529  0.35795827  1
  S2-  S189  1  0.75420352  0.49148322  0.86026749  1
  S2-  S190  1  0.85575266  0.75638779  0.34915630  1
  S2-  S191  1  0.86716954  0.78881569  0.84463576  1
  S2-  S192  1  -0.00161317  0.13451114  0.44891837  1
  S2-  S193  1  0.00307979  0.13554107  0.95333958  1
  S2-  S194  1  -0.00317836  0.38574896  0.44037671  1
  S2-  S195  1  0.00346232  0.37463636  0.95377513  1
  S2-  S196  1  -0.00270572  0.63942888  0.45392082  1
  S2-  S197  1  0.00057625  0.63104190  0.95237202  1
  S2-  S198  1  -0.00065271  0.88687972  0.45976444  1
  S2-  S199  1  0.00303705  0.87379376  0.95692097  1
  S2-  S200  1  0.24767140  0.13340425  0.45207825  1
  S2-  S201  1  0.25113350  0.12721635  0.94830534  1
  S2-  S202  1  0.25118555  0.38524187  0.45627966  1
  S2-  S203  1  0.25447175  0.37402678  0.96068558  1
  S2-  S204  1  0.24747555  0.64163972  0.45890394  1
  S2-  S205  1  0.25183785  0.62742166  0.95975263  1
  S2-  S206  1  0.24593339  0.88667469  0.46005951  1
  S2-  S207  1  0.24863941  0.87940147  0.94162860  1
  S2-  S208  1  0.49916778  0.13805874  0.44594128  1
  S2-  S209  1  0.49717378  0.12400417  0.95548104  1
  S2-  S210  1  0.50215581  0.38180981  0.44391433  1
  S2-  S211  1  0.50028018  0.37255568  0.96102948  1
  S2-  S212  1  0.49903825  0.64102259  0.44726256  1
  S2-  S213  1  0.50239290  0.63074355  0.95304310  1
  S2-  S214  1  0.49953591  0.88910569  0.45035258  1
  S2-  S215  1  0.50192101  0.87835855  0.95292892  1
  S2-  S216  1  0.75450150  0.13284540  0.46620639  1
  S2-  S217  1  0.75750587  0.12868223  0.95196564  1
  S2-  S218  1  0.75091778  0.38387459  0.46039450  1
  S2-  S219  1  0.75067359  0.37261923  0.95939023  1
  S2-  S220  1  0.74976050  0.63983117  0.45105233  1
  S2-  S221  1  0.75363878  0.63336477  0.94813062  1
  S2-  S222  1  0.75110304  0.88874043  0.46424891  1
  S2-  S223  1  0.75234786  0.87855983  0.95007635  1
  S2-  S224  1  0.12998201  0.00332242  0.04144518  1
  S2-  S225  1  0.12503281  0.01118267  0.54807910  1
  S2-  S226  1  0.12705895  0.25210882  0.04566270  1
  S2-  S227  1  0.12270239  0.26182924  0.54447690  1
  S2-  S228  1  0.12665171  0.49615351  0.03564549  1
  S2-  S229  1  0.12038769  0.50983800  0.54574591  1
  S2-  S230  1  0.13025449  0.75391241  0.04748599  1
  S2-  S231  1  0.12001903  0.76150051  0.55208017  1
  S2-  S232  1  0.36667856  -0.00444219  0.05519728  1
  S2-  S233  1  0.37096112  0.01183012  0.54607921  1
  S2-  S234  1  0.37088652  0.24290798  0.05075610  1
  S2-  S235  1  0.37012835  0.26113221  0.54532203  1
  S2-  S236  1  0.37651986  0.50315746  0.04300671  1
  S2-  S237  1  0.37691025  0.51072980  0.53356640  1
  S2-  S238  1  0.37471170  0.75617369  0.04547225  1
  S2-  S239  1  0.37677861  0.76327736  0.54065128  1
  S2-  S240  1  0.62394993  -0.00159463  0.05371551  1
  S2-  S241  1  0.62368404  0.01407971  0.54958269  1
  S2-  S242  1  0.62392583  0.24759344  0.04434422  1
  S2-  S243  1  0.61977523  0.26110001  0.53650767  1
  S2-  S244  1  0.62803287  0.50770215  0.03794804  1
  S2-  S245  1  0.62058414  0.50769383  0.53965665  1
  S2-  S246  1  0.62738811  0.75289354  0.04692652  1
  S2-  S247  1  0.62513972  0.76337248  0.55125812  1
  S2-  S248  1  0.88144937  0.00177826  0.04317402  1
  S2-  S249  1  0.87683028  0.01279283  0.54946581  1
  S2-  S250  1  0.87872993  0.25166390  0.04958611  1
  S2-  S251  1  0.88296457  0.26844674  0.55099644  1
  S2-  S252  1  0.87658776  0.50235826  0.04078994  1
  S2-  S253  1  0.87450764  0.50631610  0.54269965  1
  S2-  S254  1  0.87809552  0.75154391  0.04652020  1
  S2-  S255  1  0.86818423  0.76274955  0.55058271  1
