# generated using pymatgen
data_La6Ce7Pr13Nd19Sm19(BiS2)64
_symmetry_space_group_name_H-M   'P 1'
_cell_length_a   16.08114648
_cell_length_b   16.01739867
_cell_length_c   27.34601357
_cell_angle_alpha   89.95201872
_cell_angle_beta   90.04294853
_cell_angle_gamma   89.91390716
_symmetry_Int_Tables_number   1
_chemical_formula_structural   La6Ce7Pr13Nd19Sm19(BiS2)64
_chemical_formula_sum   'La6 Ce7 Pr13 Nd19 Sm19 Bi64 S128'
_cell_volume   7043.72274748
_cell_formula_units_Z   1
loop_
 _symmetry_equiv_pos_site_id
 _symmetry_equiv_pos_as_xyz
  1  'x, y, z'
loop_
 _atom_type_symbol
 _atom_type_oxidation_number
  La3+  3.0
  Ce3+  3.0
  Pr3+  3.0
  Nd3+  3.0
  Sm3+  3.0
  Bi2+  2.0
  S2-  -2.0
loop_
 _atom_site_type_symbol
 _atom_site_label
 _atom_site_symmetry_multiplicity
 _atom_site_fract_x
 _atom_site_fract_y
 _atom_site_fract_z
 _atom_site_occupancy
  La3+  La0  1  0.64265660  0.73531086  0.90498270  1
  La3+  La1  1  0.63191416  0.27234056  0.38088576  1
  La3+  La2  1  0.75670378  0.88631618  0.60283661  1
  La3+  La3  1  0.01403058  0.36563368  0.08545622  1
  La3+  La4  1  0.27345074  0.62416166  0.08817452  1
  La3+  La5  1  0.64491231  0.24263589  0.92007586  1
  Ce3+  Ce6  1  0.38694129  -0.00448899  0.92421919  1
  Ce3+  Ce7  1  0.38440042  0.49575914  0.93342388  1
  Ce3+  Ce8  1  0.76234085  0.36830257  0.06189233  1
  Ce3+  Ce9  1  0.76010350  0.62132958  0.05845595  1
  Ce3+  Ce10  1  0.50033259  0.88506804  0.55794600  1
  Ce3+  Ce11  1  0.88791686  -0.01062676  0.94549841  1
  Ce3+  Ce12  1  0.76007389  0.86672758  0.05946566  1
  Pr3+  Pr13  1  0.87065149  0.25024604  0.42601865  1
  Pr3+  Pr14  1  0.01250268  0.86815138  0.06846669  1
  Pr3+  Pr15  1  0.13734597  -0.00744220  0.94367957  1
  Pr3+  Pr16  1  0.36820278  0.51731272  0.42838510  1
  Pr3+  Pr17  1  0.11104906  0.51202953  0.41818723  1
  Pr3+  Pr18  1  0.27851706  0.88039639  0.07945149  1
  Pr3+  Pr19  1  0.61629703  0.51727482  0.43118693  1
  Pr3+  Pr20  1  0.36651673  0.76512138  0.43537789  1
  Pr3+  Pr21  1  0.24194626  0.14012779  0.56411211  1
  Pr3+  Pr22  1  0.62228971  0.76463231  0.43602148  1
  Pr3+  Pr23  1  0.37625699  0.74299025  0.92713587  1
  Pr3+  Pr24  1  0.74971410  0.14877876  0.57139872  1
  Pr3+  Pr25  1  0.86488207  0.50304829  0.43573641  1
  Nd3+  Nd26  1  0.37510904  0.26003784  0.43230963  1
  Nd3+  Nd27  1  0.24338766  0.89064832  0.56925658  1
  Nd3+  Nd28  1  0.51325810  0.12198513  0.04882859  1
  Nd3+  Nd29  1  -0.00392862  0.62883616  0.56642119  1
  Nd3+  Nd30  1  0.12059984  0.00591622  0.43382682  1
  Nd3+  Nd31  1  0.50018697  0.13560931  0.56149662  1
  Nd3+  Nd32  1  0.24502672  0.64217651  0.56190731  1
  Nd3+  Nd33  1  0.89209501  0.49509370  0.95105579  1
  Nd3+  Nd34  1  -0.00150629  0.88140750  0.57177320  1
  Nd3+  Nd35  1  0.36989030  0.01416685  0.44617190  1
  Nd3+  Nd36  1  0.00804970  0.62884486  0.08200730  1
  Nd3+  Nd37  1  0.48847225  0.63490949  0.56476458  1
  Nd3+  Nd38  1  0.01110667  0.11698502  0.06792631  1
  Nd3+  Nd39  1  0.49497071  0.38631951  0.55075870  1
  Nd3+  Nd40  1  0.12027264  0.26502144  0.42205280  1
  Nd3+  Nd41  1  0.51085757  0.62152768  0.05549337  1
  Nd3+  Nd42  1  0.10848848  0.75750391  0.42965153  1
  Nd3+  Nd43  1  0.51303913  0.36807673  0.05133702  1
  Nd3+  Nd44  1  0.26601402  0.12100076  0.05582241  1
  Sm3+  Sm45  1  0.89078198  0.74031795  0.93661915  1
  Sm3+  Sm46  1  0.14198292  0.74116436  0.95521524  1
  Sm3+  Sm47  1  0.38491653  0.24534966  0.92438431  1
  Sm3+  Sm48  1  0.74130224  0.38539465  0.55253543  1
  Sm3+  Sm49  1  -0.00283799  0.38259950  0.55881749  1
  Sm3+  Sm50  1  0.13304038  0.24546991  0.94590423  1
  Sm3+  Sm51  1  0.24537745  0.38307158  0.54920469  1
  Sm3+  Sm52  1  0.62439502  0.01968271  0.44779705  1
  Sm3+  Sm53  1  -0.00448619  0.14090732  0.55687390  1
  Sm3+  Sm54  1  0.63983512  -0.00935362  0.93831553  1
  Sm3+  Sm55  1  0.74253396  0.63887432  0.56039374  1
  Sm3+  Sm56  1  0.86884955  0.01255932  0.44960464  1
  Sm3+  Sm57  1  0.86934832  0.76381849  0.44784970  1
  Sm3+  Sm58  1  0.51141301  0.86898394  0.04632920  1
  Sm3+  Sm59  1  0.76065329  0.11964094  0.05609968  1
  Sm3+  Sm60  1  0.26505661  0.37041593  0.06100676  1
  Sm3+  Sm61  1  0.63882561  0.49586111  0.94069700  1
  Sm3+  Sm62  1  0.88915258  0.24614720  0.93927735  1
  Sm3+  Sm63  1  0.13661252  0.49526947  0.95915485  1
  Bi2+  Bi64  1  0.00879757  0.08361639  0.31125912  1
  Bi2+  Bi65  1  0.01334838  0.17304666  0.82527112  1
  Bi2+  Bi66  1  -0.00848751  0.37820133  0.29346349  1
  Bi2+  Bi67  1  -0.01147885  0.37133885  0.81526142  1
  Bi2+  Bi68  1  0.00089665  0.63802586  0.28796691  1
  Bi2+  Bi69  1  0.02490509  0.65482466  0.81549984  1
  Bi2+  Bi70  1  -0.02325672  0.88867053  0.30476848  1
  Bi2+  Bi71  1  0.02554879  0.85332394  0.79037796  1
  Bi2+  Bi72  1  0.21463792  0.09989125  0.31825363  1
  Bi2+  Bi73  1  0.17292794  0.08616578  0.77360504  1
  Bi2+  Bi74  1  0.26929863  0.26399102  0.26359352  1
  Bi2+  Bi75  1  0.26757164  0.33714278  0.77936755  1
  Bi2+  Bi76  1  0.26096353  0.60717698  0.28522281  1
  Bi2+  Bi77  1  0.24554145  0.59763596  0.80680634  1
  Bi2+  Bi78  1  0.19300843  0.90710626  0.26560667  1
  Bi2+  Bi79  1  0.23805278  0.84423805  0.78798587  1
  Bi2+  Bi80  1  0.47844040  0.08461674  0.29678006  1
  Bi2+  Bi81  1  0.42555142  0.16806094  0.76594110  1
  Bi2+  Bi82  1  0.49649290  0.36394410  0.27490668  1
  Bi2+  Bi83  1  0.51760573  0.37659138  0.78600644  1
  Bi2+  Bi84  1  0.47379726  0.60886830  0.29613977  1
  Bi2+  Bi85  1  0.50460172  0.56450363  0.77679608  1
  Bi2+  Bi86  1  0.55063902  0.87223852  0.29944593  1
  Bi2+  Bi87  1  0.48604004  0.93067482  0.78503803  1
  Bi2+  Bi88  1  0.74592888  0.03888810  0.29076129  1
  Bi2+  Bi89  1  0.71770233  0.15191518  0.78666005  1
  Bi2+  Bi90  1  0.73755309  0.40978087  0.26506275  1
  Bi2+  Bi91  1  0.79705949  0.37453471  0.77418292  1
  Bi2+  Bi92  1  0.74165408  0.66099651  0.29125893  1
  Bi2+  Bi93  1  0.77383191  0.60357512  0.79293502  1
  Bi2+  Bi94  1  0.73992459  0.85095456  0.33105690  1
  Bi2+  Bi95  1  0.74275380  0.89732386  0.80509587  1
  Bi2+  Bi96  1  0.07966163  -0.02501727  0.17705338  1
  Bi2+  Bi97  1  0.07869741  -0.03077486  0.69214269  1
  Bi2+  Bi98  1  0.11490647  0.16138488  0.22186498  1
  Bi2+  Bi99  1  0.13016598  0.24069980  0.70672785  1
  Bi2+  Bi100  1  0.11279666  0.45523187  0.21519220  1
  Bi2+  Bi101  1  0.05313969  0.50049717  0.73525597  1
  Bi2+  Bi102  1  0.09152934  0.77115147  0.20794724  1
  Bi2+  Bi103  1  0.12811192  0.68686858  0.71408546  1
  Bi2+  Bi104  1  0.37297595  -0.04163067  0.22398832  1
  Bi2+  Bi105  1  0.32525802  -0.01137010  0.72619185  1
  Bi2+  Bi106  1  0.38626142  0.15220813  0.19837618  1
  Bi2+  Bi107  1  0.39137265  0.31863300  0.68746368  1
  Bi2+  Bi108  1  0.35617252  0.41374325  0.20089911  1
  Bi2+  Bi109  1  0.33442066  0.49917974  0.72177624  1
  Bi2+  Bi110  1  0.39620793  0.74835126  0.20342848  1
  Bi2+  Bi111  1  0.38873845  0.73771605  0.69147615  1
  Bi2+  Bi112  1  0.61124877  -0.01507696  0.21256672  1
  Bi2+  Bi113  1  0.57996440  0.01072533  0.69879154  1
  Bi2+  Bi114  1  0.63432105  0.24358296  0.17594047  1
  Bi2+  Bi115  1  0.62989949  0.25486954  0.68207893  1
  Bi2+  Bi116  1  0.60910296  0.57285685  0.21516204  1
  Bi2+  Bi117  1  0.65544831  0.47434543  0.71642339  1
  Bi2+  Bi118  1  0.60181066  0.76766435  0.20758761  1
  Bi2+  Bi119  1  0.63365394  0.74818856  0.71236090  1
  Bi2+  Bi120  1  0.89332055  -0.00559114  0.20983507  1
  Bi2+  Bi121  1  0.92529600  0.02292083  0.74732339  1
  Bi2+  Bi122  1  0.89205953  0.18851774  0.22108069  1
  Bi2+  Bi123  1  0.93263436  0.24153577  0.72759124  1
  Bi2+  Bi124  1  0.85993044  0.54977181  0.22328601  1
  Bi2+  Bi125  1  0.86255320  0.52350167  0.70167445  1
  Bi2+  Bi126  1  0.83663089  0.80195977  0.22443912  1
  Bi2+  Bi127  1  0.91786595  0.72588162  0.72694955  1
  S2-  S128  1  0.00448023  0.22106907  0.14738312  1
  S2-  S129  1  0.00548834  0.25537497  0.63158380  1
  S2-  S130  1  -0.03593190  0.41763424  0.18100100  1
  S2-  S131  1  0.00023201  0.49472233  0.63621592  1
  S2-  S132  1  0.06451823  0.60326961  0.17717764  1
  S2-  S133  1  0.01495793  0.74244971  0.64334404  1
  S2-  S134  1  -0.04586080  0.76742384  0.14606831  1
  S2-  S135  1  -0.08840930  0.93177789  0.65609939  1
  S2-  S136  1  0.28844386  0.03630410  0.14100637  1
  S2-  S137  1  0.23365426  0.02092606  0.64185568  1
  S2-  S138  1  0.23205395  0.32541800  0.15405774  1
  S2-  S139  1  0.24328022  0.27882585  0.63098695  1
  S2-  S140  1  0.25842710  0.54540682  0.18469748  1
  S2-  S141  1  0.35773967  0.59889259  0.63633002  1
  S2-  S142  1  0.25082225  0.76346260  0.15512417  1
  S2-  S143  1  0.25109703  0.77465974  0.64603364  1
  S2-  S144  1  0.53375551  0.10298656  0.14716822  1
  S2-  S145  1  0.47712006  0.14702426  0.66126556  1
  S2-  S146  1  0.50239256  0.35198816  0.14998778  1
  S2-  S147  1  0.53766012  0.39991187  0.64786891  1
  S2-  S148  1  0.43460035  0.62263170  0.14408256  1
  S2-  S149  1  0.54747979  0.64991291  0.65998053  1
  S2-  S150  1  0.43899358  0.87681282  0.13541079  1
  S2-  S151  1  0.49257884  0.86745943  0.65605352  1
  S2-  S152  1  0.77548913  0.14393677  0.15300285  1
  S2-  S153  1  0.71332908  0.10771833  0.67028308  1
  S2-  S154  1  0.73760929  0.37162858  0.15882670  1
  S2-  S155  1  0.76496717  0.30174183  0.63805733  1
  S2-  S156  1  0.75010543  0.61591812  0.15560827  1
  S2-  S157  1  0.75179606  0.72363585  0.64776655  1
  S2-  S158  1  0.71935226  0.87392362  0.15524470  1
  S2-  S159  1  0.71065901  0.90912969  0.70310374  1
  S2-  S160  1  0.13061543  -0.11508092  0.35936273  1
  S2-  S161  1  0.14026615  -0.03992500  0.84552556  1
  S2-  S162  1  -0.00205452  0.24686908  0.35063920  1
  S2-  S163  1  0.15374415  0.27642403  0.85042589  1
  S2-  S164  1  0.13407452  0.39057255  0.34281577  1
  S2-  S165  1  0.12549923  0.52134050  0.86232608  1
  S2-  S166  1  0.14247933  0.64469281  0.34903077  1
  S2-  S167  1  0.22019346  0.73799172  0.86714700  1
  S2-  S168  1  0.35705471  -0.00241928  0.34760033  1
  S2-  S169  1  0.37694302  0.12130122  0.85235515  1
  S2-  S170  1  0.45949495  0.24981562  0.34520133  1
  S2-  S171  1  0.37838124  0.37571346  0.85689388  1
  S2-  S172  1  0.35643011  0.48416518  0.32876740  1
  S2-  S173  1  0.39734698  0.61077303  0.85672542  1
  S2-  S174  1  0.36008224  0.72183524  0.33707275  1
  S2-  S175  1  0.37676017  0.87376163  0.85254038  1
  S2-  S176  1  0.62334371  0.09486683  0.35853219  1
  S2-  S177  1  0.64010166  0.02194061  0.84068555  1
  S2-  S178  1  0.63762770  0.26109285  0.27154690  1
  S2-  S179  1  0.57718076  0.22965658  0.82499430  1
  S2-  S180  1  0.60325060  0.43421355  0.34002212  1
  S2-  S181  1  0.63686977  0.57615876  0.85252144  1
  S2-  S182  1  0.60430530  0.64918912  0.35935017  1
  S2-  S183  1  0.59029345  0.80223144  0.81271461  1
  S2-  S184  1  0.85289830  0.09451704  0.36221580  1
  S2-  S185  1  0.86939851  -0.01446411  0.84777708  1
  S2-  S186  1  0.80051348  0.33734102  0.34246696  1
  S2-  S187  1  0.78919789  0.23645321  0.85689015  1
  S2-  S188  1  0.96041810  0.51944042  0.35141847  1
  S2-  S189  1  0.86624987  0.48483192  0.85235330  1
  S2-  S190  1  0.95629230  0.75077887  0.36335039  1
  S2-  S191  1  0.79958539  0.74976618  0.85234517  1
  S2-  S192  1  0.00078468  0.13061296  0.45554940  1
  S2-  S193  1  0.00959637  0.11941818  0.96051947  1
  S2-  S194  1  -0.00620667  0.38478031  0.45372153  1
  S2-  S195  1  0.01201166  0.36773177  0.96527847  1
  S2-  S196  1  -0.01176776  0.63121991  0.46137281  1
  S2-  S197  1  0.01322023  0.62191899  0.96814964  1
  S2-  S198  1  -0.00883297  0.88947077  0.46331586  1
  S2-  S199  1  0.01361409  0.86324123  0.95747940  1
  S2-  S200  1  0.24409439  0.13806476  0.45316471  1
  S2-  S201  1  0.25780075  0.12404284  0.95082155  1
  S2-  S202  1  0.24939943  0.38560883  0.44625418  1
  S2-  S203  1  0.25684717  0.36865571  0.95788404  1
  S2-  S204  1  0.24389567  0.63834784  0.45445576  1
  S2-  S205  1  0.26004300  0.61405809  0.96942524  1
  S2-  S206  1  0.24670463  0.88862014  0.46116609  1
  S2-  S207  1  0.26006744  0.87170059  0.96439379  1
  S2-  S208  1  0.49490831  0.13489352  0.45716351  1
  S2-  S209  1  0.51792543  0.12071583  0.94467264  1
  S2-  S210  1  0.49357829  0.38808508  0.44614444  1
  S2-  S211  1  0.51844060  0.36897114  0.94645949  1
  S2-  S212  1  0.49021061  0.64061818  0.45776267  1
  S2-  S213  1  0.51692239  0.62088382  0.95279416  1
  S2-  S214  1  0.49780323  0.89068092  0.45042991  1
  S2-  S215  1  0.52093447  0.86405494  0.94380679  1
  S2-  S216  1  0.74470275  0.13738102  0.46395837  1
  S2-  S217  1  0.76529181  0.11449860  0.95312288  1
  S2-  S218  1  0.73360679  0.38335880  0.45066487  1
  S2-  S219  1  0.76452316  0.37281286  0.95487054  1
  S2-  S220  1  0.74876612  0.63797566  0.45532367  1
  S2-  S221  1  0.76436552  0.61898064  0.95470654  1
  S2-  S222  1  0.74645204  0.89017487  0.45617390  1
  S2-  S223  1  0.76069193  0.86470128  0.95374275  1
  S2-  S224  1  0.13779456  -0.00450477  0.04874557  1
  S2-  S225  1  0.11454528  0.01388528  0.54178422  1
  S2-  S226  1  0.13903948  0.24293122  0.04903103  1
  S2-  S227  1  0.12022965  0.26260345  0.52934204  1
  S2-  S228  1  0.13782175  0.49476050  0.06326374  1
  S2-  S229  1  0.12738941  0.50800716  0.53958316  1
  S2-  S230  1  0.13810548  0.74462900  0.05664025  1
  S2-  S231  1  0.12074386  0.76125538  0.53855090  1
  S2-  S232  1  0.39280067  -0.00072251  0.03126231  1
  S2-  S233  1  0.37344862  0.01238499  0.55078511  1
  S2-  S234  1  0.38647976  0.24607728  0.03730771  1
  S2-  S235  1  0.37440240  0.25932502  0.53758932  1
  S2-  S236  1  0.38717699  0.49059269  0.04426204  1
  S2-  S237  1  0.36651315  0.50600758  0.53512010  1
  S2-  S238  1  0.38789610  0.74669857  0.03815632  1
  S2-  S239  1  0.37159680  0.76610390  0.54206497  1
  S2-  S240  1  0.63713670  -0.00552030  0.04314449  1
  S2-  S241  1  0.62862750  0.00825379  0.55524934  1
  S2-  S242  1  0.64063459  0.24396813  0.03598044  1
  S2-  S243  1  0.61703648  0.26236740  0.54754587  1
  S2-  S244  1  0.63632470  0.49478786  0.04616784  1
  S2-  S245  1  0.62060116  0.51443368  0.54309498  1
  S2-  S246  1  0.63379215  0.74513971  0.04986442  1
  S2-  S247  1  0.62221786  0.76130186  0.54408369  1
  S2-  S248  1  0.88505404  -0.00609671  0.05309483  1
  S2-  S249  1  0.87031926  0.01649337  0.55237729  1
  S2-  S250  1  0.88518615  0.24351610  0.04419312  1
  S2-  S251  1  0.87330316  0.26503134  0.53363955  1
  S2-  S252  1  0.88985102  0.49679527  0.05783925  1
  S2-  S253  1  0.86224062  0.50891178  0.54286608  1
  S2-  S254  1  0.88333302  0.74394471  0.03995078  1
  S2-  S255  1  0.86814110  0.76276484  0.54962819  1
