# generated using pymatgen
data_La6Ce7Pr13Nd19Sm19(BiS2)64
_symmetry_space_group_name_H-M   'P 1'
_cell_length_a   16.11584510
_cell_length_b   16.11013738
_cell_length_c   27.27017233
_cell_angle_alpha   90.09732897
_cell_angle_beta   89.99442998
_cell_angle_gamma   90.06440239
_symmetry_Int_Tables_number   1
_chemical_formula_structural   La6Ce7Pr13Nd19Sm19(BiS2)64
_chemical_formula_sum   'La6 Ce7 Pr13 Nd19 Sm19 Bi64 S128'
_cell_volume   7080.09863226
_cell_formula_units_Z   1
loop_
 _symmetry_equiv_pos_site_id
 _symmetry_equiv_pos_as_xyz
  1  'x, y, z'
loop_
 _atom_type_symbol
 _atom_type_oxidation_number
  La3+  3.0
  Ce3+  3.0
  Pr3+  3.0
  Nd3+  3.0
  Sm3+  3.0
  Bi2+  2.0
  S2-  -2.0
loop_
 _atom_site_type_symbol
 _atom_site_label
 _atom_site_symmetry_multiplicity
 _atom_site_fract_x
 _atom_site_fract_y
 _atom_site_fract_z
 _atom_site_occupancy
  La3+  La0  1  0.88847958  -0.00825549  0.88627853  1
  La3+  La1  1  -0.00178361  0.38341998  0.09459152  1
  La3+  La2  1  0.38568231  0.73718023  0.42583538  1
  La3+  La3  1  0.50590313  0.37091890  0.07272747  1
  La3+  La4  1  0.88177136  0.49802296  0.42164952  1
  La3+  La5  1  0.74437639  0.36963185  0.61523933  1
  Ce3+  Ce6  1  0.38350428  -0.00823196  0.44219250  1
  Ce3+  Ce7  1  0.00674241  0.11870875  0.55594454  1
  Ce3+  Ce8  1  0.25455325  0.61657322  0.56734018  1
  Ce3+  Ce9  1  0.50456849  0.87503892  0.05425815  1
  Ce3+  Ce10  1  0.62984768  0.24898477  0.94198444  1
  Ce3+  Ce11  1  0.12860891  -0.01044229  0.43559865  1
  Ce3+  Ce12  1  0.88116759  -0.01046759  0.43513056  1
  Pr3+  Pr13  1  0.50322659  0.12386964  0.06443796  1
  Pr3+  Pr14  1  0.12988922  0.25388741  0.94484308  1
  Pr3+  Pr15  1  0.76028034  0.12221807  0.05829417  1
  Pr3+  Pr16  1  0.26069978  0.38837182  0.09707820  1
  Pr3+  Pr17  1  0.13246218  -0.00003991  0.93231987  1
  Pr3+  Pr18  1  0.00329537  0.87070746  0.56979837  1
  Pr3+  Pr19  1  0.75656107  0.37402193  0.06522184  1
  Pr3+  Pr20  1  0.37958991  0.00263734  0.92852601  1
  Pr3+  Pr21  1  0.00784894  0.61302975  0.56732284  1
  Pr3+  Pr22  1  0.88212944  0.25019360  0.93878765  1
  Pr3+  Pr23  1  0.76287162  0.61357334  0.56584622  1
  Pr3+  Pr24  1  0.63059878  0.75214048  0.93607618  1
  Pr3+  Pr25  1  0.25069013  0.12849911  0.06405440  1
  Nd3+  Nd26  1  0.00359137  0.62766394  0.06278716  1
  Nd3+  Nd27  1  0.00426549  0.36629464  0.55464904  1
  Nd3+  Nd28  1  0.13396548  0.49344535  0.43380411  1
  Nd3+  Nd29  1  0.25825163  0.86655102  0.55583479  1
  Nd3+  Nd30  1  0.13166690  0.23459597  0.42476338  1
  Nd3+  Nd31  1  0.63121115  0.00246421  0.93369618  1
  Nd3+  Nd32  1  0.25678146  0.62790340  0.06334207  1
  Nd3+  Nd33  1  0.88259837  0.49825386  0.93504736  1
  Nd3+  Nd34  1  0.12933494  0.74810406  0.93713446  1
  Nd3+  Nd35  1  0.13181505  0.74187159  0.44555876  1
  Nd3+  Nd36  1  0.88062027  0.23570917  0.42837709  1
  Nd3+  Nd37  1  0.87668350  0.74730021  0.92415521  1
  Nd3+  Nd38  1  0.38016491  0.48679064  0.44522790  1
  Nd3+  Nd39  1  0.50742357  0.86500623  0.55893025  1
  Nd3+  Nd40  1  0.49963031  0.35639261  0.57429137  1
  Nd3+  Nd41  1  0.63181750  0.73900548  0.43763796  1
  Nd3+  Nd42  1  0.00652926  0.12532066  0.05395389  1
  Nd3+  Nd43  1  0.38358662  0.24010106  0.43189715  1
  Nd3+  Nd44  1  0.37942274  0.49785541  0.94205149  1
  Sm3+  Sm45  1  0.38046905  0.74811624  0.93700008  1
  Sm3+  Sm46  1  0.76155923  0.12251218  0.56249826  1
  Sm3+  Sm47  1  0.88223887  0.74313574  0.44217220  1
  Sm3+  Sm48  1  0.50780503  0.11729910  0.55725338  1
  Sm3+  Sm49  1  0.63380859  0.48584876  0.44882867  1
  Sm3+  Sm50  1  0.25504271  0.11673081  0.55540681  1
  Sm3+  Sm51  1  0.25056481  0.36376985  0.56048887  1
  Sm3+  Sm52  1  0.00479843  0.87375744  0.05301856  1
  Sm3+  Sm53  1  0.25618978  0.87504277  0.05078301  1
  Sm3+  Sm54  1  0.75783742  0.87525152  0.05021864  1
  Sm3+  Sm55  1  0.75467766  0.86622657  0.55784434  1
  Sm3+  Sm56  1  0.63506361  0.24535493  0.44922055  1
  Sm3+  Sm57  1  0.75666618  0.62558203  0.05343906  1
  Sm3+  Sm58  1  0.37822394  0.25332492  0.94720220  1
  Sm3+  Sm59  1  0.63084710  0.49819924  0.94329397  1
  Sm3+  Sm60  1  0.50539253  0.62589401  0.05225887  1
  Sm3+  Sm61  1  0.63282262  -0.00725937  0.44707934  1
  Sm3+  Sm62  1  0.50584704  0.61328295  0.55720618  1
  Sm3+  Sm63  1  0.12971352  0.50031612  0.94981793  1
  Bi2+  Bi64  1  -0.01202331  0.07488276  0.28948908  1
  Bi2+  Bi65  1  0.05899955  0.10877445  0.77603260  1
  Bi2+  Bi66  1  0.00637896  0.37987908  0.28557635  1
  Bi2+  Bi67  1  0.00944867  0.36678806  0.80655481  1
  Bi2+  Bi68  1  -0.00899530  0.70849854  0.28080330  1
  Bi2+  Bi69  1  0.05218569  0.60032056  0.78205953  1
  Bi2+  Bi70  1  0.00924047  0.89461947  0.33231968  1
  Bi2+  Bi71  1  0.01429751  0.84754575  0.77934381  1
  Bi2+  Bi72  1  0.25703647  0.13185689  0.29805873  1
  Bi2+  Bi73  1  0.31519553  0.11941236  0.78510554  1
  Bi2+  Bi74  1  0.25524438  0.39436390  0.30379957  1
  Bi2+  Bi75  1  0.25439058  0.38422800  0.78522726  1
  Bi2+  Bi76  1  0.24885229  0.63568102  0.30128509  1
  Bi2+  Bi77  1  0.25821543  0.61169485  0.78351127  1
  Bi2+  Bi78  1  0.23802816  0.89294074  0.27853357  1
  Bi2+  Bi79  1  0.30772599  0.89210340  0.78497585  1
  Bi2+  Bi80  1  0.53480753  0.16606277  0.27594057  1
  Bi2+  Bi81  1  0.50201742  0.08566505  0.82471207  1
  Bi2+  Bi82  1  0.53836060  0.39041755  0.28795850  1
  Bi2+  Bi83  1  0.44809311  0.35472984  0.79957287  1
  Bi2+  Bi84  1  0.50660123  0.66532618  0.26519409  1
  Bi2+  Bi85  1  0.45330443  0.64203195  0.78978600  1
  Bi2+  Bi86  1  0.53316560  0.88342294  0.29129590  1
  Bi2+  Bi87  1  0.49704944  0.89169439  0.82387602  1
  Bi2+  Bi88  1  0.71990608  0.09637463  0.29011765  1
  Bi2+  Bi89  1  0.68305292  0.13908154  0.78249562  1
  Bi2+  Bi90  1  0.74919132  0.35552231  0.30464917  1
  Bi2+  Bi91  1  0.75819629  0.40602382  0.81931146  1
  Bi2+  Bi92  1  0.74405008  0.70589624  0.30943472  1
  Bi2+  Bi93  1  0.69962570  0.62404703  0.78105139  1
  Bi2+  Bi94  1  0.81397992  0.88426593  0.32363993  1
  Bi2+  Bi95  1  0.68342381  0.88835735  0.77832889  1
  Bi2+  Bi96  1  0.08164683  -0.05376616  0.22094626  1
  Bi2+  Bi97  1  0.14864954  -0.00973190  0.70276284  1
  Bi2+  Bi98  1  0.13167497  0.17368378  0.19522169  1
  Bi2+  Bi99  1  0.17485658  0.24982315  0.71404637  1
  Bi2+  Bi100  1  0.11555611  0.56045605  0.22477662  1
  Bi2+  Bi101  1  0.10613060  0.46066429  0.70867499  1
  Bi2+  Bi102  1  0.13770083  0.75029298  0.20110797  1
  Bi2+  Bi103  1  0.18879648  0.73767487  0.70541673  1
  Bi2+  Bi104  1  0.38059010  0.01484093  0.24032349  1
  Bi2+  Bi105  1  0.42496825  0.00504688  0.72015800  1
  Bi2+  Bi106  1  0.37862767  0.25142074  0.20057530  1
  Bi2+  Bi107  1  0.35363497  0.31710573  0.68010199  1
  Bi2+  Bi108  1  0.37803484  0.54162672  0.21444219  1
  Bi2+  Bi109  1  0.30134127  0.50446679  0.67954611  1
  Bi2+  Bi110  1  0.38672578  0.76866705  0.19595456  1
  Bi2+  Bi111  1  0.37215482  0.69322330  0.67772777  1
  Bi2+  Bi112  1  0.57472290  0.01388727  0.20573191  1
  Bi2+  Bi113  1  0.62069259  0.02292768  0.70127556  1
  Bi2+  Bi114  1  0.64540400  0.29612344  0.20897949  1
  Bi2+  Bi115  1  0.54526835  0.24004386  0.72543359  1
  Bi2+  Bi116  1  0.64849982  0.53342148  0.24398058  1
  Bi2+  Bi117  1  0.49420738  0.48708651  0.71719162  1
  Bi2+  Bi118  1  0.66606543  0.80738247  0.21957393  1
  Bi2+  Bi119  1  0.56471576  0.76039906  0.72213363  1
  Bi2+  Bi120  1  0.82248708  -0.01749097  0.22539365  1
  Bi2+  Bi121  1  0.88669252  0.00744691  0.69798284  1
  Bi2+  Bi122  1  0.87854098  0.22880725  0.20050059  1
  Bi2+  Bi123  1  0.88630432  0.25161381  0.70896080  1
  Bi2+  Bi124  1  0.85375958  0.52060092  0.21248347  1
  Bi2+  Bi125  1  0.88020763  0.51624907  0.70620843  1
  Bi2+  Bi126  1  0.84480075  0.71738465  0.20451509  1
  Bi2+  Bi127  1  0.76820740  0.72786037  0.69532889  1
  S2-  S128  1  -0.01662296  0.11628084  0.15258206  1
  S2-  S129  1  -0.02254151  0.12794286  0.65385343  1
  S2-  S130  1  0.03300393  0.31169647  0.18781652  1
  S2-  S131  1  -0.08364530  0.37708962  0.64315977  1
  S2-  S132  1  -0.00272558  0.54171268  0.15056318  1
  S2-  S133  1  -0.08369513  0.64838552  0.65350456  1
  S2-  S134  1  0.00969697  0.83213416  0.14858572  1
  S2-  S135  1  0.00934276  0.88549428  0.67139318  1
  S2-  S136  1  0.29025132  0.10470864  0.16127882  1
  S2-  S137  1  0.22447327  0.11305591  0.65255197  1
  S2-  S138  1  0.23074959  0.31379757  0.18899388  1
  S2-  S139  1  0.12739338  0.34844365  0.63141491  1
  S2-  S140  1  0.24518541  0.54415027  0.15104948  1
  S2-  S141  1  0.13539913  0.61180656  0.64151060  1
  S2-  S142  1  0.26536493  0.83800091  0.14612520  1
  S2-  S143  1  0.25068090  0.88183500  0.65457606  1
  S2-  S144  1  0.51911936  0.22991901  0.14357881  1
  S2-  S145  1  0.46791054  0.19206659  0.64117538  1
  S2-  S146  1  0.41026642  0.40507100  0.15580677  1
  S2-  S147  1  0.58615803  0.37573923  0.65978697  1
  S2-  S148  1  0.48308237  0.63564499  0.14887219  1
  S2-  S149  1  0.53182904  0.62315376  0.65368391  1
  S2-  S150  1  0.49120146  0.88392612  0.15050546  1
  S2-  S151  1  0.52082006  0.89420717  0.65623048  1
  S2-  S152  1  0.74778661  0.17533731  0.15451243  1
  S2-  S153  1  0.76630968  0.19914019  0.65106395  1
  S2-  S154  1  0.84446006  0.37985423  0.15229297  1
  S2-  S155  1  0.77101044  0.36941402  0.72633801  1
  S2-  S156  1  0.74026254  0.60422247  0.15042695  1
  S2-  S157  1  0.74188793  0.53918968  0.65646246  1
  S2-  S158  1  0.75739534  0.89632237  0.14804461  1
  S2-  S159  1  0.78413415  0.88126932  0.65420450  1
  S2-  S160  1  0.13092539  0.09437184  0.35574983  1
  S2-  S161  1  0.05080813  -0.02200549  0.84343988  1
  S2-  S162  1  0.13460728  0.29367228  0.32886710  1
  S2-  S163  1  0.09378022  0.23802134  0.84616852  1
  S2-  S164  1  0.11403495  0.49347587  0.33387213  1
  S2-  S165  1  0.11362276  0.48886606  0.85198568  1
  S2-  S166  1  0.12114302  0.70201615  0.34937774  1
  S2-  S167  1  0.08687602  0.73830064  0.84064495  1
  S2-  S168  1  0.37879210  0.03341689  0.34841081  1
  S2-  S169  1  0.25739108  0.00935084  0.85553380  1
  S2-  S170  1  0.35074319  0.27383748  0.33577223  1
  S2-  S171  1  0.32860794  0.25934223  0.85283426  1
  S2-  S172  1  0.36133779  0.51743090  0.34799226  1
  S2-  S173  1  0.37669365  0.50437190  0.84302131  1
  S2-  S174  1  0.31725045  0.77775683  0.33399095  1
  S2-  S175  1  0.32898337  0.74460955  0.84382801  1
  S2-  S176  1  0.63333567  -0.01719831  0.34915415  1
  S2-  S177  1  0.72394458  0.00268892  0.84912554  1
  S2-  S178  1  0.60211013  0.25530176  0.35273578  1
  S2-  S179  1  0.64974466  0.27172262  0.84610825  1
  S2-  S180  1  0.63270771  0.49472465  0.34922490  1
  S2-  S181  1  0.62435084  0.51088650  0.84533917  1
  S2-  S182  1  0.52731804  0.73896107  0.35772173  1
  S2-  S183  1  0.70628955  0.74236354  0.84604699  1
  S2-  S184  1  0.86147237  0.09643747  0.35885259  1
  S2-  S185  1  0.89434931  0.07264858  0.78651422  1
  S2-  S186  1  0.89906496  0.28268822  0.32872387  1
  S2-  S187  1  0.88019236  0.28575192  0.83985140  1
  S2-  S188  1  0.86633239  0.47040349  0.31593537  1
  S2-  S189  1  0.87282023  0.53551142  0.83731942  1
  S2-  S190  1  0.88761066  0.65042664  0.36054453  1
  S2-  S191  1  0.89087840  0.83426774  0.83782194  1
  S2-  S192  1  0.00543603  0.11303344  0.45247431  1
  S2-  S193  1  0.00240120  0.12041375  0.94788998  1
  S2-  S194  1  0.00771208  0.36683807  0.44455503  1
  S2-  S195  1  0.00557035  0.37885908  0.95583263  1
  S2-  S196  1  0.01000125  0.61707474  0.45895823  1
  S2-  S197  1  0.00326283  0.62521238  0.95429960  1
  S2-  S198  1  0.00513855  0.86448085  0.46105551  1
  S2-  S199  1  0.00306151  0.87081790  0.94969808  1
  S2-  S200  1  0.25982250  0.11577172  0.45231348  1
  S2-  S201  1  0.25521017  0.12922712  0.95760677  1
  S2-  S202  1  0.25450688  0.36302902  0.45338213  1
  S2-  S203  1  0.25404031  0.37833014  0.95550041  1
  S2-  S204  1  0.25795892  0.61672165  0.45695877  1
  S2-  S205  1  0.25578245  0.62477442  0.95459855  1
  S2-  S206  1  0.25755536  0.86726007  0.44982625  1
  S2-  S207  1  0.25737685  0.87012865  0.94848783  1
  S2-  S208  1  0.51053915  0.11892659  0.45340192  1
  S2-  S209  1  0.50176837  0.12703821  0.95765107  1
  S2-  S210  1  0.50658180  0.36454955  0.45891280  1
  S2-  S211  1  0.50516152  0.37523457  0.95833947  1
  S2-  S212  1  0.50814774  0.60841069  0.45418598  1
  S2-  S213  1  0.50614146  0.62444673  0.94728619  1
  S2-  S214  1  0.50863801  0.86896094  0.45438158  1
  S2-  S215  1  0.50349393  0.87557242  0.94968974  1
  S2-  S216  1  0.75104156  0.11697319  0.45827554  1
  S2-  S217  1  0.75703403  0.12500967  0.95089534  1
  S2-  S218  1  0.75854875  0.36611728  0.44194322  1
  S2-  S219  1  0.75495431  0.37708700  0.95708466  1
  S2-  S220  1  0.75274277  0.61609499  0.45726288  1
  S2-  S221  1  0.75433945  0.62259065  0.95018615  1
  S2-  S222  1  0.75372265  0.86476901  0.45383460  1
  S2-  S223  1  0.75916725  0.87627925  0.94823733  1
  S2-  S224  1  0.13038587  -0.00415103  0.04500161  1
  S2-  S225  1  0.13214055  -0.00905625  0.54445096  1
  S2-  S226  1  0.12794690  0.25895144  0.05479311  1
  S2-  S227  1  0.13275616  0.23634237  0.53337050  1
  S2-  S228  1  0.12917034  0.49955547  0.05212637  1
  S2-  S229  1  0.13515585  0.49010559  0.53878956  1
  S2-  S230  1  0.13129532  0.74969812  0.04330900  1
  S2-  S231  1  0.12961770  0.74822462  0.55016175  1
  S2-  S232  1  0.37691557  0.00069667  0.04279916  1
  S2-  S233  1  0.38336364  -0.00581214  0.55025914  1
  S2-  S234  1  0.37273943  0.25518221  0.05099680  1
  S2-  S235  1  0.37533187  0.23998425  0.53871135  1
  S2-  S236  1  0.38086516  0.50343249  0.04654357  1
  S2-  S237  1  0.38092211  0.48737407  0.55140943  1
  S2-  S238  1  0.38068502  0.74924157  0.04153165  1
  S2-  S239  1  0.38398770  0.74090055  0.54049168  1
  S2-  S240  1  0.63114399  -0.00004869  0.04266189  1
  S2-  S241  1  0.63327715  -0.00516483  0.55128616  1
  S2-  S242  1  0.63359780  0.24854603  0.04543451  1
  S2-  S243  1  0.63230727  0.24189918  0.55170713  1
  S2-  S244  1  0.62963250  0.50138914  0.04925468  1
  S2-  S245  1  0.62804462  0.48682379  0.55130735  1
  S2-  S246  1  0.63228410  0.74930160  0.04461679  1
  S2-  S247  1  0.63120449  0.73969455  0.54708414  1
  S2-  S248  1  0.88413617  -0.00407806  0.05056002  1
  S2-  S249  1  0.87763563  -0.00763394  0.54526218  1
  S2-  S250  1  0.88441204  0.25202262  0.04632138  1
  S2-  S251  1  0.88264596  0.23892535  0.53663788  1
  S2-  S252  1  0.87935762  0.50252763  0.04307008  1
  S2-  S253  1  0.88410559  0.49421870  0.53745765  1
  S2-  S254  1  0.87866955  0.74949590  0.04017282  1
  S2-  S255  1  0.88013550  0.74698744  0.54591327  1
