# generated using pymatgen
data_La6Ce7Pr13Nd19Sm19(BiS2)64
_symmetry_space_group_name_H-M   'P 1'
_cell_length_a   16.09994549
_cell_length_b   16.12052706
_cell_length_c   27.28075106
_cell_angle_alpha   90.04416599
_cell_angle_beta   90.09180656
_cell_angle_gamma   89.96116272
_symmetry_Int_Tables_number   1
_chemical_formula_structural   La6Ce7Pr13Nd19Sm19(BiS2)64
_chemical_formula_sum   'La6 Ce7 Pr13 Nd19 Sm19 Bi64 S128'
_cell_volume   7080.42259521
_cell_formula_units_Z   1
loop_
 _symmetry_equiv_pos_site_id
 _symmetry_equiv_pos_as_xyz
  1  'x, y, z'
loop_
 _atom_type_symbol
 _atom_type_oxidation_number
  La3+  3.0
  Ce3+  3.0
  Pr3+  3.0
  Nd3+  3.0
  Sm3+  3.0
  Bi2+  2.0
  S2-  -2.0
loop_
 _atom_site_type_symbol
 _atom_site_label
 _atom_site_symmetry_multiplicity
 _atom_site_fract_x
 _atom_site_fract_y
 _atom_site_fract_z
 _atom_site_occupancy
  La3+  La0  1  0.73531248  0.37395548  0.09817509  1
  La3+  La1  1  0.88534784  0.72747211  0.38511388  1
  La3+  La2  1  0.85996668  -0.00787476  0.42661193  1
  La3+  La3  1  0.24253451  0.62075441  0.56446352  1
  La3+  La4  1  0.36653506  0.00055789  0.43366575  1
  La3+  La5  1  0.50356447  0.38090699  0.59153661  1
  Ce3+  Ce6  1  0.86833270  0.01395422  0.93580381  1
  Ce3+  Ce7  1  0.61595046  0.01429465  0.93965014  1
  Ce3+  Ce8  1  0.37001816  0.74162286  0.43714434  1
  Ce3+  Ce9  1  0.86705788  0.26509927  0.94732757  1
  Ce3+  Ce10  1  0.86052630  0.48539886  0.41484671  1
  Ce3+  Ce11  1  0.24791612  0.39340539  0.06744903  1
  Ce3+  Ce12  1  0.62695384  0.74235866  0.43529376  1
  Pr3+  Pr13  1  0.24877299  0.65325447  0.07473982  1
  Pr3+  Pr14  1  0.74589266  0.88944007  0.06196648  1
  Pr3+  Pr15  1  0.11642864  0.01437549  0.93719431  1
  Pr3+  Pr16  1  -0.00604128  0.89292086  0.06712759  1
  Pr3+  Pr17  1  -0.00358670  0.39112521  0.06201323  1
  Pr3+  Pr18  1  0.50154327  0.11184777  0.59161482  1
  Pr3+  Pr19  1  -0.00356479  0.13701721  0.06843693  1
  Pr3+  Pr20  1  0.61308487  0.48408224  0.42797188  1
  Pr3+  Pr21  1  0.86876242  0.51495456  0.94578600  1
  Pr3+  Pr22  1  0.23167322  0.11775958  0.57193344  1
  Pr3+  Pr23  1  0.74544386  0.61970500  0.55235612  1
  Pr3+  Pr24  1  0.36890664  0.51746327  0.93983622  1
  Pr3+  Pr25  1  -0.00941861  0.61867551  0.55548559  1
  Nd3+  Nd26  1  0.60784584  0.24407015  0.44903086  1
  Nd3+  Nd27  1  0.74437865  0.86951928  0.55832760  1
  Nd3+  Nd28  1  0.49280309  0.14328401  0.04709559  1
  Nd3+  Nd29  1  0.13247856  0.73555502  0.42440929  1
  Nd3+  Nd30  1  0.48582452  0.39184665  0.06746698  1
  Nd3+  Nd31  1  0.11875482  0.51931776  0.94581853  1
  Nd3+  Nd32  1  0.61290276  -0.00415813  0.43599430  1
  Nd3+  Nd33  1  0.24316064  0.37044996  0.56868378  1
  Nd3+  Nd34  1  0.86652231  0.76850688  0.93112795  1
  Nd3+  Nd35  1  -0.00132290  0.64594055  0.07336335  1
  Nd3+  Nd36  1  0.11870151  0.24552537  0.43451917  1
  Nd3+  Nd37  1  0.35692250  0.27363854  0.91647237  1
  Nd3+  Nd38  1  0.36915046  0.01236987  0.93118058  1
  Nd3+  Nd39  1  0.11871926  0.49084724  0.43437423  1
  Nd3+  Nd40  1  0.61476799  0.27036432  0.93106627  1
  Nd3+  Nd41  1  0.36793140  0.75773119  0.92902546  1
  Nd3+  Nd42  1  0.49801290  0.64360903  0.07035058  1
  Nd3+  Nd43  1  0.37306506  0.48781273  0.44201518  1
  Nd3+  Nd44  1  0.74864597  0.63529262  0.06234291  1
  Sm3+  Sm45  1  0.36890505  0.24217640  0.46640776  1
  Sm3+  Sm46  1  0.74360739  0.36943856  0.56333395  1
  Sm3+  Sm47  1  0.11344520  -0.00793255  0.43809363  1
  Sm3+  Sm48  1  0.24941196  0.13989033  0.05060445  1
  Sm3+  Sm49  1  0.74450112  0.11889029  0.55795961  1
  Sm3+  Sm50  1  -0.00888714  0.86643298  0.54805123  1
  Sm3+  Sm51  1  0.86474464  0.24715693  0.44326068  1
  Sm3+  Sm52  1  -0.00741552  0.11837073  0.55317737  1
  Sm3+  Sm53  1  0.61866354  0.51165598  0.94889472  1
  Sm3+  Sm54  1  0.11582902  0.76474366  0.94266560  1
  Sm3+  Sm55  1  0.24276064  0.87114421  0.55449224  1
  Sm3+  Sm56  1  0.49516131  0.62125773  0.55581498  1
  Sm3+  Sm57  1  0.61955600  0.76255659  0.94043620  1
  Sm3+  Sm58  1  0.49503286  0.88592413  0.05329274  1
  Sm3+  Sm59  1  0.74025410  0.14113730  0.05322683  1
  Sm3+  Sm60  1  -0.00790213  0.37070899  0.55395746  1
  Sm3+  Sm61  1  0.24774990  0.89153455  0.05015894  1
  Sm3+  Sm62  1  0.11849630  0.26552123  0.94584515  1
  Sm3+  Sm63  1  0.49190943  0.87344544  0.55517804  1
  Bi2+  Bi64  1  0.07836135  0.16040141  0.29946958  1
  Bi2+  Bi65  1  -0.04210239  0.10595808  0.80771453  1
  Bi2+  Bi66  1  0.00404228  0.34790919  0.29522868  1
  Bi2+  Bi67  1  -0.00806178  0.36718253  0.75097735  1
  Bi2+  Bi68  1  0.05426256  0.61986384  0.27611254  1
  Bi2+  Bi69  1  0.00233584  0.59812903  0.80158680  1
  Bi2+  Bi70  1  0.02337968  0.88796563  0.27752174  1
  Bi2+  Bi71  1  -0.01726966  0.91493257  0.77820431  1
  Bi2+  Bi72  1  0.26377096  0.07091930  0.31391625  1
  Bi2+  Bi73  1  0.21630517  0.05245043  0.78139337  1
  Bi2+  Bi74  1  0.26418259  0.37541573  0.28933889  1
  Bi2+  Bi75  1  0.22600163  0.39460466  0.79532237  1
  Bi2+  Bi76  1  0.30561944  0.61712600  0.29994638  1
  Bi2+  Bi77  1  0.25028931  0.63776221  0.79432844  1
  Bi2+  Bi78  1  0.30408587  0.89715504  0.26542444  1
  Bi2+  Bi79  1  0.32894386  0.81544954  0.80351383  1
  Bi2+  Bi80  1  0.48668786  0.14799944  0.29963354  1
  Bi2+  Bi81  1  0.50567525  0.11071267  0.79418330  1
  Bi2+  Bi82  1  0.47711447  0.36039004  0.30283641  1
  Bi2+  Bi83  1  0.50059534  0.36567110  0.79945931  1
  Bi2+  Bi84  1  0.49057224  0.69527907  0.30697648  1
  Bi2+  Bi85  1  0.51183055  0.61142158  0.74592548  1
  Bi2+  Bi86  1  0.51914691  0.88725349  0.28937060  1
  Bi2+  Bi87  1  0.52769955  0.84471638  0.79624537  1
  Bi2+  Bi88  1  0.74673058  0.13533802  0.27960408  1
  Bi2+  Bi89  1  0.77593637  0.10847729  0.76407169  1
  Bi2+  Bi90  1  0.73130167  0.36673511  0.29157679  1
  Bi2+  Bi91  1  0.80281242  0.36444593  0.79165078  1
  Bi2+  Bi92  1  0.69286657  0.62829980  0.27624081  1
  Bi2+  Bi93  1  0.77065464  0.62688849  0.79266023  1
  Bi2+  Bi94  1  0.76921367  0.89750837  0.29463888  1
  Bi2+  Bi95  1  0.72769471  0.87429250  0.79595314  1
  Bi2+  Bi96  1  0.13060622  0.02662683  0.21343265  1
  Bi2+  Bi97  1  0.10453205  -0.02491071  0.69319188  1
  Bi2+  Bi98  1  0.14619592  0.22110852  0.19262701  1
  Bi2+  Bi99  1  0.11033856  0.21350464  0.76836931  1
  Bi2+  Bi100  1  0.15336625  0.42212598  0.19576958  1
  Bi2+  Bi101  1  0.13893665  0.50318194  0.69737328  1
  Bi2+  Bi102  1  0.16542334  0.74066405  0.21162894  1
  Bi2+  Bi103  1  0.14365301  0.79236518  0.75865949  1
  Bi2+  Bi104  1  0.39801040  0.02085158  0.19675483  1
  Bi2+  Bi105  1  0.35133743  -0.04406020  0.70746413  1
  Bi2+  Bi106  1  0.33252753  0.21294826  0.23857417  1
  Bi2+  Bi107  1  0.33922492  0.23547096  0.71583590  1
  Bi2+  Bi108  1  0.34514426  0.49104584  0.21036896  1
  Bi2+  Bi109  1  0.36435175  0.50170768  0.69967791  1
  Bi2+  Bi110  1  0.37899290  0.74307195  0.20742556  1
  Bi2+  Bi111  1  0.42539076  0.76811644  0.70012974  1
  Bi2+  Bi112  1  0.59075267  0.02634813  0.21522564  1
  Bi2+  Bi113  1  0.63394428  -0.03502417  0.70591413  1
  Bi2+  Bi114  1  0.61687506  0.22669435  0.20845784  1
  Bi2+  Bi115  1  0.64758121  0.23873547  0.70624249  1
  Bi2+  Bi116  1  0.60138131  0.49835933  0.21549862  1
  Bi2+  Bi117  1  0.66372637  0.48493771  0.75307015  1
  Bi2+  Bi118  1  0.60826239  0.76652456  0.21389848  1
  Bi2+  Bi119  1  0.62641819  0.76357744  0.70521356  1
  Bi2+  Bi120  1  0.85868574  0.02972000  0.20654931  1
  Bi2+  Bi121  1  0.91820063  0.08491119  0.68432751  1
  Bi2+  Bi122  1  0.91659400  0.20735660  0.23288860  1
  Bi2+  Bi123  1  0.84304197  0.26387781  0.69266293  1
  Bi2+  Bi124  1  0.91499629  0.48792090  0.23406609  1
  Bi2+  Bi125  1  0.88993361  0.52712376  0.69611308  1
  Bi2+  Bi126  1  0.86234484  0.75047706  0.18333426  1
  Bi2+  Bi127  1  0.88536196  0.75277702  0.68617578  1
  S2-  S128  1  -0.00000503  0.01635466  0.14228623  1
  S2-  S129  1  0.08347427  0.12369697  0.63626229  1
  S2-  S130  1  -0.00603761  0.37883482  0.16185213  1
  S2-  S131  1  0.00802949  0.40869598  0.64928873  1
  S2-  S132  1  -0.07186845  0.59857615  0.16137259  1
  S2-  S133  1  0.00661305  0.63816487  0.65715219  1
  S2-  S134  1  0.01205236  0.77963456  0.14396564  1
  S2-  S135  1  -0.01548828  0.86095467  0.64739330  1
  S2-  S136  1  0.25308715  0.09115827  0.14452219  1
  S2-  S137  1  0.29743222  0.10082958  0.66528876  1
  S2-  S138  1  0.35940952  0.36647072  0.13886410  1
  S2-  S139  1  0.22998338  0.36091820  0.66799467  1
  S2-  S140  1  0.17518750  0.59506925  0.16175476  1
  S2-  S141  1  0.23973135  0.62043840  0.66514419  1
  S2-  S142  1  0.25744358  0.80491755  0.13474501  1
  S2-  S143  1  0.23218341  0.86899363  0.65252676  1
  S2-  S144  1  0.49940548  0.13707765  0.14600159  1
  S2-  S145  1  0.48558314  0.16466856  0.69301896  1
  S2-  S146  1  0.58139473  0.36855493  0.15055310  1
  S2-  S147  1  0.44769076  0.36320142  0.69170077  1
  S2-  S148  1  0.48424815  0.56269651  0.16031559  1
  S2-  S149  1  0.50024467  0.54776008  0.64395469  1
  S2-  S150  1  0.49726696  0.78775352  0.13410371  1
  S2-  S151  1  0.49274796  0.95603926  0.64200000  1
  S2-  S152  1  0.74488816  0.21104714  0.14250560  1
  S2-  S153  1  0.66441267  0.10121602  0.64357114  1
  S2-  S154  1  0.76964331  0.43456709  0.19345042  1
  S2-  S155  1  0.65672554  0.37706110  0.64817457  1
  S2-  S156  1  0.71231595  0.66190387  0.15858707  1
  S2-  S157  1  0.77399831  0.62018518  0.65406080  1
  S2-  S158  1  0.77558243  0.90402572  0.16093786  1
  S2-  S159  1  0.76423823  0.86762877  0.65815263  1
  S2-  S160  1  0.14371735  -0.04314722  0.34384875  1
  S2-  S161  1  0.11280345  -0.03950601  0.84212611  1
  S2-  S162  1  0.13540523  0.36281876  0.36153967  1
  S2-  S163  1  0.19392369  0.26792755  0.85762493  1
  S2-  S164  1  0.15453948  0.57675803  0.34809548  1
  S2-  S165  1  0.12101332  0.49306503  0.84672602  1
  S2-  S166  1  0.04509341  0.75661872  0.34035751  1
  S2-  S167  1  0.11143007  0.71548631  0.84832299  1
  S2-  S168  1  0.48979748  0.01204811  0.36167967  1
  S2-  S169  1  0.37184068  0.02406575  0.83240206  1
  S2-  S170  1  0.39819232  0.24853824  0.36994328  1
  S2-  S171  1  0.39762729  0.22746760  0.81814823  1
  S2-  S172  1  0.47363646  0.48873313  0.35985478  1
  S2-  S173  1  0.36451488  0.41678845  0.85525994  1
  S2-  S174  1  0.27469050  0.75483141  0.35712727  1
  S2-  S175  1  0.37506172  0.63283445  0.85926452  1
  S2-  S176  1  0.71975468  0.01512836  0.35643579  1
  S2-  S177  1  0.61600644  -0.00271824  0.84256039  1
  S2-  S178  1  0.61765272  0.32559894  0.36034162  1
  S2-  S179  1  0.60756511  0.24232097  0.83169846  1
  S2-  S180  1  0.72002268  0.50596414  0.34720464  1
  S2-  S181  1  0.59724744  0.47998612  0.85276628  1
  S2-  S182  1  0.71706381  0.75470496  0.34968637  1
  S2-  S183  1  0.65994560  0.73437007  0.84610828  1
  S2-  S184  1  0.91753597  -0.02865241  0.33060880  1
  S2-  S185  1  0.86407420  -0.09481652  0.85930694  1
  S2-  S186  1  0.86050524  0.33323455  0.35756935  1
  S2-  S187  1  0.88875392  0.25347742  0.85160343  1
  S2-  S188  1  0.91826130  0.57317109  0.33456177  1
  S2-  S189  1  0.87195767  0.50525919  0.84489412  1
  S2-  S190  1  0.88491240  0.77564252  0.27832200  1
  S2-  S191  1  0.89719201  0.70649934  0.83720426  1
  S2-  S192  1  -0.00921723  0.12175260  0.44710361  1
  S2-  S193  1  -0.00449079  0.14025956  0.95882462  1
  S2-  S194  1  -0.01008145  0.36940336  0.45288145  1
  S2-  S195  1  -0.00319733  0.38848937  0.95426330  1
  S2-  S196  1  -0.00348376  0.61831911  0.44879019  1
  S2-  S197  1  -0.00821572  0.64280324  0.96103457  1
  S2-  S198  1  -0.00804369  0.86589134  0.44438857  1
  S2-  S199  1  -0.00581365  0.88838746  0.95790891  1
  S2-  S200  1  0.23835053  0.12156663  0.45882082  1
  S2-  S201  1  0.24458915  0.13662700  0.94683701  1
  S2-  S202  1  0.24818773  0.36748845  0.46222352  1
  S2-  S203  1  0.23864634  0.39235895  0.96072266  1
  S2-  S204  1  0.25102813  0.61319384  0.45791070  1
  S2-  S205  1  0.23981262  0.64342228  0.96032571  1
  S2-  S206  1  0.24226543  0.87344053  0.45206559  1
  S2-  S207  1  0.24408218  0.88599157  0.94585622  1
  S2-  S208  1  0.49131407  0.11947141  0.47126969  1
  S2-  S209  1  0.48919517  0.14198491  0.94144093  1
  S2-  S210  1  0.48989781  0.36672464  0.47405246  1
  S2-  S211  1  0.49271611  0.38992186  0.95859511  1
  S2-  S212  1  0.49656463  0.62040737  0.45368941  1
  S2-  S213  1  0.50134079  0.63931391  0.96059955  1
  S2-  S214  1  0.49287995  0.86493795  0.45168327  1
  S2-  S215  1  0.49303726  0.88448724  0.94814208  1
  S2-  S216  1  0.74082362  0.12745238  0.45524979  1
  S2-  S217  1  0.74055421  0.13992394  0.94733133  1
  S2-  S218  1  0.74087890  0.36612513  0.46097701  1
  S2-  S219  1  0.74261973  0.38888430  0.94927947  1
  S2-  S220  1  0.75192853  0.62050040  0.44764882  1
  S2-  S221  1  0.74287880  0.63825027  0.95459431  1
  S2-  S222  1  0.73927058  0.87122884  0.45404033  1
  S2-  S223  1  0.73858722  0.88888692  0.95550541  1
  S2-  S224  1  0.12580530  0.01483468  0.04279906  1
  S2-  S225  1  0.11431415  -0.01010715  0.54109836  1
  S2-  S226  1  0.12327201  0.26173010  0.04996049  1
  S2-  S227  1  0.11576653  0.24961581  0.54103142  1
  S2-  S228  1  0.11874329  0.51917890  0.05080650  1
  S2-  S229  1  0.11820669  0.49241201  0.54357497  1
  S2-  S230  1  0.12207233  0.76958885  0.04311388  1
  S2-  S231  1  0.11888418  0.74659840  0.54199039  1
  S2-  S232  1  0.37262546  0.01155906  0.03835714  1
  S2-  S233  1  0.36280693  -0.00530682  0.54401749  1
  S2-  S234  1  0.36662987  0.26187349  0.03329083  1
  S2-  S235  1  0.36887752  0.24368931  0.56926209  1
  S2-  S236  1  0.36728723  0.52448888  0.04801114  1
  S2-  S237  1  0.36842807  0.49466130  0.54996493  1
  S2-  S238  1  0.37192970  0.76744636  0.03377047  1
  S2-  S239  1  0.37024159  0.74719475  0.54715960  1
  S2-  S240  1  0.61702366  0.01408642  0.04748594  1
  S2-  S241  1  0.62117221  -0.00720757  0.54167052  1
  S2-  S242  1  0.61805543  0.26492623  0.03877665  1
  S2-  S243  1  0.61997943  0.24300631  0.55315972  1
  S2-  S244  1  0.62257028  0.51172629  0.05345237  1
  S2-  S245  1  0.62084995  0.49730077  0.54086277  1
  S2-  S246  1  0.62470647  0.76422902  0.04293997  1
  S2-  S247  1  0.61611877  0.74676414  0.54642943  1
  S2-  S248  1  0.86522803  0.01939880  0.04282275  1
  S2-  S249  1  0.86896799  -0.00425223  0.53995285  1
  S2-  S250  1  0.87115393  0.26321760  0.05199278  1
  S2-  S251  1  0.86886532  0.24416327  0.54788620  1
  S2-  S252  1  0.86295921  0.50469882  0.05230507  1
  S2-  S253  1  0.86710885  0.49005983  0.54504792  1
  S2-  S254  1  0.86854137  0.76394283  0.04294376  1
  S2-  S255  1  0.86873469  0.74609647  0.54630099  1
