# generated using pymatgen
data_La6Ce7Pr13Nd19Sm19(BiS2)64
_symmetry_space_group_name_H-M   'P 1'
_cell_length_a   16.09465109
_cell_length_b   16.08005615
_cell_length_c   27.28294543
_cell_angle_alpha   89.90901453
_cell_angle_beta   89.85119600
_cell_angle_gamma   89.99687713
_symmetry_Int_Tables_number   1
_chemical_formula_structural   La6Ce7Pr13Nd19Sm19(BiS2)64
_chemical_formula_sum   'La6 Ce7 Pr13 Nd19 Sm19 Bi64 S128'
_cell_volume   7060.87249060
_cell_formula_units_Z   1
loop_
 _symmetry_equiv_pos_site_id
 _symmetry_equiv_pos_as_xyz
  1  'x, y, z'
loop_
 _atom_type_symbol
 _atom_type_oxidation_number
  La3+  3.0
  Ce3+  3.0
  Pr3+  3.0
  Nd3+  3.0
  Sm3+  3.0
  Bi2+  2.0
  S2-  -2.0
loop_
 _atom_site_type_symbol
 _atom_site_label
 _atom_site_symmetry_multiplicity
 _atom_site_fract_x
 _atom_site_fract_y
 _atom_site_fract_z
 _atom_site_occupancy
  La3+  La0  1  0.38301297  0.77018643  0.91514604  1
  La3+  La1  1  0.24721210  0.14128274  0.09107366  1
  La3+  La2  1  0.89468232  0.50750639  0.88393209  1
  La3+  La3  1  0.12230737  -0.00656110  0.39075110  1
  La3+  La4  1  0.26221957  0.87160344  0.08881530  1
  La3+  La5  1  0.37918079  0.27168924  0.40612795  1
  Ce3+  Ce6  1  0.24169096  0.63499001  0.56401401  1
  Ce3+  Ce7  1  0.50365249  0.88136794  0.06239394  1
  Ce3+  Ce8  1  0.37286365  0.00881786  0.42626954  1
  Ce3+  Ce9  1  0.75640339  0.14554138  0.07314347  1
  Ce3+  Ce10  1  0.24435080  0.13532916  0.54396348  1
  Ce3+  Ce11  1  0.49490259  0.38452981  0.57740095  1
  Ce3+  Ce12  1  0.25099214  0.39085941  0.07236954  1
  Pr3+  Pr13  1  0.11828319  0.50435766  0.44087774  1
  Pr3+  Pr14  1  0.49446452  0.89001188  0.56795977  1
  Pr3+  Pr15  1  0.48831199  0.64333559  0.57490560  1
  Pr3+  Pr16  1  -0.00716038  0.64396543  0.57727578  1
  Pr3+  Pr17  1  0.73717083  0.38028418  0.57738098  1
  Pr3+  Pr18  1  0.87120838  0.76087601  0.43766232  1
  Pr3+  Pr19  1  0.24311599  0.89840768  0.56591174  1
  Pr3+  Pr20  1  0.75523847  0.39300008  0.06868409  1
  Pr3+  Pr21  1  -0.01188670  0.37274975  0.58203982  1
  Pr3+  Pr22  1  0.88142616  0.75949255  0.92638955  1
  Pr3+  Pr23  1  0.62923832  0.26165883  0.93959966  1
  Pr3+  Pr24  1  0.37796382  0.01066160  0.94288115  1
  Pr3+  Pr25  1  0.00029607  0.13744704  0.06910219  1
  Nd3+  Nd26  1  -0.00903538  0.88992683  0.56296045  1
  Nd3+  Nd27  1  0.75740767  0.88220454  0.05669509  1
  Nd3+  Nd28  1  0.74259818  0.63691648  0.56305561  1
  Nd3+  Nd29  1  0.50248168  0.38857106  0.06217448  1
  Nd3+  Nd30  1  0.00255919  0.39133196  0.05412297  1
  Nd3+  Nd31  1  0.86881734  0.01696858  0.43278078  1
  Nd3+  Nd32  1  0.86758618  0.27239962  0.43672111  1
  Nd3+  Nd33  1  0.50105557  0.13323621  0.06392514  1
  Nd3+  Nd34  1  0.61477747  0.01433722  0.42764240  1
  Nd3+  Nd35  1  0.11901959  0.76079550  0.44670209  1
  Nd3+  Nd36  1  0.11811188  0.25677377  0.43371189  1
  Nd3+  Nd37  1  0.13799085  0.50853078  0.92991541  1
  Nd3+  Nd38  1  0.12975524  0.26184569  0.94151285  1
  Nd3+  Nd39  1  0.61688601  0.75855441  0.44078265  1
  Nd3+  Nd40  1  0.87680803  0.25799341  0.93624113  1
  Nd3+  Nd41  1  0.24099059  0.38029586  0.56499851  1
  Nd3+  Nd42  1  0.61489357  0.50984211  0.45309788  1
  Nd3+  Nd43  1  0.63258007  0.76227087  0.93020402  1
  Nd3+  Nd44  1  -0.01003923  0.13313811  0.55819147  1
  Sm3+  Sm45  1  0.63884018  0.51076168  0.93887774  1
  Sm3+  Sm46  1  0.00395354  0.88493965  0.05395515  1
  Sm3+  Sm47  1  0.25509729  0.63863720  0.04942951  1
  Sm3+  Sm48  1  0.00295961  0.63664507  0.04802239  1
  Sm3+  Sm49  1  0.87056391  0.50903228  0.45219410  1
  Sm3+  Sm50  1  0.75529257  0.63806439  0.06146258  1
  Sm3+  Sm51  1  0.49052373  0.13043518  0.55746688  1
  Sm3+  Sm52  1  0.74126230  0.88658606  0.54926501  1
  Sm3+  Sm53  1  0.36931105  0.50824700  0.45238627  1
  Sm3+  Sm54  1  0.37819485  0.26218559  0.95202888  1
  Sm3+  Sm55  1  0.13073329  0.76331855  0.93897256  1
  Sm3+  Sm56  1  0.13294844  0.01191959  0.95030409  1
  Sm3+  Sm57  1  0.50360362  0.63871709  0.04740406  1
  Sm3+  Sm58  1  0.88047699  0.01427140  0.93654078  1
  Sm3+  Sm59  1  0.61646673  0.26521469  0.44661174  1
  Sm3+  Sm60  1  0.37849267  0.51079860  0.93939074  1
  Sm3+  Sm61  1  0.36585959  0.76293404  0.44480632  1
  Sm3+  Sm62  1  0.63102651  0.01265893  0.95257135  1
  Sm3+  Sm63  1  0.74107872  0.13346226  0.55312958  1
  Bi2+  Bi64  1  -0.01521461  0.12429663  0.28709970  1
  Bi2+  Bi65  1  -0.00711109  0.07842503  0.78453564  1
  Bi2+  Bi66  1  -0.01445126  0.37093798  0.30793896  1
  Bi2+  Bi67  1  0.02296040  0.37459224  0.78008660  1
  Bi2+  Bi68  1  0.03602649  0.57790662  0.31943817  1
  Bi2+  Bi69  1  0.02363410  0.65442784  0.78080188  1
  Bi2+  Bi70  1  -0.01059626  0.84969686  0.28648970  1
  Bi2+  Bi71  1  -0.08633712  0.89460996  0.81253699  1
  Bi2+  Bi72  1  0.23374067  0.11886392  0.27270395  1
  Bi2+  Bi73  1  0.29501132  0.12098065  0.77489640  1
  Bi2+  Bi74  1  0.25202255  0.41497401  0.28669549  1
  Bi2+  Bi75  1  0.26505147  0.33476787  0.79786091  1
  Bi2+  Bi76  1  0.22506391  0.60861207  0.30132091  1
  Bi2+  Bi77  1  0.24374145  0.57796958  0.78212776  1
  Bi2+  Bi78  1  0.24176058  0.86324844  0.27826049  1
  Bi2+  Bi79  1  0.21429785  0.91984474  0.80070786  1
  Bi2+  Bi80  1  0.55679853  0.12395231  0.29537078  1
  Bi2+  Bi81  1  0.50542230  0.10445154  0.79029932  1
  Bi2+  Bi82  1  0.50755309  0.40213651  0.29501229  1
  Bi2+  Bi83  1  0.53700533  0.33289393  0.80831099  1
  Bi2+  Bi84  1  0.49058073  0.59567871  0.28779926  1
  Bi2+  Bi85  1  0.47264000  0.59350620  0.80450853  1
  Bi2+  Bi86  1  0.48366982  0.79619410  0.28247198  1
  Bi2+  Bi87  1  0.49819554  0.90285769  0.78741844  1
  Bi2+  Bi88  1  0.74011397  0.06348220  0.31413070  1
  Bi2+  Bi89  1  0.76954823  0.03242871  0.80286754  1
  Bi2+  Bi90  1  0.73151809  0.42713031  0.28981980  1
  Bi2+  Bi91  1  0.76573135  0.35771299  0.78624486  1
  Bi2+  Bi92  1  0.75128683  0.65345387  0.28854873  1
  Bi2+  Bi93  1  0.66134869  0.63454064  0.80484507  1
  Bi2+  Bi94  1  0.74131078  0.86717050  0.28865216  1
  Bi2+  Bi95  1  0.72677430  0.82668523  0.80242776  1
  Bi2+  Bi96  1  0.06732717  -0.01501470  0.18048025  1
  Bi2+  Bi97  1  0.09962728  0.00062196  0.69313729  1
  Bi2+  Bi98  1  0.10743733  0.30607361  0.20724422  1
  Bi2+  Bi99  1  0.16416592  0.19109912  0.69750868  1
  Bi2+  Bi100  1  0.17408401  0.49111461  0.18974170  1
  Bi2+  Bi101  1  0.17795048  0.49614072  0.69061407  1
  Bi2+  Bi102  1  0.10625280  0.67155617  0.21943144  1
  Bi2+  Bi103  1  0.08632073  0.82143046  0.73886724  1
  Bi2+  Bi104  1  0.44241739  0.00077942  0.21277662  1
  Bi2+  Bi105  1  0.37088650  -0.00550248  0.69770759  1
  Bi2+  Bi106  1  0.40722303  0.25160585  0.20576056  1
  Bi2+  Bi107  1  0.42505807  0.23677732  0.71372648  1
  Bi2+  Bi108  1  0.37345698  0.48053213  0.19896864  1
  Bi2+  Bi109  1  0.41008046  0.44365626  0.74277869  1
  Bi2+  Bi110  1  0.37117536  0.67977642  0.20853019  1
  Bi2+  Bi111  1  0.35672493  0.74516133  0.71600754  1
  Bi2+  Bi112  1  0.64247837  -0.01465355  0.20880829  1
  Bi2+  Bi113  1  0.64459104  -0.02975840  0.72098325  1
  Bi2+  Bi114  1  0.70557643  0.24254105  0.25340422  1
  Bi2+  Bi115  1  0.61614625  0.21082856  0.71236545  1
  Bi2+  Bi116  1  0.63509520  0.56571707  0.20833952  1
  Bi2+  Bi117  1  0.61630428  0.47468405  0.72932850  1
  Bi2+  Bi118  1  0.60999641  0.79188444  0.19267293  1
  Bi2+  Bi119  1  0.60887469  0.70323543  0.70006084  1
  Bi2+  Bi120  1  0.84031977  -0.01133519  0.21771533  1
  Bi2+  Bi121  1  0.91160829  0.00828122  0.66872880  1
  Bi2+  Bi122  1  0.87415540  0.25023774  0.20239107  1
  Bi2+  Bi123  1  0.88511159  0.18627277  0.70948305  1
  Bi2+  Bi124  1  0.89690493  0.50970958  0.24662752  1
  Bi2+  Bi125  1  0.89485494  0.52119405  0.68281008  1
  Bi2+  Bi126  1  0.85959574  0.68510093  0.19771154  1
  Bi2+  Bi127  1  0.84936551  0.82713350  0.70632282  1
  S2-  S128  1  0.09950554  0.15344815  0.15372422  1
  S2-  S129  1  0.01161596  0.21989942  0.64447668  1
  S2-  S130  1  -0.02189856  0.36727842  0.15326467  1
  S2-  S131  1  0.03730942  0.41326242  0.67970678  1
  S2-  S132  1  -0.00432876  0.62601028  0.14738102  1
  S2-  S133  1  0.05070068  0.61124115  0.67368326  1
  S2-  S134  1  -0.02440411  0.86352564  0.15062768  1
  S2-  S135  1  -0.02702605  0.78897142  0.64423287  1
  S2-  S136  1  0.30878841  0.07884782  0.18095014  1
  S2-  S137  1  0.24913505  0.06977088  0.63499335  1
  S2-  S138  1  0.26358980  0.28985699  0.15320883  1
  S2-  S139  1  0.23756154  0.33680558  0.66277105  1
  S2-  S140  1  0.25435368  0.70515923  0.13911170  1
  S2-  S141  1  0.29344283  0.62994161  0.65870057  1
  S2-  S142  1  0.20044886  0.88748284  0.18531963  1
  S2-  S143  1  0.27659836  0.85133825  0.66346778  1
  S2-  S144  1  0.51143435  0.15141279  0.16303693  1
  S2-  S145  1  0.49730779  0.02315978  0.63686564  1
  S2-  S146  1  0.50156658  0.37818552  0.16248128  1
  S2-  S147  1  0.61009312  0.36011013  0.65044096  1
  S2-  S148  1  0.52120169  0.65870108  0.14485210  1
  S2-  S149  1  0.52078078  0.56832273  0.66498173  1
  S2-  S150  1  0.41491260  0.87979762  0.14599054  1
  S2-  S151  1  0.49004593  0.77626867  0.64862060  1
  S2-  S152  1  0.87596299  0.10626766  0.14322636  1
  S2-  S153  1  0.73839314  0.15086098  0.65172413  1
  S2-  S154  1  0.73681573  0.27412289  0.14518011  1
  S2-  S155  1  0.84460441  0.37199278  0.65524615  1
  S2-  S156  1  0.74857550  0.52632122  0.14069065  1
  S2-  S157  1  0.76607318  0.64042414  0.66115222  1
  S2-  S158  1  0.75209773  0.76875874  0.13321758  1
  S2-  S159  1  0.70846351  0.88419925  0.64583548  1
  S2-  S160  1  0.11251110  -0.01896093  0.27739683  1
  S2-  S161  1  0.12560978  0.02749219  0.85233191  1
  S2-  S162  1  0.11673070  0.15833434  0.34786531  1
  S2-  S163  1  0.12924060  0.27600080  0.84085093  1
  S2-  S164  1  0.12537805  0.38510290  0.36357570  1
  S2-  S165  1  0.06064829  0.51295444  0.83846769  1
  S2-  S166  1  0.11845520  0.81974533  0.35264925  1
  S2-  S167  1  0.12041505  0.76933223  0.84016655  1
  S2-  S168  1  0.28131826  -0.00246905  0.34184542  1
  S2-  S169  1  0.36250130  -0.07735890  0.85506121  1
  S2-  S170  1  0.34135658  0.22309880  0.30543658  1
  S2-  S171  1  0.39371272  0.26482882  0.85481631  1
  S2-  S172  1  0.37654123  0.43465013  0.36291685  1
  S2-  S173  1  0.27482773  0.47921404  0.86309792  1
  S2-  S174  1  0.35302948  0.77637509  0.34660585  1
  S2-  S175  1  0.33315115  0.70068908  0.82082702  1
  S2-  S176  1  0.50003033  0.00079349  0.35359820  1
  S2-  S177  1  0.61312585  0.02091966  0.85531426  1
  S2-  S178  1  0.54127045  0.27330528  0.35786319  1
  S2-  S179  1  0.68405130  0.25312459  0.84330738  1
  S2-  S180  1  0.61078828  0.50529584  0.35418302  1
  S2-  S181  1  0.72206594  0.48844416  0.85379049  1
  S2-  S182  1  0.63196326  0.76353330  0.34208961  1
  S2-  S183  1  0.52849528  0.77974036  0.85079325  1
  S2-  S184  1  0.95473862  -0.01489693  0.34942505  1
  S2-  S185  1  0.88217419  0.12614803  0.86268506  1
  S2-  S186  1  0.89776286  0.21864898  0.34133647  1
  S2-  S187  1  0.90048717  0.33670672  0.84738926  1
  S2-  S188  1  0.84705759  0.41670986  0.37115782  1
  S2-  S189  1  0.88493237  0.48612865  0.77488822  1
  S2-  S190  1  0.88558852  0.75970996  0.33710923  1
  S2-  S191  1  0.89280643  0.67012942  0.83954722  1
  S2-  S192  1  -0.01281146  0.14077462  0.45346069  1
  S2-  S193  1  0.00901977  0.13509778  0.96105259  1
  S2-  S194  1  -0.00749366  0.38669566  0.46807882  1
  S2-  S195  1  0.00704057  0.38974233  0.94945260  1
  S2-  S196  1  -0.00630356  0.63375314  0.46248862  1
  S2-  S197  1  0.01053093  0.63496462  0.94509246  1
  S2-  S198  1  -0.00602956  0.88541556  0.45689532  1
  S2-  S199  1  0.00597457  0.88889578  0.94863282  1
  S2-  S200  1  0.25847766  0.14644360  0.44178006  1
  S2-  S201  1  0.25482008  0.13820724  0.95414106  1
  S2-  S202  1  0.25031512  0.38152356  0.46057552  1
  S2-  S203  1  0.25662141  0.38285637  0.96526727  1
  S2-  S204  1  0.24443680  0.63302678  0.45547135  1
  S2-  S205  1  0.25752231  0.64170746  0.94604364  1
  S2-  S206  1  0.24204313  0.88628387  0.45555615  1
  S2-  S207  1  0.25014690  0.88464295  0.95691792  1
  S2-  S208  1  0.49319932  0.14121320  0.45406495  1
  S2-  S209  1  0.50304849  0.13571946  0.95681238  1
  S2-  S210  1  0.49236806  0.38498066  0.46862901  1
  S2-  S211  1  0.50316634  0.38994616  0.95429818  1
  S2-  S212  1  0.48917180  0.63673358  0.45821409  1
  S2-  S213  1  0.50582363  0.63061082  0.94415333  1
  S2-  S214  1  0.49461303  0.88024570  0.45610368  1
  S2-  S215  1  0.50834768  0.89015821  0.95731691  1
  S2-  S216  1  0.74023505  0.14142789  0.44804457  1
  S2-  S217  1  0.75211051  0.13475607  0.96362043  1
  S2-  S218  1  0.73702757  0.38782173  0.46940400  1
  S2-  S219  1  0.75310747  0.38236608  0.96058450  1
  S2-  S220  1  0.74512829  0.63274429  0.45395871  1
  S2-  S221  1  0.75346774  0.63940357  0.95275400  1
  S2-  S222  1  0.74220902  0.88722736  0.44424964  1
  S2-  S223  1  0.75614612  0.88918496  0.94950469  1
  S2-  S224  1  0.13341193  0.00460172  0.05531311  1
  S2-  S225  1  0.11334754  0.01277393  0.54426114  1
  S2-  S226  1  0.12860483  0.26541738  0.04738041  1
  S2-  S227  1  0.11891328  0.25842457  0.54155200  1
  S2-  S228  1  0.13068984  0.51615296  0.04139918  1
  S2-  S229  1  0.11705983  0.50890938  0.55146837  1
  S2-  S230  1  0.12726861  0.76193744  0.04361719  1
  S2-  S231  1  0.12152917  0.76464346  0.55264242  1
  S2-  S232  1  0.37336277  0.01294732  0.04985531  1
  S2-  S233  1  0.37052160  0.01023207  0.53381050  1
  S2-  S234  1  0.37948038  0.26064006  0.05422316  1
  S2-  S235  1  0.37200274  0.25714723  0.56018550  1
  S2-  S236  1  0.37815741  0.51475116  0.04484232  1
  S2-  S237  1  0.36822350  0.50792184  0.55654583  1
  S2-  S238  1  0.38125376  0.75922986  0.03444245  1
  S2-  S239  1  0.36322364  0.76439239  0.54770027  1
  S2-  S240  1  0.63201037  0.00981036  0.05754143  1
  S2-  S241  1  0.62078381  0.01126555  0.53469459  1
  S2-  S242  1  0.62102916  0.26232493  0.04638277  1
  S2-  S243  1  0.61427290  0.25225674  0.54862175  1
  S2-  S244  1  0.62481549  0.51416964  0.04222094  1
  S2-  S245  1  0.61633555  0.51433983  0.55670353  1
  S2-  S246  1  0.62719706  0.76062160  0.03517819  1
  S2-  S247  1  0.61950836  0.76068619  0.54532265  1
  S2-  S248  1  0.87960439  0.00584273  0.04002873  1
  S2-  S249  1  0.86302145  0.01007128  0.53875362  1
  S2-  S250  1  0.88094276  0.26492092  0.04358935  1
  S2-  S251  1  0.86162546  0.25664722  0.54456801  1
  S2-  S252  1  0.88125024  0.51686825  0.04493180  1
  S2-  S253  1  0.87036560  0.51269163  0.55513100  1
  S2-  S254  1  0.88346152  0.76152775  0.03411744  1
  S2-  S255  1  0.86341948  0.76258006  0.54321211  1
