# generated using pymatgen
data_La6Ce7Pr13Nd19Sm19(BiS2)64
_symmetry_space_group_name_H-M   'P 1'
_cell_length_a   16.15530910
_cell_length_b   16.14746443
_cell_length_c   27.11355836
_cell_angle_alpha   89.86169643
_cell_angle_beta   89.95023986
_cell_angle_gamma   89.95098241
_symmetry_Int_Tables_number   1
_chemical_formula_structural   La6Ce7Pr13Nd19Sm19(BiS2)64
_chemical_formula_sum   'La6 Ce7 Pr13 Nd19 Sm19 Bi64 S128'
_cell_volume   7073.01434080
_cell_formula_units_Z   1
loop_
 _symmetry_equiv_pos_site_id
 _symmetry_equiv_pos_as_xyz
  1  'x, y, z'
loop_
 _atom_type_symbol
 _atom_type_oxidation_number
  La3+  3.0
  Ce3+  3.0
  Pr3+  3.0
  Nd3+  3.0
  Sm3+  3.0
  Bi2+  2.0
  S2-  -2.0
loop_
 _atom_site_type_symbol
 _atom_site_label
 _atom_site_symmetry_multiplicity
 _atom_site_fract_x
 _atom_site_fract_y
 _atom_site_fract_z
 _atom_site_occupancy
  La3+  La0  1  0.87404135  0.51056180  0.91436442  1
  La3+  La1  1  0.38568354  0.74141802  0.39094745  1
  La3+  La2  1  0.50606329  0.86425792  0.08509012  1
  La3+  La3  1  0.36896487  0.49861463  0.91915309  1
  La3+  La4  1  0.63681270  0.24717536  0.42688738  1
  La3+  La5  1  0.12540123  0.74935800  0.42797476  1
  Ce3+  Ce6  1  0.49985556  0.12968661  0.06458177  1
  Ce3+  Ce7  1  0.62407345  -0.00804746  0.43249400  1
  Ce3+  Ce8  1  0.24688112  0.38357939  0.06367867  1
  Ce3+  Ce9  1  0.87395604  0.75618191  0.93786399  1
  Ce3+  Ce10  1  0.37149781  0.25395497  0.94390612  1
  Ce3+  Ce11  1  0.49819005  0.38091629  0.05440392  1
  Ce3+  Ce12  1  0.37373492  0.00024184  0.95581016  1
  Pr3+  Pr13  1  0.24894673  0.12595450  0.06315940  1
  Pr3+  Pr14  1  0.73528183  0.11410593  0.57719781  1
  Pr3+  Pr15  1  0.62115806  0.51097124  0.92768983  1
  Pr3+  Pr16  1  0.00155724  0.62186612  0.56614265  1
  Pr3+  Pr17  1  0.74656833  0.36306982  0.57795838  1
  Pr3+  Pr18  1  0.74844842  0.61865674  0.56739519  1
  Pr3+  Pr19  1  0.25197394  0.87089472  0.56052957  1
  Pr3+  Pr20  1  0.62323224  0.25828072  0.93198258  1
  Pr3+  Pr21  1  0.13554663  0.76136270  0.92323609  1
  Pr3+  Pr22  1  0.25286167  0.36999271  0.56089966  1
  Pr3+  Pr23  1  -0.00002417  0.11647273  0.56384835  1
  Pr3+  Pr24  1  0.87391216  -0.00241129  0.44350865  1
  Pr3+  Pr25  1  0.12498863  0.49615758  0.44403278  1
  Nd3+  Nd26  1  0.25150532  0.62288517  0.56354811  1
  Nd3+  Nd27  1  0.62685521  0.49504832  0.44756810  1
  Nd3+  Nd28  1  0.23666626  0.86568379  0.08265332  1
  Nd3+  Nd29  1  -0.00476365  0.87617880  0.06176691  1
  Nd3+  Nd30  1  0.87417250  0.25298795  0.93650278  1
  Nd3+  Nd31  1  0.37409357  0.76576604  0.93896691  1
  Nd3+  Nd32  1  0.12303567  0.50563102  0.93416382  1
  Nd3+  Nd33  1  0.62257660  0.00391472  0.95065655  1
  Nd3+  Nd34  1  -0.00458120  0.38106540  0.05539670  1
  Nd3+  Nd35  1  0.62250506  0.75848003  0.93214246  1
  Nd3+  Nd36  1  -0.00370719  0.13042724  0.06027742  1
  Nd3+  Nd37  1  0.62742370  0.74121136  0.43519697  1
  Nd3+  Nd38  1  0.37688212  0.24622531  0.43727799  1
  Nd3+  Nd39  1  0.00144323  0.36754773  0.57118126  1
  Nd3+  Nd40  1  0.37499127  0.49848214  0.43647591  1
  Nd3+  Nd41  1  0.12578450  0.24563395  0.44656327  1
  Nd3+  Nd42  1  0.12339559  0.00203248  0.94545567  1
  Nd3+  Nd43  1  0.49942670  0.36747359  0.55747017  1
  Nd3+  Nd44  1  0.74583425  0.38187407  0.05308498  1
  Sm3+  Sm45  1  0.87232504  0.00387140  0.94694134  1
  Sm3+  Sm46  1  0.25123149  0.11724377  0.55512341  1
  Sm3+  Sm47  1  0.74727187  0.13204195  0.05704273  1
  Sm3+  Sm48  1  -0.00018789  0.86916557  0.55748150  1
  Sm3+  Sm49  1  0.24818949  0.62255281  0.05902086  1
  Sm3+  Sm50  1  0.87796166  0.74116866  0.43601388  1
  Sm3+  Sm51  1  -0.00143900  0.62892300  0.05130236  1
  Sm3+  Sm52  1  0.87576340  0.24573284  0.44985917  1
  Sm3+  Sm53  1  0.74772831  0.62706671  0.05267839  1
  Sm3+  Sm54  1  0.50100946  0.11844381  0.54714001  1
  Sm3+  Sm55  1  0.12122703  0.25423492  0.94561842  1
  Sm3+  Sm56  1  0.37508420  -0.00802096  0.43608860  1
  Sm3+  Sm57  1  0.49865795  0.86686783  0.55090590  1
  Sm3+  Sm58  1  0.74930046  0.87721936  0.06379300  1
  Sm3+  Sm59  1  0.49855500  0.62061189  0.55673232  1
  Sm3+  Sm60  1  0.12611088  -0.00403853  0.44072291  1
  Sm3+  Sm61  1  0.74845901  0.86761205  0.54818888  1
  Sm3+  Sm62  1  0.87531317  0.49264794  0.45492308  1
  Sm3+  Sm63  1  0.49725180  0.62797344  0.05089674  1
  Bi2+  Bi64  1  0.00315543  0.15684788  0.30065587  1
  Bi2+  Bi65  1  0.05936741  0.11441697  0.80095282  1
  Bi2+  Bi66  1  -0.04263637  0.34736915  0.29792793  1
  Bi2+  Bi67  1  0.04625296  0.38805119  0.78331144  1
  Bi2+  Bi68  1  -0.01783937  0.62846160  0.28417304  1
  Bi2+  Bi69  1  -0.01784935  0.63185774  0.77657748  1
  Bi2+  Bi70  1  -0.03137730  0.88559853  0.29347719  1
  Bi2+  Bi71  1  -0.00084132  0.92211604  0.79746496  1
  Bi2+  Bi72  1  0.18761330  0.12546442  0.26819473  1
  Bi2+  Bi73  1  0.28018481  0.12068926  0.80777819  1
  Bi2+  Bi74  1  0.22180055  0.39738010  0.29587119  1
  Bi2+  Bi75  1  0.27081983  0.31045562  0.77730259  1
  Bi2+  Bi76  1  0.24969711  0.60328239  0.28259133  1
  Bi2+  Bi77  1  0.24364882  0.61642585  0.79192095  1
  Bi2+  Bi78  1  0.23814921  0.88885841  0.28970818  1
  Bi2+  Bi79  1  0.26827060  0.87696994  0.79526744  1
  Bi2+  Bi80  1  0.53766111  0.13209364  0.26886998  1
  Bi2+  Bi81  1  0.47944251  0.13459733  0.80011866  1
  Bi2+  Bi82  1  0.48028330  0.38637575  0.29866056  1
  Bi2+  Bi83  1  0.51273591  0.33069734  0.79139105  1
  Bi2+  Bi84  1  0.52979783  0.58544241  0.27950973  1
  Bi2+  Bi85  1  0.49880610  0.66514337  0.77878201  1
  Bi2+  Bi86  1  0.50456302  0.90259650  0.29242984  1
  Bi2+  Bi87  1  0.52207148  0.85878214  0.81280588  1
  Bi2+  Bi88  1  0.80585265  0.10816634  0.26959553  1
  Bi2+  Bi89  1  0.75052113  0.08743148  0.79298986  1
  Bi2+  Bi90  1  0.72691885  0.35693219  0.30311979  1
  Bi2+  Bi91  1  0.75855158  0.34617587  0.79276810  1
  Bi2+  Bi92  1  0.77612154  0.67145839  0.31581348  1
  Bi2+  Bi93  1  0.74062194  0.65191494  0.78262263  1
  Bi2+  Bi94  1  0.77016926  0.85833299  0.28886391  1
  Bi2+  Bi95  1  0.71994366  0.84111346  0.81633301  1
  Bi2+  Bi96  1  0.04494859  0.00516410  0.21358904  1
  Bi2+  Bi97  1  0.09967191  0.00014667  0.70794591  1
  Bi2+  Bi98  1  0.15691332  0.29410267  0.20245950  1
  Bi2+  Bi99  1  0.16650239  0.18861404  0.70795014  1
  Bi2+  Bi100  1  0.10723651  0.48581959  0.19976592  1
  Bi2+  Bi101  1  0.12978660  0.48951362  0.69615777  1
  Bi2+  Bi102  1  0.09965193  0.73194525  0.20701623  1
  Bi2+  Bi103  1  0.12345361  0.75175278  0.70098043  1
  Bi2+  Bi104  1  0.36987036  0.04803984  0.20466656  1
  Bi2+  Bi105  1  0.38184604  0.00463473  0.73507361  1
  Bi2+  Bi106  1  0.35249122  0.29447995  0.23060333  1
  Bi2+  Bi107  1  0.39943048  0.21892257  0.70724143  1
  Bi2+  Bi108  1  0.36919358  0.49346107  0.21773782  1
  Bi2+  Bi109  1  0.38855038  0.48687520  0.69873406  1
  Bi2+  Bi110  1  0.37564944  0.77472339  0.19038698  1
  Bi2+  Bi111  1  0.38852441  0.79155981  0.71813990  1
  Bi2+  Bi112  1  0.69750294  -0.01678281  0.20781834  1
  Bi2+  Bi113  1  0.65476995  0.00587629  0.70497909  1
  Bi2+  Bi114  1  0.63693279  0.27150226  0.18624673  1
  Bi2+  Bi115  1  0.60164424  0.24519057  0.69703094  1
  Bi2+  Bi116  1  0.64316888  0.50300408  0.20200454  1
  Bi2+  Bi117  1  0.62974442  0.55628335  0.70935522  1
  Bi2+  Bi118  1  0.63992593  0.71354108  0.21496516  1
  Bi2+  Bi119  1  0.60933363  0.81031772  0.70775472  1
  Bi2+  Bi120  1  0.87553758  -0.07612898  0.17513932  1
  Bi2+  Bi121  1  0.85127299  -0.00179031  0.70531586  1
  Bi2+  Bi122  1  0.88805281  0.24956003  0.21054835  1
  Bi2+  Bi123  1  0.89560713  0.18536182  0.73670280  1
  Bi2+  Bi124  1  0.83580846  0.50160369  0.26075762  1
  Bi2+  Bi125  1  0.87471066  0.51426174  0.70282110  1
  Bi2+  Bi126  1  0.87402796  0.74071232  0.21248513  1
  Bi2+  Bi127  1  0.87048477  0.81106194  0.74520506  1
  S2-  S128  1  -0.01838088  0.13666506  0.15922106  1
  S2-  S129  1  -0.00135728  0.15528626  0.66155345  1
  S2-  S130  1  0.00725580  0.37642544  0.15496664  1
  S2-  S131  1  -0.01529111  0.39018812  0.67027296  1
  S2-  S132  1  0.01705839  0.61316733  0.14926709  1
  S2-  S133  1  0.00191427  0.63001518  0.66691458  1
  S2-  S134  1  0.08638769  0.86307310  0.14620034  1
  S2-  S135  1  0.02999768  0.86123744  0.65477677  1
  S2-  S136  1  0.23573076  0.14100333  0.16287600  1
  S2-  S137  1  0.23693587  0.06599412  0.64814295  1
  S2-  S138  1  0.25409161  0.49862344  0.13668890  1
  S2-  S139  1  0.24787436  0.39292846  0.66076330  1
  S2-  S140  1  0.23624794  0.71734599  0.14241699  1
  S2-  S141  1  0.23835622  0.60594830  0.66475734  1
  S2-  S142  1  0.27545786  0.92284272  0.18199611  1
  S2-  S143  1  0.24547842  0.82774763  0.65896112  1
  S2-  S144  1  0.49994779  0.15275353  0.16307274  1
  S2-  S145  1  0.57608628  0.10999234  0.63530217  1
  S2-  S146  1  0.52878538  0.39329249  0.15056748  1
  S2-  S147  1  0.48961090  0.38069253  0.65772486  1
  S2-  S148  1  0.50083564  0.69660887  0.14164023  1
  S2-  S149  1  0.47770174  0.60101311  0.65509958  1
  S2-  S150  1  0.47758620  0.92296226  0.18460074  1
  S2-  S151  1  0.48948817  0.88067815  0.64859063  1
  S2-  S152  1  0.72900660  0.13713296  0.15463056  1
  S2-  S153  1  0.74910616  0.23368445  0.65073723  1
  S2-  S154  1  0.75816318  0.36336606  0.15269919  1
  S2-  S155  1  0.73985356  0.43922553  0.67283361  1
  S2-  S156  1  0.73899732  0.61172229  0.15124274  1
  S2-  S157  1  0.76056070  0.64386900  0.66666290  1
  S2-  S158  1  0.65938288  0.84487988  0.14504642  1
  S2-  S159  1  0.74238074  0.88205138  0.64530996  1
  S2-  S160  1  0.11894642  -0.06818620  0.34988183  1
  S2-  S161  1  0.14279604  -0.09056365  0.86190334  1
  S2-  S162  1  0.14466532  0.22484700  0.34886260  1
  S2-  S163  1  0.09328742  0.26645065  0.84850913  1
  S2-  S164  1  0.13615143  0.52038595  0.34452064  1
  S2-  S165  1  0.15123197  0.48443940  0.83528358  1
  S2-  S166  1  0.22512811  0.74277739  0.34544517  1
  S2-  S167  1  0.09560365  0.69898860  0.82711595  1
  S2-  S168  1  0.36689466  -0.01789244  0.33708663  1
  S2-  S169  1  0.38582061  -0.08924589  0.87259401  1
  S2-  S170  1  0.37552631  0.26921515  0.33860590  1
  S2-  S171  1  0.36951646  0.34287005  0.85820691  1
  S2-  S172  1  0.38475305  0.58001333  0.34828977  1
  S2-  S173  1  0.38606298  0.54556257  0.81866048  1
  S2-  S174  1  0.38543318  0.78951846  0.28661419  1
  S2-  S175  1  0.28258922  0.73261854  0.85500787  1
  S2-  S176  1  0.61023199  0.02944587  0.33654890  1
  S2-  S177  1  0.63046183  -0.01377708  0.85156041  1
  S2-  S178  1  0.58661625  0.25194608  0.32777491  1
  S2-  S179  1  0.65433456  0.22412092  0.83446274  1
  S2-  S180  1  0.62182791  0.48405574  0.34784234  1
  S2-  S181  1  0.62549392  0.43033949  0.83609305  1
  S2-  S182  1  0.55111790  0.76250324  0.34742465  1
  S2-  S183  1  0.61749917  0.64412098  0.85471361  1
  S2-  S184  1  0.88503490  0.02454555  0.34358137  1
  S2-  S185  1  0.87818394  0.01835626  0.84974140  1
  S2-  S186  1  0.78784029  0.24688604  0.36543364  1
  S2-  S187  1  0.86629758  0.25352466  0.83695787  1
  S2-  S188  1  0.90366908  0.47151353  0.35960825  1
  S2-  S189  1  0.88878472  0.45368289  0.81634674  1
  S2-  S190  1  0.98844125  0.74066905  0.35947867  1
  S2-  S191  1  0.87273357  0.66075846  0.85508022  1
  S2-  S192  1  0.00124447  0.12135555  0.45567320  1
  S2-  S193  1  -0.00195651  0.12794636  0.95375766  1
  S2-  S194  1  -0.00003419  0.36752931  0.46272310  1
  S2-  S195  1  -0.00386434  0.38044708  0.94789164  1
  S2-  S196  1  -0.00260127  0.61689391  0.45960303  1
  S2-  S197  1  0.00192037  0.62997691  0.94722386  1
  S2-  S198  1  -0.00209563  0.87422779  0.45502726  1
  S2-  S199  1  -0.00449701  0.87958304  0.95465098  1
  S2-  S200  1  0.25208821  0.11838382  0.44934303  1
  S2-  S201  1  0.24539100  0.12918851  0.95506706  1
  S2-  S202  1  0.25182904  0.37035085  0.45273140  1
  S2-  S203  1  0.24190294  0.37674233  0.95597881  1
  S2-  S204  1  0.25133687  0.62045633  0.45586891  1
  S2-  S205  1  0.24831833  0.62442815  0.95343543  1
  S2-  S206  1  0.25259796  0.87447044  0.45291043  1
  S2-  S207  1  0.24626722  0.88155848  0.97109360  1
  S2-  S208  1  0.49933929  0.11983662  0.44296541  1
  S2-  S209  1  0.49818403  0.12974715  0.95533305  1
  S2-  S210  1  0.50056037  0.37124124  0.45059324  1
  S2-  S211  1  0.50027487  0.38107684  0.94971253  1
  S2-  S212  1  0.50150506  0.62036034  0.45256154  1
  S2-  S213  1  0.48985901  0.63271850  0.94708144  1
  S2-  S214  1  0.49613049  0.86843448  0.44690692  1
  S2-  S215  1  0.50485604  0.87864039  0.97083526  1
  S2-  S216  1  0.74878437  0.11747625  0.46263232  1
  S2-  S217  1  0.74880606  0.12941408  0.95174109  1
  S2-  S218  1  0.75334692  0.37277560  0.46643024  1
  S2-  S219  1  0.75191958  0.38219205  0.94537348  1
  S2-  S220  1  0.75380446  0.61888669  0.45855913  1
  S2-  S221  1  0.74905207  0.63055806  0.95004653  1
  S2-  S222  1  0.75265205  0.86601876  0.44268966  1
  S2-  S223  1  0.74943412  0.88063064  0.95806549  1
  S2-  S224  1  0.11983284  0.00506341  0.05203990  1
  S2-  S225  1  0.12438025  -0.00635280  0.54550031  1
  S2-  S226  1  0.12172307  0.25464919  0.05079617  1
  S2-  S227  1  0.12798411  0.24273266  0.55339218  1
  S2-  S228  1  0.11819410  0.50361569  0.04044163  1
  S2-  S229  1  0.12521341  0.49423516  0.55182296  1
  S2-  S230  1  0.11856641  0.74820895  0.03698397  1
  S2-  S231  1  0.12453348  0.74651592  0.54376137  1
  S2-  S232  1  0.37593013  0.00023752  0.06076950  1
  S2-  S233  1  0.37797027  -0.00362606  0.54308824  1
  S2-  S234  1  0.37154446  0.25516687  0.05231603  1
  S2-  S235  1  0.37543281  0.24033470  0.54576950  1
  S2-  S236  1  0.37634070  0.50371731  0.03467144  1
  S2-  S237  1  0.37606960  0.49659349  0.54463771  1
  S2-  S238  1  0.37079570  0.74983825  0.04515798  1
  S2-  S239  1  0.37721808  0.74339074  0.55231951  1
  S2-  S240  1  0.62657952  0.00522782  0.05623013  1
  S2-  S241  1  0.62215889  -0.01187817  0.53861505  1
  S2-  S242  1  0.62414472  0.25491496  0.04134026  1
  S2-  S243  1  0.62185925  0.24513637  0.53884944  1
  S2-  S244  1  0.62247473  0.50692054  0.03761900  1
  S2-  S245  1  0.62267154  0.49413049  0.55416506  1
  S2-  S246  1  0.62758322  0.74648942  0.03792286  1
  S2-  S247  1  0.62374672  0.74396524  0.54440365  1
  S2-  S248  1  0.86995110  0.00594650  0.05107147  1
  S2-  S249  1  0.87267790  -0.00749976  0.55113345  1
  S2-  S250  1  0.87112761  0.25516709  0.04415303  1
  S2-  S251  1  0.87686244  0.24290911  0.55282586  1
  S2-  S252  1  0.87287273  0.50556919  0.03930024  1
  S2-  S253  1  0.87546669  0.49248803  0.55955823  1
  S2-  S254  1  0.87109282  0.75122775  0.04725189  1
  S2-  S255  1  0.87473341  0.74654023  0.54582431  1
