# generated using pymatgen
data_La6Ce7Pr13Nd19Sm19(BiS2)64
_symmetry_space_group_name_H-M   'P 1'
_cell_length_a   16.11796713
_cell_length_b   16.06488691
_cell_length_c   27.28805224
_cell_angle_alpha   90.10908203
_cell_angle_beta   90.17468131
_cell_angle_gamma   89.90956628
_symmetry_Int_Tables_number   1
_chemical_formula_structural   La6Ce7Pr13Nd19Sm19(BiS2)64
_chemical_formula_sum   'La6 Ce7 Pr13 Nd19 Sm19 Bi64 S128'
_cell_volume   7065.73155860
_cell_formula_units_Z   1
loop_
 _symmetry_equiv_pos_site_id
 _symmetry_equiv_pos_as_xyz
  1  'x, y, z'
loop_
 _atom_type_symbol
 _atom_type_oxidation_number
  La3+  3.0
  Ce3+  3.0
  Pr3+  3.0
  Nd3+  3.0
  Sm3+  3.0
  Bi2+  2.0
  S2-  -2.0
loop_
 _atom_site_type_symbol
 _atom_site_label
 _atom_site_symmetry_multiplicity
 _atom_site_fract_x
 _atom_site_fract_y
 _atom_site_fract_z
 _atom_site_occupancy
  La3+  La0  1  0.25796209  0.60854554  0.58518385  1
  La3+  La1  1  -0.01407862  0.37851316  0.08807634  1
  La3+  La2  1  0.61549046  0.48430023  0.92094513  1
  La3+  La3  1  0.75103487  0.61264102  0.57962472  1
  La3+  La4  1  0.50198728  0.87722374  0.11651232  1
  La3+  La5  1  0.11692742  0.49351229  0.38562825  1
  Ce3+  Ce6  1  0.00604311  0.86565830  0.55954257  1
  Ce3+  Ce7  1  0.62893413  0.23823792  0.43644694  1
  Ce3+  Ce8  1  0.25414537  0.11853973  0.56539643  1
  Ce3+  Ce9  1  0.36788439  0.24767470  0.94683789  1
  Ce3+  Ce10  1  0.87277212  0.48861577  0.93717820  1
  Ce3+  Ce11  1  0.36706296  0.49019061  0.44325071  1
  Ce3+  Ce12  1  0.00376832  0.11463422  0.55604997  1
  Pr3+  Pr13  1  0.74012106  0.11696248  0.06570201  1
  Pr3+  Pr14  1  0.12857592  -0.00996179  0.43262139  1
  Pr3+  Pr15  1  0.50285135  0.36329767  0.55798880  1
  Pr3+  Pr16  1  0.50720171  0.11231570  0.55770886  1
  Pr3+  Pr17  1  0.11822451  -0.00483845  0.94295446  1
  Pr3+  Pr18  1  0.50296194  0.61308307  0.57105706  1
  Pr3+  Pr19  1  0.00734692  0.61231362  0.55882807  1
  Pr3+  Pr20  1  0.25255577  0.37561154  0.07488826  1
  Pr3+  Pr21  1  0.75022805  0.86539810  0.56644501  1
  Pr3+  Pr22  1  0.24764540  0.11675553  0.06524419  1
  Pr3+  Pr23  1  0.12772230  0.23801362  0.43035314  1
  Pr3+  Pr24  1  0.75213282  0.11952782  0.56758549  1
  Pr3+  Pr25  1  0.74695389  0.86477125  0.06492698  1
  Nd3+  Nd26  1  -0.00304362  0.61828683  0.05745690  1
  Nd3+  Nd27  1  0.36297154  0.48523949  0.92499411  1
  Nd3+  Nd28  1  0.36139885  0.74030233  0.91900964  1
  Nd3+  Nd29  1  0.24341427  0.61810232  0.04282649  1
  Nd3+  Nd30  1  0.86912538  0.74235342  0.93433155  1
  Nd3+  Nd31  1  0.48940576  0.62700305  0.05274433  1
  Nd3+  Nd32  1  0.00663062  0.36554019  0.55754238  1
  Nd3+  Nd33  1  -0.00437640  0.12079484  0.06915371  1
  Nd3+  Nd34  1  0.63709893  -0.01832151  0.42022849  1
  Nd3+  Nd35  1  0.25402972  0.86662460  0.56174764  1
  Nd3+  Nd36  1  0.86807624  -0.00561214  0.94871857  1
  Nd3+  Nd37  1  0.36912270  -0.00983183  0.94205818  1
  Nd3+  Nd38  1  0.12958400  0.73614066  0.44229068  1
  Nd3+  Nd39  1  0.25023361  0.35961946  0.56610959  1
  Nd3+  Nd40  1  0.11688044  0.24744135  0.95416314  1
  Nd3+  Nd41  1  0.38195387  -0.01160150  0.44347981  1
  Nd3+  Nd42  1  0.37528620  0.23899952  0.43643070  1
  Nd3+  Nd43  1  0.11319016  0.75014841  0.92368553  1
  Nd3+  Nd44  1  0.11250538  0.48111785  0.92130665  1
  Sm3+  Sm45  1  0.75309353  0.36509498  0.55914773  1
  Sm3+  Sm46  1  0.86914710  0.24399461  0.95439280  1
  Sm3+  Sm47  1  0.50740243  0.86602622  0.55830051  1
  Sm3+  Sm48  1  0.61773353  -0.00956400  0.94433181  1
  Sm3+  Sm49  1  0.62729994  0.73397065  0.43833071  1
  Sm3+  Sm50  1  0.87793317  0.73534961  0.44677704  1
  Sm3+  Sm51  1  0.61952408  0.24146265  0.94025966  1
  Sm3+  Sm52  1  0.24513494  0.86100016  0.06178455  1
  Sm3+  Sm53  1  0.87748006  0.24227353  0.43930107  1
  Sm3+  Sm54  1  0.87853266  0.49002157  0.43983607  1
  Sm3+  Sm55  1  0.37509525  0.73510467  0.44736727  1
  Sm3+  Sm56  1  0.74105180  0.61931714  0.04657139  1
  Sm3+  Sm57  1  0.49524125  0.11445823  0.05697447  1
  Sm3+  Sm58  1  0.62592964  0.49300323  0.43619558  1
  Sm3+  Sm59  1  0.61527433  0.74443710  0.94056128  1
  Sm3+  Sm60  1  0.73719443  0.37275384  0.06168783  1
  Sm3+  Sm61  1  0.49478074  0.37359363  0.06277060  1
  Sm3+  Sm62  1  0.87414720  -0.01159167  0.44687755  1
  Sm3+  Sm63  1  0.00010301  0.86651500  0.06479856  1
  Bi2+  Bi64  1  0.00400999  0.03735514  0.30776703  1
  Bi2+  Bi65  1  -0.02203195  0.15110342  0.80799216  1
  Bi2+  Bi66  1  -0.01587296  0.37062966  0.28300548  1
  Bi2+  Bi67  1  -0.00879595  0.34924775  0.79352081  1
  Bi2+  Bi68  1  -0.07325440  0.66759868  0.26390958  1
  Bi2+  Bi69  1  0.00030678  0.62589554  0.79025781  1
  Bi2+  Bi70  1  0.07122170  0.85816809  0.32745576  1
  Bi2+  Bi71  1  -0.01144171  0.90723555  0.79543415  1
  Bi2+  Bi72  1  0.27574493  0.11556593  0.29073406  1
  Bi2+  Bi73  1  0.23972629  0.11790577  0.79151001  1
  Bi2+  Bi74  1  0.24597729  0.36784710  0.28217395  1
  Bi2+  Bi75  1  0.23588290  0.36448844  0.79116652  1
  Bi2+  Bi76  1  0.27855099  0.63947323  0.29883671  1
  Bi2+  Bi77  1  0.27131366  0.62376833  0.77822828  1
  Bi2+  Bi78  1  0.25050646  0.85486338  0.28798733  1
  Bi2+  Bi79  1  0.26413568  0.88415134  0.79723221  1
  Bi2+  Bi80  1  0.54553884  0.16120587  0.27163059  1
  Bi2+  Bi81  1  0.52581334  0.13090649  0.79908539  1
  Bi2+  Bi82  1  0.51680079  0.43438012  0.30005360  1
  Bi2+  Bi83  1  0.50459895  0.40304602  0.79988154  1
  Bi2+  Bi84  1  0.55631843  0.62313699  0.26588394  1
  Bi2+  Bi85  1  0.52576511  0.65900766  0.79328812  1
  Bi2+  Bi86  1  0.48232673  0.87398547  0.32100451  1
  Bi2+  Bi87  1  0.49451664  0.97139898  0.73096369  1
  Bi2+  Bi88  1  0.80286121  0.13749453  0.29790873  1
  Bi2+  Bi89  1  0.72053996  0.13952898  0.78934563  1
  Bi2+  Bi90  1  0.71002677  0.38515359  0.28915206  1
  Bi2+  Bi91  1  0.80041120  0.37527903  0.77102067  1
  Bi2+  Bi92  1  0.75931388  0.57400620  0.30373976  1
  Bi2+  Bi93  1  0.80951650  0.67816619  0.79071937  1
  Bi2+  Bi94  1  0.78187580  0.86812062  0.29554890  1
  Bi2+  Bi95  1  0.72549097  0.87907124  0.78845989  1
  Bi2+  Bi96  1  0.11856749  -0.04292129  0.22240880  1
  Bi2+  Bi97  1  0.08563098  0.05523409  0.72977090  1
  Bi2+  Bi98  1  0.11890813  0.20038302  0.20345684  1
  Bi2+  Bi99  1  0.11789102  0.24880245  0.70495034  1
  Bi2+  Bi100  1  0.15056268  0.50719180  0.18229420  1
  Bi2+  Bi101  1  0.10502094  0.50388077  0.69543472  1
  Bi2+  Bi102  1  0.08732003  0.75680718  0.22029403  1
  Bi2+  Bi103  1  0.12025072  0.79347052  0.70895567  1
  Bi2+  Bi104  1  0.37049017  0.01083689  0.21438658  1
  Bi2+  Bi105  1  0.34418657  0.07350491  0.69435809  1
  Bi2+  Bi106  1  0.43839949  0.30017158  0.22369790  1
  Bi2+  Bi107  1  0.37840305  0.24440685  0.75298279  1
  Bi2+  Bi108  1  0.40585844  0.52228177  0.21658475  1
  Bi2+  Bi109  1  0.39743842  0.48733655  0.70653528  1
  Bi2+  Bi110  1  0.35070548  0.73037908  0.20062176  1
  Bi2+  Bi111  1  0.38058333  0.78381086  0.71560255  1
  Bi2+  Bi112  1  0.63081147  0.00744694  0.21815753  1
  Bi2+  Bi113  1  0.62779025  0.00181144  0.64866838  1
  Bi2+  Bi114  1  0.60447781  0.28881420  0.16451517  1
  Bi2+  Bi115  1  0.60841108  0.19878808  0.70053485  1
  Bi2+  Bi116  1  0.61682063  0.48241078  0.19298972  1
  Bi2+  Bi117  1  0.65025551  0.48403822  0.71238489  1
  Bi2+  Bi118  1  0.72444398  0.73893441  0.21694389  1
  Bi2+  Bi119  1  0.64671619  0.74379799  0.71649967  1
  Bi2+  Bi120  1  0.89263167  -0.02469285  0.22064442  1
  Bi2+  Bi121  1  0.79548649  0.00970426  0.70669048  1
  Bi2+  Bi122  1  0.78026750  0.25163550  0.20997273  1
  Bi2+  Bi123  1  0.85661056  0.21376731  0.71271177  1
  Bi2+  Bi124  1  0.84405728  0.51855595  0.20326020  1
  Bi2+  Bi125  1  0.87202738  0.53575888  0.71859898  1
  Bi2+  Bi126  1  0.90266505  0.79654809  0.17308608  1
  Bi2+  Bi127  1  0.87750410  0.81931229  0.71524619  1
  S2-  S128  1  0.00504345  0.08687328  0.16563339  1
  S2-  S129  1  -0.00145340  0.14446478  0.65215851  1
  S2-  S130  1  0.00611341  0.30495811  0.18303967  1
  S2-  S131  1  0.01984963  0.37983866  0.65847172  1
  S2-  S132  1  -0.00485572  0.53470264  0.14569032  1
  S2-  S133  1  -0.01184954  0.61716876  0.65947462  1
  S2-  S134  1  0.12007457  0.85470144  0.13631253  1
  S2-  S135  1  0.01376621  0.88736871  0.65614772  1
  S2-  S136  1  0.26449006  0.11263599  0.16592451  1
  S2-  S137  1  0.23849651  0.23167660  0.63965169  1
  S2-  S138  1  0.20847524  0.33950890  0.17447802  1
  S2-  S139  1  0.25688662  0.45463130  0.65356629  1
  S2-  S140  1  0.23421953  0.63750529  0.14307007  1
  S2-  S141  1  0.19251742  0.65605037  0.68044952  1
  S2-  S142  1  0.33295213  0.87458404  0.14724798  1
  S2-  S143  1  0.25452575  0.86976168  0.66239674  1
  S2-  S144  1  0.50167210  0.05361096  0.14889467  1
  S2-  S145  1  0.46509757  0.17918713  0.64817179  1
  S2-  S146  1  0.39402232  0.41331272  0.13973246  1
  S2-  S147  1  0.52333578  0.40958846  0.65524617  1
  S2-  S148  1  0.48174209  0.70467923  0.14249809  1
  S2-  S149  1  0.39699594  0.62607775  0.65478855  1
  S2-  S150  1  0.50467878  0.88648915  0.22731759  1
  S2-  S151  1  0.49680918  0.83421180  0.65594047  1
  S2-  S152  1  0.74931608  0.08996071  0.16493213  1
  S2-  S153  1  0.74350944  0.24838958  0.63822346  1
  S2-  S154  1  0.82803040  0.38435717  0.14475524  1
  S2-  S155  1  0.76840073  0.46703739  0.64030390  1
  S2-  S156  1  0.72413809  0.60815368  0.14434960  1
  S2-  S157  1  0.61428976  0.61249799  0.65117419  1
  S2-  S158  1  0.66867554  0.87174206  0.15436999  1
  S2-  S159  1  0.76479634  0.75506986  0.64518298  1
  S2-  S160  1  0.14422786  0.10922764  0.35643551  1
  S2-  S161  1  0.12400587  -0.08071523  0.85317819  1
  S2-  S162  1  0.12097017  0.32816890  0.34268508  1
  S2-  S163  1  0.12234640  0.32311152  0.86461667  1
  S2-  S164  1  0.11633328  0.48644689  0.27451410  1
  S2-  S165  1  0.19598901  0.50999979  0.83073653  1
  S2-  S166  1  0.13849091  0.66173184  0.35218130  1
  S2-  S167  1  0.22121832  0.73087849  0.84452416  1
  S2-  S168  1  0.33721051  -0.02475391  0.34701333  1
  S2-  S169  1  0.34522967  0.00300692  0.84299953  1
  S2-  S170  1  0.34173594  0.24409262  0.33785403  1
  S2-  S171  1  0.36634828  0.33885115  0.86367070  1
  S2-  S172  1  0.29145468  0.48592227  0.35388472  1
  S2-  S173  1  0.40591031  0.55317111  0.83422660  1
  S2-  S174  1  0.40221736  0.71848293  0.34952899  1
  S2-  S175  1  0.41280961  0.78129076  0.82269406  1
  S2-  S176  1  0.54744042  0.03121342  0.33730106  1
  S2-  S177  1  0.63770180  0.01310925  0.84763711  1
  S2-  S178  1  0.65899354  0.23255617  0.33987393  1
  S2-  S179  1  0.61336146  0.33018507  0.85691722  1
  S2-  S180  1  0.62553921  0.61332448  0.36445101  1
  S2-  S181  1  0.62562138  0.52877894  0.82113378  1
  S2-  S182  1  0.63566911  0.83628728  0.35749573  1
  S2-  S183  1  0.63506681  0.76452841  0.84389982  1
  S2-  S184  1  0.78455871  0.00318606  0.36290556  1
  S2-  S185  1  0.89627976  0.01313314  0.85143641  1
  S2-  S186  1  0.90797128  0.24436872  0.34172855  1
  S2-  S187  1  0.87152210  0.27117182  0.85768283  1
  S2-  S188  1  0.94759018  0.48405008  0.34926600  1
  S2-  S189  1  0.97222797  0.49129378  0.85676040  1
  S2-  S190  1  0.87067575  0.74925373  0.34850563  1
  S2-  S191  1  0.97751752  0.75485118  0.85683606  1
  S2-  S192  1  -0.00376192  0.11278264  0.45055999  1
  S2-  S193  1  -0.00703792  0.12057456  0.96204827  1
  S2-  S194  1  0.00165771  0.36638390  0.45216122  1
  S2-  S195  1  -0.00980670  0.36628521  0.96847235  1
  S2-  S196  1  0.00346510  0.61218857  0.45252188  1
  S2-  S197  1  -0.00485682  0.61641813  0.95333053  1
  S2-  S198  1  0.00025789  0.86440426  0.45433778  1
  S2-  S199  1  -0.00874422  0.87203318  0.96133583  1
  S2-  S200  1  0.25721209  0.11150818  0.45884412  1
  S2-  S201  1  0.24386846  0.12068447  0.95651337  1
  S2-  S202  1  0.25121904  0.35976714  0.45710338  1
  S2-  S203  1  0.24242992  0.36928871  0.96623022  1
  S2-  S204  1  0.25301523  0.61731086  0.46425810  1
  S2-  S205  1  0.23785642  0.61129373  0.94052801  1
  S2-  S206  1  0.25365677  0.86398855  0.45484818  1
  S2-  S207  1  0.24426368  0.86867516  0.95438832  1
  S2-  S208  1  0.50316966  0.11518351  0.44975512  1
  S2-  S209  1  0.49489823  0.11843553  0.95153384  1
  S2-  S210  1  0.50231981  0.36660550  0.44703000  1
  S2-  S211  1  0.49564238  0.36613531  0.96018847  1
  S2-  S212  1  0.49788999  0.61129407  0.46150783  1
  S2-  S213  1  0.49469682  0.61883340  0.94475084  1
  S2-  S214  1  0.50152059  0.85974651  0.45446428  1
  S2-  S215  1  0.49504023  0.86913284  0.93952732  1
  S2-  S216  1  0.75572402  0.11962847  0.45932554  1
  S2-  S217  1  0.74258734  0.11928021  0.95728060  1
  S2-  S218  1  0.75280786  0.36882663  0.44875305  1
  S2-  S219  1  0.74413022  0.36597640  0.95756424  1
  S2-  S220  1  0.75608463  0.61293186  0.46175709  1
  S2-  S221  1  0.74284923  0.61697195  0.94160390  1
  S2-  S222  1  0.75722901  0.85797999  0.46003661  1
  S2-  S223  1  0.74443072  0.86775775  0.95434100  1
  S2-  S224  1  0.12012549  -0.00480627  0.04871925  1
  S2-  S225  1  0.13008244  -0.00801706  0.54501070  1
  S2-  S226  1  0.12089941  0.24559889  0.05940586  1
  S2-  S227  1  0.12472644  0.23751251  0.53832539  1
  S2-  S228  1  0.11992560  0.49114760  0.04595196  1
  S2-  S229  1  0.13003537  0.48891027  0.55365666  1
  S2-  S230  1  0.11713176  0.74212623  0.03363762  1
  S2-  S231  1  0.13162762  0.74046383  0.55065705  1
  S2-  S232  1  0.37189619  -0.00828988  0.04635324  1
  S2-  S233  1  0.38033952  -0.01103164  0.55080378  1
  S2-  S234  1  0.37501565  0.24224502  0.05386825  1
  S2-  S235  1  0.37929949  0.23870645  0.54098673  1
  S2-  S236  1  0.37206629  0.49806662  0.03307654  1
  S2-  S237  1  0.37790421  0.48647778  0.54756470  1
  S2-  S238  1  0.36322154  0.74225061  0.02927272  1
  S2-  S239  1  0.37975584  0.74514598  0.55084962  1
  S2-  S240  1  0.61738779  -0.01108427  0.04746516  1
  S2-  S241  1  0.63060187  -0.01186451  0.53178788  1
  S2-  S242  1  0.61646411  0.24312524  0.04380587  1
  S2-  S243  1  0.62695070  0.24133476  0.54024147  1
  S2-  S244  1  0.61616441  0.49636549  0.03862607  1
  S2-  S245  1  0.62891369  0.48618603  0.53940397  1
  S2-  S246  1  0.61966055  0.74533888  0.04335981  1
  S2-  S247  1  0.62491419  0.74077218  0.54402931  1
  S2-  S248  1  0.87230520  -0.00778854  0.05527056  1
  S2-  S249  1  0.87662807  -0.01018470  0.55167215  1
  S2-  S250  1  0.86552229  0.24173991  0.05754256  1
  S2-  S251  1  0.88018132  0.24218757  0.54363269  1
  S2-  S252  1  0.86325066  0.49759563  0.04143277  1
  S2-  S253  1  0.88046903  0.48776419  0.54297338  1
  S2-  S254  1  0.86989140  0.74033765  0.04061564  1
  S2-  S255  1  0.88299814  0.73985927  0.54927023  1
