# generated using pymatgen
data_La6Ce7Pr13Nd19Sm19(BiS2)64
_symmetry_space_group_name_H-M   'P 1'
_cell_length_a   16.05137555
_cell_length_b   16.04384954
_cell_length_c   27.48833614
_cell_angle_alpha   89.89269927
_cell_angle_beta   89.74045048
_cell_angle_gamma   89.94660459
_symmetry_Int_Tables_number   1
_chemical_formula_structural   La6Ce7Pr13Nd19Sm19(BiS2)64
_chemical_formula_sum   'La6 Ce7 Pr13 Nd19 Sm19 Bi64 S128'
_cell_volume   7078.86918227
_cell_formula_units_Z   1
loop_
 _symmetry_equiv_pos_site_id
 _symmetry_equiv_pos_as_xyz
  1  'x, y, z'
loop_
 _atom_type_symbol
 _atom_type_oxidation_number
  La3+  3.0
  Ce3+  3.0
  Pr3+  3.0
  Nd3+  3.0
  Sm3+  3.0
  Bi2+  2.0
  S2-  -2.0
loop_
 _atom_site_type_symbol
 _atom_site_label
 _atom_site_symmetry_multiplicity
 _atom_site_fract_x
 _atom_site_fract_y
 _atom_site_fract_z
 _atom_site_occupancy
  La3+  La0  1  0.62977477  -0.02168186  0.89214789  1
  La3+  La1  1  0.25657010  0.59515143  0.08483793  1
  La3+  La2  1  -0.00275153  0.61122487  0.57218121  1
  La3+  La3  1  0.24356751  0.09883062  0.07137153  1
  La3+  La4  1  -0.00319731  0.60022554  0.08484028  1
  La3+  La5  1  0.11547071  0.73977356  0.40702063  1
  Ce3+  Ce6  1  0.12453729  0.71731327  0.94068451  1
  Ce3+  Ce7  1  0.88140794  -0.01166505  0.43910193  1
  Ce3+  Ce8  1  0.62838423  0.47800206  0.94199784  1
  Ce3+  Ce9  1  0.74659350  0.86615331  0.56337976  1
  Ce3+  Ce10  1  0.62623723  0.22045838  0.94156152  1
  Ce3+  Ce11  1  0.25083268  0.84567955  0.05820166  1
  Ce3+  Ce12  1  0.87340608  0.73833030  0.44355936  1
  Pr3+  Pr13  1  0.50197916  0.34935541  0.06140888  1
  Pr3+  Pr14  1  -0.00218577  0.86580849  0.55657106  1
  Pr3+  Pr15  1  0.88048871  -0.02953400  0.93025520  1
  Pr3+  Pr16  1  0.37664400  0.71641141  0.93062466  1
  Pr3+  Pr17  1  0.12858455  0.22668315  0.93115366  1
  Pr3+  Pr18  1  0.25069430  0.36718704  0.55087416  1
  Pr3+  Pr19  1  0.62216678  0.24352521  0.44754097  1
  Pr3+  Pr20  1  0.37697496  0.47700130  0.93895371  1
  Pr3+  Pr21  1  0.75139870  0.59937607  0.06770038  1
  Pr3+  Pr22  1  0.62809263  0.71936870  0.92864398  1
  Pr3+  Pr23  1  0.13573413  -0.03125340  0.92043357  1
  Pr3+  Pr24  1  0.37750687  0.22062319  0.94885105  1
  Pr3+  Pr25  1  0.37886407  -0.01175120  0.43595369  1
  Nd3+  Nd26  1  0.48831990  0.37202158  0.57636874  1
  Nd3+  Nd27  1  0.62440977  -0.01111548  0.43460390  1
  Nd3+  Nd28  1  0.74145773  0.11454599  0.55940586  1
  Nd3+  Nd29  1  0.24907486  0.11266406  0.56143732  1
  Nd3+  Nd30  1  0.62597528  0.49215240  0.43725858  1
  Nd3+  Nd31  1  0.74728481  0.85124916  0.05248852  1
  Nd3+  Nd32  1  0.24911124  0.35064544  0.06107120  1
  Nd3+  Nd33  1  0.87859091  0.22044626  0.94781679  1
  Nd3+  Nd34  1  0.00247103  0.09267074  0.06249557  1
  Nd3+  Nd35  1  0.87824797  0.47559686  0.94005460  1
  Nd3+  Nd36  1  0.49515288  0.61679962  0.56695331  1
  Nd3+  Nd37  1  0.49490835  0.86071893  0.56792242  1
  Nd3+  Nd38  1  0.37503003  0.49368003  0.42985055  1
  Nd3+  Nd39  1  0.24370214  0.86632969  0.54927402  1
  Nd3+  Nd40  1  0.74247355  0.36692688  0.56667014  1
  Nd3+  Nd41  1  0.74712921  0.61041734  0.58197171  1
  Nd3+  Nd42  1  0.14086665  0.01491795  0.38648858  1
  Nd3+  Nd43  1  -0.00215344  0.35935526  0.57230991  1
  Nd3+  Nd44  1  0.75095570  0.34718824  0.05524350  1
  Sm3+  Sm45  1  0.00373882  0.84853295  0.06528717  1
  Sm3+  Sm46  1  0.50124201  0.09403653  0.05814089  1
  Sm3+  Sm47  1  0.87564965  0.23912636  0.44852521  1
  Sm3+  Sm48  1  0.50142337  0.60261120  0.06569051  1
  Sm3+  Sm49  1  0.24677322  0.61613420  0.54929735  1
  Sm3+  Sm50  1  0.00181160  0.35019097  0.06494821  1
  Sm3+  Sm51  1  0.75008807  0.09420974  0.05428953  1
  Sm3+  Sm52  1  0.37555687  -0.02838726  0.94089343  1
  Sm3+  Sm53  1  0.12153939  0.24043051  0.44425600  1
  Sm3+  Sm54  1  0.50135818  0.84913627  0.04586142  1
  Sm3+  Sm55  1  0.62473009  0.73821972  0.44942915  1
  Sm3+  Sm56  1  0.49684196  0.11116705  0.56228577  1
  Sm3+  Sm57  1  0.37183266  0.24013844  0.44148583  1
  Sm3+  Sm58  1  -0.00294209  0.11631468  0.56377511  1
  Sm3+  Sm59  1  0.11290379  0.49399057  0.43214977  1
  Sm3+  Sm60  1  0.37214832  0.74271469  0.43663471  1
  Sm3+  Sm61  1  0.87690099  0.72279614  0.94634994  1
  Sm3+  Sm62  1  0.12507604  0.47741752  0.94223968  1
  Sm3+  Sm63  1  0.87025459  0.49110790  0.44366957  1
  Bi2+  Bi64  1  -0.02263535  0.14750056  0.29468299  1
  Bi2+  Bi65  1  -0.03335182  0.11108625  0.79756629  1
  Bi2+  Bi66  1  -0.01414866  0.36026515  0.29198904  1
  Bi2+  Bi67  1  -0.02497829  0.42354969  0.80853202  1
  Bi2+  Bi68  1  -0.00571182  0.60821870  0.29343010  1
  Bi2+  Bi69  1  0.02477000  0.69084501  0.81051254  1
  Bi2+  Bi70  1  -0.06786803  0.87966589  0.28334598  1
  Bi2+  Bi71  1  -0.00000204  0.91744580  0.80389814  1
  Bi2+  Bi72  1  0.26093644  0.13992591  0.28480701  1
  Bi2+  Bi73  1  0.24590913  0.11355768  0.79604782  1
  Bi2+  Bi74  1  0.25838334  0.37321315  0.24438329  1
  Bi2+  Bi75  1  0.23575389  0.34793338  0.78939090  1
  Bi2+  Bi76  1  0.26955135  0.64466229  0.28827841  1
  Bi2+  Bi77  1  0.23708206  0.62792006  0.75434185  1
  Bi2+  Bi78  1  0.29976796  0.88088024  0.28039688  1
  Bi2+  Bi79  1  0.16456627  0.89877628  0.73829356  1
  Bi2+  Bi80  1  0.54351008  0.11318353  0.28911861  1
  Bi2+  Bi81  1  0.48472791  0.19301154  0.79738257  1
  Bi2+  Bi82  1  0.52507440  0.41057694  0.32783128  1
  Bi2+  Bi83  1  0.50790323  0.38728532  0.78168301  1
  Bi2+  Bi84  1  0.51819465  0.60087980  0.30124213  1
  Bi2+  Bi85  1  0.49481312  0.66238440  0.80581828  1
  Bi2+  Bi86  1  0.57464349  0.87314745  0.28822106  1
  Bi2+  Bi87  1  0.40969150  0.93481891  0.78263679  1
  Bi2+  Bi88  1  0.74078295  0.08320201  0.28914253  1
  Bi2+  Bi89  1  0.76087358  0.19220676  0.78565836  1
  Bi2+  Bi90  1  0.70940489  0.36201476  0.30103779  1
  Bi2+  Bi91  1  0.70671725  0.38477903  0.79755721  1
  Bi2+  Bi92  1  0.72532644  0.61795278  0.29593337  1
  Bi2+  Bi93  1  0.74905339  0.65887508  0.80569264  1
  Bi2+  Bi94  1  0.75522047  0.90670710  0.33530736  1
  Bi2+  Bi95  1  0.79544209  0.92499775  0.75569007  1
  Bi2+  Bi96  1  0.14435150  0.00095033  0.18454322  1
  Bi2+  Bi97  1  0.11766889  0.07981372  0.69968958  1
  Bi2+  Bi98  1  0.10259989  0.26677403  0.21295926  1
  Bi2+  Bi99  1  0.06622906  0.27364597  0.73120785  1
  Bi2+  Bi100  1  0.10235747  0.49916315  0.22525315  1
  Bi2+  Bi101  1  0.12114753  0.46842443  0.72886599  1
  Bi2+  Bi102  1  0.11473002  0.77125189  0.21110314  1
  Bi2+  Bi103  1  0.08826226  0.72880472  0.70355877  1
  Bi2+  Bi104  1  0.40703906  -0.01139702  0.19631159  1
  Bi2+  Bi105  1  0.36672021  0.07115917  0.70531981  1
  Bi2+  Bi106  1  0.44338310  0.27554832  0.25487942  1
  Bi2+  Bi107  1  0.37297075  0.28080581  0.71568540  1
  Bi2+  Bi108  1  0.40707896  0.48444982  0.20011510  1
  Bi2+  Bi109  1  0.37458715  0.51125312  0.70487520  1
  Bi2+  Bi110  1  0.49207516  0.74153299  0.21636444  1
  Bi2+  Bi111  1  0.33818167  0.76880042  0.70217049  1
  Bi2+  Bi112  1  0.64626429  -0.03290056  0.19057725  1
  Bi2+  Bi113  1  0.60648569  0.05054245  0.70358236  1
  Bi2+  Bi114  1  0.70529542  0.23141320  0.21467589  1
  Bi2+  Bi115  1  0.64834805  0.28233284  0.70514593  1
  Bi2+  Bi116  1  0.60768522  0.47531026  0.21986802  1
  Bi2+  Bi117  1  0.63677727  0.51845164  0.71736584  1
  Bi2+  Bi118  1  0.65745584  0.65367016  0.18213545  1
  Bi2+  Bi119  1  0.59623785  0.80260208  0.70294710  1
  Bi2+  Bi120  1  0.89204244  0.03389662  0.21419096  1
  Bi2+  Bi121  1  0.92491821  0.03435277  0.69544589  1
  Bi2+  Bi122  1  0.90246726  0.26369476  0.20177162  1
  Bi2+  Bi123  1  0.86427090  0.32837999  0.72283643  1
  Bi2+  Bi124  1  0.86390805  0.46998307  0.20957811  1
  Bi2+  Bi125  1  0.90090892  0.51974294  0.71392855  1
  Bi2+  Bi126  1  0.78483891  0.77813729  0.24035613  1
  Bi2+  Bi127  1  0.89589077  0.76942999  0.72035440  1
  S2-  S128  1  0.10500252  0.15056493  0.13825906  1
  S2-  S129  1  0.00018824  0.22587454  0.64126269  1
  S2-  S130  1  0.01146327  0.45148843  0.14573372  1
  S2-  S131  1  0.02319488  0.48000543  0.64289774  1
  S2-  S132  1  0.00419369  0.74527161  0.14678023  1
  S2-  S133  1  -0.11924529  0.64451064  0.64876274  1
  S2-  S134  1  -0.01052226  0.96976403  0.13775304  1
  S2-  S135  1  -0.02639111  0.88237683  0.65580827  1
  S2-  S136  1  0.30093998  0.10089310  0.17065703  1
  S2-  S137  1  0.24946883  0.16902775  0.65537107  1
  S2-  S138  1  0.26399110  0.43693098  0.14583321  1
  S2-  S139  1  0.33922455  0.38281113  0.63664378  1
  S2-  S140  1  0.19192866  0.63690549  0.18159337  1
  S2-  S141  1  0.27498232  0.61678210  0.64654230  1
  S2-  S142  1  0.24490678  0.86306935  0.15687291  1
  S2-  S143  1  0.26481701  0.88399660  0.64835652  1
  S2-  S144  1  0.52133102  0.08791300  0.15544152  1
  S2-  S145  1  0.49749195  0.16209460  0.65569618  1
  S2-  S146  1  0.50081118  0.34517789  0.16081997  1
  S2-  S147  1  0.50815890  0.50364420  0.64464914  1
  S2-  S148  1  0.40330621  0.62445017  0.14605744  1
  S2-  S149  1  0.47587529  0.73683079  0.64245813  1
  S2-  S150  1  0.50125278  0.86172364  0.14451915  1
  S2-  S151  1  0.51405963  0.94470835  0.65535482  1
  S2-  S152  1  0.75367763  0.09153695  0.15176398  1
  S2-  S153  1  0.72907767  0.14325545  0.65681701  1
  S2-  S154  1  0.75664214  0.36497188  0.15266481  1
  S2-  S155  1  0.74604295  0.46930622  0.64629760  1
  S2-  S156  1  0.84965987  0.59689021  0.15110288  1
  S2-  S157  1  0.67101340  0.67062842  0.67286332  1
  S2-  S158  1  0.75641229  0.86568488  0.15172622  1
  S2-  S159  1  0.72285887  0.89188673  0.65910963  1
  S2-  S160  1  0.14875428  0.00772258  0.27866583  1
  S2-  S161  1  0.11696627  0.10935229  0.85580897  1
  S2-  S162  1  0.13431811  0.18221157  0.35296040  1
  S2-  S163  1  0.12051697  0.36248321  0.86417464  1
  S2-  S164  1  0.14474616  0.59158151  0.34788363  1
  S2-  S165  1  0.11956919  0.59559259  0.86804010  1
  S2-  S166  1  0.16848390  0.79928193  0.31299991  1
  S2-  S167  1  0.11752485  0.82309311  0.85828541  1
  S2-  S168  1  0.30411298  0.01614638  0.34721902  1
  S2-  S169  1  0.28951744  -0.01867094  0.85672788  1
  S2-  S170  1  0.36601395  0.23611190  0.34406337  1
  S2-  S171  1  0.33868786  0.23664558  0.85245561  1
  S2-  S172  1  0.35357382  0.53011590  0.33248105  1
  S2-  S173  1  0.38272536  0.57996758  0.85819652  1
  S2-  S174  1  0.36884260  0.76280600  0.33881314  1
  S2-  S175  1  0.39583124  0.78378622  0.83566795  1
  S2-  S176  1  0.51117821  -0.01564870  0.35948857  1
  S2-  S177  1  0.56529440  -0.03055125  0.79540921  1
  S2-  S178  1  0.62603939  0.22140638  0.34891349  1
  S2-  S179  1  0.62520608  0.15127784  0.85271239  1
  S2-  S180  1  0.75252342  0.49438312  0.36574686  1
  S2-  S181  1  0.62146499  0.57532612  0.86107276  1
  S2-  S182  1  0.61139215  0.72371767  0.35174982  1
  S2-  S183  1  0.63783245  0.77255645  0.83000763  1
  S2-  S184  1  0.97507724  -0.00311169  0.35585550  1
  S2-  S185  1  0.78548181  -0.01920546  0.84542971  1
  S2-  S186  1  0.88092934  0.24967327  0.35136447  1
  S2-  S187  1  0.89086941  0.23992628  0.85048476  1
  S2-  S188  1  0.97733982  0.48270436  0.36610249  1
  S2-  S189  1  0.85776182  0.52907274  0.84610931  1
  S2-  S190  1  0.95435733  0.73053804  0.35485886  1
  S2-  S191  1  0.86365360  0.74949673  0.84902288  1
  S2-  S192  1  0.00161650  0.11771120  0.46010687  1
  S2-  S193  1  0.00157805  0.09574085  0.95624708  1
  S2-  S194  1  -0.00165269  0.36089683  0.46420339  1
  S2-  S195  1  -0.00229610  0.35006783  0.96194370  1
  S2-  S196  1  -0.00090957  0.61729298  0.46241132  1
  S2-  S197  1  -0.00502958  0.59860391  0.96637716  1
  S2-  S198  1  0.00122824  0.86114539  0.45298487  1
  S2-  S199  1  -0.00051691  0.84663113  0.95901401  1
  S2-  S200  1  0.24739904  0.11576533  0.45540113  1
  S2-  S201  1  0.25277741  0.09806690  0.96132466  1
  S2-  S202  1  0.24578225  0.36807413  0.44330512  1
  S2-  S203  1  0.25567284  0.35220445  0.95784635  1
  S2-  S204  1  0.24763044  0.61976649  0.44757886  1
  S2-  S205  1  0.25254612  0.59601479  0.96589186  1
  S2-  S206  1  0.24217190  0.86690202  0.44332562  1
  S2-  S207  1  0.25651449  0.84384537  0.95412632  1
  S2-  S208  1  0.49693001  0.11914826  0.45707936  1
  S2-  S209  1  0.50206024  0.09205539  0.95179891  1
  S2-  S210  1  0.49347894  0.36670025  0.45947502  1
  S2-  S211  1  0.50326723  0.34972209  0.95203074  1
  S2-  S212  1  0.49734605  0.61757175  0.45337177  1
  S2-  S213  1  0.50402186  0.59905433  0.96321649  1
  S2-  S214  1  0.50028590  0.85916768  0.45901213  1
  S2-  S215  1  0.50695176  0.85479009  0.94201480  1
  S2-  S216  1  0.74929559  0.11457192  0.45291093  1
  S2-  S217  1  0.75160343  0.09607986  0.95129382  1
  S2-  S218  1  0.75044419  0.36250505  0.46153194  1
  S2-  S219  1  0.75205249  0.34762654  0.94988950  1
  S2-  S220  1  0.74793580  0.61643547  0.46505285  1
  S2-  S221  1  0.75417022  0.59953972  0.96117664  1
  S2-  S222  1  0.74782729  0.86474526  0.45778824  1
  S2-  S223  1  0.74785279  0.84961474  0.94792911  1
  S2-  S224  1  0.12864722  -0.02992300  0.03905600  1
  S2-  S225  1  0.12062761  -0.00573993  0.55676732  1
  S2-  S226  1  0.12501015  0.23229296  0.03710622  1
  S2-  S227  1  0.12756552  0.24025236  0.54620233  1
  S2-  S228  1  0.12629887  0.47443316  0.04639569  1
  S2-  S229  1  0.12718699  0.48977359  0.53725834  1
  S2-  S230  1  0.12917151  0.72044318  0.04914966  1
  S2-  S231  1  0.12364706  0.73862116  0.55298597  1
  S2-  S232  1  0.37614550  -0.02592047  0.04514592  1
  S2-  S233  1  0.37422605  -0.01046593  0.54446927  1
  S2-  S234  1  0.37641469  0.22274172  0.05506987  1
  S2-  S235  1  0.37545919  0.23758893  0.54495946  1
  S2-  S236  1  0.38167476  0.47492211  0.04469166  1
  S2-  S237  1  0.37273357  0.49636977  0.53554217  1
  S2-  S238  1  0.37929270  0.72576674  0.04120557  1
  S2-  S239  1  0.36775902  0.74078014  0.53911306  1
  S2-  S240  1  0.62387665  -0.02455935  0.04461157  1
  S2-  S241  1  0.61950369  -0.01017902  0.54180147  1
  S2-  S242  1  0.62607815  0.21971378  0.04829954  1
  S2-  S243  1  0.61491811  0.24385958  0.55221144  1
  S2-  S244  1  0.62574522  0.47538841  0.05000806  1
  S2-  S245  1  0.61875934  0.48927621  0.54208226  1
  S2-  S246  1  0.62384976  0.72434516  0.04243062  1
  S2-  S247  1  0.62593824  0.73801512  0.55107776  1
  S2-  S248  1  0.87252383  -0.02693326  0.03749412  1
  S2-  S249  1  0.87158536  -0.00504739  0.54701313  1
  S2-  S250  1  0.87684633  0.22153325  0.05303745  1
  S2-  S251  1  0.86570758  0.23964577  0.55138885  1
  S2-  S252  1  0.87469304  0.46945549  0.04599644  1
  S2-  S253  1  0.87320677  0.48389051  0.54659490  1
  S2-  S254  1  0.87285658  0.72902173  0.04828150  1
  S2-  S255  1  0.86931901  0.74262794  0.54739253  1
