# generated using pymatgen
data_La6Ce7Pr13Nd19Sm19(BiS2)64
_symmetry_space_group_name_H-M   'P 1'
_cell_length_a   16.11490046
_cell_length_b   16.12428630
_cell_length_c   27.35350331
_cell_angle_alpha   89.91321636
_cell_angle_beta   90.33008642
_cell_angle_gamma   90.07380144
_symmetry_Int_Tables_number   1
_chemical_formula_structural   La6Ce7Pr13Nd19Sm19(BiS2)64
_chemical_formula_sum   'La6 Ce7 Pr13 Nd19 Sm19 Bi64 S128'
_cell_volume   7107.43708042
_cell_formula_units_Z   1
loop_
 _symmetry_equiv_pos_site_id
 _symmetry_equiv_pos_as_xyz
  1  'x, y, z'
loop_
 _atom_type_symbol
 _atom_type_oxidation_number
  La3+  3.0
  Ce3+  3.0
  Pr3+  3.0
  Nd3+  3.0
  Sm3+  3.0
  Bi2+  2.0
  S2-  -2.0
loop_
 _atom_site_type_symbol
 _atom_site_label
 _atom_site_symmetry_multiplicity
 _atom_site_fract_x
 _atom_site_fract_y
 _atom_site_fract_z
 _atom_site_occupancy
  La3+  La0  1  0.74801245  0.85332501  0.61439834  1
  La3+  La1  1  0.86297825  0.75420464  0.91832119  1
  La3+  La2  1  0.38811619  -0.00858764  0.93187454  1
  La3+  La3  1  0.14111497  0.49762120  0.89365441  1
  La3+  La4  1  0.49063975  0.12525736  0.07589613  1
  La3+  La5  1  -0.00583652  0.36084810  0.58043779  1
  Ce3+  Ce6  1  0.26498665  0.11499863  0.56896822  1
  Ce3+  Ce7  1  0.74980482  0.36844499  0.55831257  1
  Ce3+  Ce8  1  0.12702192  0.73880224  0.44400897  1
  Ce3+  Ce9  1  0.37983556  0.49701403  0.94270150  1
  Ce3+  Ce10  1  0.12709584  0.48670484  0.45016719  1
  Ce3+  Ce11  1  0.87582713  0.74134928  0.43388354  1
  Ce3+  Ce12  1  -0.00312758  0.86598145  0.56019196  1
  Pr3+  Pr13  1  0.00466604  0.87323220  0.05413991  1
  Pr3+  Pr14  1  0.37832837  0.74639803  0.93975455  1
  Pr3+  Pr15  1  0.12842595  0.24744416  0.92328780  1
  Pr3+  Pr16  1  0.76575931  0.62240813  0.07019469  1
  Pr3+  Pr17  1  0.61777776  0.74463226  0.42316761  1
  Pr3+  Pr18  1  0.61833185  0.24114027  0.43119999  1
  Pr3+  Pr19  1  0.25138148  0.61442845  0.56766727  1
  Pr3+  Pr20  1  0.50248647  0.86532603  0.07511918  1
  Pr3+  Pr21  1  0.12554268  0.24121160  0.44247560  1
  Pr3+  Pr22  1  0.88006334  0.48464955  0.43361742  1
  Pr3+  Pr23  1  0.87864525  0.49406526  0.92880665  1
  Pr3+  Pr24  1  0.38835811  0.24328268  0.91396516  1
  Pr3+  Pr25  1  0.50765936  0.36639032  0.56544282  1
  Nd3+  Nd26  1  0.86730586  0.24029956  0.43120160  1
  Nd3+  Nd27  1  0.37239507  0.73888880  0.43785794  1
  Nd3+  Nd28  1  0.63282911  0.49810070  0.93952525  1
  Nd3+  Nd29  1  0.75342788  0.11217087  0.56148746  1
  Nd3+  Nd30  1  0.76218640  0.37394707  0.06994295  1
  Nd3+  Nd31  1  -0.00096995  0.61659422  0.55874277  1
  Nd3+  Nd32  1  0.74966670  0.12027592  0.06875961  1
  Nd3+  Nd33  1  0.24843598  0.36908794  0.05485166  1
  Nd3+  Nd34  1  0.24999562  0.61900886  0.05289736  1
  Nd3+  Nd35  1  0.50490961  0.61806670  0.55688929  1
  Nd3+  Nd36  1  0.63095012  0.74693700  0.95558427  1
  Nd3+  Nd37  1  0.25969712  0.35703979  0.58458179  1
  Nd3+  Nd38  1  0.00698169  0.12165813  0.05232818  1
  Nd3+  Nd39  1  0.62630016  0.49326298  0.43207032  1
  Nd3+  Nd40  1  0.87425231  -0.01113481  0.43996768  1
  Nd3+  Nd41  1  0.12818890  -0.00074055  0.92759347  1
  Nd3+  Nd42  1  0.76624474  0.87581821  0.08241463  1
  Nd3+  Nd43  1  0.00414854  0.11852676  0.56076112  1
  Nd3+  Nd44  1  0.50629119  0.11529022  0.56026845  1
  Sm3+  Sm45  1  0.37793254  0.24104123  0.43854639  1
  Sm3+  Sm46  1  0.12633942  -0.00682496  0.44805518  1
  Sm3+  Sm47  1  0.62649098  0.24468619  0.94988966  1
  Sm3+  Sm48  1  0.12387903  0.74830523  0.94122227  1
  Sm3+  Sm49  1  0.75160192  0.62213534  0.55001729  1
  Sm3+  Sm50  1  0.62629201  -0.01277296  0.44401009  1
  Sm3+  Sm51  1  0.00811773  0.36916830  0.05546432  1
  Sm3+  Sm52  1  0.62639682  -0.00399350  0.95782093  1
  Sm3+  Sm53  1  0.00003352  0.62081826  0.04707319  1
  Sm3+  Sm54  1  0.37459592  0.49077146  0.44819575  1
  Sm3+  Sm55  1  0.50577603  0.61684137  0.06368329  1
  Sm3+  Sm56  1  0.50345755  0.37253731  0.05342547  1
  Sm3+  Sm57  1  0.25542046  0.12142889  0.05164262  1
  Sm3+  Sm58  1  0.25326167  0.86888093  0.05587768  1
  Sm3+  Sm59  1  0.37596204  -0.01045360  0.44233659  1
  Sm3+  Sm60  1  0.87622917  0.24667463  0.94358696  1
  Sm3+  Sm61  1  0.25363847  0.86405574  0.55810883  1
  Sm3+  Sm62  1  0.50521860  0.86213291  0.56022781  1
  Sm3+  Sm63  1  0.87135933  -0.00385724  0.94033369  1
  Bi2+  Bi64  1  0.01424607  0.09419543  0.30131135  1
  Bi2+  Bi65  1  -0.02140629  0.13457829  0.78505879  1
  Bi2+  Bi66  1  0.00327438  0.33115682  0.27564596  1
  Bi2+  Bi67  1  -0.01160073  0.38259144  0.78238782  1
  Bi2+  Bi68  1  -0.00802290  0.59982331  0.23040498  1
  Bi2+  Bi69  1  0.02882967  0.66186612  0.79956201  1
  Bi2+  Bi70  1  0.00244677  0.85737843  0.23898074  1
  Bi2+  Bi71  1  -0.00219308  0.93961565  0.79959574  1
  Bi2+  Bi72  1  0.25914748  0.21941594  0.28793192  1
  Bi2+  Bi73  1  0.24758125  0.12461373  0.78353505  1
  Bi2+  Bi74  1  0.23787531  0.41099046  0.30999959  1
  Bi2+  Bi75  1  0.25787806  0.41116307  0.77911670  1
  Bi2+  Bi76  1  0.21511410  0.62435849  0.32030808  1
  Bi2+  Bi77  1  0.42198127  0.71194167  0.81095671  1
  Bi2+  Bi78  1  0.23654499  0.82232188  0.29636522  1
  Bi2+  Bi79  1  0.24944332  0.92836142  0.80190537  1
  Bi2+  Bi80  1  0.49774551  0.15133057  0.28186312  1
  Bi2+  Bi81  1  0.52214399  0.10622984  0.80051065  1
  Bi2+  Bi82  1  0.46734253  0.36667229  0.25517522  1
  Bi2+  Bi83  1  0.55857929  0.35983724  0.77975394  1
  Bi2+  Bi84  1  0.39757612  0.63781447  0.28036971  1
  Bi2+  Bi85  1  0.51992661  0.54173471  0.82360848  1
  Bi2+  Bi86  1  0.49002861  0.89748588  0.30041654  1
  Bi2+  Bi87  1  0.51126329  0.85911653  0.74805452  1
  Bi2+  Bi88  1  0.77768100  0.14952282  0.27503448  1
  Bi2+  Bi89  1  0.78090181  0.12994480  0.79832543  1
  Bi2+  Bi90  1  0.76692362  0.39911195  0.31044829  1
  Bi2+  Bi91  1  0.75249141  0.33651360  0.79722582  1
  Bi2+  Bi92  1  0.74293816  0.62875724  0.29567088  1
  Bi2+  Bi93  1  0.70005776  0.61024573  0.79626636  1
  Bi2+  Bi94  1  0.76061450  0.88996878  0.30770848  1
  Bi2+  Bi95  1  0.69684023  0.90015448  0.81370613  1
  Bi2+  Bi96  1  0.15442360  -0.01292064  0.24368801  1
  Bi2+  Bi97  1  0.11697000  0.01651884  0.71039060  1
  Bi2+  Bi98  1  0.15345629  0.20447812  0.18950268  1
  Bi2+  Bi99  1  0.11629539  0.28158826  0.70068503  1
  Bi2+  Bi100  1  0.11557273  0.44885935  0.21394178  1
  Bi2+  Bi101  1  0.11071124  0.55524768  0.69552519  1
  Bi2+  Bi102  1  0.13955588  0.72502422  0.20477589  1
  Bi2+  Bi103  1  0.12289397  0.82617185  0.74062163  1
  Bi2+  Bi104  1  0.34143591  0.05331923  0.24816766  1
  Bi2+  Bi105  1  0.37583053  -0.00636480  0.72073675  1
  Bi2+  Bi106  1  0.33482715  0.28125171  0.18286137  1
  Bi2+  Bi107  1  0.38298491  0.23411711  0.70867509  1
  Bi2+  Bi108  1  0.31120383  0.49432352  0.21230588  1
  Bi2+  Bi109  1  0.46155810  0.49534837  0.71532956  1
  Bi2+  Bi110  1  0.33405249  0.78857038  0.20125467  1
  Bi2+  Bi111  1  0.35914166  0.74915486  0.70467211  1
  Bi2+  Bi112  1  0.63799405  0.02404089  0.23547698  1
  Bi2+  Bi113  1  0.64593315  0.08389377  0.71673794  1
  Bi2+  Bi114  1  0.62888765  0.25879798  0.22330358  1
  Bi2+  Bi115  1  0.59932061  0.25926775  0.67463851  1
  Bi2+  Bi116  1  0.58563762  0.50359204  0.20577652  1
  Bi2+  Bi117  1  0.63069731  0.45417852  0.66493930  1
  Bi2+  Bi118  1  0.58123780  0.75713351  0.21734422  1
  Bi2+  Bi119  1  0.61531781  0.70894080  0.70875565  1
  Bi2+  Bi120  1  0.89574123  0.01368928  0.20735834  1
  Bi2+  Bi121  1  0.91850599  0.01110216  0.70054220  1
  Bi2+  Bi122  1  0.89957711  0.23352008  0.20380939  1
  Bi2+  Bi123  1  0.79681726  0.23819112  0.70034761  1
  Bi2+  Bi124  1  0.83955272  0.48102412  0.19947383  1
  Bi2+  Bi125  1  0.78874962  0.48430377  0.72436949  1
  Bi2+  Bi126  1  0.85364938  0.74102514  0.20691054  1
  Bi2+  Bi127  1  0.86954638  0.73324059  0.71852415  1
  S2-  S128  1  0.01043568  0.11937321  0.15180574  1
  S2-  S129  1  0.00172268  0.21342670  0.64359717  1
  S2-  S130  1  -0.09462731  0.37785375  0.13643901  1
  S2-  S131  1  0.01748219  0.42277844  0.67997053  1
  S2-  S132  1  -0.08390045  0.62267649  0.13328306  1
  S2-  S133  1  -0.01469757  0.63952876  0.65690192  1
  S2-  S134  1  -0.07612218  0.86444084  0.14159390  1
  S2-  S135  1  -0.07793200  0.85481877  0.64788721  1
  S2-  S136  1  0.34438351  0.12612904  0.13726549  1
  S2-  S137  1  0.24113145  0.21535604  0.64848446  1
  S2-  S138  1  0.12922258  0.34454224  0.12968349  1
  S2-  S139  1  0.21808176  0.42586372  0.67446551  1
  S2-  S140  1  0.24654340  0.61983060  0.15199423  1
  S2-  S141  1  0.23528222  0.66959944  0.66126268  1
  S2-  S142  1  0.22554337  0.88722092  0.15131010  1
  S2-  S143  1  0.30510886  0.88266678  0.65059680  1
  S2-  S144  1  0.57347616  0.12232970  0.16545854  1
  S2-  S145  1  0.40750348  0.10436833  0.64105978  1
  S2-  S146  1  0.48367642  0.38379734  0.15014367  1
  S2-  S147  1  0.40575755  0.35931587  0.64806763  1
  S2-  S148  1  0.49800511  0.63341381  0.16094695  1
  S2-  S149  1  0.47850323  0.63707622  0.65474852  1
  S2-  S150  1  0.48576990  0.87899070  0.17545695  1
  S2-  S151  1  0.57727333  0.85574903  0.64853709  1
  S2-  S152  1  0.76561931  0.01901317  0.14866208  1
  S2-  S153  1  0.76343619  0.02448266  0.64814458  1
  S2-  S154  1  0.70250551  0.37575049  0.16555649  1
  S2-  S155  1  0.83708686  0.37560196  0.64149203  1
  S2-  S156  1  0.70457945  0.58723705  0.16592838  1
  S2-  S157  1  0.75219655  0.68079749  0.64262988  1
  S2-  S158  1  0.70994635  0.81250476  0.17243197  1
  S2-  S159  1  0.75196285  0.84287412  0.72523276  1
  S2-  S160  1  0.12232227  -0.00220731  0.35049394  1
  S2-  S161  1  0.12457523  0.11809234  0.85289308  1
  S2-  S162  1  0.08953178  0.22717457  0.34360923  1
  S2-  S163  1  0.12733564  0.34786549  0.83840498  1
  S2-  S164  1  0.10654385  0.49528800  0.35358501  1
  S2-  S165  1  0.16356229  0.56616699  0.79679447  1
  S2-  S166  1  0.10525423  0.74905069  0.34744078  1
  S2-  S167  1  0.13343290  0.77141511  0.84444919  1
  S2-  S168  1  0.37429421  -0.01880646  0.34391435  1
  S2-  S169  1  0.38032263  0.09876263  0.85268375  1
  S2-  S170  1  0.48428291  0.25281424  0.36183228  1
  S2-  S171  1  0.33902219  0.28585290  0.81327715  1
  S2-  S172  1  0.37593239  0.51364221  0.35110151  1
  S2-  S173  1  0.31775223  0.49833208  0.85356044  1
  S2-  S174  1  0.45766866  0.75233220  0.35322869  1
  S2-  S175  1  0.37896211  0.85799190  0.86210383  1
  S2-  S176  1  0.61928882  -0.01151694  0.34489841  1
  S2-  S177  1  0.56928059  -0.01881705  0.86548291  1
  S2-  S178  1  0.73503628  0.24198774  0.35670190  1
  S2-  S179  1  0.54923851  0.24203535  0.86150492  1
  S2-  S180  1  0.63368707  0.50438356  0.33194583  1
  S2-  S181  1  0.74305398  0.48236032  0.86236683  1
  S2-  S182  1  0.64841920  0.76064490  0.32222597  1
  S2-  S183  1  0.67979657  0.75852494  0.86106287  1
  S2-  S184  1  0.86549104  0.01627352  0.34176728  1
  S2-  S185  1  0.85217142  -0.09653419  0.85883119  1
  S2-  S186  1  0.90583097  0.35555692  0.35902948  1
  S2-  S187  1  0.91200540  0.26816583  0.84843762  1
  S2-  S188  1  0.85776024  0.54298531  0.33647451  1
  S2-  S189  1  0.97733895  0.50461268  0.84446305  1
  S2-  S190  1  0.86516891  0.77756531  0.33742525  1
  S2-  S191  1  0.86673892  0.69413897  0.82050785  1
  S2-  S192  1  -0.00035733  0.11563892  0.45436024  1
  S2-  S193  1  -0.00477830  0.11778680  0.94793932  1
  S2-  S194  1  0.00273788  0.36284895  0.46553481  1
  S2-  S195  1  0.00240928  0.36740189  0.95240671  1
  S2-  S196  1  0.00149280  0.61534416  0.45200391  1
  S2-  S197  1  0.00067003  0.62893384  0.94464774  1
  S2-  S198  1  0.00340279  0.86875346  0.45288905  1
  S2-  S199  1  0.00293510  0.87648213  0.94871693  1
  S2-  S200  1  0.25542513  0.11527237  0.45453700  1
  S2-  S201  1  0.25770042  0.12006046  0.94999703  1
  S2-  S202  1  0.25617554  0.36309786  0.45262693  1
  S2-  S203  1  0.25479727  0.37187197  0.94963412  1
  S2-  S204  1  0.25210529  0.61451082  0.46000242  1
  S2-  S205  1  0.24736432  0.62549275  0.94735241  1
  S2-  S206  1  0.25092931  0.86781016  0.45278806  1
  S2-  S207  1  0.24640041  0.87250439  0.95342695  1
  S2-  S208  1  0.49980068  0.10964079  0.45467151  1
  S2-  S209  1  0.50515440  0.12206596  0.96644237  1
  S2-  S210  1  0.50020885  0.37277939  0.45814186  1
  S2-  S211  1  0.50552355  0.37398364  0.95090883  1
  S2-  S212  1  0.49938893  0.61497609  0.45111238  1
  S2-  S213  1  0.50571701  0.62208494  0.95847383  1
  S2-  S214  1  0.49889580  0.86787051  0.45542729  1
  S2-  S215  1  0.50695484  0.86638532  0.96839199  1
  S2-  S216  1  0.74656971  0.11085130  0.45473673  1
  S2-  S217  1  0.75021539  0.12145275  0.95871616  1
  S2-  S218  1  0.74581223  0.36880168  0.45374071  1
  S2-  S219  1  0.75164184  0.36415991  0.96173281  1
  S2-  S220  1  0.74789641  0.61979368  0.44550326  1
  S2-  S221  1  0.75515809  0.62217027  0.96009190  1
  S2-  S222  1  0.74778188  0.86552714  0.44327643  1
  S2-  S223  1  0.74905800  0.87689673  0.97010671  1
  S2-  S224  1  0.13251472  -0.00266534  0.03898275  1
  S2-  S225  1  0.13089157  -0.00823259  0.55335450  1
  S2-  S226  1  0.13106501  0.23895926  0.03011141  1
  S2-  S227  1  0.13409183  0.24044365  0.54646932  1
  S2-  S228  1  0.12326971  0.50018963  0.04395674  1
  S2-  S229  1  0.12642406  0.48742068  0.55618135  1
  S2-  S230  1  0.12609242  0.74534185  0.04629384  1
  S2-  S231  1  0.12667945  0.74365078  0.55089783  1
  S2-  S232  1  0.37593920  -0.01108676  0.04505338  1
  S2-  S233  1  0.38133562  -0.01636707  0.54400953  1
  S2-  S234  1  0.37665345  0.25367218  0.03677704  1
  S2-  S235  1  0.38308405  0.24158208  0.54065177  1
  S2-  S236  1  0.37680616  0.49555055  0.04916755  1
  S2-  S237  1  0.37739259  0.49176048  0.55195254  1
  S2-  S238  1  0.37710757  0.74260672  0.04851728  1
  S2-  S239  1  0.37732044  0.74222996  0.54453861  1
  S2-  S240  1  0.62241411  -0.00527330  0.05956480  1
  S2-  S241  1  0.62620609  -0.01255812  0.54749124  1
  S2-  S242  1  0.62795712  0.24905408  0.05432526  1
  S2-  S243  1  0.62880257  0.23818090  0.54083526  1
  S2-  S244  1  0.62969008  0.49584683  0.04738431  1
  S2-  S245  1  0.62872338  0.49681254  0.53907786  1
  S2-  S246  1  0.62977861  0.74130864  0.05976721  1
  S2-  S247  1  0.62577305  0.74223419  0.53745486  1
  S2-  S248  1  0.88000367  0.00131858  0.04292109  1
  S2-  S249  1  0.88045383  -0.00601982  0.54423659  1
  S2-  S250  1  0.87805543  0.23994757  0.04660480  1
  S2-  S251  1  0.87226304  0.23676390  0.53872479  1
  S2-  S252  1  0.88189955  0.49418589  0.03541610  1
  S2-  S253  1  0.87322345  0.49702793  0.54224368  1
  S2-  S254  1  0.87984562  0.75020144  0.03536762  1
  S2-  S255  1  0.87558697  0.74242888  0.54024848  1
