# generated using pymatgen
data_La6Ce7Pr13Nd19Sm19(BiS2)64
_symmetry_space_group_name_H-M   'P 1'
_cell_length_a   16.06704745
_cell_length_b   16.05124827
_cell_length_c   27.43250326
_cell_angle_alpha   89.59197888
_cell_angle_beta   90.07229671
_cell_angle_gamma   89.98302709
_symmetry_Int_Tables_number   1
_chemical_formula_structural   La6Ce7Pr13Nd19Sm19(BiS2)64
_chemical_formula_sum   'La6 Ce7 Pr13 Nd19 Sm19 Bi64 S128'
_cell_volume   7074.55210830
_cell_formula_units_Z   1
loop_
 _symmetry_equiv_pos_site_id
 _symmetry_equiv_pos_as_xyz
  1  'x, y, z'
loop_
 _atom_type_symbol
 _atom_type_oxidation_number
  La3+  3.0
  Ce3+  3.0
  Pr3+  3.0
  Nd3+  3.0
  Sm3+  3.0
  Bi2+  2.0
  S2-  -2.0
loop_
 _atom_site_type_symbol
 _atom_site_label
 _atom_site_symmetry_multiplicity
 _atom_site_fract_x
 _atom_site_fract_y
 _atom_site_fract_z
 _atom_site_occupancy
  La3+  La0  1  -0.00579790  0.64089196  0.08703457  1
  La3+  La1  1  0.49444438  0.36207608  0.55765496  1
  La3+  La2  1  0.36117596  0.23363969  0.39645025  1
  La3+  La3  1  0.61385052  0.48943019  0.41844036  1
  La3+  La4  1  -0.01826444  0.60305731  0.58582449  1
  La3+  La5  1  0.24697665  0.63361135  0.08125352  1
  Ce3+  Ce6  1  0.87122357  0.01604122  0.94382456  1
  Ce3+  Ce7  1  0.86689173  -0.00995991  0.43909417  1
  Ce3+  Ce8  1  0.61823034  0.26891231  0.93923592  1
  Ce3+  Ce9  1  -0.00335866  0.38642785  0.05759807  1
  Ce3+  Ce10  1  0.12166864  0.76306824  0.94543394  1
  Ce3+  Ce11  1  0.61903191  0.76380474  0.95005791  1
  Ce3+  Ce12  1  0.24129653  0.36733293  0.55145579  1
  Pr3+  Pr13  1  0.50779525  0.39071016  0.07450427  1
  Pr3+  Pr14  1  0.36561411  -0.00820691  0.44600013  1
  Pr3+  Pr15  1  0.87296848  0.26478842  0.93626566  1
  Pr3+  Pr16  1  0.37039201  0.76143466  0.93380062  1
  Pr3+  Pr17  1  0.25099225  0.14598638  0.06516686  1
  Pr3+  Pr18  1  -0.00958969  0.86116195  0.56271219  1
  Pr3+  Pr19  1  0.24831156  0.88962976  0.05497268  1
  Pr3+  Pr20  1  0.11187934  0.23890833  0.43494624  1
  Pr3+  Pr21  1  0.87217635  0.52607450  0.93304423  1
  Pr3+  Pr22  1  0.11700736  0.25806811  0.92639352  1
  Pr3+  Pr23  1  0.24130838  0.11336809  0.56685054  1
  Pr3+  Pr24  1  0.24709000  0.85270922  0.58074970  1
  Pr3+  Pr25  1  0.74115769  0.14010992  0.07057185  1
  Nd3+  Nd26  1  0.37107353  0.51717194  0.94187192  1
  Nd3+  Nd27  1  0.37057431  0.27597789  0.93311851  1
  Nd3+  Nd28  1  0.74538202  0.88859373  0.05774752  1
  Nd3+  Nd29  1  0.86723640  0.73818631  0.44605568  1
  Nd3+  Nd30  1  0.49087050  0.11899603  0.56647141  1
  Nd3+  Nd31  1  0.49262688  0.63724673  0.07337504  1
  Nd3+  Nd32  1  0.36499246  0.49222716  0.42908507  1
  Nd3+  Nd33  1  -0.00931337  0.11474610  0.56445846  1
  Nd3+  Nd34  1  0.49587745  0.13976007  0.06579376  1
  Nd3+  Nd35  1  0.11988109  0.49659941  0.43207486  1
  Nd3+  Nd36  1  0.74154254  0.11623544  0.55219478  1
  Nd3+  Nd37  1  0.61950843  0.52493058  0.93379540  1
  Nd3+  Nd38  1  -0.00264276  0.89315899  0.06780261  1
  Nd3+  Nd39  1  0.87448243  0.50222398  0.42703141  1
  Nd3+  Nd40  1  0.12013386  0.51770822  0.94490069  1
  Nd3+  Nd41  1  -0.00446893  0.13956774  0.06781164  1
  Nd3+  Nd42  1  0.49463968  0.86275081  0.55804145  1
  Nd3+  Nd43  1  0.73958120  0.86398080  0.55349907  1
  Nd3+  Nd44  1  0.24378575  0.60618712  0.56917447  1
  Sm3+  Sm45  1  0.36743880  0.73783744  0.45022770  1
  Sm3+  Sm46  1  -0.00916389  0.36589053  0.55742459  1
  Sm3+  Sm47  1  0.75004175  0.63668675  0.06712940  1
  Sm3+  Sm48  1  0.50013347  0.60519275  0.56472371  1
  Sm3+  Sm49  1  0.87088507  0.24141733  0.43609223  1
  Sm3+  Sm50  1  0.12504527  0.01677093  0.94073712  1
  Sm3+  Sm51  1  0.61425962  -0.00563491  0.44447628  1
  Sm3+  Sm52  1  0.73577041  0.61099107  0.56039051  1
  Sm3+  Sm53  1  0.74698952  0.39095434  0.05036612  1
  Sm3+  Sm54  1  0.49589097  0.88759189  0.05636460  1
  Sm3+  Sm55  1  0.24861916  0.38491439  0.06316487  1
  Sm3+  Sm56  1  0.61313016  0.24444487  0.42640247  1
  Sm3+  Sm57  1  0.74351200  0.36578852  0.54564542  1
  Sm3+  Sm58  1  0.11852679  -0.01097959  0.45188902  1
  Sm3+  Sm59  1  0.87389816  0.76873856  0.94688512  1
  Sm3+  Sm60  1  0.11746347  0.73761342  0.45230035  1
  Sm3+  Sm61  1  0.37502728  0.01982097  0.93779138  1
  Sm3+  Sm62  1  0.61468181  0.73719326  0.43237772  1
  Sm3+  Sm63  1  0.62016695  0.01776702  0.93933086  1
  Bi2+  Bi64  1  -0.00045695  0.08359222  0.29974027  1
  Bi2+  Bi65  1  -0.06402837  0.14000466  0.80552267  1
  Bi2+  Bi66  1  -0.02202540  0.35072852  0.28578597  1
  Bi2+  Bi67  1  0.07822096  0.37736816  0.79240053  1
  Bi2+  Bi68  1  0.00186716  0.61647460  0.29684802  1
  Bi2+  Bi69  1  0.00898567  0.63634098  0.81062852  1
  Bi2+  Bi70  1  -0.02038713  0.89217884  0.27913560  1
  Bi2+  Bi71  1  -0.03942048  0.89721207  0.76933201  1
  Bi2+  Bi72  1  0.21977224  0.08260258  0.29210647  1
  Bi2+  Bi73  1  0.26540100  0.17055474  0.79510921  1
  Bi2+  Bi74  1  0.18042213  0.34764314  0.27257447  1
  Bi2+  Bi75  1  0.28387553  0.42460197  0.73614195  1
  Bi2+  Bi76  1  0.25143984  0.63743338  0.29981335  1
  Bi2+  Bi77  1  0.26192498  0.72092669  0.80153902  1
  Bi2+  Bi78  1  0.27303530  0.84968491  0.26105138  1
  Bi2+  Bi79  1  0.24129786  0.91251656  0.77403030  1
  Bi2+  Bi80  1  0.48649002  0.07416016  0.28425164  1
  Bi2+  Bi81  1  0.53947382  0.12268106  0.78928619  1
  Bi2+  Bi82  1  0.51789897  0.35245764  0.28891230  1
  Bi2+  Bi83  1  0.50508456  0.34267960  0.81035868  1
  Bi2+  Bi84  1  0.50251633  0.62528022  0.29393036  1
  Bi2+  Bi85  1  0.50824895  0.57950738  0.80701303  1
  Bi2+  Bi86  1  0.53314745  0.87965767  0.30227486  1
  Bi2+  Bi87  1  0.42649287  0.88237146  0.81569867  1
  Bi2+  Bi88  1  0.74830547  0.09121102  0.28500069  1
  Bi2+  Bi89  1  0.76001693  0.12040860  0.75819066  1
  Bi2+  Bi90  1  0.79040548  0.28043096  0.29510661  1
  Bi2+  Bi91  1  0.80075425  0.33659876  0.74253993  1
  Bi2+  Bi92  1  0.76944971  0.54223446  0.30283237  1
  Bi2+  Bi93  1  0.75853671  0.60489744  0.80383798  1
  Bi2+  Bi94  1  0.71276778  0.81637306  0.28184912  1
  Bi2+  Bi95  1  0.72327691  0.92722336  0.79462837  1
  Bi2+  Bi96  1  0.14677731  -0.00124152  0.20429558  1
  Bi2+  Bi97  1  0.08668712  0.04783445  0.76184260  1
  Bi2+  Bi98  1  0.05018971  0.25977844  0.19029613  1
  Bi2+  Bi99  1  0.14515064  0.28345996  0.70429589  1
  Bi2+  Bi100  1  0.12358982  0.50600908  0.21766714  1
  Bi2+  Bi101  1  0.15351553  0.55642409  0.70264277  1
  Bi2+  Bi102  1  0.10310407  0.77899424  0.22121370  1
  Bi2+  Bi103  1  0.12948811  0.80256993  0.70144210  1
  Bi2+  Bi104  1  0.36892256  -0.01155872  0.20432657  1
  Bi2+  Bi105  1  0.45139047  0.04662945  0.70052505  1
  Bi2+  Bi106  1  0.33111047  0.24010390  0.21039384  1
  Bi2+  Bi107  1  0.37262453  0.23923928  0.70939841  1
  Bi2+  Bi108  1  0.38597346  0.50146990  0.20039537  1
  Bi2+  Bi109  1  0.41941585  0.56057033  0.70850118  1
  Bi2+  Bi110  1  0.46303087  0.75984088  0.21654361  1
  Bi2+  Bi111  1  0.41672328  0.75627194  0.73050076  1
  Bi2+  Bi112  1  0.64149807  -0.03743308  0.20907978  1
  Bi2+  Bi113  1  0.60937956  -0.05896461  0.69874052  1
  Bi2+  Bi114  1  0.66786018  0.23334261  0.20915848  1
  Bi2+  Bi115  1  0.63797521  0.24997128  0.70118932  1
  Bi2+  Bi116  1  0.65704790  0.48817392  0.21572523  1
  Bi2+  Bi117  1  0.65817003  0.51991578  0.68401057  1
  Bi2+  Bi118  1  0.65376269  0.68698579  0.20059137  1
  Bi2+  Bi119  1  0.62032646  0.73294967  0.75835268  1
  Bi2+  Bi120  1  0.87444004  0.01243710  0.20630129  1
  Bi2+  Bi121  1  0.85740011  -0.00308701  0.68126819  1
  Bi2+  Bi122  1  0.86189842  0.20170384  0.17767206  1
  Bi2+  Bi123  1  0.95262592  0.25516833  0.69136047  1
  Bi2+  Bi124  1  0.85902059  0.46718216  0.21588363  1
  Bi2+  Bi125  1  0.90447927  0.49851988  0.71518544  1
  Bi2+  Bi126  1  0.84600333  0.74352662  0.21094960  1
  Bi2+  Bi127  1  0.81215645  0.77177880  0.74590201  1
  S2-  S128  1  0.01276982  0.01659389  0.14024478  1
  S2-  S129  1  -0.00038281  0.09462166  0.66293660  1
  S2-  S130  1  -0.00085012  0.42544011  0.15299475  1
  S2-  S131  1  0.00390530  0.45057786  0.64313672  1
  S2-  S132  1  0.12350502  0.64239781  0.15805647  1
  S2-  S133  1  0.02705307  0.65431842  0.68457955  1
  S2-  S134  1  -0.01718391  0.79105616  0.14974518  1
  S2-  S135  1  -0.02711241  0.87180144  0.66188224  1
  S2-  S136  1  0.21412518  0.26580335  0.13854466  1
  S2-  S137  1  0.24247553  0.15703246  0.66436159  1
  S2-  S138  1  0.25036055  0.48250654  0.14734844  1
  S2-  S139  1  0.24620551  0.46543035  0.63370415  1
  S2-  S140  1  0.37399361  0.65997340  0.15150586  1
  S2-  S141  1  0.24268618  0.71323726  0.64992077  1
  S2-  S142  1  0.24459215  0.87260229  0.15459156  1
  S2-  S143  1  0.21536027  0.93215750  0.66756809  1
  S2-  S144  1  0.37549762  0.12042293  0.13979024  1
  S2-  S145  1  0.50922649  0.24356007  0.63772429  1
  S2-  S146  1  0.43366792  0.33976877  0.16678518  1
  S2-  S147  1  0.50767031  0.47595650  0.63748264  1
  S2-  S148  1  0.52149744  0.51954274  0.14688423  1
  S2-  S149  1  0.61993915  0.65145019  0.63529063  1
  S2-  S150  1  0.50162694  0.90303058  0.15319973  1
  S2-  S151  1  0.45847519  0.87539227  0.65411555  1
  S2-  S152  1  0.61476376  0.12150074  0.14246831  1
  S2-  S153  1  0.73370281  0.12124037  0.65103123  1
  S2-  S154  1  0.67636961  0.36996439  0.13909550  1
  S2-  S155  1  0.72795622  0.37203532  0.64393868  1
  S2-  S156  1  0.85136250  0.61012292  0.14745548  1
  S2-  S157  1  0.82598306  0.58490536  0.64602610  1
  S2-  S158  1  0.77109780  0.89122292  0.15515230  1
  S2-  S159  1  0.74052061  0.86728198  0.65193970  1
  S2-  S160  1  0.11832534  -0.01481482  0.35462387  1
  S2-  S161  1  0.11007914  0.10388801  0.85690719  1
  S2-  S162  1  0.19964052  0.22584130  0.34784419  1
  S2-  S163  1  0.20827489  0.30055565  0.84355220  1
  S2-  S164  1  0.23970679  0.50754686  0.35654093  1
  S2-  S165  1  0.11619859  0.52772791  0.84377468  1
  S2-  S166  1  0.11673175  0.69954932  0.35611636  1
  S2-  S167  1  0.09907888  0.75806225  0.84746775  1
  S2-  S168  1  0.36087150  0.06399357  0.35460324  1
  S2-  S169  1  0.31641119  0.01096871  0.84597468  1
  S2-  S170  1  0.35629269  0.32300368  0.30234222  1
  S2-  S171  1  0.41558457  0.19791178  0.84631206  1
  S2-  S172  1  0.47438162  0.48641480  0.34925506  1
  S2-  S173  1  0.39042597  0.41013471  0.86292507  1
  S2-  S174  1  0.37674782  0.70915717  0.35429433  1
  S2-  S175  1  0.36242859  0.63377082  0.86324701  1
  S2-  S176  1  0.62036786  0.01627574  0.34802991  1
  S2-  S177  1  0.57765025  -0.02328468  0.84701964  1
  S2-  S178  1  0.51586437  0.20913326  0.34578841  1
  S2-  S179  1  0.63603051  0.23589766  0.84427705  1
  S2-  S180  1  0.64983564  0.35830715  0.34852582  1
  S2-  S181  1  0.62002769  0.46268641  0.83962913  1
  S2-  S182  1  0.63477441  0.63297422  0.35473832  1
  S2-  S183  1  0.61170591  0.69115896  0.86351258  1
  S2-  S184  1  0.86713371  -0.02044291  0.34291693  1
  S2-  S185  1  0.87968928  -0.02348282  0.84930043  1
  S2-  S186  1  0.98071042  0.22259557  0.36107131  1
  S2-  S187  1  0.97743692  0.28117001  0.85550272  1
  S2-  S188  1  1.00248369  0.48302631  0.35642070  1
  S2-  S189  1  0.88088000  0.50062077  0.83248484  1
  S2-  S190  1  0.87316881  0.65474352  0.35913357  1
  S2-  S191  1  0.86541919  0.71019005  0.85576327  1
  S2-  S192  1  -0.00854555  0.10885949  0.45994068  1
  S2-  S193  1  -0.00557170  0.13605317  0.96128275  1
  S2-  S194  1  -0.00999388  0.36682298  0.45591673  1
  S2-  S195  1  -0.00657116  0.39524838  0.95323934  1
  S2-  S196  1  -0.00663727  0.61906973  0.46494452  1
  S2-  S197  1  -0.00476285  0.64410053  0.96133264  1
  S2-  S198  1  -0.00688911  0.86316050  0.45465679  1
  S2-  S199  1  -0.00095521  0.89275240  0.95778115  1
  S2-  S200  1  0.23858198  0.11406424  0.46016870  1
  S2-  S201  1  0.25132012  0.13985697  0.95589421  1
  S2-  S202  1  0.24277752  0.36013291  0.44785415  1
  S2-  S203  1  0.24064528  0.39190342  0.95809143  1
  S2-  S204  1  0.24352936  0.62025431  0.46360966  1
  S2-  S205  1  0.24346024  0.64074972  0.96546919  1
  S2-  S206  1  0.24210858  0.86236607  0.46372270  1
  S2-  S207  1  0.24758503  0.89081066  0.94865181  1
  S2-  S208  1  0.49203679  0.11499091  0.46014054  1
  S2-  S209  1  0.49807132  0.13881542  0.95659455  1
  S2-  S210  1  0.48448435  0.35590040  0.44793137  1
  S2-  S211  1  0.50446661  0.39594217  0.96203236  1
  S2-  S212  1  0.49195169  0.61760068  0.45808318  1
  S2-  S213  1  0.49575187  0.64063936  0.96612039  1
  S2-  S214  1  0.49317223  0.86452537  0.45116977  1
  S2-  S215  1  0.49517105  0.89054613  0.95339171  1
  S2-  S216  1  0.74234454  0.11898087  0.44554518  1
  S2-  S217  1  0.74511955  0.13954602  0.95391865  1
  S2-  S218  1  0.75470282  0.36778789  0.44496014  1
  S2-  S219  1  0.74888870  0.39400518  0.94618513  1
  S2-  S220  1  0.74151634  0.61652983  0.45777193  1
  S2-  S221  1  0.74857200  0.64496673  0.96241210  1
  S2-  S222  1  0.73740837  0.86459436  0.44668312  1
  S2-  S223  1  0.74387482  0.88976622  0.95135978  1
  S2-  S224  1  0.12725453  0.01906130  0.04327930  1
  S2-  S225  1  0.11578833  -0.01396814  0.55543263  1
  S2-  S226  1  0.11620897  0.26257068  0.03703020  1
  S2-  S227  1  0.11309909  0.24072893  0.54805188  1
  S2-  S228  1  0.11795619  0.51200186  0.04911106  1
  S2-  S229  1  0.11344675  0.48973516  0.53836447  1
  S2-  S230  1  0.12106388  0.76683134  0.04988553  1
  S2-  S231  1  0.11274472  0.73432118  0.55510444  1
  S2-  S232  1  0.37516565  0.01138679  0.04056697  1
  S2-  S233  1  0.36760496  -0.01194433  0.55244621  1
  S2-  S234  1  0.37678543  0.26943522  0.04049528  1
  S2-  S235  1  0.36180246  0.23867654  0.55039266  1
  S2-  S236  1  0.37464288  0.50911304  0.04683304  1
  S2-  S237  1  0.37001108  0.49014892  0.53580053  1
  S2-  S238  1  0.37341373  0.76595361  0.04263318  1
  S2-  S239  1  0.37650328  0.73253900  0.55348126  1
  S2-  S240  1  0.61986342  0.01094752  0.04217802  1
  S2-  S241  1  0.61585621  -0.00836630  0.54854050  1
  S2-  S242  1  0.62345532  0.26278030  0.04178801  1
  S2-  S243  1  0.62280690  0.23950014  0.53291101  1
  S2-  S244  1  0.62988272  0.51942235  0.04165397  1
  S2-  S245  1  0.62122631  0.48559992  0.53068623  1
  S2-  S246  1  0.62172132  0.76193922  0.05604389  1
  S2-  S247  1  0.61630105  0.74237743  0.53407109  1
  S2-  S248  1  0.86610369  0.01665613  0.04807284  1
  S2-  S249  1  0.86534956  -0.01100402  0.54488821  1
  S2-  S250  1  0.86763397  0.26293619  0.04339665  1
  S2-  S251  1  0.86807346  0.23985686  0.54154411  1
  S2-  S252  1  0.87068611  0.51296115  0.04151798  1
  S2-  S253  1  0.86573727  0.48703799  0.53731126  1
  S2-  S254  1  0.86912777  0.76488829  0.04835527  1
  S2-  S255  1  0.86276863  0.73737462  0.55139655  1
