# generated using pymatgen
data_La6Ce7Pr13Nd19Sm19(BiS2)64
_symmetry_space_group_name_H-M   'P 1'
_cell_length_a   16.09385716
_cell_length_b   16.05713771
_cell_length_c   27.28757915
_cell_angle_alpha   90.10951774
_cell_angle_beta   89.85667848
_cell_angle_gamma   90.02624289
_symmetry_Int_Tables_number   1
_chemical_formula_structural   La6Ce7Pr13Nd19Sm19(BiS2)64
_chemical_formula_sum   'La6 Ce7 Pr13 Nd19 Sm19 Bi64 S128'
_cell_volume   7051.65548128
_cell_formula_units_Z   1
loop_
 _symmetry_equiv_pos_site_id
 _symmetry_equiv_pos_as_xyz
  1  'x, y, z'
loop_
 _atom_type_symbol
 _atom_type_oxidation_number
  La3+  3.0
  Ce3+  3.0
  Pr3+  3.0
  Nd3+  3.0
  Sm3+  3.0
  Bi2+  2.0
  S2-  -2.0
loop_
 _atom_site_type_symbol
 _atom_site_label
 _atom_site_symmetry_multiplicity
 _atom_site_fract_x
 _atom_site_fract_y
 _atom_site_fract_z
 _atom_site_occupancy
  La3+  La0  1  0.74640843  0.14528115  0.07959444  1
  La3+  La1  1  0.00764492  0.38950212  0.57299071  1
  La3+  La2  1  0.51223686  0.39823085  0.57634752  1
  La3+  La3  1  0.26831135  0.12614411  0.61059985  1
  La3+  La4  1  0.50590478  0.65261212  0.57198220  1
  La3+  La5  1  0.27195745  0.12035412  0.12182910  1
  Ce3+  Ce6  1  0.76063762  0.14553150  0.55366005  1
  Ce3+  Ce7  1  0.63479005  0.27230751  0.43169442  1
  Ce3+  Ce8  1  0.00693452  0.14548610  0.06711593  1
  Ce3+  Ce9  1  0.86992157  0.01849013  0.94092878  1
  Ce3+  Ce10  1  0.38196648  0.76496539  0.43356967  1
  Ce3+  Ce11  1  0.87953598  0.27728286  0.42526201  1
  Ce3+  Ce12  1  0.13358333  0.51822247  0.43658858  1
  Pr3+  Pr13  1  0.12183589  0.76767695  0.93914539  1
  Pr3+  Pr14  1  0.74559042  0.64258698  0.06429062  1
  Pr3+  Pr15  1  0.62774595  0.27758096  0.93025301  1
  Pr3+  Pr16  1  0.49052781  0.89703995  0.06135742  1
  Pr3+  Pr17  1  0.87039715  0.76472270  0.93340012  1
  Pr3+  Pr18  1  0.87169522  0.49424254  0.88768490  1
  Pr3+  Pr19  1  0.74504113  0.39580636  0.06498837  1
  Pr3+  Pr20  1  -0.00294650  0.89720292  0.05837970  1
  Pr3+  Pr21  1  0.37461627  0.01962477  0.93344305  1
  Pr3+  Pr22  1  0.23888717  0.63761387  0.07491105  1
  Pr3+  Pr23  1  0.23943319  0.38978595  0.07355979  1
  Pr3+  Pr24  1  0.49455210  0.64070717  0.05939020  1
  Pr3+  Pr25  1  0.87183844  0.26327476  0.94398221  1
  Nd3+  Nd26  1  0.14113536  0.27460817  0.42290423  1
  Nd3+  Nd27  1  0.74627209  0.89090815  0.06789766  1
  Nd3+  Nd28  1  0.50979836  0.14792617  0.56538391  1
  Nd3+  Nd29  1  0.37118422  0.26936102  0.93484145  1
  Nd3+  Nd30  1  0.25879031  0.38891933  0.56165613  1
  Nd3+  Nd31  1  0.24576370  0.89555193  0.05765859  1
  Nd3+  Nd32  1  0.13436313  0.76532595  0.43484573  1
  Nd3+  Nd33  1  0.62274535  0.76594252  0.93452493  1
  Nd3+  Nd34  1  0.75955441  0.39309953  0.56453885  1
  Nd3+  Nd35  1  0.49325269  0.14961366  0.05285939  1
  Nd3+  Nd36  1  0.49105261  0.39302010  0.05882076  1
  Nd3+  Nd37  1  0.38810880  0.52093020  0.43802835  1
  Nd3+  Nd38  1  -0.00188525  0.64175707  0.05624082  1
  Nd3+  Nd39  1  0.01198880  0.89177806  0.56596562  1
  Nd3+  Nd40  1  0.36857303  0.51977248  0.93328262  1
  Nd3+  Nd41  1  0.76142798  0.64611619  0.55982974  1
  Nd3+  Nd42  1  0.11972652  0.51743582  0.92899422  1
  Nd3+  Nd43  1  0.88732831  0.01837469  0.43739520  1
  Nd3+  Nd44  1  0.01271379  0.15087336  0.55102368  1
  Sm3+  Sm45  1  0.37016653  0.76664954  0.94987780  1
  Sm3+  Sm46  1  0.38272045  0.02117832  0.44263544  1
  Sm3+  Sm47  1  0.76115209  0.89695346  0.55195350  1
  Sm3+  Sm48  1  -0.00191680  0.39378010  0.05446425  1
  Sm3+  Sm49  1  0.62102140  0.52311493  0.93172633  1
  Sm3+  Sm50  1  0.63412072  0.76858668  0.44099485  1
  Sm3+  Sm51  1  0.12327216  0.02008297  0.94221175  1
  Sm3+  Sm52  1  0.63178727  0.01878069  0.44275575  1
  Sm3+  Sm53  1  0.13458358  0.02290943  0.44586307  1
  Sm3+  Sm54  1  0.25746576  0.63755233  0.56440720  1
  Sm3+  Sm55  1  0.25793371  0.89312025  0.55416052  1
  Sm3+  Sm56  1  0.88568741  0.76888525  0.44227741  1
  Sm3+  Sm57  1  0.39017924  0.27285704  0.43721967  1
  Sm3+  Sm58  1  0.12144591  0.26811507  0.93823911  1
  Sm3+  Sm59  1  0.50657009  0.89219518  0.55489186  1
  Sm3+  Sm60  1  0.01084486  0.64280735  0.56414164  1
  Sm3+  Sm61  1  0.63292035  0.52056425  0.44579616  1
  Sm3+  Sm62  1  0.62304912  0.01846003  0.94864469  1
  Sm3+  Sm63  1  0.88499952  0.51656108  0.43927927  1
  Bi2+  Bi64  1  0.00142208  0.08898666  0.28290065  1
  Bi2+  Bi65  1  -0.01466717  0.05740431  0.77917303  1
  Bi2+  Bi66  1  -0.06416750  0.33193594  0.21140881  1
  Bi2+  Bi67  1  0.01106946  0.37111550  0.78693516  1
  Bi2+  Bi68  1  -0.01518474  0.50637507  0.28564670  1
  Bi2+  Bi69  1  -0.02176144  0.73779903  0.78170549  1
  Bi2+  Bi70  1  0.04821857  0.77623815  0.31005972  1
  Bi2+  Bi71  1  -0.11086920  0.90263469  0.82394206  1
  Bi2+  Bi72  1  0.23425082  0.11231586  0.31998326  1
  Bi2+  Bi73  1  0.23945611  0.13085206  0.81495183  1
  Bi2+  Bi74  1  0.25814649  0.39440895  0.29494487  1
  Bi2+  Bi75  1  0.23975570  0.47022344  0.81038990  1
  Bi2+  Bi76  1  0.24805174  0.61746511  0.28873009  1
  Bi2+  Bi77  1  0.26245659  0.66113714  0.79498860  1
  Bi2+  Bi78  1  0.26631946  0.81950004  0.30816038  1
  Bi2+  Bi79  1  0.17967685  0.87189505  0.77901799  1
  Bi2+  Bi80  1  0.51902574  0.09987848  0.29926918  1
  Bi2+  Bi81  1  0.50490505  0.09792094  0.79346342  1
  Bi2+  Bi82  1  0.52086849  0.36855763  0.29162618  1
  Bi2+  Bi83  1  0.50920506  0.35892820  0.80480689  1
  Bi2+  Bi84  1  0.52523495  0.60194578  0.31321412  1
  Bi2+  Bi85  1  0.49145653  0.63570371  0.78940008  1
  Bi2+  Bi86  1  0.53035858  0.82835891  0.29294342  1
  Bi2+  Bi87  1  0.49646028  0.83977458  0.79482429  1
  Bi2+  Bi88  1  0.77092047  0.14068504  0.28195035  1
  Bi2+  Bi89  1  0.74596426  0.10713994  0.74431234  1
  Bi2+  Bi90  1  0.74095450  0.32877134  0.24608666  1
  Bi2+  Bi91  1  0.74727973  0.33336017  0.78508900  1
  Bi2+  Bi92  1  0.78085439  0.51208475  0.29826277  1
  Bi2+  Bi93  1  0.73856399  0.68063715  0.78445771  1
  Bi2+  Bi94  1  0.81542472  0.87358050  0.28359115  1
  Bi2+  Bi95  1  0.69755076  0.86680551  0.81615585  1
  Bi2+  Bi96  1  0.12332587  -0.07959862  0.24863098  1
  Bi2+  Bi97  1  0.05804147  -0.07869658  0.69451044  1
  Bi2+  Bi98  1  0.12669709  0.26724353  0.21295020  1
  Bi2+  Bi99  1  0.12392598  0.27276125  0.72002735  1
  Bi2+  Bi100  1  0.13420670  0.52050581  0.20989752  1
  Bi2+  Bi101  1  0.13754053  0.52764147  0.71874095  1
  Bi2+  Bi102  1  0.19585262  0.74731070  0.20320246  1
  Bi2+  Bi103  1  0.15921405  0.72388561  0.69197771  1
  Bi2+  Bi104  1  0.39359921  -0.06974004  0.22328377  1
  Bi2+  Bi105  1  0.34881765  -0.11115564  0.72292302  1
  Bi2+  Bi106  1  0.40114947  0.25051348  0.21455647  1
  Bi2+  Bi107  1  0.35772267  0.24548396  0.72119520  1
  Bi2+  Bi108  1  0.40332841  0.49908349  0.20917690  1
  Bi2+  Bi109  1  0.35578480  0.50795512  0.72022827  1
  Bi2+  Bi110  1  0.39599434  0.73309747  0.22406000  1
  Bi2+  Bi111  1  0.35405355  0.70264057  0.68360236  1
  Bi2+  Bi112  1  0.63803636  -0.04641649  0.22523126  1
  Bi2+  Bi113  1  0.60050576  -0.02114676  0.72248526  1
  Bi2+  Bi114  1  0.61994355  0.18351992  0.21044334  1
  Bi2+  Bi115  1  0.57866579  0.25039505  0.69579627  1
  Bi2+  Bi116  1  0.62571534  0.56117561  0.22095908  1
  Bi2+  Bi117  1  0.63329695  0.51135998  0.71123263  1
  Bi2+  Bi118  1  0.69200157  0.74812790  0.22792828  1
  Bi2+  Bi119  1  0.61929497  0.77788395  0.70820916  1
  Bi2+  Bi120  1  0.89034755  -0.05923897  0.18942179  1
  Bi2+  Bi121  1  0.88220980  0.00596798  0.68292957  1
  Bi2+  Bi122  1  0.90153712  0.13998401  0.18719219  1
  Bi2+  Bi123  1  0.87255677  0.23202808  0.69679571  1
  Bi2+  Bi124  1  0.87315452  0.52263143  0.18941392  1
  Bi2+  Bi125  1  0.88524485  0.52208666  0.70257717  1
  Bi2+  Bi126  1  0.91537180  0.68910423  0.24345717  1
  Bi2+  Bi127  1  0.86200888  0.80731611  0.70642125  1
  S2-  S128  1  0.10147495  0.14088777  0.15160407  1
  S2-  S129  1  0.01696047  0.22866909  0.64153049  1
  S2-  S130  1  0.07877316  0.39130550  0.14287521  1
  S2-  S131  1  -0.13072083  0.38058387  0.64552307  1
  S2-  S132  1  0.09500057  0.64365538  0.14046726  1
  S2-  S133  1  0.01616326  0.52991467  0.64195861  1
  S2-  S134  1  0.03770042  0.88656298  0.15623278  1
  S2-  S135  1  0.01150920  0.76541815  0.63757077  1
  S2-  S136  1  0.28327102  0.12989780  0.23057879  1
  S2-  S137  1  0.21239719  0.12730111  0.71584349  1
  S2-  S138  1  0.26812089  0.29040111  0.15629752  1
  S2-  S139  1  0.24096774  0.29170560  0.64719949  1
  S2-  S140  1  0.27666571  0.51506852  0.14675026  1
  S2-  S141  1  0.25538903  0.51331325  0.63926915  1
  S2-  S142  1  0.28547690  0.94731425  0.14906848  1
  S2-  S143  1  0.27001540  0.95400657  0.64577261  1
  S2-  S144  1  0.44803951  0.13219000  0.14815826  1
  S2-  S145  1  0.42997542  0.13448485  0.65523818  1
  S2-  S146  1  0.49058305  0.38383105  0.15989324  1
  S2-  S147  1  0.44883437  0.34928219  0.67152688  1
  S2-  S148  1  0.49272545  0.62892892  0.15952890  1
  S2-  S149  1  0.51618402  0.54703875  0.65281786  1
  S2-  S150  1  0.52261488  0.88925916  0.15979763  1
  S2-  S151  1  0.49793096  0.79605517  0.63689102  1
  S2-  S152  1  0.73766545  0.00429468  0.14642433  1
  S2-  S153  1  0.70884883  0.16505957  0.64656691  1
  S2-  S154  1  0.71594839  0.28107236  0.14474555  1
  S2-  S155  1  0.65300882  0.38331617  0.64832079  1
  S2-  S156  1  0.71975150  0.52024039  0.13903173  1
  S2-  S157  1  0.76018466  0.60156446  0.65663774  1
  S2-  S158  1  0.75918558  0.76544230  0.13897747  1
  S2-  S159  1  0.74076624  0.87316919  0.64798797  1
  S2-  S160  1  0.11231026  -0.01083456  0.34973773  1
  S2-  S161  1  0.12715763  0.01147605  0.84332831  1
  S2-  S162  1  0.08220187  0.20959502  0.32726966  1
  S2-  S163  1  0.11518775  0.25549947  0.83814693  1
  S2-  S164  1  0.13526464  0.41524186  0.35616988  1
  S2-  S165  1  0.02974351  0.50603916  0.84316773  1
  S2-  S166  1  0.12723588  0.64344597  0.36173082  1
  S2-  S167  1  0.11699423  0.73932172  0.84028147  1
  S2-  S168  1  0.38442699  0.02552601  0.34394841  1
  S2-  S169  1  0.36093680  0.01870783  0.83298756  1
  S2-  S170  1  0.28613520  0.25849383  0.35536232  1
  S2-  S171  1  0.36848014  0.26244846  0.83257608  1
  S2-  S172  1  0.40298246  0.42922231  0.34903946  1
  S2-  S173  1  0.45963845  0.50681506  0.84757999  1
  S2-  S174  1  0.39010279  0.64556181  0.36201406  1
  S2-  S175  1  0.38297450  0.74805441  0.85277500  1
  S2-  S176  1  0.62910153  0.00714398  0.34489630  1
  S2-  S177  1  0.60540580  0.01103987  0.85128445  1
  S2-  S178  1  0.51386293  0.24781508  0.36118251  1
  S2-  S179  1  0.60719416  0.22272576  0.83146079  1
  S2-  S180  1  0.63054118  0.46538612  0.35203638  1
  S2-  S181  1  0.64400020  0.41055811  0.85750872  1
  S2-  S182  1  0.63683016  0.72840699  0.34566359  1
  S2-  S183  1  0.62397980  0.64831411  0.85759495  1
  S2-  S184  1  0.87209400  0.01772654  0.33849966  1
  S2-  S185  1  0.87221787  0.09090393  0.85275939  1
  S2-  S186  1  0.75188828  0.25390519  0.35547389  1
  S2-  S187  1  0.87382908  0.32172936  0.84881633  1
  S2-  S188  1  0.89203419  0.41615413  0.35799633  1
  S2-  S189  1  0.79824273  0.48989277  0.79016197  1
  S2-  S190  1  0.88031047  0.74394189  0.34531247  1
  S2-  S191  1  0.86597645  0.66156871  0.85129315  1
  S2-  S192  1  0.00781461  0.14540034  0.44576198  1
  S2-  S193  1  0.00170256  0.14199542  0.95631158  1
  S2-  S194  1  0.00714899  0.39574581  0.45917692  1
  S2-  S195  1  -0.00337037  0.39286360  0.95062265  1
  S2-  S196  1  0.00293724  0.64456075  0.45886669  1
  S2-  S197  1  -0.00178891  0.64076113  0.95180398  1
  S2-  S198  1  0.01087804  0.89180257  0.45719872  1
  S2-  S199  1  -0.00170725  0.89481958  0.95060230  1
  S2-  S200  1  0.25988704  0.13988273  0.45064794  1
  S2-  S201  1  0.24536869  0.14398549  0.94177985  1
  S2-  S202  1  0.26593416  0.39683302  0.45660175  1
  S2-  S203  1  0.24524970  0.39207564  0.94750935  1
  S2-  S204  1  0.25915461  0.64416190  0.46066383  1
  S2-  S205  1  0.24617432  0.64277776  0.95477111  1
  S2-  S206  1  0.25717438  0.89551592  0.44969210  1
  S2-  S207  1  0.24812855  0.89380229  0.94974545  1
  S2-  S208  1  0.50884444  0.13737271  0.45965787  1
  S2-  S209  1  0.49995031  0.14570295  0.94728596  1
  S2-  S210  1  0.51188578  0.39721662  0.46316291  1
  S2-  S211  1  0.49411372  0.39417789  0.95261390  1
  S2-  S212  1  0.51397138  0.64813997  0.46176428  1
  S2-  S213  1  0.49234539  0.64478937  0.95460469  1
  S2-  S214  1  0.50808883  0.89216255  0.45045259  1
  S2-  S215  1  0.49645879  0.89113493  0.95340189  1
  S2-  S216  1  0.75864797  0.13680770  0.45073365  1
  S2-  S217  1  0.74219759  0.14313792  0.96008793  1
  S2-  S218  1  0.75727528  0.39944686  0.45835535  1
  S2-  S219  1  0.75739641  0.40105150  0.95606450  1
  S2-  S220  1  0.76036620  0.64460595  0.45201273  1
  S2-  S221  1  0.74470749  0.64347953  0.95817879  1
  S2-  S222  1  0.75900541  0.89321895  0.44692906  1
  S2-  S223  1  0.74484341  0.89246917  0.95847822  1
  S2-  S224  1  0.12730041  0.01989950  0.04630204  1
  S2-  S225  1  0.13577861  0.02264245  0.55116593  1
  S2-  S226  1  0.12073814  0.27038468  0.04030600  1
  S2-  S227  1  0.13232512  0.27251758  0.53484932  1
  S2-  S228  1  0.12222362  0.51600467  0.03654282  1
  S2-  S229  1  0.13297744  0.52036882  0.54133137  1
  S2-  S230  1  0.12373462  0.77079373  0.04420352  1
  S2-  S231  1  0.13821495  0.76772570  0.54085360  1
  S2-  S232  1  0.36903788  0.02373654  0.04046314  1
  S2-  S233  1  0.38528292  0.01657860  0.54677891  1
  S2-  S234  1  0.36680329  0.26984062  0.04142179  1
  S2-  S235  1  0.38581900  0.26610412  0.54560836  1
  S2-  S236  1  0.36829472  0.51765004  0.03993023  1
  S2-  S237  1  0.38589693  0.52192544  0.54528088  1
  S2-  S238  1  0.36639884  0.76540375  0.05506376  1
  S2-  S239  1  0.37640299  0.77081535  0.53960905  1
  S2-  S240  1  0.61625286  0.02119560  0.05075126  1
  S2-  S241  1  0.63168576  0.01487078  0.54885210  1
  S2-  S242  1  0.61814120  0.27126746  0.03920327  1
  S2-  S243  1  0.63414507  0.26725556  0.54019223  1
  S2-  S244  1  0.61476493  0.51611497  0.03730724  1
  S2-  S245  1  0.63702463  0.52463077  0.54771297  1
  S2-  S246  1  0.61528709  0.77044809  0.04298277  1
  S2-  S247  1  0.63854706  0.77351499  0.54375652  1
  S2-  S248  1  0.87351077  0.02262704  0.04700465  1
  S2-  S249  1  0.88838393  0.01822039  0.54398206  1
  S2-  S250  1  0.87625594  0.26888332  0.05128504  1
  S2-  S251  1  0.88133414  0.26721400  0.53484913  1
  S2-  S252  1  0.87789130  0.51814481  0.05209140  1
  S2-  S253  1  0.88299032  0.52228294  0.54275393  1
  S2-  S254  1  0.87756308  0.76865565  0.04070112  1
  S2-  S255  1  0.88222106  0.77244716  0.54514931  1
