# generated using pymatgen
data_La6Ce7Pr13Nd19Sm19(BiS2)64
_symmetry_space_group_name_H-M   'P 1'
_cell_length_a   16.11914886
_cell_length_b   16.15102524
_cell_length_c   27.31778462
_cell_angle_alpha   90.01486281
_cell_angle_beta   89.84903838
_cell_angle_gamma   90.04074612
_symmetry_Int_Tables_number   1
_chemical_formula_structural   La6Ce7Pr13Nd19Sm19(BiS2)64
_chemical_formula_sum   'La6 Ce7 Pr13 Nd19 Sm19 Bi64 S128'
_cell_volume   7111.90663877
_cell_formula_units_Z   1
loop_
 _symmetry_equiv_pos_site_id
 _symmetry_equiv_pos_as_xyz
  1  'x, y, z'
loop_
 _atom_type_symbol
 _atom_type_oxidation_number
  La3+  3.0
  Ce3+  3.0
  Pr3+  3.0
  Nd3+  3.0
  Sm3+  3.0
  Bi2+  2.0
  S2-  -2.0
loop_
 _atom_site_type_symbol
 _atom_site_label
 _atom_site_symmetry_multiplicity
 _atom_site_fract_x
 _atom_site_fract_y
 _atom_site_fract_z
 _atom_site_occupancy
  La3+  La0  1  0.75777583  0.62136338  0.58118202  1
  La3+  La1  1  0.38987173  0.25351133  0.40695478  1
  La3+  La2  1  -0.01048723  0.38115398  0.07017000  1
  La3+  La3  1  0.60828893  0.24308454  0.88659683  1
  La3+  La4  1  0.38603954  -0.00993943  0.41037755  1
  La3+  La5  1  0.49714444  0.11300132  0.56917967  1
  Ce3+  Ce6  1  0.87852721  0.74401032  0.44918165  1
  Ce3+  Ce7  1  0.12708510  0.24728001  0.42883567  1
  Ce3+  Ce8  1  0.23552724  0.12611213  0.06857913  1
  Ce3+  Ce9  1  0.11598666  0.25036748  0.93644592  1
  Ce3+  Ce10  1  0.37045459  0.00435061  0.94599883  1
  Ce3+  Ce11  1  0.00477080  0.61966913  0.57114894  1
  Ce3+  Ce12  1  0.25246190  0.36524974  0.55358428  1
  Pr3+  Pr13  1  0.87082748  -0.00071589  0.93743105  1
  Pr3+  Pr14  1  0.12679408  -0.00743288  0.42770500  1
  Pr3+  Pr15  1  -0.00175634  0.87762461  0.56498498  1
  Pr3+  Pr16  1  0.37897393  0.49634774  0.44063821  1
  Pr3+  Pr17  1  -0.00846034  0.87233808  0.06302007  1
  Pr3+  Pr18  1  0.62003105  0.00470992  0.94370773  1
  Pr3+  Pr19  1  0.24882582  0.87487745  0.07354621  1
  Pr3+  Pr20  1  0.74638986  0.12486997  0.06487605  1
  Pr3+  Pr21  1  0.87487092  -0.00367085  0.43453648  1
  Pr3+  Pr22  1  0.24555062  0.62292755  0.06744442  1
  Pr3+  Pr23  1  0.25447384  0.88954320  0.56696909  1
  Pr3+  Pr24  1  0.48980277  0.37300752  0.06776468  1
  Pr3+  Pr25  1  0.49320010  0.36195167  0.57695941  1
  Nd3+  Nd26  1  0.23586033  0.37322236  0.06916193  1
  Nd3+  Nd27  1  0.50235543  0.62167403  0.56192858  1
  Nd3+  Nd28  1  0.37946747  0.74716742  0.44092437  1
  Nd3+  Nd29  1  0.49182559  0.12667746  0.06813938  1
  Nd3+  Nd30  1  0.75175747  0.87344037  0.56003659  1
  Nd3+  Nd31  1  0.87060986  0.49751536  0.92779068  1
  Nd3+  Nd32  1  0.36983072  0.74978591  0.94366172  1
  Nd3+  Nd33  1  0.12286110  -0.00197995  0.94542103  1
  Nd3+  Nd34  1  0.63140608  0.74331876  0.44334108  1
  Nd3+  Nd35  1  0.74532444  0.37463459  0.05515093  1
  Nd3+  Nd36  1  0.49589643  0.62171344  0.05668715  1
  Nd3+  Nd37  1  -0.00876369  0.12437257  0.06855603  1
  Nd3+  Nd38  1  0.86927665  0.74884181  0.93892514  1
  Nd3+  Nd39  1  0.75924374  0.12338579  0.57553789  1
  Nd3+  Nd40  1  0.87119318  0.24761374  0.93341880  1
  Nd3+  Nd41  1  0.12722415  0.49633992  0.44525126  1
  Nd3+  Nd42  1  0.62619949  0.24711887  0.44740610  1
  Nd3+  Nd43  1  0.25414961  0.62447574  0.55974520  1
  Nd3+  Nd44  1  0.61846894  0.74862904  0.93796880  1
  Sm3+  Sm45  1  0.74200494  0.87299502  0.05306626  1
  Sm3+  Sm46  1  0.74161855  0.62237241  0.04603500  1
  Sm3+  Sm47  1  0.25658613  0.12057873  0.53327851  1
  Sm3+  Sm48  1  0.87702165  0.24736101  0.44138168  1
  Sm3+  Sm49  1  0.61601876  0.49007668  0.93386085  1
  Sm3+  Sm50  1  0.00551184  0.36834906  0.55688512  1
  Sm3+  Sm51  1  0.37073421  0.25077970  0.94690913  1
  Sm3+  Sm52  1  0.36495212  0.49812780  0.94317178  1
  Sm3+  Sm53  1  0.62538201  -0.00005099  0.44266461  1
  Sm3+  Sm54  1  0.00192065  0.12175222  0.55369198  1
  Sm3+  Sm55  1  0.75172984  0.36995029  0.55749026  1
  Sm3+  Sm56  1  0.62760584  0.49510739  0.45212103  1
  Sm3+  Sm57  1  0.87937727  0.49705518  0.44877881  1
  Sm3+  Sm58  1  0.50271933  0.87339522  0.55780722  1
  Sm3+  Sm59  1  0.12405150  0.75057490  0.94843651  1
  Sm3+  Sm60  1  0.12667973  0.74812235  0.45296466  1
  Sm3+  Sm61  1  0.49496957  0.87503523  0.05824489  1
  Sm3+  Sm62  1  -0.00771452  0.62452809  0.05062533  1
  Sm3+  Sm63  1  0.12026494  0.49873180  0.94156096  1
  Bi2+  Bi64  1  -0.05325716  0.12891670  0.27626180  1
  Bi2+  Bi65  1  0.01002747  0.15728075  0.76505043  1
  Bi2+  Bi66  1  -0.02641226  0.38866755  0.30102801  1
  Bi2+  Bi67  1  0.03104960  0.36321908  0.80885640  1
  Bi2+  Bi68  1  -0.04860861  0.60729905  0.28370925  1
  Bi2+  Bi69  1  0.03847197  0.55735413  0.80663202  1
  Bi2+  Bi70  1  -0.01531256  0.84585144  0.30035591  1
  Bi2+  Bi71  1  0.02187555  0.88685507  0.79295382  1
  Bi2+  Bi72  1  0.22512265  0.13590490  0.28295401  1
  Bi2+  Bi73  1  0.21263801  0.14236531  0.79515440  1
  Bi2+  Bi74  1  0.24061863  0.46081836  0.29357477  1
  Bi2+  Bi75  1  0.22840895  0.33525619  0.79783877  1
  Bi2+  Bi76  1  0.31971019  0.64081456  0.31219059  1
  Bi2+  Bi77  1  0.29963600  0.62767243  0.80547804  1
  Bi2+  Bi78  1  0.24259691  0.87337309  0.29790709  1
  Bi2+  Bi79  1  0.26381658  0.88464831  0.81829636  1
  Bi2+  Bi80  1  0.54179077  0.12346189  0.29265980  1
  Bi2+  Bi81  1  0.48049465  0.11286050  0.78923827  1
  Bi2+  Bi82  1  0.51621517  0.38802724  0.29246214  1
  Bi2+  Bi83  1  0.46182041  0.38549994  0.79250378  1
  Bi2+  Bi84  1  0.51171394  0.60558576  0.29838013  1
  Bi2+  Bi85  1  0.48217767  0.60962317  0.76337910  1
  Bi2+  Bi86  1  0.55793584  0.85758853  0.27651055  1
  Bi2+  Bi87  1  0.51098371  0.88057992  0.73760044  1
  Bi2+  Bi88  1  0.73816400  0.15514400  0.29631979  1
  Bi2+  Bi89  1  0.74578392  0.11413944  0.78862202  1
  Bi2+  Bi90  1  0.71834882  0.42743603  0.27203826  1
  Bi2+  Bi91  1  0.83698303  0.38148057  0.78872335  1
  Bi2+  Bi92  1  0.75499576  0.67000403  0.29311817  1
  Bi2+  Bi93  1  0.73605989  0.65653032  0.77926789  1
  Bi2+  Bi94  1  0.74880541  0.88615965  0.29018576  1
  Bi2+  Bi95  1  0.76841988  0.86476571  0.80254961  1
  Bi2+  Bi96  1  0.10927340  -0.00094033  0.20900315  1
  Bi2+  Bi97  1  0.13761120  0.06667358  0.69552031  1
  Bi2+  Bi98  1  0.07771478  0.25352287  0.22330425  1
  Bi2+  Bi99  1  0.14969792  0.26531389  0.68996153  1
  Bi2+  Bi100  1  0.11330929  0.51415036  0.20627651  1
  Bi2+  Bi101  1  0.11920259  0.54810988  0.69610202  1
  Bi2+  Bi102  1  0.14255151  0.68873508  0.26108925  1
  Bi2+  Bi103  1  0.09888819  0.72493023  0.74962146  1
  Bi2+  Bi104  1  0.38016460  -0.00904876  0.20146990  1
  Bi2+  Bi105  1  0.35317137  -0.01800355  0.70180060  1
  Bi2+  Bi106  1  0.40878123  0.24203960  0.20096591  1
  Bi2+  Bi107  1  0.34164693  0.22777316  0.72058406  1
  Bi2+  Bi108  1  0.34876368  0.51412991  0.20685690  1
  Bi2+  Bi109  1  0.30127441  0.48090255  0.72557190  1
  Bi2+  Bi110  1  0.42179467  0.74093965  0.22609900  1
  Bi2+  Bi111  1  0.36483467  0.74356960  0.71052951  1
  Bi2+  Bi112  1  0.66668713  0.02684947  0.21743706  1
  Bi2+  Bi113  1  0.68605964  -0.04867842  0.70863937  1
  Bi2+  Bi114  1  0.65064598  0.26900937  0.21386732  1
  Bi2+  Bi115  1  0.61794645  0.26579024  0.68539975  1
  Bi2+  Bi116  1  0.61641689  0.54993796  0.20565231  1
  Bi2+  Bi117  1  0.62956058  0.48302518  0.74534670  1
  Bi2+  Bi118  1  0.68291644  0.75367608  0.19953427  1
  Bi2+  Bi119  1  0.63239242  0.74286181  0.69505630  1
  Bi2+  Bi120  1  0.86267458  -0.01713940  0.20564828  1
  Bi2+  Bi121  1  0.91684853  -0.01031884  0.70751088  1
  Bi2+  Bi122  1  0.84719952  0.25277163  0.21059253  1
  Bi2+  Bi123  1  0.87643726  0.25317996  0.70324703  1
  Bi2+  Bi124  1  0.86129889  0.50678373  0.20012888  1
  Bi2+  Bi125  1  0.93367183  0.49269037  0.71073608  1
  Bi2+  Bi126  1  0.88367779  0.75797654  0.21707054  1
  Bi2+  Bi127  1  0.90282758  0.74402705  0.73693083  1
  S2-  S128  1  0.09985354  0.13456517  0.14718875  1
  S2-  S129  1  -0.09644559  0.11907642  0.63637644  1
  S2-  S130  1  0.10544419  0.36784368  0.14766935  1
  S2-  S131  1  0.00814360  0.34902686  0.65419307  1
  S2-  S132  1  -0.00978257  0.57395358  0.14314613  1
  S2-  S133  1  -0.09671683  0.63213551  0.65043554  1
  S2-  S134  1  0.00372242  0.90384535  0.16180188  1
  S2-  S135  1  0.04768650  0.92859489  0.65565269  1
  S2-  S136  1  0.30749894  0.12973032  0.15931371  1
  S2-  S137  1  0.26851461  0.05495614  0.62348859  1
  S2-  S138  1  0.32638636  0.37212483  0.15471445  1
  S2-  S139  1  0.29491546  0.35922103  0.64741344  1
  S2-  S140  1  0.22951139  0.63296789  0.16670049  1
  S2-  S141  1  0.27069974  0.61447691  0.65724601  1
  S2-  S142  1  0.23450962  0.90308272  0.17328735  1
  S2-  S143  1  0.26093925  0.84821583  0.66568251  1
  S2-  S144  1  0.50570680  0.10047981  0.16701353  1
  S2-  S145  1  0.47011480  0.22008114  0.64640994  1
  S2-  S146  1  0.52784998  0.35614905  0.16653266  1
  S2-  S147  1  0.53263094  0.41959816  0.67355109  1
  S2-  S148  1  0.47187852  0.61299341  0.15430480  1
  S2-  S149  1  0.49262064  0.65447458  0.65833014  1
  S2-  S150  1  0.45558615  0.86124883  0.15285377  1
  S2-  S151  1  0.48086284  0.97084593  0.63764659  1
  S2-  S152  1  0.86388507  0.12181668  0.14015161  1
  S2-  S153  1  0.66640987  0.10728438  0.65852972  1
  S2-  S154  1  0.85270539  0.37916207  0.13558345  1
  S2-  S155  1  0.76522175  0.35110436  0.65402453  1
  S2-  S156  1  0.74261963  0.59574900  0.14198949  1
  S2-  S157  1  0.70108938  0.58605757  0.67428267  1
  S2-  S158  1  0.72324341  0.90211314  0.14806367  1
  S2-  S159  1  0.82373540  0.88837910  0.64912958  1
  S2-  S160  1  0.13456573  -0.00193986  0.32656863  1
  S2-  S161  1  0.12338115  -0.00836982  0.84549788  1
  S2-  S162  1  0.13282147  0.25080783  0.33029019  1
  S2-  S163  1  -0.00035927  0.21902136  0.86440909  1
  S2-  S164  1  0.09890484  0.48757533  0.34802150  1
  S2-  S165  1  0.19469175  0.52486642  0.85512835  1
  S2-  S166  1  0.11164240  0.75978117  0.35470326  1
  S2-  S167  1  0.14528137  0.77250924  0.85236007  1
  S2-  S168  1  0.33992426  0.00986626  0.30318361  1
  S2-  S169  1  0.37433350  0.00499827  0.84831610  1
  S2-  S170  1  0.35755309  0.21835245  0.30289416  1
  S2-  S171  1  0.43562074  0.24263891  0.85542190  1
  S2-  S172  1  0.38526814  0.40808374  0.35409385  1
  S2-  S173  1  0.42088701  0.51087819  0.85034661  1
  S2-  S174  1  0.36078453  0.83869939  0.35886371  1
  S2-  S175  1  0.37672676  0.77716491  0.84573786  1
  S2-  S176  1  0.54302075  -0.00048465  0.35559588  1
  S2-  S177  1  0.61141740  0.06641744  0.85066375  1
  S2-  S178  1  0.55086319  0.25972093  0.35841086  1
  S2-  S179  1  0.60598023  0.22177593  0.77846017  1
  S2-  S180  1  0.61766842  0.48722266  0.35457766  1
  S2-  S181  1  0.60712065  0.40874072  0.84765589  1
  S2-  S182  1  0.57032169  0.74373352  0.35043932  1
  S2-  S183  1  0.64148909  0.77204236  0.84104802  1
  S2-  S184  1  0.92216610  -0.01130563  0.33827719  1
  S2-  S185  1  0.85107044  0.01503991  0.83824049  1
  S2-  S186  1  0.89939942  0.26388013  0.34472652  1
  S2-  S187  1  0.77513667  0.24035378  0.84869916  1
  S2-  S188  1  0.87106051  0.49699003  0.35119907  1
  S2-  S189  1  0.81452399  0.53287503  0.83562231  1
  S2-  S190  1  0.85179355  0.76808312  0.35449789  1
  S2-  S191  1  0.90685518  0.77531563  0.84408841  1
  S2-  S192  1  0.00115512  0.12255144  0.44756075  1
  S2-  S193  1  -0.00298789  0.11629890  0.96303653  1
  S2-  S194  1  0.00144654  0.37112827  0.45308044  1
  S2-  S195  1  -0.00523539  0.37992748  0.95483276  1
  S2-  S196  1  0.00398280  0.62086296  0.46132473  1
  S2-  S197  1  -0.00173103  0.62685512  0.94659071  1
  S2-  S198  1  0.00156894  0.87179974  0.45639502  1
  S2-  S199  1  -0.00312140  0.87142651  0.95557511  1
  S2-  S200  1  0.25662511  0.12111621  0.43031316  1
  S2-  S201  1  0.24407921  0.12760816  0.95565554  1
  S2-  S202  1  0.25095832  0.36979508  0.44786973  1
  S2-  S203  1  0.24427739  0.37411225  0.95625384  1
  S2-  S204  1  0.25074107  0.62328908  0.45365096  1
  S2-  S205  1  0.24583157  0.62618786  0.96043787  1
  S2-  S206  1  0.24706441  0.87024743  0.45796904  1
  S2-  S207  1  0.24741000  0.87399883  0.96397125  1
  S2-  S208  1  0.50357379  0.12344992  0.45513816  1
  S2-  S209  1  0.49618273  0.13050875  0.96044152  1
  S2-  S210  1  0.50502848  0.37460434  0.46501997  1
  S2-  S211  1  0.48977230  0.37629323  0.95927718  1
  S2-  S212  1  0.50430465  0.62063404  0.45635313  1
  S2-  S213  1  0.49535103  0.62219422  0.95071770  1
  S2-  S214  1  0.50920265  0.86822495  0.45556554  1
  S2-  S215  1  0.49610496  0.87527025  0.95299627  1
  S2-  S216  1  0.75216342  0.12303807  0.45259860  1
  S2-  S217  1  0.74706198  0.12369958  0.95830438  1
  S2-  S218  1  0.75425521  0.37266948  0.45220548  1
  S2-  S219  1  0.74536552  0.37748328  0.95066895  1
  S2-  S220  1  0.75349211  0.61763106  0.46326009  1
  S2-  S221  1  0.74109771  0.62270865  0.94309555  1
  S2-  S222  1  0.74871115  0.87386734  0.45318423  1
  S2-  S223  1  0.74368716  0.87344525  0.94938995  1
  S2-  S224  1  0.11924623  -0.00631793  0.05096367  1
  S2-  S225  1  0.12292713  0.00187298  0.53498967  1
  S2-  S226  1  0.11679382  0.25133108  0.04159544  1
  S2-  S227  1  0.12705740  0.24115837  0.53818290  1
  S2-  S228  1  0.11962104  0.50386833  0.04421953  1
  S2-  S229  1  0.12886345  0.49448648  0.55194294  1
  S2-  S230  1  0.11880079  0.74801878  0.05431970  1
  S2-  S231  1  0.12808407  0.75102730  0.55779959  1
  S2-  S232  1  0.37078188  0.00016020  0.05203383  1
  S2-  S233  1  0.37996594  -0.00569253  0.52460881  1
  S2-  S234  1  0.36588574  0.24821067  0.04983849  1
  S2-  S235  1  0.37417951  0.24356589  0.53509284  1
  S2-  S236  1  0.36792085  0.49915687  0.04788586  1
  S2-  S237  1  0.37759175  0.49734876  0.54830865  1
  S2-  S238  1  0.37205983  0.74823217  0.05038276  1
  S2-  S239  1  0.37855650  0.75094012  0.54782561  1
  S2-  S240  1  0.61777189  -0.00078348  0.05033282  1
  S2-  S241  1  0.63184397  -0.00340814  0.54525387  1
  S2-  S242  1  0.62167520  0.25057738  0.05878883  1
  S2-  S243  1  0.63002862  0.24481866  0.55124620  1
  S2-  S244  1  0.61896254  0.49692564  0.04145471  1
  S2-  S245  1  0.62804213  0.49532799  0.55570798  1
  S2-  S246  1  0.61795899  0.74940428  0.04542160  1
  S2-  S247  1  0.62795753  0.74797914  0.55102244  1
  S2-  S248  1  0.86653384  -0.00769531  0.04411646  1
  S2-  S249  1  0.87505892  -0.00055182  0.53981254  1
  S2-  S250  1  0.87071747  0.25042036  0.03938487  1
  S2-  S251  1  0.87836564  0.24990182  0.54370912  1
  S2-  S252  1  0.86763533  0.50558670  0.03426413  1
  S2-  S253  1  0.87975798  0.49032030  0.55305524  1
  S2-  S254  1  0.86483987  0.74701654  0.04630965  1
  S2-  S255  1  0.87852996  0.74836963  0.55144710  1
