# generated using pymatgen
data_La6Ce7Pr13Nd19Sm19(BiS2)64
_symmetry_space_group_name_H-M   'P 1'
_cell_length_a   15.97955025
_cell_length_b   16.03245775
_cell_length_c   27.41164707
_cell_angle_alpha   90.28143065
_cell_angle_beta   90.09199386
_cell_angle_gamma   90.02874815
_symmetry_Int_Tables_number   1
_chemical_formula_structural   La6Ce7Pr13Nd19Sm19(BiS2)64
_chemical_formula_sum   'La6 Ce7 Pr13 Nd19 Sm19 Bi64 S128'
_cell_volume   7022.53532136
_cell_formula_units_Z   1
loop_
 _symmetry_equiv_pos_site_id
 _symmetry_equiv_pos_as_xyz
  1  'x, y, z'
loop_
 _atom_type_symbol
 _atom_type_oxidation_number
  La3+  3.0
  Ce3+  3.0
  Pr3+  3.0
  Nd3+  3.0
  Sm3+  3.0
  Bi2+  2.0
  S2-  -2.0
loop_
 _atom_site_type_symbol
 _atom_site_label
 _atom_site_symmetry_multiplicity
 _atom_site_fract_x
 _atom_site_fract_y
 _atom_site_fract_z
 _atom_site_occupancy
  La3+  La0  1  0.49651367  0.64296283  0.57636003  1
  La3+  La1  1  0.12687234  0.77291277  0.41478825  1
  La3+  La2  1  0.86402737  0.51891825  0.42302660  1
  La3+  La3  1  0.62472978  0.76561785  0.44681664  1
  La3+  La4  1  0.88872810  0.26236981  0.38464452  1
  La3+  La5  1  0.49358508  0.13252194  0.07139186  1
  Ce3+  Ce6  1  0.24740050  0.64671264  0.07097098  1
  Ce3+  Ce7  1  0.74583837  0.87792322  0.05068889  1
  Ce3+  Ce8  1  -0.00263916  0.13090766  0.06782674  1
  Ce3+  Ce9  1  0.12575690  0.26255854  0.44240140  1
  Ce3+  Ce10  1  0.87453004  0.02323243  0.44937683  1
  Ce3+  Ce11  1  0.86951609  0.76047266  0.92774208  1
  Ce3+  Ce12  1  0.25270503  0.39061939  0.55074686  1
  Pr3+  Pr13  1  0.12100977  0.51279067  0.43509016  1
  Pr3+  Pr14  1  0.24888657  0.88972099  0.56534118  1
  Pr3+  Pr15  1  0.49580999  0.39073140  0.06717392  1
  Pr3+  Pr16  1  0.12047034  0.01403288  0.93710859  1
  Pr3+  Pr17  1  0.61912013  0.51534728  0.44386558  1
  Pr3+  Pr18  1  -0.00174884  0.39130835  0.07246854  1
  Pr3+  Pr19  1  0.37436408  0.77110745  0.43194726  1
  Pr3+  Pr20  1  -0.00287309  0.65185847  0.09694509  1
  Pr3+  Pr21  1  0.75933496  0.64514807  0.58925577  1
  Pr3+  Pr22  1  0.35958915  0.75957120  0.90857457  1
  Pr3+  Pr23  1  0.74620310  0.39129174  0.09438481  1
  Pr3+  Pr24  1  0.49277193  0.39255630  0.57850500  1
  Pr3+  Pr25  1  0.75182264  0.14307133  0.57334358  1
  Nd3+  Nd26  1  0.62063120  0.01391424  0.93743602  1
  Nd3+  Nd27  1  0.63027384  0.49837347  0.92737629  1
  Nd3+  Nd28  1  0.24398301  0.39146661  0.07219009  1
  Nd3+  Nd29  1  -0.00408253  0.39156608  0.55343398  1
  Nd3+  Nd30  1  0.49540669  0.88645434  0.57851143  1
  Nd3+  Nd31  1  0.36619255  0.01456232  0.92316982  1
  Nd3+  Nd32  1  0.00030312  0.64130744  0.55608552  1
  Nd3+  Nd33  1  0.37223816  0.26417595  0.93698834  1
  Nd3+  Nd34  1  0.24909401  0.88627559  0.05793378  1
  Nd3+  Nd35  1  0.62528844  0.26304969  0.43844141  1
  Nd3+  Nd36  1  0.61850220  0.75042891  0.91747810  1
  Nd3+  Nd37  1  0.50053030  0.14096979  0.57234492  1
  Nd3+  Nd38  1  0.74923610  0.39228677  0.55527326  1
  Nd3+  Nd39  1  0.36179511  0.50754241  0.93093178  1
  Nd3+  Nd40  1  0.87227693  0.51320888  0.95076479  1
  Nd3+  Nd41  1  0.74249120  0.63888165  0.06317300  1
  Nd3+  Nd42  1  0.24829053  0.64381170  0.55695275  1
  Nd3+  Nd43  1  0.49470352  0.63700770  0.04384481  1
  Nd3+  Nd44  1  0.74851610  0.13305267  0.08995597  1
  Sm3+  Sm45  1  0.86946673  0.01404693  0.93652555  1
  Sm3+  Sm46  1  0.62433709  0.26397892  0.95237150  1
  Sm3+  Sm47  1  -0.00160714  0.14466956  0.57081515  1
  Sm3+  Sm48  1  0.87047977  0.26373058  0.95251008  1
  Sm3+  Sm49  1  0.37853097  0.51593437  0.44009722  1
  Sm3+  Sm50  1  0.24414893  0.13671432  0.06804685  1
  Sm3+  Sm51  1  0.12400645  0.01827959  0.44268421  1
  Sm3+  Sm52  1  0.87462682  0.76404233  0.43875018  1
  Sm3+  Sm53  1  0.62641109  0.01580176  0.45254844  1
  Sm3+  Sm54  1  0.49692353  0.88529467  0.04347824  1
  Sm3+  Sm55  1  0.12168772  0.75939700  0.94252544  1
  Sm3+  Sm56  1  0.12397405  0.51305419  0.94690246  1
  Sm3+  Sm57  1  0.75341593  0.88846681  0.56375629  1
  Sm3+  Sm58  1  0.00648964  0.88906246  0.55789274  1
  Sm3+  Sm59  1  -0.00702939  0.88546635  0.05134070  1
  Sm3+  Sm60  1  0.25031328  0.14108321  0.56643254  1
  Sm3+  Sm61  1  0.37789084  0.01285614  0.44124587  1
  Sm3+  Sm62  1  0.38108014  0.26267923  0.43712737  1
  Sm3+  Sm63  1  0.12057451  0.26163388  0.94879500  1
  Bi2+  Bi64  1  -0.01346815  0.01303989  0.27975846  1
  Bi2+  Bi65  1  -0.00668053  0.05940632  0.82743570  1
  Bi2+  Bi66  1  0.03237703  0.36743493  0.28800975  1
  Bi2+  Bi67  1  0.00488023  0.33612212  0.80446866  1
  Bi2+  Bi68  1  -0.01148054  0.59954831  0.29241583  1
  Bi2+  Bi69  1  0.00511081  0.53205119  0.78928649  1
  Bi2+  Bi70  1  -0.09261634  0.84429156  0.31052701  1
  Bi2+  Bi71  1  0.04060514  0.87769712  0.79090382  1
  Bi2+  Bi72  1  0.21185064  0.10596579  0.29153942  1
  Bi2+  Bi73  1  0.25966530  0.14554236  0.79539701  1
  Bi2+  Bi74  1  0.27910013  0.29797439  0.30820212  1
  Bi2+  Bi75  1  0.19513615  0.36463442  0.77352861  1
  Bi2+  Bi76  1  0.31045776  0.59781708  0.29005542  1
  Bi2+  Bi77  1  0.22348725  0.62172753  0.79008740  1
  Bi2+  Bi78  1  0.25114611  0.87977743  0.29958897  1
  Bi2+  Bi79  1  0.24252686  0.88465844  0.78732587  1
  Bi2+  Bi80  1  0.40290459  0.13674581  0.30920832  1
  Bi2+  Bi81  1  0.51436626  0.14636302  0.78084814  1
  Bi2+  Bi82  1  0.45672329  0.39172428  0.29671332  1
  Bi2+  Bi83  1  0.45652943  0.33481374  0.76908164  1
  Bi2+  Bi84  1  0.50427495  0.64503148  0.29135034  1
  Bi2+  Bi85  1  0.46703682  0.52618123  0.80229888  1
  Bi2+  Bi86  1  0.44930568  0.86911206  0.26580783  1
  Bi2+  Bi87  1  0.53887190  0.91976193  0.79669449  1
  Bi2+  Bi88  1  0.73733605  0.11087462  0.29934735  1
  Bi2+  Bi89  1  0.80608571  0.08801039  0.78547233  1
  Bi2+  Bi90  1  0.66377117  0.39302056  0.28720543  1
  Bi2+  Bi91  1  0.74752551  0.35887478  0.80139740  1
  Bi2+  Bi92  1  0.72769377  0.64233840  0.28998405  1
  Bi2+  Bi93  1  0.75417474  0.61426071  0.79788622  1
  Bi2+  Bi94  1  0.71258045  0.88770674  0.30568781  1
  Bi2+  Bi95  1  0.77660358  0.95474724  0.70287228  1
  Bi2+  Bi96  1  0.12378252  -0.03371747  0.20372801  1
  Bi2+  Bi97  1  0.16584134  -0.00990646  0.70146293  1
  Bi2+  Bi98  1  0.18426805  0.24546556  0.20817424  1
  Bi2+  Bi99  1  0.03406849  0.13354236  0.72612871  1
  Bi2+  Bi100  1  0.20444353  0.49297409  0.21620349  1
  Bi2+  Bi101  1  0.12851027  0.49503146  0.69480644  1
  Bi2+  Bi102  1  0.13309032  0.76823249  0.20688666  1
  Bi2+  Bi103  1  0.15161330  0.68799771  0.68824195  1
  Bi2+  Bi104  1  0.31865717  -0.00319512  0.21070190  1
  Bi2+  Bi105  1  0.38403198  0.01541181  0.71693953  1
  Bi2+  Bi106  1  0.40250501  0.25130472  0.20920126  1
  Bi2+  Bi107  1  0.28173146  0.24690888  0.70089335  1
  Bi2+  Bi108  1  0.37905676  0.44208544  0.17929531  1
  Bi2+  Bi109  1  0.35613069  0.50224787  0.71123611  1
  Bi2+  Bi110  1  0.37439345  0.70945816  0.20593548  1
  Bi2+  Bi111  1  0.39222174  0.75871754  0.71648684  1
  Bi2+  Bi112  1  0.59054797  -0.01177787  0.21978290  1
  Bi2+  Bi113  1  0.58017622  -0.01258122  0.69476298  1
  Bi2+  Bi114  1  0.61456884  0.24767754  0.21845218  1
  Bi2+  Bi115  1  0.68441824  0.21153153  0.73325761  1
  Bi2+  Bi116  1  0.56393796  0.52559104  0.20393582  1
  Bi2+  Bi117  1  0.61841513  0.44804923  0.70434821  1
  Bi2+  Bi118  1  0.60473470  0.79588762  0.19145774  1
  Bi2+  Bi119  1  0.65260339  0.75653476  0.72155188  1
  Bi2+  Bi120  1  0.81507556  -0.01649201  0.22048353  1
  Bi2+  Bi121  1  0.96871783  -0.07710210  0.68751614  1
  Bi2+  Bi122  1  0.92848791  0.23993118  0.18598303  1
  Bi2+  Bi123  1  0.89472803  0.27924656  0.70877890  1
  Bi2+  Bi124  1  0.80710184  0.48899011  0.22794498  1
  Bi2+  Bi125  1  0.88842408  0.49380840  0.69924664  1
  Bi2+  Bi126  1  0.86739622  0.76342714  0.20898278  1
  Bi2+  Bi127  1  0.97285732  0.71139024  0.73952977  1
  S2-  S128  1  0.11965326  0.13391301  0.14220219  1
  S2-  S129  1  -0.11989700  0.14998368  0.64878435  1
  S2-  S130  1  -0.10252726  0.40268653  0.15634844  1
  S2-  S131  1  0.01294357  0.38405860  0.65354576  1
  S2-  S132  1  -0.06540205  0.61362186  0.19235291  1
  S2-  S133  1  -0.08465840  0.63322159  0.64428948  1
  S2-  S134  1  -0.00939004  0.81616532  0.14232977  1
  S2-  S135  1  0.11860389  0.86303380  0.63499848  1
  S2-  S136  1  0.36155552  0.11911276  0.14225423  1
  S2-  S137  1  0.12570221  0.14788211  0.64103228  1
  S2-  S138  1  0.12653455  0.38617354  0.14969697  1
  S2-  S139  1  0.32416801  0.38478459  0.63882785  1
  S2-  S140  1  0.14352924  0.62612643  0.15540923  1
  S2-  S141  1  0.32298227  0.65569655  0.64830271  1
  S2-  S142  1  0.26591451  0.78671816  0.14044676  1
  S2-  S143  1  0.35885891  0.88698575  0.64735977  1
  S2-  S144  1  0.60489594  0.11571247  0.15137785  1
  S2-  S145  1  0.37026792  0.13811197  0.64149039  1
  S2-  S146  1  0.59243238  0.37957787  0.15157086  1
  S2-  S147  1  0.53223194  0.32135572  0.67101486  1
  S2-  S148  1  0.51410690  0.66413035  0.14260931  1
  S2-  S149  1  0.49889028  0.52368400  0.65242953  1
  S2-  S150  1  0.50028910  0.90426020  0.14130010  1
  S2-  S151  1  0.51889357  0.76145353  0.65539546  1
  S2-  S152  1  0.89244128  0.08485204  0.14512640  1
  S2-  S153  1  0.62769725  0.13725466  0.64716202  1
  S2-  S154  1  0.76089326  0.25478294  0.16433150  1
  S2-  S155  1  0.76723768  0.39136917  0.65605158  1
  S2-  S156  1  0.72715755  0.54542681  0.14983046  1
  S2-  S157  1  0.69593104  0.61019342  0.68637478  1
  S2-  S158  1  0.74161526  0.77616631  0.13109006  1
  S2-  S159  1  0.76319460  0.80025634  0.64822533  1
  S2-  S160  1  0.12426263  -0.06795092  0.35761703  1
  S2-  S161  1  0.22170657  0.01973899  0.85504181  1
  S2-  S162  1  0.06330945  0.24322929  0.35354134  1
  S2-  S163  1  0.15770059  0.26227422  0.85275406  1
  S2-  S164  1  0.11606311  0.50709163  0.33425030  1
  S2-  S165  1  0.22009785  0.51652612  0.86415095  1
  S2-  S166  1  0.05861960  0.73433753  0.31777806  1
  S2-  S167  1  0.20096778  0.75237804  0.85566432  1
  S2-  S168  1  0.39614496  -0.09310334  0.36263130  1
  S2-  S169  1  0.38540370  -0.10186295  0.84534118  1
  S2-  S170  1  0.49720643  0.25625508  0.36385273  1
  S2-  S171  1  0.39175087  0.15089834  0.85939479  1
  S2-  S172  1  0.49081992  0.51484540  0.36535077  1
  S2-  S173  1  0.39180066  0.38384644  0.85887733  1
  S2-  S174  1  0.26693245  0.73127439  0.35191542  1
  S2-  S175  1  0.40231379  0.68336482  0.81292985  1
  S2-  S176  1  0.62573193  0.01764003  0.35358126  1
  S2-  S177  1  0.62252562  0.05747044  0.84090003  1
  S2-  S178  1  0.71899144  0.25460013  0.35115033  1
  S2-  S179  1  0.62775252  0.35046814  0.86616212  1
  S2-  S180  1  0.70923973  0.51842516  0.35441270  1
  S2-  S181  1  0.61299583  0.60743242  0.84813654  1
  S2-  S182  1  0.61781718  0.75107792  0.34627507  1
  S2-  S183  1  0.65385979  0.81024042  0.82416833  1
  S2-  S184  1  0.88609400  0.08335033  0.35844946  1
  S2-  S185  1  0.85183379  -0.04462305  0.84390291  1
  S2-  S186  1  0.90191956  0.25165027  0.27649706  1
  S2-  S187  1  0.87183414  0.26610354  0.85344282  1
  S2-  S188  1  0.90734258  0.42784494  0.33811162  1
  S2-  S189  1  0.79403723  0.49477605  0.86034603  1
  S2-  S190  1  0.86158240  0.66464272  0.35516701  1
  S2-  S191  1  0.87293772  0.71658126  0.83213974  1
  S2-  S192  1  0.00287204  0.14091088  0.46400294  1
  S2-  S193  1  -0.00553442  0.13824762  0.95940507  1
  S2-  S194  1  -0.00372835  0.38564124  0.44922224  1
  S2-  S195  1  -0.00151880  0.38783944  0.96017305  1
  S2-  S196  1  0.00159350  0.64257959  0.44966120  1
  S2-  S197  1  0.00060715  0.63481055  0.93897609  1
  S2-  S198  1  -0.00324988  0.89245001  0.45455772  1
  S2-  S199  1  -0.00396254  0.88538545  0.94717288  1
  S2-  S200  1  0.25390315  0.13821205  0.45186943  1
  S2-  S201  1  0.24510294  0.14043530  0.96274394  1
  S2-  S202  1  0.25507685  0.38921945  0.44457919  1
  S2-  S203  1  0.24264234  0.38388589  0.96530957  1
  S2-  S204  1  0.25008635  0.63434675  0.45234711  1
  S2-  S205  1  0.24605867  0.63937378  0.96202116  1
  S2-  S206  1  0.24907241  0.89551810  0.45858146  1
  S2-  S207  1  0.24491314  0.88531282  0.95403126  1
  S2-  S208  1  0.49994158  0.13411440  0.46377826  1
  S2-  S209  1  0.50077013  0.14091688  0.96142166  1
  S2-  S210  1  0.49629761  0.38856157  0.46640796  1
  S2-  S211  1  0.49628460  0.38818725  0.96284138  1
  S2-  S212  1  0.49483595  0.64492434  0.46207869  1
  S2-  S213  1  0.48522571  0.63413169  0.94102379  1
  S2-  S214  1  0.50255974  0.89323791  0.46723667  1
  S2-  S215  1  0.49904361  0.88363036  0.94118919  1
  S2-  S216  1  0.74554538  0.13886095  0.46586008  1
  S2-  S217  1  0.74784775  0.13938392  0.94848853  1
  S2-  S218  1  0.74887906  0.38773047  0.45197167  1
  S2-  S219  1  0.75272820  0.38532321  0.97134715  1
  S2-  S220  1  0.74960203  0.64474163  0.46276234  1
  S2-  S221  1  0.74609740  0.63742210  0.95440101  1
  S2-  S222  1  0.75383186  0.89159988  0.45784947  1
  S2-  S223  1  0.74446800  0.88520293  0.94594167  1
  S2-  S224  1  0.12079854  0.00555109  0.04328335  1
  S2-  S225  1  0.12486788  0.01816075  0.54431105  1
  S2-  S226  1  0.12124515  0.26294473  0.04892815  1
  S2-  S227  1  0.12687269  0.26875229  0.54567278  1
  S2-  S228  1  0.11848089  0.52121856  0.04873503  1
  S2-  S229  1  0.12524118  0.51586634  0.54303710  1
  S2-  S230  1  0.11695883  0.76282203  0.04393239  1
  S2-  S231  1  0.12381201  0.76269409  0.53095974  1
  S2-  S232  1  0.37064994  0.00798075  0.03655593  1
  S2-  S233  1  0.37406281  0.01583303  0.54417373  1
  S2-  S234  1  0.36666830  0.26625419  0.04976253  1
  S2-  S235  1  0.37399657  0.26169713  0.54022226  1
  S2-  S236  1  0.36611713  0.51449069  0.04519572  1
  S2-  S237  1  0.37287456  0.51870682  0.54237034  1
  S2-  S238  1  0.37425658  0.76490760  0.03470228  1
  S2-  S239  1  0.37340990  0.76648436  0.54054203  1
  S2-  S240  1  0.62671460  0.00815661  0.04297067  1
  S2-  S241  1  0.62529023  0.00679877  0.55488890  1
  S2-  S242  1  0.62577377  0.25788601  0.05308790  1
  S2-  S243  1  0.62237147  0.26824905  0.54777089  1
  S2-  S244  1  0.62043841  0.51341063  0.03996812  1
  S2-  S245  1  0.62939985  0.52195562  0.55206317  1
  S2-  S246  1  0.61738087  0.76098801  0.02775077  1
  S2-  S247  1  0.62931227  0.76617777  0.55255034  1
  S2-  S248  1  0.86655488  0.00609724  0.03945873  1
  S2-  S249  1  0.87926420  0.01104947  0.55373229  1
  S2-  S250  1  0.87285279  0.25850297  0.05473499  1
  S2-  S251  1  0.87568183  0.26793047  0.55063672  1
  S2-  S252  1  0.88252975  0.52796525  0.05371611  1
  S2-  S253  1  0.87415601  0.51780217  0.54022217  1
  S2-  S254  1  0.87732916  0.75708513  0.03493623  1
  S2-  S255  1  0.88026546  0.76914433  0.54273639  1
