# generated using pymatgen
data_La6Ce7Pr13Nd19Sm19(BiS2)64
_symmetry_space_group_name_H-M   'P 1'
_cell_length_a   16.16319269
_cell_length_b   16.15403619
_cell_length_c   27.01001404
_cell_angle_alpha   89.97748124
_cell_angle_beta   89.95830372
_cell_angle_gamma   90.03242002
_symmetry_Int_Tables_number   1
_chemical_formula_structural   La6Ce7Pr13Nd19Sm19(BiS2)64
_chemical_formula_sum   'La6 Ce7 Pr13 Nd19 Sm19 Bi64 S128'
_cell_volume   7052.33271901
_cell_formula_units_Z   1
loop_
 _symmetry_equiv_pos_site_id
 _symmetry_equiv_pos_as_xyz
  1  'x, y, z'
loop_
 _atom_type_symbol
 _atom_type_oxidation_number
  La3+  3.0
  Ce3+  3.0
  Pr3+  3.0
  Nd3+  3.0
  Sm3+  3.0
  Bi2+  2.0
  S2-  -2.0
loop_
 _atom_site_type_symbol
 _atom_site_label
 _atom_site_symmetry_multiplicity
 _atom_site_fract_x
 _atom_site_fract_y
 _atom_site_fract_z
 _atom_site_occupancy
  La3+  La0  1  0.24454972  0.36140072  0.09163054  1
  La3+  La1  1  0.11188538  0.74688240  0.42223741  1
  La3+  La2  1  0.35850925  -0.00024472  0.43275786  1
  La3+  La3  1  0.36663459  0.75211238  0.42096146  1
  La3+  La4  1  0.11677547  0.26258589  0.91168932  1
  La3+  La5  1  0.10928573  0.00105868  0.43342602  1
  Ce3+  Ce6  1  0.86857843  0.49573664  0.44291682  1
  Ce3+  Ce7  1  -0.00576620  0.37594109  0.56482867  1
  Ce3+  Ce8  1  0.74902321  0.37742236  0.05682585  1
  Ce3+  Ce9  1  0.61832353  0.24596643  0.44500838  1
  Ce3+  Ce10  1  0.25079744  0.62889272  0.06614297  1
  Ce3+  Ce11  1  0.24494154  0.62646355  0.54643010  1
  Ce3+  Ce12  1  0.49395939  0.37473883  0.55767058  1
  Pr3+  Pr13  1  0.24546862  0.37535751  0.56476745  1
  Pr3+  Pr14  1  0.49165498  0.62575984  0.55605356  1
  Pr3+  Pr15  1  0.37769926  0.75231765  0.93924586  1
  Pr3+  Pr16  1  0.49845420  0.88165190  0.06751202  1
  Pr3+  Pr17  1  -0.00408661  0.12401427  0.57055849  1
  Pr3+  Pr18  1  0.74228920  0.11999905  0.56161070  1
  Pr3+  Pr19  1  0.49240707  0.11876805  0.56420944  1
  Pr3+  Pr20  1  0.62551180  0.00504336  0.93475366  1
  Pr3+  Pr21  1  0.74836069  0.12813147  0.05874208  1
  Pr3+  Pr22  1  0.48453299  0.86442127  0.58526651  1
  Pr3+  Pr23  1  0.74867756  0.62768521  0.06167721  1
  Pr3+  Pr24  1  0.37284677  0.49443127  0.42520370  1
  Pr3+  Pr25  1  0.00470883  0.12859890  0.05913758  1
  Nd3+  Nd26  1  0.12528419  0.75188591  0.93912000  1
  Nd3+  Nd27  1  0.49783272  0.37566296  0.05692302  1
  Nd3+  Nd28  1  0.86868870  0.24948299  0.44782207  1
  Nd3+  Nd29  1  0.74194512  0.37544245  0.55716507  1
  Nd3+  Nd30  1  0.36815356  0.25004556  0.44054437  1
  Nd3+  Nd31  1  0.00361471  0.87709382  0.05988422  1
  Nd3+  Nd32  1  0.74719308  0.87883297  0.05700990  1
  Nd3+  Nd33  1  0.37092835  0.25716847  0.93054325  1
  Nd3+  Nd34  1  0.37609295  0.00294015  0.92998397  1
  Nd3+  Nd35  1  0.12632816  0.50133246  0.94543591  1
  Nd3+  Nd36  1  0.00287451  0.62722043  0.06031424  1
  Nd3+  Nd37  1  0.61968216  0.50089747  0.43612925  1
  Nd3+  Nd38  1  -0.00523759  0.62386352  0.55558489  1
  Nd3+  Nd39  1  0.23714260  0.87019520  0.56203997  1
  Nd3+  Nd40  1  0.00032018  0.37701647  0.06504525  1
  Nd3+  Nd41  1  0.24489639  0.12207218  0.56459137  1
  Nd3+  Nd42  1  0.74339782  0.87226924  0.55607068  1
  Nd3+  Nd43  1  0.61702308  -0.00414023  0.44128342  1
  Nd3+  Nd44  1  0.50058077  0.62569415  0.06571489  1
  Sm3+  Sm45  1  0.74366847  0.62611150  0.54988196  1
  Sm3+  Sm46  1  0.37193027  0.49966611  0.95095283  1
  Sm3+  Sm47  1  0.11832126  0.25198936  0.44387804  1
  Sm3+  Sm48  1  0.49572371  0.12874136  0.05039157  1
  Sm3+  Sm49  1  0.62260086  0.75218682  0.94418129  1
  Sm3+  Sm50  1  0.87632392  0.25343027  0.94396570  1
  Sm3+  Sm51  1  0.61763440  0.75211319  0.43861010  1
  Sm3+  Sm52  1  0.87493337  0.00244865  0.94847805  1
  Sm3+  Sm53  1  0.12363302  0.00272808  0.93788077  1
  Sm3+  Sm54  1  0.24906543  0.12907840  0.04576534  1
  Sm3+  Sm55  1  0.87460985  0.75192344  0.94943123  1
  Sm3+  Sm56  1  0.11963440  0.49598721  0.44001053  1
  Sm3+  Sm57  1  0.62475525  0.50217391  0.94314990  1
  Sm3+  Sm58  1  0.62390084  0.25335497  0.93982266  1
  Sm3+  Sm59  1  0.87100551  0.74804588  0.44010476  1
  Sm3+  Sm60  1  -0.00302649  0.86954922  0.56631599  1
  Sm3+  Sm61  1  0.87359811  0.50345898  0.94701587  1
  Sm3+  Sm62  1  0.25157321  0.87742470  0.05271554  1
  Sm3+  Sm63  1  0.87101173  -0.00104143  0.44759831  1
  Bi2+  Bi64  1  0.00172993  0.10728939  0.29185985  1
  Bi2+  Bi65  1  -0.01192929  0.10619119  0.79442152  1
  Bi2+  Bi66  1  -0.01021786  0.35760824  0.28924151  1
  Bi2+  Bi67  1  -0.00619901  0.37869736  0.79008469  1
  Bi2+  Bi68  1  -0.03604866  0.62868495  0.28773945  1
  Bi2+  Bi69  1  -0.03356847  0.60702454  0.79195194  1
  Bi2+  Bi70  1  -0.02462248  0.88350007  0.28348005  1
  Bi2+  Bi71  1  -0.01425660  0.85036999  0.77980668  1
  Bi2+  Bi72  1  0.24338053  0.14385749  0.28017822  1
  Bi2+  Bi73  1  0.27091867  0.11180097  0.78935299  1
  Bi2+  Bi74  1  0.24736187  0.38853150  0.30028155  1
  Bi2+  Bi75  1  0.26107910  0.39073258  0.79736065  1
  Bi2+  Bi76  1  0.18723787  0.62769135  0.26906865  1
  Bi2+  Bi77  1  0.20257567  0.62198146  0.78017430  1
  Bi2+  Bi78  1  0.25652444  0.90682494  0.28576327  1
  Bi2+  Bi79  1  0.24781544  0.84700028  0.78443368  1
  Bi2+  Bi80  1  0.50059637  0.11330950  0.25375429  1
  Bi2+  Bi81  1  0.52073734  0.12768716  0.79110398  1
  Bi2+  Bi82  1  0.51506564  0.33295741  0.28903087  1
  Bi2+  Bi83  1  0.52299745  0.39061985  0.76238483  1
  Bi2+  Bi84  1  0.49487529  0.61198542  0.29702513  1
  Bi2+  Bi85  1  0.55830951  0.61053842  0.78219836  1
  Bi2+  Bi86  1  0.51849258  0.86354464  0.29881150  1
  Bi2+  Bi87  1  0.48712537  0.85480825  0.79814091  1
  Bi2+  Bi88  1  0.76393461  0.17984717  0.30230775  1
  Bi2+  Bi89  1  0.77326695  0.11225209  0.79083326  1
  Bi2+  Bi90  1  0.77695713  0.40790342  0.29997404  1
  Bi2+  Bi91  1  0.73752237  0.38869290  0.79666907  1
  Bi2+  Bi92  1  0.76722968  0.61286505  0.29045580  1
  Bi2+  Bi93  1  0.76954987  0.64791486  0.79215925  1
  Bi2+  Bi94  1  0.77354176  0.88866124  0.29668068  1
  Bi2+  Bi95  1  0.77584109  0.84276483  0.77941422  1
  Bi2+  Bi96  1  0.11452673  0.01768195  0.21398397  1
  Bi2+  Bi97  1  0.10030104  -0.01432575  0.72817530  1
  Bi2+  Bi98  1  0.11741796  0.23237256  0.21256431  1
  Bi2+  Bi99  1  0.13448999  0.24861950  0.70071969  1
  Bi2+  Bi100  1  0.04685921  0.50228418  0.21067234  1
  Bi2+  Bi101  1  0.09041489  0.50293669  0.71909484  1
  Bi2+  Bi102  1  0.11213860  0.77981398  0.20283785  1
  Bi2+  Bi103  1  0.13025185  0.74504215  0.69756979  1
  Bi2+  Bi104  1  0.36651758  -0.00626730  0.20377487  1
  Bi2+  Bi105  1  0.37518030  0.00530964  0.69968447  1
  Bi2+  Bi106  1  0.37198486  0.23758443  0.20197727  1
  Bi2+  Bi107  1  0.37899859  0.26495481  0.69948784  1
  Bi2+  Bi108  1  0.41474249  0.48642507  0.20875961  1
  Bi2+  Bi109  1  0.37601852  0.53502895  0.74820281  1
  Bi2+  Bi110  1  0.36038502  0.74496465  0.20092615  1
  Bi2+  Bi111  1  0.36332210  0.72944259  0.70646808  1
  Bi2+  Bi112  1  0.64716716  -0.00790660  0.21660651  1
  Bi2+  Bi113  1  0.67021016  -0.01105587  0.71894882  1
  Bi2+  Bi114  1  0.64364651  0.23805989  0.21429926  1
  Bi2+  Bi115  1  0.65803370  0.26052787  0.71696384  1
  Bi2+  Bi116  1  0.65810613  0.49762392  0.21997657  1
  Bi2+  Bi117  1  0.63123338  0.50577133  0.69202454  1
  Bi2+  Bi118  1  0.65775114  0.74706222  0.22247816  1
  Bi2+  Bi119  1  0.63978628  0.73913359  0.70745080  1
  Bi2+  Bi120  1  0.84241210  0.03620169  0.23264723  1
  Bi2+  Bi121  1  0.88400523  -0.01513972  0.71750852  1
  Bi2+  Bi122  1  0.85793771  0.28307199  0.21636780  1
  Bi2+  Bi123  1  0.85553509  0.26496274  0.73790881  1
  Bi2+  Bi124  1  0.85566741  0.47737731  0.19456419  1
  Bi2+  Bi125  1  0.82497242  0.50432245  0.71684006  1
  Bi2+  Bi126  1  0.85361747  0.75430719  0.22180985  1
  Bi2+  Bi127  1  0.90590509  0.73125765  0.70297485  1
  S2-  S128  1  0.01106435  0.12969209  0.15984233  1
  S2-  S129  1  0.03456055  0.12670229  0.66910974  1
  S2-  S130  1  0.09367677  0.36311629  0.14777662  1
  S2-  S131  1  0.02738451  0.36469152  0.66126860  1
  S2-  S132  1  0.02778804  0.65603688  0.15735713  1
  S2-  S133  1  0.01061210  0.62281208  0.65517696  1
  S2-  S134  1  0.01600552  0.89334511  0.15900659  1
  S2-  S135  1  0.11293691  0.87968121  0.64001551  1
  S2-  S136  1  0.24915019  0.19499191  0.13711717  1
  S2-  S137  1  0.25303018  0.13138020  0.66563264  1
  S2-  S138  1  0.28147920  0.40150197  0.19473935  1
  S2-  S139  1  0.25022087  0.36706221  0.66646935  1
  S2-  S140  1  0.25280616  0.62568700  0.16595141  1
  S2-  S141  1  0.25002824  0.64796675  0.64281465  1
  S2-  S142  1  0.24846790  0.85536350  0.15073278  1
  S2-  S143  1  0.33535314  0.87346025  0.64588813  1
  S2-  S144  1  0.46901916  0.10786828  0.14645853  1
  S2-  S145  1  0.47141337  0.14405611  0.66483949  1
  S2-  S146  1  0.47845726  0.36350343  0.15605905  1
  S2-  S147  1  0.47884756  0.37618110  0.65546929  1
  S2-  S148  1  0.46659620  0.64045456  0.16441194  1
  S2-  S149  1  0.49544189  0.71620633  0.64282246  1
  S2-  S150  1  0.46634857  0.87103270  0.16793763  1
  S2-  S151  1  0.51886115  0.94062967  0.67786879  1
  S2-  S152  1  0.72885072  0.11571438  0.15782559  1
  S2-  S153  1  0.70973835  0.12232664  0.65992595  1
  S2-  S154  1  0.70915460  0.36823949  0.15130487  1
  S2-  S155  1  0.75682820  0.37073304  0.65597176  1
  S2-  S156  1  0.67429683  0.62808351  0.15251960  1
  S2-  S157  1  0.73556506  0.62510242  0.64806823  1
  S2-  S158  1  0.69856328  0.87549152  0.15199124  1
  S2-  S159  1  0.72681590  0.85867511  0.65419261  1
  S2-  S160  1  0.21381544  0.01902478  0.35270312  1
  S2-  S161  1  0.11426828  0.01650439  0.83941935  1
  S2-  S162  1  0.15800869  0.25826119  0.34699253  1
  S2-  S163  1  0.17136657  0.23178100  0.81129350  1
  S2-  S164  1  0.14598635  0.49966657  0.34197539  1
  S2-  S165  1  0.12650924  0.42188069  0.85657197  1
  S2-  S166  1  0.19485272  0.75381038  0.33085536  1
  S2-  S167  1  0.14138155  0.75985991  0.83995478  1
  S2-  S168  1  0.40252350  -0.05021253  0.33852499  1
  S2-  S169  1  0.35034354  -0.02118427  0.83139692  1
  S2-  S170  1  0.37712349  0.29684776  0.34405504  1
  S2-  S171  1  0.38801953  0.21881386  0.83210766  1
  S2-  S172  1  0.35393416  0.52137376  0.32448777  1
  S2-  S173  1  0.35872421  0.47971450  0.85290112  1
  S2-  S174  1  0.40070603  0.73927556  0.31979276  1
  S2-  S175  1  0.37216494  0.75893862  0.83790715  1
  S2-  S176  1  0.63353069  -0.02854081  0.34253014  1
  S2-  S177  1  0.56955506  -0.00636883  0.83904642  1
  S2-  S178  1  0.61304655  0.23354410  0.34778751  1
  S2-  S179  1  0.62746427  0.20858734  0.84449782  1
  S2-  S180  1  0.55900977  0.47733943  0.34479201  1
  S2-  S181  1  0.61169695  0.47486902  0.84599446  1
  S2-  S182  1  0.60648548  0.72722773  0.34110872  1
  S2-  S183  1  0.58759993  0.76182576  0.84784738  1
  S2-  S184  1  0.96999314  -0.00277745  0.36603516  1
  S2-  S185  1  0.86857945  0.01321738  0.85096785  1
  S2-  S186  1  0.91741110  0.23200263  0.35250832  1
  S2-  S187  1  0.96243752  0.25154273  0.85872730  1
  S2-  S188  1  0.92259199  0.47958078  0.35040472  1
  S2-  S189  1  0.89071258  0.48350273  0.85006985  1
  S2-  S190  1  0.96755795  0.75716565  0.35790978  1
  S2-  S191  1  0.88855414  0.75165053  0.85209879  1
  S2-  S192  1  -0.00659724  0.13005595  0.46291066  1
  S2-  S193  1  -0.00036754  0.12391274  0.95279422  1
  S2-  S194  1  -0.00407328  0.37294639  0.45739634  1
  S2-  S195  1  -0.00477320  0.38134757  0.95946226  1
  S2-  S196  1  -0.00674656  0.61828881  0.45030549  1
  S2-  S197  1  -0.00110786  0.62687973  0.95277916  1
  S2-  S198  1  -0.01003371  0.87175376  0.46318799  1
  S2-  S199  1  -0.00066884  0.87778211  0.95196552  1
  S2-  S200  1  0.24090327  0.13082306  0.45742114  1
  S2-  S201  1  0.24689046  0.12795556  0.94090113  1
  S2-  S202  1  0.24432030  0.37523443  0.45540874  1
  S2-  S203  1  0.25020590  0.37669922  0.95646280  1
  S2-  S204  1  0.24500612  0.61992653  0.44082058  1
  S2-  S205  1  0.25071615  0.62671962  0.95411201  1
  S2-  S206  1  0.23724523  0.87112601  0.45077927  1
  S2-  S207  1  0.24886310  0.87871486  0.94693558  1
  S2-  S208  1  0.49144890  0.12105698  0.45310197  1
  S2-  S209  1  0.49745519  0.13023235  0.94638373  1
  S2-  S210  1  0.49594946  0.37314697  0.45244923  1
  S2-  S211  1  0.50032084  0.37749555  0.94954547  1
  S2-  S212  1  0.49430976  0.62554264  0.44798034  1
  S2-  S213  1  0.50016993  0.62369307  0.95537528  1
  S2-  S214  1  0.49449686  0.87246893  0.44919767  1
  S2-  S215  1  0.50067662  0.87928279  0.95665309  1
  S2-  S216  1  0.74649180  0.11960618  0.45376297  1
  S2-  S217  1  0.75197050  0.13029519  0.95154752  1
  S2-  S218  1  0.74202941  0.37281494  0.44988096  1
  S2-  S219  1  0.74990940  0.37643359  0.94973488  1
  S2-  S220  1  0.74457225  0.62729507  0.44434029  1
  S2-  S221  1  0.74817761  0.62821597  0.95294057  1
  S2-  S222  1  0.74849746  0.87299859  0.44929408  1
  S2-  S223  1  0.74964632  0.87569750  0.94939918  1
  S2-  S224  1  0.12900482  0.00155318  0.04520289  1
  S2-  S225  1  0.11748506  0.00194754  0.54408439  1
  S2-  S226  1  0.12466999  0.25177234  0.03673099  1
  S2-  S227  1  0.12058469  0.24923841  0.55092262  1
  S2-  S228  1  0.12736100  0.50194994  0.05203972  1
  S2-  S229  1  0.12016291  0.49958186  0.54764433  1
  S2-  S230  1  0.12671503  0.75348279  0.04576487  1
  S2-  S231  1  0.11518307  0.74672792  0.53594446  1
  S2-  S232  1  0.37190152  0.00358179  0.03927814  1
  S2-  S233  1  0.36665888  -0.00270491  0.54382804  1
  S2-  S234  1  0.37410087  0.25236767  0.03921850  1
  S2-  S235  1  0.36933180  0.24782521  0.54842388  1
  S2-  S236  1  0.37125375  0.49855430  0.05611994  1
  S2-  S237  1  0.36977795  0.49921493  0.54105683  1
  S2-  S238  1  0.37646090  0.75348284  0.04727228  1
  S2-  S239  1  0.36767170  0.75042434  0.53365735  1
  S2-  S240  1  0.62154672  0.00500907  0.04367780  1
  S2-  S241  1  0.61558694  -0.00714133  0.54975608  1
  S2-  S242  1  0.62087484  0.25047469  0.04549711  1
  S2-  S243  1  0.61835275  0.24747673  0.55244545  1
  S2-  S244  1  0.62266397  0.50120256  0.04822816  1
  S2-  S245  1  0.62001906  0.50226823  0.54411404  1
  S2-  S246  1  0.62085367  0.75385255  0.04857333  1
  S2-  S247  1  0.62020129  0.74952057  0.54287346  1
  S2-  S248  1  0.87549863  0.00112135  0.05439322  1
  S2-  S249  1  0.87277859  -0.00520718  0.55368796  1
  S2-  S250  1  0.87604812  0.25245322  0.05038825  1
  S2-  S251  1  0.86726732  0.24839577  0.55630415  1
  S2-  S252  1  0.87584182  0.50356586  0.05228675  1
  S2-  S253  1  0.86659797  0.50111449  0.55101321  1
  S2-  S254  1  0.87514602  0.75397446  0.05533886  1
  S2-  S255  1  0.87015396  0.74889406  0.54613887  1
