# generated using pymatgen
data_La6Ce7Pr13Nd19Sm19(BiS2)64
_symmetry_space_group_name_H-M   'P 1'
_cell_length_a   16.06008481
_cell_length_b   16.08852955
_cell_length_c   27.35431661
_cell_angle_alpha   90.12813551
_cell_angle_beta   90.20439193
_cell_angle_gamma   90.27476052
_symmetry_Int_Tables_number   1
_chemical_formula_structural   La6Ce7Pr13Nd19Sm19(BiS2)64
_chemical_formula_sum   'La6 Ce7 Pr13 Nd19 Sm19 Bi64 S128'
_cell_volume   7067.75027810
_cell_formula_units_Z   1
loop_
 _symmetry_equiv_pos_site_id
 _symmetry_equiv_pos_as_xyz
  1  'x, y, z'
loop_
 _atom_type_symbol
 _atom_type_oxidation_number
  La3+  3.0
  Ce3+  3.0
  Pr3+  3.0
  Nd3+  3.0
  Sm3+  3.0
  Bi2+  2.0
  S2-  -2.0
loop_
 _atom_site_type_symbol
 _atom_site_label
 _atom_site_symmetry_multiplicity
 _atom_site_fract_x
 _atom_site_fract_y
 _atom_site_fract_z
 _atom_site_occupancy
  La3+  La0  1  0.26460409  0.60675521  0.11069819  1
  La3+  La1  1  -0.00448172  0.88635527  0.56952022  1
  La3+  La2  1  0.50262290  0.64719437  0.59148210  1
  La3+  La3  1  0.00365890  0.13792966  0.57220642  1
  La3+  La4  1  0.37275802  0.47460297  0.91319981  1
  La3+  La5  1  0.51202939  0.35725970  0.07793561  1
  Ce3+  Ce6  1  0.38326250  0.23485417  0.94037879  1
  Ce3+  Ce7  1  0.25298964  0.85483668  0.06081274  1
  Ce3+  Ce8  1  0.24278361  0.39681669  0.57058097  1
  Ce3+  Ce9  1  0.37317237  0.26671666  0.44256828  1
  Ce3+  Ce10  1  0.62626800  0.72712432  0.93172681  1
  Ce3+  Ce11  1  0.00077723  0.38536317  0.57577164  1
  Ce3+  Ce12  1  0.62160962  0.76250244  0.43154116  1
  Pr3+  Pr13  1  0.25528211  0.10649599  0.05139398  1
  Pr3+  Pr14  1  0.00509393  0.10544188  0.05852497  1
  Pr3+  Pr15  1  0.12212633  0.51525750  0.43508168  1
  Pr3+  Pr16  1  0.50070901  0.84931867  0.05543093  1
  Pr3+  Pr17  1  0.12741503  0.48211943  0.93459684  1
  Pr3+  Pr18  1  0.49867086  0.88947964  0.56043595  1
  Pr3+  Pr19  1  0.87528064  0.76589091  0.42935847  1
  Pr3+  Pr20  1  0.38168882  -0.01874327  0.92330672  1
  Pr3+  Pr21  1  0.37730593  0.76437915  0.42679363  1
  Pr3+  Pr22  1  0.63411612  0.47221666  0.91489751  1
  Pr3+  Pr23  1  0.24824084  0.64528017  0.55832732  1
  Pr3+  Pr24  1  0.11499872  0.01599420  0.42245034  1
  Pr3+  Pr25  1  0.37525088  0.51464563  0.44605287  1
  Nd3+  Nd26  1  0.75613463  0.10142364  0.05281495  1
  Nd3+  Nd27  1  0.88242561  0.73189330  0.94029850  1
  Nd3+  Nd28  1  0.50553100  0.10561849  0.06665349  1
  Nd3+  Nd29  1  0.62094849  0.51522534  0.44869071  1
  Nd3+  Nd30  1  0.12211846  0.26800619  0.43574562  1
  Nd3+  Nd31  1  0.87453657  0.51448393  0.44949559  1
  Nd3+  Nd32  1  0.61985687  0.26695720  0.44420955  1
  Nd3+  Nd33  1  0.87530241  0.01796222  0.43583895  1
  Nd3+  Nd34  1  0.24630059  0.14041772  0.55739211  1
  Nd3+  Nd35  1  -0.00503244  0.86055320  0.07507446  1
  Nd3+  Nd36  1  0.74815840  0.64311778  0.56254069  1
  Nd3+  Nd37  1  0.75226039  0.60459804  0.05435545  1
  Nd3+  Nd38  1  0.89042124  -0.02954073  0.91935268  1
  Nd3+  Nd39  1  0.88037704  0.47937926  0.93416351  1
  Nd3+  Nd40  1  0.48847573  0.38311174  0.58150953  1
  Nd3+  Nd41  1  0.12528486  0.76409836  0.40267182  1
  Nd3+  Nd42  1  0.74572522  0.39323320  0.56370515  1
  Nd3+  Nd43  1  0.00548463  0.35809486  0.05211641  1
  Nd3+  Nd44  1  0.12893813  0.23029266  0.93844167  1
  Sm3+  Sm45  1  0.62400172  0.23245999  0.94148112  1
  Sm3+  Sm46  1  0.37092957  0.01389847  0.44327082  1
  Sm3+  Sm47  1  0.25654970  0.36282885  0.05894346  1
  Sm3+  Sm48  1  0.50066124  0.60069901  0.04972009  1
  Sm3+  Sm49  1  0.37726316  0.72545862  0.94015923  1
  Sm3+  Sm50  1  0.24516345  0.88736893  0.54769503  1
  Sm3+  Sm51  1  0.75655711  0.35621959  0.05320125  1
  Sm3+  Sm52  1  0.75371951  0.85384565  0.05143590  1
  Sm3+  Sm53  1  0.49828274  0.13788073  0.56005996  1
  Sm3+  Sm54  1  0.74958236  0.14232328  0.55345482  1
  Sm3+  Sm55  1  0.62366201  -0.02183289  0.93820536  1
  Sm3+  Sm56  1  0.13296946  0.72870669  0.94905015  1
  Sm3+  Sm57  1  0.62339262  0.01571646  0.44601754  1
  Sm3+  Sm58  1  0.00034764  0.64634798  0.55733652  1
  Sm3+  Sm59  1  0.87583162  0.21669858  0.93252644  1
  Sm3+  Sm60  1  0.74941715  0.88987574  0.55294211  1
  Sm3+  Sm61  1  0.87521576  0.26834671  0.44582399  1
  Sm3+  Sm62  1  0.00906979  0.60637336  0.06258281  1
  Sm3+  Sm63  1  0.13487341  -0.02488291  0.93280543  1
  Bi2+  Bi64  1  0.00093331  0.13656704  0.28837453  1
  Bi2+  Bi65  1  -0.02245507  0.13725200  0.80509687  1
  Bi2+  Bi66  1  0.00718726  0.37189216  0.30906892  1
  Bi2+  Bi67  1  0.00002140  0.38058123  0.77915485  1
  Bi2+  Bi68  1  -0.09609876  0.60580357  0.27211865  1
  Bi2+  Bi69  1  0.00204233  0.55736609  0.82864916  1
  Bi2+  Bi70  1  0.00618533  0.88755793  0.27884222  1
  Bi2+  Bi71  1  -0.00763063  0.88711154  0.77502966  1
  Bi2+  Bi72  1  0.25261017  0.10833956  0.29017373  1
  Bi2+  Bi73  1  0.28182311  0.08132736  0.78405275  1
  Bi2+  Bi74  1  0.23552945  0.35998024  0.23341168  1
  Bi2+  Bi75  1  0.23347422  0.32299154  0.79043983  1
  Bi2+  Bi76  1  0.23792663  0.57300032  0.31068268  1
  Bi2+  Bi77  1  0.23830852  0.63699773  0.81353270  1
  Bi2+  Bi78  1  0.27968400  0.87881100  0.28362037  1
  Bi2+  Bi79  1  0.25608844  0.89176366  0.75426238  1
  Bi2+  Bi80  1  0.52204611  0.16014105  0.29924095  1
  Bi2+  Bi81  1  0.45539657  0.15136189  0.81563148  1
  Bi2+  Bi82  1  0.50064786  0.38287712  0.31272603  1
  Bi2+  Bi83  1  0.50417738  0.39954211  0.79348322  1
  Bi2+  Bi84  1  0.57822708  0.65017493  0.28222944  1
  Bi2+  Bi85  1  0.49420236  0.67210853  0.79293067  1
  Bi2+  Bi86  1  0.56097083  0.88431253  0.28681279  1
  Bi2+  Bi87  1  0.49790523  0.89980475  0.77513877  1
  Bi2+  Bi88  1  0.73727881  0.08803553  0.28889724  1
  Bi2+  Bi89  1  0.71221903  0.06624054  0.76350777  1
  Bi2+  Bi90  1  0.74605166  0.42580197  0.29873422  1
  Bi2+  Bi91  1  0.77354529  0.35744781  0.78482647  1
  Bi2+  Bi92  1  0.75330241  0.69778687  0.32473481  1
  Bi2+  Bi93  1  0.83065897  0.62159383  0.78919140  1
  Bi2+  Bi94  1  0.76468360  0.88251938  0.28941143  1
  Bi2+  Bi95  1  0.77710878  0.89281302  0.79561641  1
  Bi2+  Bi96  1  0.13218750  0.04934786  0.20459695  1
  Bi2+  Bi97  1  0.12008745  0.01860515  0.71848047  1
  Bi2+  Bi98  1  0.08793588  0.24337449  0.20489853  1
  Bi2+  Bi99  1  0.12023664  0.26155185  0.70568743  1
  Bi2+  Bi100  1  0.05637117  0.46874176  0.21694544  1
  Bi2+  Bi101  1  0.09410889  0.52719182  0.72340581  1
  Bi2+  Bi102  1  0.12416471  0.72791027  0.21694166  1
  Bi2+  Bi103  1  0.06901303  0.71947114  0.73781302  1
  Bi2+  Bi104  1  0.41562865  0.01842385  0.23821548  1
  Bi2+  Bi105  1  0.45546639  0.03698698  0.69660229  1
  Bi2+  Bi106  1  0.36270602  0.21436605  0.21444428  1
  Bi2+  Bi107  1  0.37678822  0.22437903  0.71286754  1
  Bi2+  Bi108  1  0.41783238  0.53041617  0.22771500  1
  Bi2+  Bi109  1  0.36267230  0.49247766  0.71087286  1
  Bi2+  Bi110  1  0.39181913  0.75785271  0.20821779  1
  Bi2+  Bi111  1  0.32681640  0.74504130  0.69138190  1
  Bi2+  Bi112  1  0.60758891  0.04431766  0.19945879  1
  Bi2+  Bi113  1  0.60629607  -0.09094495  0.68276078  1
  Bi2+  Bi114  1  0.63100079  0.24347501  0.20845138  1
  Bi2+  Bi115  1  0.61520855  0.23316020  0.76413999  1
  Bi2+  Bi116  1  0.64756387  0.49513317  0.20659449  1
  Bi2+  Bi117  1  0.64813776  0.51640306  0.71647340  1
  Bi2+  Bi118  1  0.63758322  0.77754941  0.19867547  1
  Bi2+  Bi119  1  0.70831968  0.75094539  0.72808787  1
  Bi2+  Bi120  1  0.83751922  0.00499260  0.20201948  1
  Bi2+  Bi121  1  0.86319109  -0.00900191  0.70328061  1
  Bi2+  Bi122  1  0.82240840  0.26310186  0.25250606  1
  Bi2+  Bi123  1  0.82821649  0.23327660  0.70683652  1
  Bi2+  Bi124  1  0.85916255  0.45157243  0.20216042  1
  Bi2+  Bi125  1  0.89414660  0.49608034  0.70162670  1
  Bi2+  Bi126  1  0.83118014  0.73844251  0.20611714  1
  Bi2+  Bi127  1  0.88561907  0.69419680  0.68467309  1
  S2-  S128  1  -0.02814552  0.06533809  0.15360837  1
  S2-  S129  1  -0.02400765  0.25430678  0.64925622  1
  S2-  S130  1  -0.02385081  0.34680318  0.14926180  1
  S2-  S131  1  0.12343656  0.40567644  0.64516562  1
  S2-  S132  1  0.08984166  0.60401977  0.14944932  1
  S2-  S133  1  0.03168247  0.74845471  0.63615597  1
  S2-  S134  1  0.04236896  0.84264244  0.17483762  1
  S2-  S135  1  0.00783821  1.01070145  0.64340125  1
  S2-  S136  1  0.26579996  0.10818844  0.15106253  1
  S2-  S137  1  0.19388934  0.13448386  0.65217884  1
  S2-  S138  1  0.25693016  0.43797130  0.14747898  1
  S2-  S139  1  0.34462865  0.35923558  0.64666500  1
  S2-  S140  1  0.26962949  0.62583073  0.21770290  1
  S2-  S141  1  0.26040863  0.59218931  0.65530374  1
  S2-  S142  1  0.25848750  0.79543729  0.15281867  1
  S2-  S143  1  0.24113251  0.86395949  0.64678720  1
  S2-  S144  1  0.49533146  0.21431602  0.14388622  1
  S2-  S145  1  0.50932550  0.19396704  0.65204213  1
  S2-  S146  1  0.49313096  0.42713536  0.17400006  1
  S2-  S147  1  0.53610702  0.42660374  0.67663037  1
  S2-  S148  1  0.44001880  0.62739097  0.14231663  1
  S2-  S149  1  0.45907989  0.62037693  0.69336970  1
  S2-  S150  1  0.49501806  0.85500497  0.15516419  1
  S2-  S151  1  0.47493275  0.80006164  0.64428060  1
  S2-  S152  1  0.73969395  0.12855929  0.14976915  1
  S2-  S153  1  0.75554857  0.12420243  0.65089977  1
  S2-  S154  1  0.67921287  0.36365372  0.13977878  1
  S2-  S155  1  0.75256180  0.40752910  0.66278806  1
  S2-  S156  1  0.71439973  0.63133640  0.15055048  1
  S2-  S157  1  0.65969902  0.64617070  0.64848199  1
  S2-  S158  1  0.84188867  0.87093994  0.13464698  1
  S2-  S159  1  0.83793428  0.87297080  0.63629713  1
  S2-  S160  1  0.14307955  -0.09394988  0.33956015  1
  S2-  S161  1  0.03277979  -0.00863996  0.85323882  1
  S2-  S162  1  0.12817815  0.15420049  0.35628628  1
  S2-  S163  1  0.12855598  0.21528683  0.83947372  1
  S2-  S164  1  0.14440646  0.39017677  0.36164240  1
  S2-  S165  1  0.21475331  0.46737814  0.84796201  1
  S2-  S166  1  0.10149668  0.61346189  0.34881196  1
  S2-  S167  1  0.12733588  0.73452123  0.85020241  1
  S2-  S168  1  0.36362717  -0.00042706  0.34569687  1
  S2-  S169  1  0.25182696  -0.04173050  0.85572350  1
  S2-  S170  1  0.39549823  0.26850187  0.34514909  1
  S2-  S171  1  0.38054602  0.31895385  0.85399016  1
  S2-  S172  1  0.39027202  0.49911568  0.34429635  1
  S2-  S173  1  0.39635903  0.53213112  0.81481590  1
  S2-  S174  1  0.28036730  0.73869303  0.34163689  1
  S2-  S175  1  0.35991022  0.74456530  0.84230443  1
  S2-  S176  1  0.60490439  0.02709415  0.34967574  1
  S2-  S177  1  0.52091788  -0.00285943  0.85758756  1
  S2-  S178  1  0.63060923  0.27943653  0.34607113  1
  S2-  S179  1  0.62717305  0.31924035  0.85646241  1
  S2-  S180  1  0.61240904  0.50916098  0.34911148  1
  S2-  S181  1  0.59572587  0.54124455  0.82008385  1
  S2-  S182  1  0.51000313  0.76619939  0.35461251  1
  S2-  S183  1  0.60430057  0.77623119  0.83951642  1
  S2-  S184  1  0.96253853  0.01327306  0.34920927  1
  S2-  S185  1  0.84755837  0.09709693  0.85443781  1
  S2-  S186  1  0.89546265  0.24631059  0.34917806  1
  S2-  S187  1  0.90188631  0.28695432  0.84324185  1
  S2-  S188  1  0.88666828  0.48648689  0.35178699  1
  S2-  S189  1  0.78172077  0.48260546  0.85276570  1
  S2-  S190  1  0.97361627  0.77872247  0.34539995  1
  S2-  S191  1  0.89689465  0.82312162  0.85626810  1
  S2-  S192  1  -0.00460574  0.14509719  0.45994376  1
  S2-  S193  1  0.00807279  0.10396977  0.95333844  1
  S2-  S194  1  -0.00389627  0.38970947  0.46398493  1
  S2-  S195  1  0.00203003  0.35284902  0.94755620  1
  S2-  S196  1  -0.00510416  0.64120136  0.45418738  1
  S2-  S197  1  0.00397340  0.60787901  0.95823839  1
  S2-  S198  1  -0.00573144  0.89225840  0.45562800  1
  S2-  S199  1  0.01208406  0.85330564  0.96136503  1
  S2-  S200  1  0.25104160  0.13938003  0.45260505  1
  S2-  S201  1  0.25607602  0.10757702  0.94625671  1
  S2-  S202  1  0.25290725  0.38977586  0.46359898  1
  S2-  S203  1  0.25201809  0.35520981  0.95566400  1
  S2-  S204  1  0.25063553  0.64035176  0.45143915  1
  S2-  S205  1  0.25514217  0.60455044  0.94671645  1
  S2-  S206  1  0.24930433  0.89019264  0.44546532  1
  S2-  S207  1  0.25788902  0.85191074  0.95698018  1
  S2-  S208  1  0.49768415  0.13705998  0.45519714  1
  S2-  S209  1  0.50396330  0.10701049  0.96106179  1
  S2-  S210  1  0.49873644  0.38907723  0.46417982  1
  S2-  S211  1  0.50591009  0.35923374  0.95759726  1
  S2-  S212  1  0.50047406  0.63954395  0.45575211  1
  S2-  S213  1  0.50186489  0.60050485  0.94457126  1
  S2-  S214  1  0.49911679  0.89572111  0.45412900  1
  S2-  S215  1  0.50061183  0.85214674  0.95028102  1
  S2-  S216  1  0.74793357  0.14310776  0.44868510  1
  S2-  S217  1  0.74095571  0.10392648  0.94962418  1
  S2-  S218  1  0.74794091  0.38953355  0.45723690  1
  S2-  S219  1  0.75950053  0.34836430  0.95206929  1
  S2-  S220  1  0.74875438  0.63786089  0.45620711  1
  S2-  S221  1  0.75506395  0.60804076  0.94865775  1
  S2-  S222  1  0.74770740  0.89254249  0.44762090  1
  S2-  S223  1  0.74979778  0.85647518  0.94843247  1
  S2-  S224  1  0.12818227  -0.02107443  0.04600188  1
  S2-  S225  1  0.12678164  0.01277246  0.53793256  1
  S2-  S226  1  0.13060035  0.23391880  0.04637399  1
  S2-  S227  1  0.12553390  0.26634791  0.54301279  1
  S2-  S228  1  0.12822514  0.48236725  0.04229607  1
  S2-  S229  1  0.11898873  0.52216237  0.54348010  1
  S2-  S230  1  0.12501772  0.73413318  0.05192495  1
  S2-  S231  1  0.12604325  0.76583271  0.53261456  1
  S2-  S232  1  0.38123325  -0.01899013  0.04558465  1
  S2-  S233  1  0.37156344  0.01456769  0.54877016  1
  S2-  S234  1  0.37788026  0.23528763  0.04541012  1
  S2-  S235  1  0.37537611  0.25853354  0.54612400  1
  S2-  S236  1  0.38126647  0.48008621  0.04587466  1
  S2-  S237  1  0.38052318  0.52081343  0.55333589  1
  S2-  S238  1  0.37357496  0.72485657  0.04364182  1
  S2-  S239  1  0.37299584  0.76648885  0.53741738  1
  S2-  S240  1  0.62822105  -0.02302371  0.04412964  1
  S2-  S241  1  0.62591951  0.01699657  0.54986519  1
  S2-  S242  1  0.63357651  0.22862086  0.04318991  1
  S2-  S243  1  0.62288924  0.26511798  0.55103451  1
  S2-  S244  1  0.63061592  0.48212445  0.03872777  1
  S2-  S245  1  0.61817617  0.51393759  0.55374055  1
  S2-  S246  1  0.62830280  0.72884711  0.03962554  1
  S2-  S247  1  0.62537313  0.76677795  0.54107471  1
  S2-  S248  1  0.87829850  -0.02050761  0.03196563  1
  S2-  S249  1  0.86885393  0.01867124  0.54034146  1
  S2-  S250  1  0.87821376  0.23015619  0.04159996  1
  S2-  S251  1  0.86790015  0.26740285  0.54852359  1
  S2-  S252  1  0.88036869  0.48308150  0.04329437  1
  S2-  S253  1  0.87570504  0.51823270  0.55515287  1
  S2-  S254  1  0.88083229  0.72759181  0.04567592  1
  S2-  S255  1  0.86977871  0.76239477  0.53632608  1
