# generated using pymatgen
data_La6Ce7Pr13Nd19Sm19(BiS2)64
_symmetry_space_group_name_H-M   'P 1'
_cell_length_a   16.04521960
_cell_length_b   16.04853455
_cell_length_c   27.28524323
_cell_angle_alpha   89.74301160
_cell_angle_beta   89.72802520
_cell_angle_gamma   89.94486192
_symmetry_Int_Tables_number   1
_chemical_formula_structural   La6Ce7Pr13Nd19Sm19(BiS2)64
_chemical_formula_sum   'La6 Ce7 Pr13 Nd19 Sm19 Bi64 S128'
_cell_volume   7025.85888454
_cell_formula_units_Z   1
loop_
 _symmetry_equiv_pos_site_id
 _symmetry_equiv_pos_as_xyz
  1  'x, y, z'
loop_
 _atom_type_symbol
 _atom_type_oxidation_number
  La3+  3.0
  Ce3+  3.0
  Pr3+  3.0
  Nd3+  3.0
  Sm3+  3.0
  Bi2+  2.0
  S2-  -2.0
loop_
 _atom_site_type_symbol
 _atom_site_label
 _atom_site_symmetry_multiplicity
 _atom_site_fract_x
 _atom_site_fract_y
 _atom_site_fract_z
 _atom_site_occupancy
  La3+  La0  1  0.88646862  0.23961173  0.91063421  1
  La3+  La1  1  0.37199071  0.75423123  0.42353143  1
  La3+  La2  1  0.74584624  0.85414466  0.07387747  1
  La3+  La3  1  0.26411684  0.35649518  0.09140430  1
  La3+  La4  1  -0.00571418  0.12019908  0.07918075  1
  La3+  La5  1  0.49402638  0.37782246  0.58495509  1
  Ce3+  Ce6  1  0.75572372  0.11469687  0.05916157  1
  Ce3+  Ce7  1  0.00325070  0.61256028  0.06325591  1
  Ce3+  Ce8  1  0.88134095  0.74092499  0.93523932  1
  Ce3+  Ce9  1  0.62948854  0.73893998  0.93623193  1
  Ce3+  Ce10  1  0.62922393  0.48598725  0.93615080  1
  Ce3+  Ce11  1  0.63041902  0.23706237  0.92840861  1
  Ce3+  Ce12  1  0.87195247  0.00092580  0.43769765  1
  Pr3+  Pr13  1  0.37928839  0.23166443  0.91609388  1
  Pr3+  Pr14  1  0.62113703  0.25071837  0.43980634  1
  Pr3+  Pr15  1  0.24497713  0.12205302  0.55472271  1
  Pr3+  Pr16  1  0.49816438  0.12367156  0.56242265  1
  Pr3+  Pr17  1  0.87880515  -0.01409568  0.93723683  1
  Pr3+  Pr18  1  0.49216633  0.62649075  0.56651500  1
  Pr3+  Pr19  1  0.11604049  0.25470981  0.39435723  1
  Pr3+  Pr20  1  0.24920852  0.87744141  0.56297614  1
  Pr3+  Pr21  1  0.50075449  0.35805406  0.05548925  1
  Pr3+  Pr22  1  0.75340020  0.12196933  0.57545077  1
  Pr3+  Pr23  1  -0.00086744  0.37296237  0.56208551  1
  Pr3+  Pr24  1  0.11686168  -0.00036306  0.42321302  1
  Pr3+  Pr25  1  0.37693778  0.74329463  0.92892003  1
  Nd3+  Nd26  1  0.75089276  0.61191123  0.05633759  1
  Nd3+  Nd27  1  0.13113925  0.49783459  0.43285819  1
  Nd3+  Nd28  1  0.37294110  0.25252931  0.43571152  1
  Nd3+  Nd29  1  0.61739130  0.49626702  0.43986178  1
  Nd3+  Nd30  1  0.37463804  0.48427749  0.92808798  1
  Nd3+  Nd31  1  -0.00186971  0.11722965  0.56288916  1
  Nd3+  Nd32  1  0.37299471  0.00328570  0.42935144  1
  Nd3+  Nd33  1  0.13094837  0.23441495  0.94915173  1
  Nd3+  Nd34  1  -0.00543633  0.85911729  0.08270531  1
  Nd3+  Nd35  1  0.12330642  0.75094576  0.44829291  1
  Nd3+  Nd36  1  0.49746114  0.87492466  0.55218024  1
  Nd3+  Nd37  1  0.74421579  0.36952862  0.57553348  1
  Nd3+  Nd38  1  0.24584470  0.36607947  0.56846135  1
  Nd3+  Nd39  1  0.12480313  -0.00965926  0.94962049  1
  Nd3+  Nd40  1  0.12754352  0.73858027  0.94421679  1
  Nd3+  Nd41  1  0.37471631  0.49663805  0.44016563  1
  Nd3+  Nd42  1  0.25561484  0.61253653  0.05736979  1
  Nd3+  Nd43  1  -0.00427828  0.87269308  0.56592595  1
  Nd3+  Nd44  1  0.87210244  0.74745256  0.43959422  1
  Sm3+  Sm45  1  0.63189680  -0.01092960  0.94620396  1
  Sm3+  Sm46  1  0.37584716  -0.01072909  0.93876619  1
  Sm3+  Sm47  1  0.49913025  0.86276567  0.05229356  1
  Sm3+  Sm48  1  0.62517703  0.74810872  0.44615537  1
  Sm3+  Sm49  1  0.87436521  0.25103080  0.44462745  1
  Sm3+  Sm50  1  0.24772986  0.10530675  0.07926867  1
  Sm3+  Sm51  1  0.75094193  0.36171592  0.05497923  1
  Sm3+  Sm52  1  0.49877648  0.11463750  0.05224551  1
  Sm3+  Sm53  1  0.88156491  0.48721377  0.94099807  1
  Sm3+  Sm54  1  0.13187579  0.48328759  0.94877219  1
  Sm3+  Sm55  1  0.74682438  0.62098596  0.56027579  1
  Sm3+  Sm56  1  -0.00180085  0.62298151  0.55841045  1
  Sm3+  Sm57  1  0.87346747  0.49584524  0.44802485  1
  Sm3+  Sm58  1  0.25053353  0.62362870  0.56480896  1
  Sm3+  Sm59  1  0.74837635  0.87334684  0.56889272  1
  Sm3+  Sm60  1  0.00279631  0.36251799  0.06315386  1
  Sm3+  Sm61  1  0.25155973  0.86499495  0.06439238  1
  Sm3+  Sm62  1  0.63297919  0.00034428  0.43984566  1
  Sm3+  Sm63  1  0.49569452  0.61033369  0.04451087  1
  Bi2+  Bi64  1  -0.03826474  0.12269825  0.28491395  1
  Bi2+  Bi65  1  0.01666350  0.12144317  0.78639598  1
  Bi2+  Bi66  1  -0.04028768  0.37932396  0.28234139  1
  Bi2+  Bi67  1  0.03437179  0.37502335  0.79568979  1
  Bi2+  Bi68  1  -0.06782507  0.61683535  0.29667409  1
  Bi2+  Bi69  1  -0.05621576  0.63295606  0.82179552  1
  Bi2+  Bi70  1  0.04538279  0.85759883  0.30647039  1
  Bi2+  Bi71  1  -0.01527990  0.82039319  0.78691756  1
  Bi2+  Bi72  1  0.38777028  0.09840188  0.29192935  1
  Bi2+  Bi73  1  0.23773533  0.12616623  0.78934250  1
  Bi2+  Bi74  1  0.23612801  0.39670647  0.29062400  1
  Bi2+  Bi75  1  0.24896961  0.42041198  0.77926737  1
  Bi2+  Bi76  1  0.25046244  0.63665456  0.28688826  1
  Bi2+  Bi77  1  0.20688566  0.66293823  0.77568819  1
  Bi2+  Bi78  1  0.32996188  0.81496689  0.27197693  1
  Bi2+  Bi79  1  0.22272645  0.89968041  0.79397114  1
  Bi2+  Bi80  1  0.57273689  0.10484749  0.32570585  1
  Bi2+  Bi81  1  0.50376586  0.04500433  0.79980220  1
  Bi2+  Bi82  1  0.50375242  0.37912391  0.28992423  1
  Bi2+  Bi83  1  0.48968707  0.37023351  0.79545848  1
  Bi2+  Bi84  1  0.49401025  0.60878778  0.25127315  1
  Bi2+  Bi85  1  0.49316173  0.69901589  0.77367207  1
  Bi2+  Bi86  1  0.54645242  0.88779766  0.29429312  1
  Bi2+  Bi87  1  0.41609518  0.86790216  0.81419815  1
  Bi2+  Bi88  1  0.73856261  0.21864940  0.30300363  1
  Bi2+  Bi89  1  0.76048945  0.10906235  0.78556859  1
  Bi2+  Bi90  1  0.69804864  0.41254599  0.32100418  1
  Bi2+  Bi91  1  0.76172643  0.38847514  0.79139836  1
  Bi2+  Bi92  1  0.67369150  0.61351748  0.29924511  1
  Bi2+  Bi93  1  0.76352764  0.62755587  0.79140987  1
  Bi2+  Bi94  1  0.75156032  0.88789402  0.28987864  1
  Bi2+  Bi95  1  0.75675012  0.82453107  0.77902766  1
  Bi2+  Bi96  1  0.18141099  -0.00668051  0.22102080  1
  Bi2+  Bi97  1  0.13648780  0.01605259  0.71285417  1
  Bi2+  Bi98  1  0.12910798  0.24077851  0.20915106  1
  Bi2+  Bi99  1  0.12970686  0.24428813  0.72115067  1
  Bi2+  Bi100  1  0.04243115  0.49603015  0.20136909  1
  Bi2+  Bi101  1  0.17835333  0.53356559  0.69057102  1
  Bi2+  Bi102  1  0.08392654  0.68067991  0.23191844  1
  Bi2+  Bi103  1  0.06947325  0.75189659  0.68742193  1
  Bi2+  Bi104  1  0.46642926  -0.00592182  0.20729192  1
  Bi2+  Bi105  1  0.37769509  -0.01869484  0.70505935  1
  Bi2+  Bi106  1  0.40241951  0.25037328  0.22093366  1
  Bi2+  Bi107  1  0.37459176  0.24182884  0.69841204  1
  Bi2+  Bi108  1  0.35173051  0.51847697  0.18946242  1
  Bi2+  Bi109  1  0.38247030  0.54023587  0.70323398  1
  Bi2+  Bi110  1  0.39535995  0.75892116  0.17377364  1
  Bi2+  Bi111  1  0.25983039  0.79127429  0.69263933  1
  Bi2+  Bi112  1  0.66945151  0.03221099  0.22967086  1
  Bi2+  Bi113  1  0.63954437  -0.03499329  0.72968406  1
  Bi2+  Bi114  1  0.61098975  0.22212863  0.21242550  1
  Bi2+  Bi115  1  0.62892689  0.21361483  0.73135110  1
  Bi2+  Bi116  1  0.66290465  0.47708641  0.21288678  1
  Bi2+  Bi117  1  0.65691042  0.53836046  0.71345921  1
  Bi2+  Bi118  1  0.63169045  0.75885236  0.21874509  1
  Bi2+  Bi119  1  0.59846981  0.78085942  0.69582404  1
  Bi2+  Bi120  1  0.92988570  -0.00530051  0.20713971  1
  Bi2+  Bi121  1  0.88599697  0.01100395  0.70287111  1
  Bi2+  Bi122  1  0.84606796  0.25862425  0.20635508  1
  Bi2+  Bi123  1  0.86375486  0.29260572  0.70324748  1
  Bi2+  Bi124  1  0.85159278  0.52820399  0.19716323  1
  Bi2+  Bi125  1  0.98703078  0.52533387  0.72758237  1
  Bi2+  Bi126  1  0.85896250  0.73128482  0.20873446  1
  Bi2+  Bi127  1  0.88002112  0.81644085  0.68569358  1
  S2-  S128  1  0.11287064  0.10604793  0.15520190  1
  S2-  S129  1  -0.10026475  0.15017196  0.64808421  1
  S2-  S130  1  -0.00937489  0.27918769  0.15005904  1
  S2-  S131  1  -0.01016790  0.37041515  0.66357681  1
  S2-  S132  1  -0.00444961  0.71013051  0.14370363  1
  S2-  S133  1  -0.05190420  0.63349980  0.65213343  1
  S2-  S134  1  0.07190129  0.90105883  0.17708760  1
  S2-  S135  1  0.02201484  0.98950322  0.63853623  1
  S2-  S136  1  0.27645361  0.21513605  0.15529712  1
  S2-  S137  1  0.23813106  0.22485888  0.64233987  1
  S2-  S138  1  0.20143805  0.41981834  0.18335973  1
  S2-  S139  1  0.34947387  0.39138546  0.64972792  1
  S2-  S140  1  0.25969664  0.66730423  0.15192728  1
  S2-  S141  1  0.36129007  0.66328361  0.63903858  1
  S2-  S142  1  0.27955178  0.96690472  0.14323044  1
  S2-  S143  1  0.25437457  1.00394601  0.63435580  1
  S2-  S144  1  0.49594174  0.13934007  0.14970665  1
  S2-  S145  1  0.47086826  0.11753661  0.66273753  1
  S2-  S146  1  0.42279534  0.38271784  0.14567827  1
  S2-  S147  1  0.53286261  0.32459924  0.69053721  1
  S2-  S148  1  0.48396355  0.61092158  0.14230197  1
  S2-  S149  1  0.52515005  0.52400470  0.64757277  1
  S2-  S150  1  0.54139785  0.86144529  0.14724660  1
  S2-  S151  1  0.47029651  0.87773673  0.65024446  1
  S2-  S152  1  0.84515611  0.11459575  0.14535992  1
  S2-  S153  1  0.71797725  0.24002047  0.65027109  1
  S2-  S154  1  0.70749288  0.33741099  0.15007243  1
  S2-  S155  1  0.76789856  0.43993782  0.66895255  1
  S2-  S156  1  0.72990827  0.70691543  0.13931392  1
  S2-  S157  1  0.71429784  0.66335089  0.65370941  1
  S2-  S158  1  0.85646854  0.88105448  0.15128024  1
  S2-  S159  1  0.73606491  0.98772503  0.64488855  1
  S2-  S160  1  0.17151582  -0.04646876  0.32635632  1
  S2-  S161  1  0.12504710  0.01671201  0.84992182  1
  S2-  S162  1  0.12018203  0.16988237  0.29971957  1
  S2-  S163  1  0.05010501  0.24381451  0.85992116  1
  S2-  S164  1  0.09410957  0.41160022  0.34526726  1
  S2-  S165  1  0.13087715  0.48819054  0.85053185  1
  S2-  S166  1  0.14719099  0.73790684  0.35065180  1
  S2-  S167  1  0.13018122  0.76842286  0.84604668  1
  S2-  S168  1  0.38697851  -0.10728301  0.35312168  1
  S2-  S169  1  0.35539413  0.08421976  0.85723923  1
  S2-  S170  1  0.27812713  0.28315839  0.35101620  1
  S2-  S171  1  0.33153184  0.29672235  0.82010050  1
  S2-  S172  1  0.26456896  0.51481819  0.36060444  1
  S2-  S173  1  0.39043614  0.48940870  0.82751209  1
  S2-  S174  1  0.40174459  0.68477311  0.33117713  1
  S2-  S175  1  0.35057709  0.69483980  0.83405694  1
  S2-  S176  1  0.75127000  -0.00308574  0.36527442  1
  S2-  S177  1  0.64945690  0.00684209  0.84880872  1
  S2-  S178  1  0.50304915  0.25830594  0.36350324  1
  S2-  S179  1  0.52377443  0.23427579  0.85060737  1
  S2-  S180  1  0.49839033  0.48691600  0.36541159  1
  S2-  S181  1  0.62220532  0.46116191  0.83806853  1
  S2-  S182  1  0.65012112  0.76980248  0.34987482  1
  S2-  S183  1  0.63000645  0.73963989  0.83906346  1
  S2-  S184  1  0.97578908  -0.00661057  0.35705405  1
  S2-  S185  1  0.89027409  0.08836028  0.85307925  1
  S2-  S186  1  0.94640997  0.25170337  0.35422811  1
  S2-  S187  1  0.74086970  0.24728260  0.84859177  1
  S2-  S188  1  0.86354534  0.47835764  0.35053619  1
  S2-  S189  1  0.88653534  0.40051316  0.85504553  1
  S2-  S190  1  0.89681149  0.77066752  0.34208652  1
  S2-  S191  1  0.87079659  0.85959122  0.86181328  1
  S2-  S192  1  -0.00098982  0.13002110  0.45492968  1
  S2-  S193  1  0.00242754  0.11467940  0.96505130  1
  S2-  S194  1  -0.00057963  0.37594662  0.45599894  1
  S2-  S195  1  0.00555743  0.36572922  0.96031764  1
  S2-  S196  1  -0.00136109  0.62072119  0.45271898  1
  S2-  S197  1  0.00683291  0.60906517  0.95713883  1
  S2-  S198  1  -0.00483836  0.86968131  0.45940282  1
  S2-  S199  1  0.00545366  0.86078305  0.96144127  1
  S2-  S200  1  0.24518301  0.12547429  0.44299605  1
  S2-  S201  1  0.25199942  0.11001493  0.96406970  1
  S2-  S202  1  0.24563229  0.37327992  0.46165594  1
  S2-  S203  1  0.25425887  0.35942601  0.94503260  1
  S2-  S204  1  0.24883030  0.62772476  0.46083230  1
  S2-  S205  1  0.25310365  0.61254689  0.94980745  1
  S2-  S206  1  0.24574427  0.87780371  0.45337818  1
  S2-  S207  1  0.25245725  0.86579148  0.95618128  1
  S2-  S208  1  0.50114427  0.11756287  0.45606872  1
  S2-  S209  1  0.50388900  0.10759246  0.95096326  1
  S2-  S210  1  0.49747386  0.37354452  0.46951414  1
  S2-  S211  1  0.49992732  0.36390687  0.94927327  1
  S2-  S212  1  0.49940109  0.62961696  0.45808684  1
  S2-  S213  1  0.50057186  0.61262418  0.93980387  1
  S2-  S214  1  0.50840574  0.87771909  0.44843840  1
  S2-  S215  1  0.50463815  0.86739661  0.94766679  1
  S2-  S216  1  0.74918929  0.13035144  0.46247725  1
  S2-  S217  1  0.75313552  0.11375698  0.95498926  1
  S2-  S218  1  0.74861727  0.37428676  0.46043073  1
  S2-  S219  1  0.75407275  0.36527469  0.95266446  1
  S2-  S220  1  0.74777058  0.62068928  0.45310629  1
  S2-  S221  1  0.75563834  0.61112045  0.94951528  1
  S2-  S222  1  0.74880120  0.86876059  0.46364642  1
  S2-  S223  1  0.74827902  0.86075280  0.96179595  1
  S2-  S224  1  0.12232228  -0.01771879  0.05336146  1
  S2-  S225  1  0.12125970  -0.00524752  0.53239446  1
  S2-  S226  1  0.13244419  0.24378943  0.05251477  1
  S2-  S227  1  0.11602150  0.24555863  0.54910123  1
  S2-  S228  1  0.13224441  0.48439953  0.05419165  1
  S2-  S229  1  0.12431380  0.50198287  0.54791405  1
  S2-  S230  1  0.13170055  0.74027726  0.04946199  1
  S2-  S231  1  0.12357481  0.74738245  0.55379661  1
  S2-  S232  1  0.38004294  -0.01192872  0.04224968  1
  S2-  S233  1  0.37614886  -0.00077569  0.53499321  1
  S2-  S234  1  0.37563951  0.23470766  0.04133014  1
  S2-  S235  1  0.37441710  0.24692879  0.54374868  1
  S2-  S236  1  0.37341364  0.48493786  0.03617906  1
  S2-  S237  1  0.36819057  0.50021762  0.54594671  1
  S2-  S238  1  0.37619681  0.74101008  0.03677713  1
  S2-  S239  1  0.37129764  0.75538080  0.53447125  1
  S2-  S240  1  0.62526606  -0.01090794  0.05116968  1
  S2-  S241  1  0.62457073  -0.00284509  0.54411356  1
  S2-  S242  1  0.62747529  0.23616283  0.04023153  1
  S2-  S243  1  0.61885770  0.25034534  0.54792295  1
  S2-  S244  1  0.62427373  0.48854484  0.04494586  1
  S2-  S245  1  0.62756386  0.49819446  0.54602315  1
  S2-  S246  1  0.61736234  0.73339452  0.04008827  1
  S2-  S247  1  0.62403460  0.74975995  0.54930103  1
  S2-  S248  1  0.87530979  -0.01529182  0.04499925  1
  S2-  S249  1  0.87039716  -0.00708580  0.54382005  1
  S2-  S250  1  0.87451645  0.24578095  0.04285281  1
  S2-  S251  1  0.87205121  0.25289206  0.54654154  1
  S2-  S252  1  0.87685613  0.48641284  0.04767580  1
  S2-  S253  1  0.87181280  0.50000675  0.55195766  1
  S2-  S254  1  0.87682357  0.73456358  0.04143251  1
  S2-  S255  1  0.87094347  0.74640669  0.54646710  1
