# generated using pymatgen
data_La6Ce7Pr13Nd19Sm19(BiS2)64
_symmetry_space_group_name_H-M   'P 1'
_cell_length_a   16.06908507
_cell_length_b   16.05306113
_cell_length_c   27.39927416
_cell_angle_alpha   90.17684757
_cell_angle_beta   90.22239734
_cell_angle_gamma   90.01725059
_symmetry_Int_Tables_number   1
_chemical_formula_structural   La6Ce7Pr13Nd19Sm19(BiS2)64
_chemical_formula_sum   'La6 Ce7 Pr13 Nd19 Sm19 Bi64 S128'
_cell_volume   7067.77484224
_cell_formula_units_Z   1
loop_
 _symmetry_equiv_pos_site_id
 _symmetry_equiv_pos_as_xyz
  1  'x, y, z'
loop_
 _atom_type_symbol
 _atom_type_oxidation_number
  La3+  3.0
  Ce3+  3.0
  Pr3+  3.0
  Nd3+  3.0
  Sm3+  3.0
  Bi2+  2.0
  S2-  -2.0
loop_
 _atom_site_type_symbol
 _atom_site_label
 _atom_site_symmetry_multiplicity
 _atom_site_fract_x
 _atom_site_fract_y
 _atom_site_fract_z
 _atom_site_occupancy
  La3+  La0  1  0.60247473  0.51403243  0.41298288  1
  La3+  La1  1  0.10661827  -0.00696432  0.39075188  1
  La3+  La2  1  0.48541986  0.88503161  0.56712521  1
  La3+  La3  1  -0.01420254  0.89523208  0.57500082  1
  La3+  La4  1  0.73868502  0.64260776  0.09563799  1
  La3+  La5  1  0.49961484  0.14865584  0.06527458  1
  Ce3+  Ce6  1  0.74383851  0.89105093  0.06191649  1
  Ce3+  Ce7  1  0.73514392  0.38486689  0.55629327  1
  Ce3+  Ce8  1  0.23459746  0.63213941  0.55510769  1
  Ce3+  Ce9  1  0.60968856  0.00599234  0.43899521  1
  Ce3+  Ce10  1  0.23709847  0.38049594  0.55683801  1
  Ce3+  Ce11  1  0.87363746  0.26885100  0.94154433  1
  Ce3+  Ce12  1  0.36003381  0.75702529  0.43937735  1
  Pr3+  Pr13  1  0.49097759  0.64091518  0.06644608  1
  Pr3+  Pr14  1  0.24419279  0.89694354  0.06644193  1
  Pr3+  Pr15  1  0.48568443  0.63389008  0.56750956  1
  Pr3+  Pr16  1  0.11419152  0.25625142  0.42936385  1
  Pr3+  Pr17  1  -0.00603184  0.14080813  0.07367188  1
  Pr3+  Pr18  1  0.87031011  0.51761297  0.94732847  1
  Pr3+  Pr19  1  0.48812471  0.37662210  0.58047092  1
  Pr3+  Pr20  1  -0.00790828  0.39252559  0.07605716  1
  Pr3+  Pr21  1  0.61328763  0.27391315  0.90632733  1
  Pr3+  Pr22  1  0.36159982  0.26546862  0.93256263  1
  Pr3+  Pr23  1  0.61062628  0.52688598  0.91559863  1
  Pr3+  Pr24  1  0.48450932  0.12918357  0.56706050  1
  Pr3+  Pr25  1  0.86881413  0.01640893  0.93740908  1
  Nd3+  Nd26  1  0.60971449  0.25940030  0.44314117  1
  Nd3+  Nd27  1  0.11625681  0.76793714  0.94571034  1
  Nd3+  Nd28  1  -0.00759098  0.89035665  0.07211488  1
  Nd3+  Nd29  1  0.23666627  0.13054750  0.55465529  1
  Nd3+  Nd30  1  0.10960960  0.50366550  0.43214389  1
  Nd3+  Nd31  1  0.24620604  0.64079539  0.07199924  1
  Nd3+  Nd32  1  0.10892031  0.75798902  0.44262699  1
  Nd3+  Nd33  1  0.36395775  0.01710092  0.94047939  1
  Nd3+  Nd34  1  0.24594671  0.39227299  0.06719453  1
  Nd3+  Nd35  1  0.86244413  0.00486948  0.43432544  1
  Nd3+  Nd36  1  0.86142384  0.25828680  0.44033409  1
  Nd3+  Nd37  1  0.86835781  0.76448530  0.94928206  1
  Nd3+  Nd38  1  -0.01233396  0.38295504  0.56206262  1
  Nd3+  Nd39  1  0.36660159  0.25755153  0.43622207  1
  Nd3+  Nd40  1  0.61747970  0.01974765  0.93636877  1
  Nd3+  Nd41  1  0.36003744  0.51926164  0.93345769  1
  Nd3+  Nd42  1  0.73630853  0.13205889  0.55820209  1
  Nd3+  Nd43  1  0.25186931  0.14578935  0.08540524  1
  Nd3+  Nd44  1  0.49559750  0.89302287  0.05421374  1
  Sm3+  Sm45  1  0.73915438  0.88304142  0.55229686  1
  Sm3+  Sm46  1  0.86197094  0.75574511  0.44657219  1
  Sm3+  Sm47  1  0.74099593  0.14602962  0.05204385  1
  Sm3+  Sm48  1  0.11347189  0.51658079  0.93943392  1
  Sm3+  Sm49  1  0.61028464  0.75417879  0.44414216  1
  Sm3+  Sm50  1  0.23271107  0.88603119  0.54921501  1
  Sm3+  Sm51  1  0.85925598  0.50743536  0.44414425  1
  Sm3+  Sm52  1  0.12143712  0.26517264  0.94788773  1
  Sm3+  Sm53  1  -0.01245762  0.63347101  0.55570268  1
  Sm3+  Sm54  1  -0.01105725  0.13339739  0.55008522  1
  Sm3+  Sm55  1  0.73913844  0.39458418  0.04962347  1
  Sm3+  Sm56  1  0.36491072  0.76510648  0.94515464  1
  Sm3+  Sm57  1  0.36505523  0.50678603  0.44755588  1
  Sm3+  Sm58  1  -0.00358345  0.64284650  0.07402408  1
  Sm3+  Sm59  1  0.11344719  0.01616059  0.94009174  1
  Sm3+  Sm60  1  0.36305293  0.00788841  0.43469229  1
  Sm3+  Sm61  1  0.49639102  0.39459669  0.04698412  1
  Sm3+  Sm62  1  0.73602118  0.63158846  0.55980681  1
  Sm3+  Sm63  1  0.61727656  0.76316587  0.94077980  1
  Bi2+  Bi64  1  -0.05063301  0.10476415  0.26937632  1
  Bi2+  Bi65  1  0.04767868  0.13226617  0.79411365  1
  Bi2+  Bi66  1  -0.00123000  0.28515123  0.30371958  1
  Bi2+  Bi67  1  0.01486535  0.33587237  0.83048563  1
  Bi2+  Bi68  1  0.05097317  0.58901732  0.31013379  1
  Bi2+  Bi69  1  -0.00529580  0.63702704  0.80392035  1
  Bi2+  Bi70  1  -0.05712171  0.84667231  0.28722664  1
  Bi2+  Bi71  1  0.05993856  0.88102182  0.81238083  1
  Bi2+  Bi72  1  0.22968110  0.12381457  0.27546392  1
  Bi2+  Bi73  1  0.24010893  0.07754296  0.78627318  1
  Bi2+  Bi74  1  0.25466021  0.38643255  0.28915313  1
  Bi2+  Bi75  1  0.26155890  0.38111748  0.79995897  1
  Bi2+  Bi76  1  0.24358679  0.58536503  0.29895715  1
  Bi2+  Bi77  1  0.26711150  0.65205521  0.79854994  1
  Bi2+  Bi78  1  0.22454195  0.79622159  0.29500428  1
  Bi2+  Bi79  1  0.26885559  0.83374336  0.73331889  1
  Bi2+  Bi80  1  0.46549936  0.13200103  0.30672209  1
  Bi2+  Bi81  1  0.51806984  0.12576518  0.79570963  1
  Bi2+  Bi82  1  0.52761844  0.38266437  0.29327134  1
  Bi2+  Bi83  1  0.51052346  0.39567796  0.78633946  1
  Bi2+  Bi84  1  0.51402211  0.60300262  0.28592385  1
  Bi2+  Bi85  1  0.50360530  0.65041375  0.78920974  1
  Bi2+  Bi86  1  0.54283435  0.87909355  0.27396064  1
  Bi2+  Bi87  1  0.44305390  0.89147375  0.78550179  1
  Bi2+  Bi88  1  0.75658966  0.05850639  0.28618747  1
  Bi2+  Bi89  1  0.77896138  0.02400934  0.79814827  1
  Bi2+  Bi90  1  0.80780307  0.32868056  0.24687020  1
  Bi2+  Bi91  1  0.78156030  0.40521295  0.76031467  1
  Bi2+  Bi92  1  0.77756270  0.58558820  0.30110740  1
  Bi2+  Bi93  1  0.77680104  0.59971268  0.76014099  1
  Bi2+  Bi94  1  0.74202369  0.85032200  0.29212621  1
  Bi2+  Bi95  1  0.79186898  0.83151201  0.79518375  1
  Bi2+  Bi96  1  0.11341451  -0.04711469  0.19712929  1
  Bi2+  Bi97  1  0.10910872  0.01973755  0.70559344  1
  Bi2+  Bi98  1  0.12532806  0.33482406  0.20813161  1
  Bi2+  Bi99  1  0.11881557  0.28660850  0.73203957  1
  Bi2+  Bi100  1  0.22231188  0.51136405  0.18344898  1
  Bi2+  Bi101  1  0.09792188  0.48652600  0.75218687  1
  Bi2+  Bi102  1  0.14306378  0.69033514  0.20522288  1
  Bi2+  Bi103  1  0.11937012  0.71124621  0.70645920  1
  Bi2+  Bi104  1  0.39522798  -0.03282832  0.20670765  1
  Bi2+  Bi105  1  0.35541524  0.02640376  0.69888255  1
  Bi2+  Bi106  1  0.40495402  0.25791642  0.20457362  1
  Bi2+  Bi107  1  0.37293778  0.27938344  0.70019130  1
  Bi2+  Bi108  1  0.41218552  0.45427609  0.20769604  1
  Bi2+  Bi109  1  0.29842980  0.51895778  0.71989300  1
  Bi2+  Bi110  1  0.37446899  0.70992487  0.23696175  1
  Bi2+  Bi111  1  0.44357724  0.78979831  0.68476939  1
  Bi2+  Bi112  1  0.60925988  0.01290943  0.19686147  1
  Bi2+  Bi113  1  0.65301894  -0.00228832  0.69987523  1
  Bi2+  Bi114  1  0.65757152  0.20297321  0.22922042  1
  Bi2+  Bi115  1  0.64986598  0.24703339  0.70949817  1
  Bi2+  Bi116  1  0.65657673  0.47240096  0.19566704  1
  Bi2+  Bi117  1  0.63165177  0.52284088  0.69002358  1
  Bi2+  Bi118  1  0.63488923  0.73164392  0.22067442  1
  Bi2+  Bi119  1  0.61557667  0.81893574  0.74101777  1
  Bi2+  Bi120  1  0.79828202  -0.05046494  0.19194576  1
  Bi2+  Bi121  1  0.89452182  -0.03521127  0.71341362  1
  Bi2+  Bi122  1  0.84992920  0.17100402  0.18246219  1
  Bi2+  Bi123  1  0.90721302  0.25098889  0.74343199  1
  Bi2+  Bi124  1  0.97565955  0.45918693  0.23516998  1
  Bi2+  Bi125  1  0.92845305  0.46224648  0.69400238  1
  Bi2+  Bi126  1  0.94678540  0.68493234  0.22754700  1
  Bi2+  Bi127  1  0.90019522  0.72788858  0.71542155  1
  S2-  S128  1  -0.01553875  0.00894051  0.14517198  1
  S2-  S129  1  -0.01659806  0.05389375  0.63808064  1
  S2-  S130  1  -0.00685202  0.26614955  0.14785798  1
  S2-  S131  1  0.00112411  0.31437787  0.65237328  1
  S2-  S132  1  -0.00498080  0.52139238  0.14523439  1
  S2-  S133  1  -0.00383432  0.61180094  0.65197448  1
  S2-  S134  1  0.00338975  0.76885808  0.14746899  1
  S2-  S135  1  0.00824259  0.83992671  0.66981663  1
  S2-  S136  1  0.17647359  0.09795868  0.17591362  1
  S2-  S137  1  0.27968192  0.15888972  0.65080248  1
  S2-  S138  1  0.26362397  0.28849368  0.14748501  1
  S2-  S139  1  0.25932715  0.38619614  0.65289737  1
  S2-  S140  1  0.36914461  0.65038143  0.14440133  1
  S2-  S141  1  0.24445459  0.64239805  0.65215138  1
  S2-  S142  1  0.26541010  0.88312668  0.16612975  1
  S2-  S143  1  0.23061466  0.92820246  0.64465554  1
  S2-  S144  1  0.39879676  0.12100062  0.14928773  1
  S2-  S145  1  0.50347258  0.23144469  0.64925585  1
  S2-  S146  1  0.51432044  0.36328041  0.14432746  1
  S2-  S147  1  0.48274663  0.41732528  0.68246932  1
  S2-  S148  1  0.58970886  0.61666022  0.14879144  1
  S2-  S149  1  0.49631744  0.62740864  0.66797735  1
  S2-  S150  1  0.49845227  0.87634461  0.15306248  1
  S2-  S151  1  0.49566976  1.00634578  0.64273610  1
  S2-  S152  1  0.63726260  0.15570425  0.13281702  1
  S2-  S153  1  0.73458668  0.13710788  0.65809723  1
  S2-  S154  1  0.76014639  0.37963277  0.14752110  1
  S2-  S155  1  0.72147027  0.37614360  0.65344059  1
  S2-  S156  1  0.77970290  0.58352591  0.19429931  1
  S2-  S157  1  0.73168275  0.64283748  0.65726108  1
  S2-  S158  1  0.73880867  0.80218910  0.14757946  1
  S2-  S159  1  0.76479801  0.90297885  0.64773002  1
  S2-  S160  1  0.16817794  -0.02759571  0.29199622  1
  S2-  S161  1  0.18762644  -0.04512705  0.85440604  1
  S2-  S162  1  0.12235731  0.15353493  0.34535868  1
  S2-  S163  1  0.22453768  0.26054153  0.86543727  1
  S2-  S164  1  0.11921227  0.38598042  0.35798757  1
  S2-  S165  1  0.22744332  0.52132280  0.86494581  1
  S2-  S166  1  0.07578047  0.81852550  0.35273961  1
  S2-  S167  1  0.13450366  0.73366573  0.84846441  1
  S2-  S168  1  0.34304585  0.03679976  0.33848111  1
  S2-  S169  1  0.38980591  0.03168017  0.84258191  1
  S2-  S170  1  0.34268657  0.25921433  0.33699416  1
  S2-  S171  1  0.46128333  0.26171224  0.84624585  1
  S2-  S172  1  0.44524511  0.49623819  0.36077667  1
  S2-  S173  1  0.46147359  0.52250808  0.84783913  1
  S2-  S174  1  0.37335080  0.77810135  0.34332714  1
  S2-  S175  1  0.38828895  0.75185700  0.84790625  1
  S2-  S176  1  0.55449507  0.00848112  0.34721342  1
  S2-  S177  1  0.61991320  -0.00023297  0.83820993  1
  S2-  S178  1  0.58283688  0.25081810  0.34527265  1
  S2-  S179  1  0.65338208  0.20837375  0.81036114  1
  S2-  S180  1  0.68245068  0.46171865  0.32654142  1
  S2-  S181  1  0.64441350  0.41333049  0.83973218  1
  S2-  S182  1  0.60798097  0.67088838  0.35830923  1
  S2-  S183  1  0.61999083  0.67537615  0.85462630  1
  S2-  S184  1  0.94584070  -0.00649818  0.34728371  1
  S2-  S185  1  0.98880439  0.01191963  0.86497656  1
  S2-  S186  1  0.84267786  0.25567335  0.34243188  1
  S2-  S187  1  0.86581458  0.25083043  0.84591447  1
  S2-  S188  1  0.89717592  0.50732012  0.34853843  1
  S2-  S189  1  0.98113516  0.50935823  0.86864921  1
  S2-  S190  1  0.84273259  0.73477100  0.34954058  1
  S2-  S191  1  0.92783354  0.78427516  0.85645543  1
  S2-  S192  1  -0.01437031  0.13111487  0.44757114  1
  S2-  S193  1  -0.00491166  0.14396829  0.96220961  1
  S2-  S194  1  -0.01661033  0.38354726  0.45559698  1
  S2-  S195  1  -0.00196818  0.38914579  0.96855489  1
  S2-  S196  1  -0.01423979  0.63107315  0.45215281  1
  S2-  S197  1  -0.00436327  0.64348556  0.96705647  1
  S2-  S198  1  -0.01772707  0.88074891  0.46054500  1
  S2-  S199  1  -0.00716637  0.89089165  0.96724328  1
  S2-  S200  1  0.24227909  0.13142557  0.44926555  1
  S2-  S201  1  0.23952271  0.13478746  0.96048049  1
  S2-  S202  1  0.24329506  0.38383912  0.45303324  1
  S2-  S203  1  0.23912706  0.39397036  0.96300043  1
  S2-  S204  1  0.23571206  0.62930296  0.44828761  1
  S2-  S205  1  0.24119594  0.64523041  0.96463902  1
  S2-  S206  1  0.23400213  0.88699819  0.44437552  1
  S2-  S207  1  0.24433000  0.88952015  0.96063713  1
  S2-  S208  1  0.48616788  0.13053940  0.45712301  1
  S2-  S209  1  0.49344622  0.14130686  0.95190627  1
  S2-  S210  1  0.48871246  0.38344251  0.46223738  1
  S2-  S211  1  0.49004180  0.39475484  0.94558647  1
  S2-  S212  1  0.48455845  0.63455585  0.46122214  1
  S2-  S213  1  0.48805871  0.64463126  0.95797790  1
  S2-  S214  1  0.48678036  0.87966894  0.45533014  1
  S2-  S215  1  0.49304486  0.88890160  0.94820291  1
  S2-  S216  1  0.73633255  0.13158014  0.44942810  1
  S2-  S217  1  0.74275020  0.14424646  0.94714699  1
  S2-  S218  1  0.73410974  0.38596547  0.45008850  1
  S2-  S219  1  0.74502890  0.39292159  0.94571934  1
  S2-  S220  1  0.73643364  0.63030830  0.45619810  1
  S2-  S221  1  0.74487425  0.64158494  0.95073132  1
  S2-  S222  1  0.73590522  0.87819252  0.44756469  1
  S2-  S223  1  0.74184189  0.88968177  0.95114090  1
  S2-  S224  1  0.12077373  0.01916577  0.04775732  1
  S2-  S225  1  0.11234805  0.01015326  0.54101467  1
  S2-  S226  1  0.12395009  0.26347692  0.05010715  1
  S2-  S227  1  0.11114311  0.25640511  0.54005163  1
  S2-  S228  1  0.12266936  0.51851492  0.04710955  1
  S2-  S229  1  0.11030080  0.50701917  0.54240121  1
  S2-  S230  1  0.12397237  0.76588662  0.05172899  1
  S2-  S231  1  0.10924331  0.76015668  0.54882761  1
  S2-  S232  1  0.37060296  0.01827746  0.04593449  1
  S2-  S233  1  0.35916276  0.00528617  0.53957045  1
  S2-  S234  1  0.37163523  0.26925654  0.04031236  1
  S2-  S235  1  0.36375155  0.25851073  0.54329856  1
  S2-  S236  1  0.36857737  0.51407729  0.04322472  1
  S2-  S237  1  0.36395226  0.50608822  0.55212596  1
  S2-  S238  1  0.36871076  0.77160550  0.04759737  1
  S2-  S239  1  0.35757935  0.76046688  0.54625875  1
  S2-  S240  1  0.62123907  0.01519738  0.04118241  1
  S2-  S241  1  0.61615299  0.00545368  0.54297539  1
  S2-  S242  1  0.62015800  0.27259609  0.03013387  1
  S2-  S243  1  0.61325385  0.25690224  0.54733964  1
  S2-  S244  1  0.62015387  0.51759325  0.03901519  1
  S2-  S245  1  0.60984598  0.50827742  0.55349775  1
  S2-  S246  1  0.61877160  0.76533331  0.04372478  1
  S2-  S247  1  0.61400789  0.75914182  0.54977319  1
  S2-  S248  1  0.86213307  0.01891178  0.04360137  1
  S2-  S249  1  0.85886378  0.01029658  0.53935048  1
  S2-  S250  1  0.86392995  0.26814424  0.04536156  1
  S2-  S251  1  0.86235951  0.25650161  0.54708403  1
  S2-  S252  1  0.86054078  0.52221837  0.05176740  1
  S2-  S253  1  0.86235935  0.50967963  0.54913690  1
  S2-  S254  1  0.86585818  0.76087527  0.05232886  1
  S2-  S255  1  0.86224633  0.75647057  0.55139684  1
