# generated using pymatgen
data_La6Ce7Pr13Nd19Sm19(BiS2)64
_symmetry_space_group_name_H-M   'P 1'
_cell_length_a   16.04570504
_cell_length_b   16.05883430
_cell_length_c   27.37207352
_cell_angle_alpha   90.01859634
_cell_angle_beta   89.73645900
_cell_angle_gamma   90.03053119
_symmetry_Int_Tables_number   1
_chemical_formula_structural   La6Ce7Pr13Nd19Sm19(BiS2)64
_chemical_formula_sum   'La6 Ce7 Pr13 Nd19 Sm19 Bi64 S128'
_cell_volume   7053.03178438
_cell_formula_units_Z   1
loop_
 _symmetry_equiv_pos_site_id
 _symmetry_equiv_pos_as_xyz
  1  'x, y, z'
loop_
 _atom_type_symbol
 _atom_type_oxidation_number
  La3+  3.0
  Ce3+  3.0
  Pr3+  3.0
  Nd3+  3.0
  Sm3+  3.0
  Bi2+  2.0
  S2-  -2.0
loop_
 _atom_site_type_symbol
 _atom_site_label
 _atom_site_symmetry_multiplicity
 _atom_site_fract_x
 _atom_site_fract_y
 _atom_site_fract_z
 _atom_site_occupancy
  La3+  La0  1  0.00980102  0.61610069  0.59910004  1
  La3+  La1  1  -0.00938387  0.36131568  0.07635890  1
  La3+  La2  1  0.00131882  0.12361073  0.57802262  1
  La3+  La3  1  0.24445238  0.88922649  0.09691933  1
  La3+  La4  1  0.13113651  0.74645956  0.92926954  1
  La3+  La5  1  0.74276537  0.61012389  0.60867434  1
  Ce3+  Ce6  1  0.49501433  0.87486686  0.06972533  1
  Ce3+  Ce7  1  0.37321478  0.24865087  0.94398351  1
  Ce3+  Ce8  1  0.49734876  0.12528585  0.05520513  1
  Ce3+  Ce9  1  0.62800427  0.00014801  0.43880141  1
  Ce3+  Ce10  1  0.25223447  0.87140527  0.56255452  1
  Ce3+  Ce11  1  0.25131934  0.62442556  0.55703671  1
  Ce3+  Ce12  1  0.37703569  0.75048219  0.42858149  1
  Pr3+  Pr13  1  0.00374975  0.87336329  0.05682074  1
  Pr3+  Pr14  1  0.12864793  0.49562138  0.93587535  1
  Pr3+  Pr15  1  0.50367819  0.62297375  0.07736185  1
  Pr3+  Pr16  1  0.36752866  0.75100563  0.94852187  1
  Pr3+  Pr17  1  0.86973756  0.24523745  0.92476858  1
  Pr3+  Pr18  1  0.12944033  0.25840552  0.42865140  1
  Pr3+  Pr19  1  0.62227530  0.75086292  0.93981703  1
  Pr3+  Pr20  1  0.62197232  0.24736961  0.92638932  1
  Pr3+  Pr21  1  0.63206500  0.24640267  0.43316504  1
  Pr3+  Pr22  1  0.87425898  -0.00154148  0.94164587  1
  Pr3+  Pr23  1  0.38361810  0.24501889  0.42004938  1
  Pr3+  Pr24  1  0.23666726  0.62081268  0.07907202  1
  Pr3+  Pr25  1  0.74833034  0.13117922  0.06414538  1
  Nd3+  Nd26  1  0.50115866  0.87434099  0.55347101  1
  Nd3+  Nd27  1  0.88232486  0.23642960  0.42187915  1
  Nd3+  Nd28  1  0.13652537  0.00399263  0.90375686  1
  Nd3+  Nd29  1  0.25094741  0.37572125  0.55175815  1
  Nd3+  Nd30  1  0.75286519  0.37362717  0.55423404  1
  Nd3+  Nd31  1  0.00056932  0.86868252  0.57226198  1
  Nd3+  Nd32  1  0.74784045  0.86925170  0.56516357  1
  Nd3+  Nd33  1  0.88071536  0.75365556  0.92676238  1
  Nd3+  Nd34  1  0.62666173  0.74842283  0.43545336  1
  Nd3+  Nd35  1  0.38732395  0.49899083  0.40866530  1
  Nd3+  Nd36  1  0.50211037  0.37464700  0.55475069  1
  Nd3+  Nd37  1  0.87578956  0.49908354  0.94233725  1
  Nd3+  Nd38  1  0.12628639  0.50752303  0.43105099  1
  Nd3+  Nd39  1  0.62413548  0.50548464  0.93235498  1
  Nd3+  Nd40  1  0.25279757  0.12739847  0.56459625  1
  Nd3+  Nd41  1  0.75407910  0.12560158  0.56590899  1
  Nd3+  Nd42  1  0.50078962  0.62564182  0.55984718  1
  Nd3+  Nd43  1  0.50020171  0.37342134  0.05778457  1
  Nd3+  Nd44  1  -0.00049717  0.37607877  0.55512321  1
  Sm3+  Sm45  1  0.74548182  0.37547775  0.04653609  1
  Sm3+  Sm46  1  -0.00065825  0.12310289  0.04736037  1
  Sm3+  Sm47  1  0.37093514  -0.00356509  0.43268249  1
  Sm3+  Sm48  1  0.12596280  0.00035627  0.44911900  1
  Sm3+  Sm49  1  0.12495849  0.74680748  0.44153553  1
  Sm3+  Sm50  1  0.87537392  0.74609396  0.45440925  1
  Sm3+  Sm51  1  0.11804424  0.25112861  0.92861728  1
  Sm3+  Sm52  1  0.49692051  0.12414291  0.56132627  1
  Sm3+  Sm53  1  0.37287712  0.49932559  0.94967871  1
  Sm3+  Sm54  1  0.24315702  0.37467325  0.06126865  1
  Sm3+  Sm55  1  0.75073331  0.62996912  0.06110305  1
  Sm3+  Sm56  1  0.74441935  0.87024004  0.06407143  1
  Sm3+  Sm57  1  0.87714214  0.50290496  0.44589407  1
  Sm3+  Sm58  1  -0.00103266  0.62457418  0.05543867  1
  Sm3+  Sm59  1  0.24468607  0.12722207  0.05751103  1
  Sm3+  Sm60  1  0.88018026  -0.00315842  0.44558343  1
  Sm3+  Sm61  1  0.36967585  -0.00154852  0.94241638  1
  Sm3+  Sm62  1  0.62219391  -0.00321109  0.94433247  1
  Sm3+  Sm63  1  0.62698750  0.50064581  0.43919212  1
  Bi2+  Bi64  1  0.04741857  0.13755992  0.22237993  1
  Bi2+  Bi65  1  0.00522801  0.12570325  0.79720816  1
  Bi2+  Bi66  1  0.00669449  0.36736955  0.29786453  1
  Bi2+  Bi67  1  0.10874103  0.38167487  0.80641991  1
  Bi2+  Bi68  1  0.00890213  0.61467403  0.29325105  1
  Bi2+  Bi69  1  -0.04256157  0.62339803  0.81336838  1
  Bi2+  Bi70  1  -0.00331880  0.84179475  0.30382430  1
  Bi2+  Bi71  1  -0.06677865  0.88810010  0.79707159  1
  Bi2+  Bi72  1  0.19826858  0.11880756  0.30099435  1
  Bi2+  Bi73  1  0.32618244  0.10348038  0.77702800  1
  Bi2+  Bi74  1  0.23720806  0.31218861  0.27911914  1
  Bi2+  Bi75  1  0.30788729  0.38047186  0.78727654  1
  Bi2+  Bi76  1  0.29493093  0.58607020  0.26293101  1
  Bi2+  Bi77  1  0.24567504  0.62413162  0.79456819  1
  Bi2+  Bi78  1  0.19294923  0.84088760  0.31015393  1
  Bi2+  Bi79  1  0.30996177  0.86004275  0.78103991  1
  Bi2+  Bi80  1  0.51658761  0.14188804  0.26021341  1
  Bi2+  Bi81  1  0.52518828  0.10862721  0.79653088  1
  Bi2+  Bi82  1  0.50988453  0.36149016  0.28825637  1
  Bi2+  Bi83  1  0.50653198  0.30177438  0.81526102  1
  Bi2+  Bi84  1  0.49281414  0.61157970  0.28099478  1
  Bi2+  Bi85  1  0.46111325  0.69186643  0.79645961  1
  Bi2+  Bi86  1  0.56411432  0.88695669  0.29716348  1
  Bi2+  Bi87  1  0.49736316  0.90377662  0.80254603  1
  Bi2+  Bi88  1  0.76289898  0.13090653  0.29135109  1
  Bi2+  Bi89  1  0.77041279  0.14147036  0.77117706  1
  Bi2+  Bi90  1  0.79075466  0.39525020  0.28914497  1
  Bi2+  Bi91  1  0.68991321  0.33815553  0.76980172  1
  Bi2+  Bi92  1  0.75463998  0.66846429  0.29257027  1
  Bi2+  Bi93  1  0.71642639  0.59995399  0.80246116  1
  Bi2+  Bi94  1  0.77102640  0.86856246  0.28403752  1
  Bi2+  Bi95  1  0.68726196  0.92257873  0.74957245  1
  Bi2+  Bi96  1  0.18417834  -0.02868732  0.22260089  1
  Bi2+  Bi97  1  0.12911056  0.00393035  0.70820722  1
  Bi2+  Bi98  1  0.19531683  0.23931521  0.17226741  1
  Bi2+  Bi99  1  0.16825298  0.25182476  0.72125055  1
  Bi2+  Bi100  1  0.13839841  0.50672332  0.21330076  1
  Bi2+  Bi101  1  0.13201849  0.47470940  0.70228091  1
  Bi2+  Bi102  1  0.10999733  0.74967452  0.20784298  1
  Bi2+  Bi103  1  0.11493092  0.74940425  0.71081081  1
  Bi2+  Bi104  1  0.39585187  -0.00918765  0.28153970  1
  Bi2+  Bi105  1  0.43015029  -0.00810279  0.70133430  1
  Bi2+  Bi106  1  0.37990641  0.24759999  0.20586976  1
  Bi2+  Bi107  1  0.43929810  0.23670000  0.71021442  1
  Bi2+  Bi108  1  0.40154982  0.45251443  0.20621276  1
  Bi2+  Bi109  1  0.38644803  0.53238897  0.72654571  1
  Bi2+  Bi110  1  0.37328657  0.79483584  0.22186617  1
  Bi2+  Bi111  1  0.35891321  0.72425338  0.69958709  1
  Bi2+  Bi112  1  0.65341813  -0.00643058  0.21571151  1
  Bi2+  Bi113  1  0.62657210  0.01203406  0.65390957  1
  Bi2+  Bi114  1  0.64611331  0.25262252  0.18227643  1
  Bi2+  Bi115  1  0.63779205  0.19691602  0.69137157  1
  Bi2+  Bi116  1  0.67576364  0.51676087  0.23357388  1
  Bi2+  Bi117  1  0.57160115  0.47245839  0.71701308  1
  Bi2+  Bi118  1  0.64092083  0.73482178  0.19183722  1
  Bi2+  Bi119  1  0.58392634  0.74958078  0.71084435  1
  Bi2+  Bi120  1  0.91339449  0.00859046  0.26204635  1
  Bi2+  Bi121  1  0.83506611  0.01884735  0.69102922  1
  Bi2+  Bi122  1  0.89657199  0.28981993  0.21210880  1
  Bi2+  Bi123  1  0.97111577  0.29120370  0.73746887  1
  Bi2+  Bi124  1  0.86916899  0.55951845  0.21783197  1
  Bi2+  Bi125  1  0.84777244  0.43909833  0.71975977  1
  Bi2+  Bi126  1  0.89845402  0.75454846  0.21135873  1
  Bi2+  Bi127  1  0.83996528  0.77440654  0.72280418  1
  S2-  S128  1  -0.02772041  0.20348353  0.13212703  1
  S2-  S129  1  -0.00238145  -0.01400570  0.65156035  1
  S2-  S130  1  0.01122279  0.40677458  0.17445715  1
  S2-  S131  1  -0.00933997  0.45410430  0.64560787  1
  S2-  S132  1  0.07916466  0.61972433  0.14183630  1
  S2-  S133  1  0.02292896  0.61419130  0.72745917  1
  S2-  S134  1  0.08107620  0.88639413  0.14804201  1
  S2-  S135  1  -0.01558417  0.76662254  0.65517588  1
  S2-  S136  1  0.24917055  0.06247085  0.14908748  1
  S2-  S137  1  0.14193784  0.14006684  0.64460277  1
  S2-  S138  1  0.25351240  0.47539691  0.14185550  1
  S2-  S139  1  0.22978981  0.36438111  0.65228367  1
  S2-  S140  1  0.25570879  0.74004394  0.15543066  1
  S2-  S141  1  0.17390271  0.62110627  0.64531344  1
  S2-  S142  1  0.39834487  0.90132876  0.15215012  1
  S2-  S143  1  0.20110095  0.88230250  0.65723700  1
  S2-  S144  1  0.51033260  0.14426072  0.15172343  1
  S2-  S145  1  0.38020161  0.12124590  0.63646479  1
  S2-  S146  1  0.53997518  0.38414705  0.15367278  1
  S2-  S147  1  0.49193138  0.37152113  0.65457343  1
  S2-  S148  1  0.47651624  0.68953193  0.17368390  1
  S2-  S149  1  0.57848100  0.61034467  0.64972382  1
  S2-  S150  1  0.62264066  0.88257862  0.13992851  1
  S2-  S151  1  0.46864198  0.83657348  0.64938014  1
  S2-  S152  1  0.74653704  0.10872216  0.16454820  1
  S2-  S153  1  0.86366048  0.16491401  0.64108631  1
  S2-  S154  1  0.76952434  0.33221427  0.13959788  1
  S2-  S155  1  0.73686575  0.43435462  0.64718374  1
  S2-  S156  1  0.64888004  0.58889416  0.13852888  1
  S2-  S157  1  0.80600919  0.60520470  0.70761736  1
  S2-  S158  1  0.78715952  0.75146152  0.13423819  1
  S2-  S159  1  0.72758282  0.77737512  0.65020529  1
  S2-  S160  1  0.11791804  -0.01476742  0.35125602  1
  S2-  S161  1  0.08327378  -0.04176947  0.80733137  1
  S2-  S162  1  0.01362642  0.23609749  0.35361683  1
  S2-  S163  1  0.14079819  0.15363816  0.84793831  1
  S2-  S164  1  0.14155125  0.40446256  0.34881113  1
  S2-  S165  1  0.11532274  0.59740482  0.85388292  1
  S2-  S166  1  0.12086422  0.64097196  0.36044053  1
  S2-  S167  1  0.01207086  0.77193113  0.85549739  1
  S2-  S168  1  0.35164873  0.10573134  0.35608845  1
  S2-  S169  1  0.29500294  -0.00598745  0.85247620  1
  S2-  S170  1  0.36535945  0.36544102  0.34332988  1
  S2-  S171  1  0.34588277  0.24007608  0.84865566  1
  S2-  S172  1  0.36392112  0.64007337  0.34964311  1
  S2-  S173  1  0.31399132  0.50294786  0.85832373  1
  S2-  S174  1  0.35296049  0.87420426  0.35717530  1
  S2-  S175  1  0.27263040  0.75589649  0.86038022  1
  S2-  S176  1  0.64320967  0.03020059  0.34437347  1
  S2-  S177  1  0.63837616  -0.02197164  0.84753466  1
  S2-  S178  1  0.52793518  0.23430257  0.35199058  1
  S2-  S179  1  0.74321230  0.23974739  0.85175867  1
  S2-  S180  1  0.54385131  0.49779326  0.35217688  1
  S2-  S181  1  0.60103797  0.49758168  0.83371755  1
  S2-  S182  1  0.56354227  0.73493234  0.34245130  1
  S2-  S183  1  0.61500723  0.71148784  0.84220302  1
  S2-  S184  1  0.87805749  0.07571455  0.35851886  1
  S2-  S185  1  0.86928366  0.03365844  0.84317623  1
  S2-  S186  1  0.75037602  0.25759653  0.35336130  1
  S2-  S187  1  0.97489279  0.27932743  0.84696372  1
  S2-  S188  1  0.90354881  0.49428171  0.34753905  1
  S2-  S189  1  0.84735696  0.49814599  0.84336431  1
  S2-  S190  1  0.86716128  0.76452734  0.35532851  1
  S2-  S191  1  0.81598158  0.76036393  0.83048961  1
  S2-  S192  1  0.00394574  0.11934902  0.46302536  1
  S2-  S193  1  0.00214156  0.12186025  0.94620419  1
  S2-  S194  1  -0.00009579  0.37993650  0.45184732  1
  S2-  S195  1  -0.00208018  0.37383408  0.95629624  1
  S2-  S196  1  -0.00310592  0.62670478  0.45822101  1
  S2-  S197  1  -0.00210190  0.62202005  0.95412721  1
  S2-  S198  1  0.00160217  0.87096116  0.45970400  1
  S2-  S199  1  0.00878768  0.88778048  0.95147768  1
  S2-  S200  1  0.24605753  0.12570484  0.45773879  1
  S2-  S201  1  0.24658231  0.12537808  0.95464634  1
  S2-  S202  1  0.25928710  0.38232577  0.44918126  1
  S2-  S203  1  0.24868735  0.37060320  0.95674684  1
  S2-  S204  1  0.25691638  0.62296300  0.45488637  1
  S2-  S205  1  0.24919638  0.61784429  0.96718890  1
  S2-  S206  1  0.24555310  0.87179657  0.45846201  1
  S2-  S207  1  0.24511019  0.88257905  0.95615396  1
  S2-  S208  1  0.50016824  0.11873317  0.45744194  1
  S2-  S209  1  0.49807821  0.12128693  0.94788552  1
  S2-  S210  1  0.50379418  0.37531616  0.45177652  1
  S2-  S211  1  0.49957216  0.37714698  0.95075098  1
  S2-  S212  1  0.50135973  0.62203958  0.45479061  1
  S2-  S213  1  0.49541315  0.62376740  0.95475166  1
  S2-  S214  1  0.50305625  0.87639871  0.44897329  1
  S2-  S215  1  0.49579263  0.87569120  0.95636726  1
  S2-  S216  1  0.75430687  0.12042146  0.46010583  1
  S2-  S217  1  0.74385699  0.11963038  0.95548173  1
  S2-  S218  1  0.75223456  0.38035155  0.45024124  1
  S2-  S219  1  0.74579611  0.37806369  0.94446598  1
  S2-  S220  1  0.75073961  0.62380655  0.44265508  1
  S2-  S221  1  0.75112590  0.62709086  0.95339940  1
  S2-  S222  1  0.75250991  0.87391020  0.45560821  1
  S2-  S223  1  0.74861497  0.87371843  0.95537130  1
  S2-  S224  1  0.12254384  0.00634271  0.04847538  1
  S2-  S225  1  0.12831308  -0.00462093  0.54999201  1
  S2-  S226  1  0.12203406  0.24966129  0.03677425  1
  S2-  S227  1  0.12387258  0.25441000  0.53886459  1
  S2-  S228  1  0.11314844  0.48885812  0.04347034  1
  S2-  S229  1  0.12461118  0.50130545  0.54073518  1
  S2-  S230  1  0.12295501  0.74779034  0.04154117  1
  S2-  S231  1  0.12367976  0.74746902  0.54604866  1
  S2-  S232  1  0.37133063  0.00422757  0.04467776  1
  S2-  S233  1  0.37497150  -0.00405720  0.53890539  1
  S2-  S234  1  0.37086538  0.25243517  0.05045974  1
  S2-  S235  1  0.37809763  0.25138340  0.53824453  1
  S2-  S236  1  0.37820465  0.49944589  0.05106262  1
  S2-  S237  1  0.37765329  0.49961350  0.55677258  1
  S2-  S238  1  0.37545542  0.74499370  0.05209471  1
  S2-  S239  1  0.37664255  0.74904420  0.54026395  1
  S2-  S240  1  0.62496989  0.00308087  0.04660659  1
  S2-  S241  1  0.62611054  0.00033820  0.54218764  1
  S2-  S242  1  0.62319883  0.25051889  0.03577306  1
  S2-  S243  1  0.62563909  0.24683163  0.54506133  1
  S2-  S244  1  0.62397569  0.49830548  0.03723334  1
  S2-  S245  1  0.62793365  0.50115182  0.54226139  1
  S2-  S246  1  0.62116878  0.74747720  0.04392745  1
  S2-  S247  1  0.62497074  0.74755567  0.54147777  1
  S2-  S248  1  0.87197286  -0.00120969  0.05089800  1
  S2-  S249  1  0.87232403  -0.00681033  0.54812733  1
  S2-  S250  1  0.86885623  0.24914002  0.03104642  1
  S2-  S251  1  0.87689872  0.25373997  0.53480930  1
  S2-  S252  1  0.87139377  0.49956173  0.05113287  1
  S2-  S253  1  0.87074760  0.50687761  0.54941258  1
  S2-  S254  1  0.87916200  0.75023719  0.03335057  1
  S2-  S255  1  0.86952773  0.73977444  0.55568908  1
