# generated using pymatgen
data_La6Ce7Pr13Nd19Sm19(BiS2)64
_symmetry_space_group_name_H-M   'P 1'
_cell_length_a   15.98477520
_cell_length_b   16.06647853
_cell_length_c   27.37298236
_cell_angle_alpha   89.76696256
_cell_angle_beta   89.99326228
_cell_angle_gamma   90.10263488
_symmetry_Int_Tables_number   1
_chemical_formula_structural   La6Ce7Pr13Nd19Sm19(BiS2)64
_chemical_formula_sum   'La6 Ce7 Pr13 Nd19 Sm19 Bi64 S128'
_cell_volume   7029.83378162
_cell_formula_units_Z   1
loop_
 _symmetry_equiv_pos_site_id
 _symmetry_equiv_pos_as_xyz
  1  'x, y, z'
loop_
 _atom_type_symbol
 _atom_type_oxidation_number
  La3+  3.0
  Ce3+  3.0
  Pr3+  3.0
  Nd3+  3.0
  Sm3+  3.0
  Bi2+  2.0
  S2-  -2.0
loop_
 _atom_site_type_symbol
 _atom_site_label
 _atom_site_symmetry_multiplicity
 _atom_site_fract_x
 _atom_site_fract_y
 _atom_site_fract_z
 _atom_site_occupancy
  La3+  La0  1  0.13569216  -0.00972630  0.87594325  1
  La3+  La1  1  0.48960491  0.64328877  0.10694751  1
  La3+  La2  1  0.74241648  0.63355064  0.07226451  1
  La3+  La3  1  -0.01172141  0.62946862  0.05921038  1
  La3+  La4  1  0.86108847  0.49900040  0.91906434  1
  La3+  La5  1  0.87088750  0.23546465  0.40775003  1
  Ce3+  Ce6  1  0.24854627  0.63032668  0.05938370  1
  Ce3+  Ce7  1  0.61556802  0.75550697  0.94041739  1
  Ce3+  Ce8  1  0.24788831  0.60840272  0.55536610  1
  Ce3+  Ce9  1  0.48894451  0.38400141  0.06667523  1
  Ce3+  Ce10  1  0.62184944  0.23368653  0.44985576  1
  Ce3+  Ce11  1  -0.00839821  0.37566967  0.06587385  1
  Ce3+  Ce12  1  0.74158443  0.13699451  0.07710917  1
  Pr3+  Pr13  1  0.36996419  0.50941922  0.93140045  1
  Pr3+  Pr14  1  0.24314081  0.88681494  0.05835470  1
  Pr3+  Pr15  1  0.11515769  0.50609090  0.94309144  1
  Pr3+  Pr16  1  -0.00696771  0.10869360  0.57041503  1
  Pr3+  Pr17  1  0.86459389  0.75773782  0.93212964  1
  Pr3+  Pr18  1  0.36486932  0.76387819  0.94048045  1
  Pr3+  Pr19  1  0.37343643  0.23052292  0.43627563  1
  Pr3+  Pr20  1  0.37692757  0.01853781  0.91821019  1
  Pr3+  Pr21  1  -0.00868496  0.88418877  0.05642396  1
  Pr3+  Pr22  1  0.74418732  0.39046278  0.07938209  1
  Pr3+  Pr23  1  0.75239189  0.60595078  0.59610921  1
  Pr3+  Pr24  1  0.62144208  0.73154486  0.43808960  1
  Pr3+  Pr25  1  0.49297940  0.36376485  0.57336467  1
  Nd3+  Nd26  1  0.87295117  0.00939392  0.93747092  1
  Nd3+  Nd27  1  0.37028176  0.25529586  0.93548897  1
  Nd3+  Nd28  1  0.11875207  -0.01417654  0.43806282  1
  Nd3+  Nd29  1  -0.00791589  0.85879442  0.56820184  1
  Nd3+  Nd30  1  0.37587676  0.47744073  0.43082364  1
  Nd3+  Nd31  1  0.11310277  0.25046842  0.93143955  1
  Nd3+  Nd32  1  0.87705180  -0.01158531  0.43415994  1
  Nd3+  Nd33  1  -0.01337329  0.13396625  0.06801710  1
  Nd3+  Nd34  1  0.74669647  0.36147395  0.56169144  1
  Nd3+  Nd35  1  0.49834868  0.60601253  0.56294550  1
  Nd3+  Nd36  1  0.48709268  0.13228999  0.07051017  1
  Nd3+  Nd37  1  0.61955685  0.26039485  0.95129257  1
  Nd3+  Nd38  1  0.49076432  0.09903330  0.57700736  1
  Nd3+  Nd39  1  0.63270567  0.48230056  0.43241134  1
  Nd3+  Nd40  1  0.62311174  -0.01232405  0.44044446  1
  Nd3+  Nd41  1  0.49587308  0.85174943  0.56364922  1
  Nd3+  Nd42  1  0.24935726  0.35963229  0.56135796  1
  Nd3+  Nd43  1  -0.00764508  0.36113042  0.56407078  1
  Nd3+  Nd44  1  0.37065641  0.72363254  0.42976568  1
  Sm3+  Sm45  1  0.24283189  0.10876468  0.56371154  1
  Sm3+  Sm46  1  0.11720647  0.76014723  0.94472401  1
  Sm3+  Sm47  1  0.12036178  0.73461713  0.44863620  1
  Sm3+  Sm48  1  0.87345437  0.73288828  0.44249174  1
  Sm3+  Sm49  1  0.61906345  0.01196398  0.94312575  1
  Sm3+  Sm50  1  -0.00420591  0.60813107  0.56455590  1
  Sm3+  Sm51  1  0.37398022  -0.01619456  0.43389256  1
  Sm3+  Sm52  1  0.87513776  0.48629971  0.43799560  1
  Sm3+  Sm53  1  0.11904199  0.23299317  0.44654482  1
  Sm3+  Sm54  1  0.24748052  0.85871618  0.55155113  1
  Sm3+  Sm55  1  0.24033692  0.12928191  0.04879209  1
  Sm3+  Sm56  1  0.86303733  0.25842793  0.94627787  1
  Sm3+  Sm57  1  0.74619577  0.85690395  0.54978502  1
  Sm3+  Sm58  1  0.49197123  0.88454117  0.05664346  1
  Sm3+  Sm59  1  0.11401556  0.48127273  0.44020634  1
  Sm3+  Sm60  1  0.73917445  0.87992026  0.05964528  1
  Sm3+  Sm61  1  0.61154539  0.51111044  0.94300665  1
  Sm3+  Sm62  1  0.74447588  0.10774246  0.56800971  1
  Sm3+  Sm63  1  0.24311493  0.37907726  0.05119562  1
  Bi2+  Bi64  1  -0.00337491  0.11012570  0.30153943  1
  Bi2+  Bi65  1  0.05475046  0.15067326  0.75547686  1
  Bi2+  Bi66  1  0.04803530  0.38612897  0.28674172  1
  Bi2+  Bi67  1  0.11274062  0.37859593  0.80128142  1
  Bi2+  Bi68  1  -0.01661041  0.63218103  0.29825626  1
  Bi2+  Bi69  1  0.01842891  0.64491533  0.78599848  1
  Bi2+  Bi70  1  0.07111450  0.86858318  0.28646579  1
  Bi2+  Bi71  1  -0.00195011  0.87083717  0.78173604  1
  Bi2+  Bi72  1  0.20306007  0.14143966  0.30657884  1
  Bi2+  Bi73  1  0.35835885  0.14767802  0.74758350  1
  Bi2+  Bi74  1  0.23793834  0.34941836  0.30731407  1
  Bi2+  Bi75  1  0.30289208  0.33233698  0.81867829  1
  Bi2+  Bi76  1  0.21141357  0.61075039  0.29315553  1
  Bi2+  Bi77  1  0.28650195  0.55150182  0.80152414  1
  Bi2+  Bi78  1  0.24700719  0.95198837  0.30354997  1
  Bi2+  Bi79  1  0.26330194  0.80853453  0.78812142  1
  Bi2+  Bi80  1  0.46895673  0.11487496  0.27590399  1
  Bi2+  Bi81  1  0.60144371  0.13428984  0.79160403  1
  Bi2+  Bi82  1  0.42823197  0.37515836  0.26358387  1
  Bi2+  Bi83  1  0.49145239  0.37788872  0.78793235  1
  Bi2+  Bi84  1  0.48181168  0.66338021  0.30198161  1
  Bi2+  Bi85  1  0.46899384  0.62305492  0.78262445  1
  Bi2+  Bi86  1  0.46416755  0.91990127  0.28384943  1
  Bi2+  Bi87  1  0.57280243  0.87891269  0.80247347  1
  Bi2+  Bi88  1  0.70575630  0.09760349  0.28868726  1
  Bi2+  Bi89  1  0.78744722  0.08956574  0.82620349  1
  Bi2+  Bi90  1  0.70133084  0.36193722  0.29534508  1
  Bi2+  Bi91  1  0.73021669  0.35828676  0.81144625  1
  Bi2+  Bi92  1  0.72105087  0.62793516  0.30920415  1
  Bi2+  Bi93  1  0.75283711  0.63556534  0.79604547  1
  Bi2+  Bi94  1  0.79172769  0.92311230  0.26186715  1
  Bi2+  Bi95  1  0.76943476  0.90250685  0.79001909  1
  Bi2+  Bi96  1  0.16704358  0.00732666  0.20438658  1
  Bi2+  Bi97  1  0.23071625  -0.00049304  0.68806611  1
  Bi2+  Bi98  1  0.13306828  0.25406786  0.21591369  1
  Bi2+  Bi99  1  0.22254694  0.30155128  0.71314415  1
  Bi2+  Bi100  1  0.08287260  0.52766791  0.20751475  1
  Bi2+  Bi101  1  0.09963738  0.45623819  0.69407786  1
  Bi2+  Bi102  1  0.08872300  0.72603072  0.20690247  1
  Bi2+  Bi103  1  0.16958715  0.64191039  0.71890078  1
  Bi2+  Bi104  1  0.47916664  -0.00419003  0.17812599  1
  Bi2+  Bi105  1  0.42159751  -0.04283297  0.74289961  1
  Bi2+  Bi106  1  0.34043901  0.22645684  0.20248842  1
  Bi2+  Bi107  1  0.51998083  0.23418386  0.70114995  1
  Bi2+  Bi108  1  0.28677963  0.48763311  0.21281941  1
  Bi2+  Bi109  1  0.38371685  0.48264175  0.70664378  1
  Bi2+  Bi110  1  0.28241944  0.74747648  0.22394065  1
  Bi2+  Bi111  1  0.37317522  0.74261290  0.70403542  1
  Bi2+  Bi112  1  0.67565928  0.00925325  0.18278611  1
  Bi2+  Bi113  1  0.72226197  0.03878945  0.71272611  1
  Bi2+  Bi114  1  0.59319167  0.22969977  0.21863519  1
  Bi2+  Bi115  1  0.71415049  0.28071665  0.70555343  1
  Bi2+  Bi116  1  0.59037149  0.48313573  0.22141168  1
  Bi2+  Bi117  1  0.63154088  0.46201090  0.72094038  1
  Bi2+  Bi118  1  0.61300780  0.81641953  0.21288125  1
  Bi2+  Bi119  1  0.60099907  0.82421338  0.69537773  1
  Bi2+  Bi120  1  0.95737255  0.00941084  0.21127089  1
  Bi2+  Bi121  1  0.93581959  0.00319401  0.70665890  1
  Bi2+  Bi122  1  0.87557351  0.26061690  0.20367493  1
  Bi2+  Bi123  1  0.87977780  0.23804579  0.77014348  1
  Bi2+  Bi124  1  0.85426589  0.51748418  0.21417804  1
  Bi2+  Bi125  1  0.89487286  0.47472033  0.71480445  1
  Bi2+  Bi126  1  0.85373453  0.76347764  0.21094065  1
  Bi2+  Bi127  1  0.84962975  0.76066982  0.69671461  1
  S2-  S128  1  0.02119239  0.25378706  0.14147039  1
  S2-  S129  1  0.12322206  0.10382032  0.64102273  1
  S2-  S130  1  -0.10602597  0.40736577  0.14751363  1
  S2-  S131  1  -0.03590559  0.35259993  0.66319771  1
  S2-  S132  1  -0.10813607  0.63638676  0.14347068  1
  S2-  S133  1  -0.08753028  0.61497863  0.65091204  1
  S2-  S134  1  -0.05778780  0.86759576  0.15247662  1
  S2-  S135  1  0.00251231  0.84773017  0.66733245  1
  S2-  S136  1  0.27682697  0.10422869  0.14516771  1
  S2-  S137  1  0.35087865  0.10542785  0.64138734  1
  S2-  S138  1  0.24484556  0.35809602  0.14922164  1
  S2-  S139  1  0.35242612  0.35373210  0.64197625  1
  S2-  S140  1  0.32443141  0.63355880  0.14782706  1
  S2-  S141  1  0.30165531  0.60714432  0.64672598  1
  S2-  S142  1  0.23641009  0.86719994  0.15874694  1
  S2-  S143  1  0.25555844  0.84605056  0.64905263  1
  S2-  S144  1  0.47767479  0.25597551  0.14138880  1
  S2-  S145  1  0.62409076  0.10911080  0.64379041  1
  S2-  S146  1  0.48155888  0.47852211  0.14874203  1
  S2-  S147  1  0.52502163  0.49544941  0.64265843  1
  S2-  S148  1  0.55462078  0.65085969  0.20734801  1
  S2-  S149  1  0.50247770  0.72630292  0.63748240  1
  S2-  S150  1  0.48381874  0.81606256  0.14716344  1
  S2-  S151  1  0.49274154  0.94053876  0.65171310  1
  S2-  S152  1  0.86556871  0.11620773  0.14621759  1
  S2-  S153  1  0.86439833  0.10186953  0.64361211  1
  S2-  S154  1  0.72768025  0.26956121  0.15765400  1
  S2-  S155  1  0.75880927  0.45168242  0.64886904  1
  S2-  S156  1  0.71507160  0.51749839  0.15278319  1
  S2-  S157  1  0.71161900  0.66984722  0.69208132  1
  S2-  S158  1  0.72695325  0.77599419  0.14044606  1
  S2-  S159  1  0.75499110  0.87227826  0.64709176  1
  S2-  S160  1  0.00759487  -0.03611450  0.36238779  1
  S2-  S161  1  0.12542153  -0.00994983  0.76732271  1
  S2-  S162  1  0.03186255  0.23964352  0.36121190  1
  S2-  S163  1  0.10875268  0.16180247  0.84590200  1
  S2-  S164  1  0.00151488  0.48918072  0.36420381  1
  S2-  S165  1  0.12244372  0.54558432  0.84489489  1
  S2-  S166  1  0.11131687  0.72496009  0.35151425  1
  S2-  S167  1  0.12024409  0.80840484  0.85038927  1
  S2-  S168  1  0.37534827  0.10606908  0.36210453  1
  S2-  S169  1  0.29952660  -0.05033857  0.83641715  1
  S2-  S170  1  0.39502925  0.34957005  0.36090209  1
  S2-  S171  1  0.36279730  0.16770838  0.84955348  1
  S2-  S172  1  0.35811481  0.59458639  0.35600645  1
  S2-  S173  1  0.49751665  0.50664394  0.85943489  1
  S2-  S174  1  0.39316382  0.80398917  0.34074861  1
  S2-  S175  1  0.39228268  0.74009974  0.84150207  1
  S2-  S176  1  0.60000701  -0.00792581  0.34208951  1
  S2-  S177  1  0.52881775  0.02007969  0.85923832  1
  S2-  S178  1  0.63508437  0.23839044  0.35203025  1
  S2-  S179  1  0.58590563  0.27027214  0.85334848  1
  S2-  S180  1  0.57368049  0.53389146  0.33877731  1
  S2-  S181  1  0.71292646  0.51086611  0.85915244  1
  S2-  S182  1  0.62560013  0.74973530  0.33687663  1
  S2-  S183  1  0.64399197  0.72367071  0.84424424  1
  S2-  S184  1  0.83936954  0.08944844  0.35416539  1
  S2-  S185  1  0.96071953  -0.01278681  0.85044712  1
  S2-  S186  1  0.84626667  0.29395521  0.30443459  1
  S2-  S187  1  0.88161712  0.33845902  0.85925138  1
  S2-  S188  1  0.77070743  0.48232433  0.35850173  1
  S2-  S189  1  0.90510499  0.53901797  0.81535720  1
  S2-  S190  1  0.86133748  0.71727090  0.34417394  1
  S2-  S191  1  0.87776867  0.75340599  0.83102056  1
  S2-  S192  1  -0.00458004  0.11275335  0.46250144  1
  S2-  S193  1  -0.01509616  0.13796392  0.95988193  1
  S2-  S194  1  -0.00789464  0.35596915  0.45975765  1
  S2-  S195  1  -0.00571815  0.37956463  0.95752266  1
  S2-  S196  1  -0.00250158  0.61222753  0.46135854  1
  S2-  S197  1  -0.00870256  0.63367688  0.94914631  1
  S2-  S198  1  -0.00389426  0.85411762  0.46152306  1
  S2-  S199  1  -0.00632839  0.88014587  0.95269791  1
  S2-  S200  1  0.24146170  0.10742571  0.45904501  1
  S2-  S201  1  0.23843776  0.12563795  0.94694361  1
  S2-  S202  1  0.23993655  0.35983695  0.45527798  1
  S2-  S203  1  0.24115098  0.37996930  0.94647094  1
  S2-  S204  1  0.23778310  0.60453302  0.45173880  1
  S2-  S205  1  0.24142732  0.63427726  0.95217599  1
  S2-  S206  1  0.24600516  0.85978836  0.44650138  1
  S2-  S207  1  0.23704160  0.88883138  0.95238302  1
  S2-  S208  1  0.49864363  0.10555457  0.46365498  1
  S2-  S209  1  0.49562255  0.13538670  0.96335531  1
  S2-  S210  1  0.50482484  0.36153585  0.46240882  1
  S2-  S211  1  0.48972458  0.38024893  0.95925040  1
  S2-  S212  1  0.49886895  0.60526893  0.45556407  1
  S2-  S213  1  0.48886907  0.63765267  0.95264605  1
  S2-  S214  1  0.49668004  0.86136660  0.45404207  1
  S2-  S215  1  0.49376134  0.88593019  0.95262096  1
  S2-  S216  1  0.74748157  0.11112964  0.46260299  1
  S2-  S217  1  0.74230287  0.13267106  0.96217005  1
  S2-  S218  1  0.75469791  0.35306124  0.45634657  1
  S2-  S219  1  0.73948854  0.38433503  0.96320201  1
  S2-  S220  1  0.75142514  0.61267949  0.45133684  1
  S2-  S221  1  0.74248907  0.63331890  0.95782760  1
  S2-  S222  1  0.75032973  0.86000423  0.44487162  1
  S2-  S223  1  0.74049095  0.88594307  0.95109457  1
  S2-  S224  1  0.11384016  0.01082269  0.05731614  1
  S2-  S225  1  0.11930752  -0.02277520  0.54328368  1
  S2-  S226  1  0.12194546  0.25431771  0.03767576  1
  S2-  S227  1  0.12075606  0.23971091  0.54966990  1
  S2-  S228  1  0.11901994  0.50484338  0.05042889  1
  S2-  S229  1  0.11964435  0.48445393  0.54602863  1
  S2-  S230  1  0.11835397  0.75601808  0.04973906  1
  S2-  S231  1  0.11930627  0.73347009  0.55382185  1
  S2-  S232  1  0.36951023  0.00853561  0.03889211  1
  S2-  S233  1  0.36840923  -0.02000364  0.53840719  1
  S2-  S234  1  0.36217961  0.25424384  0.04020746  1
  S2-  S235  1  0.37006364  0.23223548  0.54150518  1
  S2-  S236  1  0.36309853  0.50419511  0.03911216  1
  S2-  S237  1  0.37093576  0.48462968  0.53764606  1
  S2-  S238  1  0.36825978  0.75970651  0.04580011  1
  S2-  S239  1  0.36883468  0.73352722  0.53616189  1
  S2-  S240  1  0.61747331  0.00815781  0.04749331  1
  S2-  S241  1  0.62254138  -0.02185685  0.54538268  1
  S2-  S242  1  0.61747321  0.25755194  0.05321598  1
  S2-  S243  1  0.61878670  0.23847145  0.55316255  1
  S2-  S244  1  0.60885288  0.51335508  0.04701723  1
  S2-  S245  1  0.63102594  0.48961886  0.54108772  1
  S2-  S246  1  0.60949858  0.75669622  0.04478062  1
  S2-  S247  1  0.63309542  0.72704282  0.54501628  1
  S2-  S248  1  0.86097425  0.00343234  0.04364443  1
  S2-  S249  1  0.86989017  -0.02010024  0.54196763  1
  S2-  S250  1  0.86116382  0.25966308  0.04772011  1
  S2-  S251  1  0.86862986  0.23760225  0.55312339  1
  S2-  S252  1  0.86859429  0.50508286  0.03709128  1
  S2-  S253  1  0.87243041  0.48912564  0.54379737  1
  S2-  S254  1  0.86475090  0.76078640  0.03841090  1
  S2-  S255  1  0.86979506  0.73068092  0.54765165  1
