# generated using pymatgen
data_La6Ce7Pr13Nd19Sm19(BiS2)64
_symmetry_space_group_name_H-M   'P 1'
_cell_length_a   16.06571519
_cell_length_b   16.04560764
_cell_length_c   27.43906326
_cell_angle_alpha   89.74094875
_cell_angle_beta   89.75579876
_cell_angle_gamma   89.97781799
_symmetry_Int_Tables_number   1
_chemical_formula_structural   La6Ce7Pr13Nd19Sm19(BiS2)64
_chemical_formula_sum   'La6 Ce7 Pr13 Nd19 Sm19 Bi64 S128'
_cell_volume   7073.21891689
_cell_formula_units_Z   1
loop_
 _symmetry_equiv_pos_site_id
 _symmetry_equiv_pos_as_xyz
  1  'x, y, z'
loop_
 _atom_type_symbol
 _atom_type_oxidation_number
  La3+  3.0
  Ce3+  3.0
  Pr3+  3.0
  Nd3+  3.0
  Sm3+  3.0
  Bi2+  2.0
  S2-  -2.0
loop_
 _atom_site_type_symbol
 _atom_site_label
 _atom_site_symmetry_multiplicity
 _atom_site_fract_x
 _atom_site_fract_y
 _atom_site_fract_z
 _atom_site_occupancy
  La3+  La0  1  0.01154956  0.85586495  0.57064400  1
  La3+  La1  1  0.50877658  0.85058380  0.12014275  1
  La3+  La2  1  0.12938123  0.22685210  0.40337255  1
  La3+  La3  1  0.50866504  0.84923945  0.58516320  1
  La3+  La4  1  0.23673846  0.63813256  0.07815364  1
  La3+  La5  1  0.62086507  0.01948275  0.90800271  1
  Ce3+  Ce6  1  0.86560735  0.01198899  0.93369869  1
  Ce3+  Ce7  1  0.88661096  0.73145162  0.44828378  1
  Ce3+  Ce8  1  0.86886410  0.76382965  0.94417082  1
  Ce3+  Ce9  1  0.36599474  0.76852759  0.94651126  1
  Ce3+  Ce10  1  0.51250090  0.10862896  0.57118075  1
  Ce3+  Ce11  1  0.73497769  0.89168406  0.05181926  1
  Ce3+  Ce12  1  0.49129823  0.38691548  0.06100515  1
  Pr3+  Pr13  1  0.35975163  0.51571526  0.94012908  1
  Pr3+  Pr14  1  0.24479279  0.38584657  0.07011243  1
  Pr3+  Pr15  1  -0.01601315  0.63539294  0.07670060  1
  Pr3+  Pr16  1  0.73971367  0.63964629  0.06297588  1
  Pr3+  Pr17  1  0.61455775  0.51305909  0.93801243  1
  Pr3+  Pr18  1  0.63241108  0.23105364  0.43055083  1
  Pr3+  Pr19  1  0.76164604  0.11023318  0.56947063  1
  Pr3+  Pr20  1  0.63532113  0.73260374  0.43522998  1
  Pr3+  Pr21  1  0.12043296  0.48480088  0.40180523  1
  Pr3+  Pr22  1  0.11484044  0.26566042  0.94462139  1
  Pr3+  Pr23  1  0.36602508  0.26183947  0.94324331  1
  Pr3+  Pr24  1  0.38509838  -0.01820780  0.44279270  1
  Pr3+  Pr25  1  0.24455521  0.88960977  0.07083289  1
  Nd3+  Nd26  1  -0.01452949  0.37635482  0.10295235  1
  Nd3+  Nd27  1  -0.00607195  0.88865641  0.06871599  1
  Nd3+  Nd28  1  0.87907745  0.22940555  0.43374155  1
  Nd3+  Nd29  1  0.13389532  0.73445807  0.43252233  1
  Nd3+  Nd30  1  0.73898913  0.38538174  0.06602885  1
  Nd3+  Nd31  1  0.86631594  0.51417756  0.94507113  1
  Nd3+  Nd32  1  0.26251553  0.85269573  0.55684562  1
  Nd3+  Nd33  1  0.01372472  0.60912326  0.57147765  1
  Nd3+  Nd34  1  0.37960743  0.48046307  0.43813993  1
  Nd3+  Nd35  1  0.37998041  0.23254899  0.43446424  1
  Nd3+  Nd36  1  0.49195900  0.12319677  0.06076707  1
  Nd3+  Nd37  1  0.39079081  0.73071136  0.42936744  1
  Nd3+  Nd38  1  -0.01275632  0.13823739  0.06083435  1
  Nd3+  Nd39  1  0.01338913  0.35688279  0.55392411  1
  Nd3+  Nd40  1  0.88580863  -0.01643205  0.44583054  1
  Nd3+  Nd41  1  0.86808437  0.26850716  0.93864545  1
  Nd3+  Nd42  1  0.50785630  0.35466972  0.55640509  1
  Nd3+  Nd43  1  0.74085338  0.13619098  0.05150732  1
  Nd3+  Nd44  1  0.36639314  0.01106239  0.93527471  1
  Sm3+  Sm45  1  0.11639114  0.76193560  0.94496972  1
  Sm3+  Sm46  1  0.25571157  0.35568477  0.55172845  1
  Sm3+  Sm47  1  0.63371515  0.48213895  0.43982369  1
  Sm3+  Sm48  1  0.63232480  -0.01703504  0.44679774  1
  Sm3+  Sm49  1  0.23930100  0.13646349  0.05418002  1
  Sm3+  Sm50  1  0.61530541  0.26190386  0.94265953  1
  Sm3+  Sm51  1  0.88909432  0.48318434  0.44384518  1
  Sm3+  Sm52  1  0.11569152  0.01154978  0.94490666  1
  Sm3+  Sm53  1  0.51649341  0.60321086  0.56517018  1
  Sm3+  Sm54  1  0.61492668  0.76622896  0.93601525  1
  Sm3+  Sm55  1  0.75729854  0.60400146  0.55791702  1
  Sm3+  Sm56  1  0.75384854  0.85469312  0.56452358  1
  Sm3+  Sm57  1  0.49068262  0.63587232  0.05263968  1
  Sm3+  Sm58  1  0.11430506  0.51355160  0.95600628  1
  Sm3+  Sm59  1  0.76131119  0.35643239  0.55318468  1
  Sm3+  Sm60  1  0.00811656  0.10558585  0.56931252  1
  Sm3+  Sm61  1  0.26024678  0.10583187  0.55654599  1
  Sm3+  Sm62  1  0.13313645  -0.01510088  0.43873596  1
  Sm3+  Sm63  1  0.26093102  0.60708216  0.54795354  1
  Bi2+  Bi64  1  -0.01786251  0.09908373  0.28483997  1
  Bi2+  Bi65  1  -0.03418643  0.11504502  0.73744162  1
  Bi2+  Bi66  1  -0.03951798  0.37589307  0.29106547  1
  Bi2+  Bi67  1  0.02006264  0.37438372  0.79308057  1
  Bi2+  Bi68  1  -0.11753092  0.62640501  0.27799107  1
  Bi2+  Bi69  1  0.01403314  0.58354178  0.79343836  1
  Bi2+  Bi70  1  0.01861420  0.86843805  0.30338937  1
  Bi2+  Bi71  1  -0.02761513  0.83816148  0.79139867  1
  Bi2+  Bi72  1  0.26384440  0.16311470  0.24938537  1
  Bi2+  Bi73  1  0.16791165  0.12748367  0.78307040  1
  Bi2+  Bi74  1  0.29209757  0.38900780  0.30796471  1
  Bi2+  Bi75  1  0.21350576  0.41648174  0.80121521  1
  Bi2+  Bi76  1  0.29233860  0.65649902  0.29988519  1
  Bi2+  Bi77  1  0.31157067  0.58739870  0.77464970  1
  Bi2+  Bi78  1  0.23599825  0.97416459  0.29717118  1
  Bi2+  Bi79  1  0.23274398  0.87534820  0.81428224  1
  Bi2+  Bi80  1  0.55344837  0.10693460  0.30394042  1
  Bi2+  Bi81  1  0.45795499  0.12574429  0.80148364  1
  Bi2+  Bi82  1  0.49908424  0.29584027  0.32366870  1
  Bi2+  Bi83  1  0.52882584  0.42351081  0.79176416  1
  Bi2+  Bi84  1  0.58452846  0.60994795  0.28599388  1
  Bi2+  Bi85  1  0.49379646  0.62755077  0.73399233  1
  Bi2+  Bi86  1  0.48147399  0.88315976  0.31912153  1
  Bi2+  Bi87  1  0.48631879  0.84103050  0.79602428  1
  Bi2+  Bi88  1  0.78123874  0.09675907  0.29058127  1
  Bi2+  Bi89  1  0.77967763  0.13707884  0.77144569  1
  Bi2+  Bi90  1  0.68432037  0.34999875  0.29609014  1
  Bi2+  Bi91  1  0.76553362  0.37380435  0.81535667  1
  Bi2+  Bi92  1  0.73168325  0.73603466  0.30980174  1
  Bi2+  Bi93  1  0.76527466  0.58369875  0.77181407  1
  Bi2+  Bi94  1  0.77177613  0.89700957  0.24037472  1
  Bi2+  Bi95  1  0.77509920  0.86746249  0.78741368  1
  Bi2+  Bi96  1  0.10704586  0.01625917  0.20881255  1
  Bi2+  Bi97  1  0.08751518  -0.04002718  0.72907255  1
  Bi2+  Bi98  1  0.08964524  0.29056908  0.22565436  1
  Bi2+  Bi99  1  0.15695651  0.24984460  0.69700944  1
  Bi2+  Bi100  1  0.17900182  0.51814867  0.20437465  1
  Bi2+  Bi101  1  0.08838300  0.48887487  0.69970241  1
  Bi2+  Bi102  1  0.12541710  0.76832033  0.22522903  1
  Bi2+  Bi103  1  0.13620852  0.67902516  0.72049684  1
  Bi2+  Bi104  1  0.36116881  0.00405352  0.20978613  1
  Bi2+  Bi105  1  0.32842651  0.01129595  0.70324762  1
  Bi2+  Bi106  1  0.44688360  0.21195940  0.22047480  1
  Bi2+  Bi107  1  0.33385315  0.29528796  0.74516103  1
  Bi2+  Bi108  1  0.44650961  0.46131161  0.24893880  1
  Bi2+  Bi109  1  0.39672878  0.46990574  0.69463438  1
  Bi2+  Bi110  1  0.39178513  0.72800590  0.21657261  1
  Bi2+  Bi111  1  0.33193508  0.75810833  0.69653725  1
  Bi2+  Bi112  1  0.63059711  0.02042003  0.20881281  1
  Bi2+  Bi113  1  0.58367112  0.00818328  0.70211501  1
  Bi2+  Bi114  1  0.63573459  0.24792759  0.19763591  1
  Bi2+  Bi115  1  0.62356605  0.26109281  0.76391244  1
  Bi2+  Bi116  1  0.59713078  0.43744316  0.17571055  1
  Bi2+  Bi117  1  0.65009979  0.45654179  0.69421710  1
  Bi2+  Bi118  1  0.68776653  0.65678778  0.19267336  1
  Bi2+  Bi119  1  0.69016162  0.73782300  0.71606107  1
  Bi2+  Bi120  1  0.92044719  -0.01637829  0.17966718  1
  Bi2+  Bi121  1  0.82606771  -0.00673927  0.69625863  1
  Bi2+  Bi122  1  0.84339381  0.22842054  0.20954890  1
  Bi2+  Bi123  1  0.87532435  0.37695314  0.71459802  1
  Bi2+  Bi124  1  0.77338711  0.49018633  0.22311863  1
  Bi2+  Bi125  1  0.89921959  0.57232195  0.68894103  1
  Bi2+  Bi126  1  0.93153511  0.78776611  0.20874809  1
  Bi2+  Bi127  1  0.87889195  0.79533465  0.68937570  1
  S2-  S128  1  -0.01090947  0.21783634  0.14928261  1
  S2-  S129  1  -0.11340373  0.13397961  0.64232253  1
  S2-  S130  1  0.01618245  0.44243874  0.19545690  1
  S2-  S131  1  0.02017180  0.34160859  0.65330648  1
  S2-  S132  1  0.10537110  0.64591289  0.15107350  1
  S2-  S133  1  0.03138731  0.73219835  0.64418301  1
  S2-  S134  1  0.11778378  0.88098975  0.14433159  1
  S2-  S135  1  0.03291873  0.98055968  0.64004113  1
  S2-  S136  1  0.24352785  0.09932234  0.14931728  1
  S2-  S137  1  0.22415267  0.11049855  0.65277775  1
  S2-  S138  1  0.20364969  0.35591826  0.16618524  1
  S2-  S139  1  0.27690983  0.35610927  0.64892456  1
  S2-  S140  1  0.31015109  0.58921578  0.16680887  1
  S2-  S141  1  0.24903627  0.63191242  0.64465145  1
  S2-  S142  1  0.33781341  0.85920964  0.15678625  1
  S2-  S143  1  0.24137677  0.87801922  0.65454853  1
  S2-  S144  1  0.49709640  0.02539440  0.14339188  1
  S2-  S145  1  0.44618841  0.10647937  0.66850722  1
  S2-  S146  1  0.42858728  0.39544193  0.15054035  1
  S2-  S147  1  0.51839907  0.36506936  0.65452166  1
  S2-  S148  1  0.52306988  0.67500784  0.14559912  1
  S2-  S149  1  0.47233757  0.69976290  0.64166052  1
  S2-  S150  1  0.51301097  0.84133596  0.22838596  1
  S2-  S151  1  0.45520714  0.89602310  0.68417193  1
  S2-  S152  1  0.74064206  0.12574522  0.15051099  1
  S2-  S153  1  0.63987950  0.11860505  0.64217458  1
  S2-  S154  1  0.82793829  0.37536961  0.15074505  1
  S2-  S155  1  0.75153182  0.33820075  0.65017418  1
  S2-  S156  1  0.84611918  0.63531453  0.14355858  1
  S2-  S157  1  0.65491326  0.59378047  0.63612226  1
  S2-  S158  1  0.68201108  0.88263826  0.14463656  1
  S2-  S159  1  0.65535395  0.85888677  0.64725898  1
  S2-  S160  1  0.12621301  0.06871659  0.35277505  1
  S2-  S161  1  0.11846546  0.00502476  0.84790985  1
  S2-  S162  1  0.12551809  0.35661939  0.33214223  1
  S2-  S163  1  0.11299884  0.25906953  0.84467996  1
  S2-  S164  1  0.17867840  0.54170003  0.30912512  1
  S2-  S165  1  0.14766597  0.53781533  0.86084135  1
  S2-  S166  1  0.11987567  0.74411692  0.33256381  1
  S2-  S167  1  0.11559504  0.77635608  0.84674548  1
  S2-  S168  1  0.38860372  0.02551657  0.34503868  1
  S2-  S169  1  0.35123831  0.00847813  0.83487211  1
  S2-  S170  1  0.29050127  0.23541990  0.34849109  1
  S2-  S171  1  0.36927569  0.24361392  0.84344766  1
  S2-  S172  1  0.39580374  0.53281550  0.34382728  1
  S2-  S173  1  0.41300002  0.50603730  0.84573774  1
  S2-  S174  1  0.33220255  0.80623546  0.34408056  1
  S2-  S175  1  0.34603052  0.76758297  0.84879606  1
  S2-  S176  1  0.62772655  -0.03202730  0.34861762  1
  S2-  S177  1  0.56744076  -0.02030712  0.80830395  1
  S2-  S178  1  0.75586771  0.21850468  0.35837762  1
  S2-  S179  1  0.59998143  0.18183022  0.85662815  1
  S2-  S180  1  0.67269061  0.50180337  0.34509939  1
  S2-  S181  1  0.65919825  0.51909379  0.84141895  1
  S2-  S182  1  0.52338873  0.72650098  0.35893758  1
  S2-  S183  1  0.60378452  0.75949408  0.83800995  1
  S2-  S184  1  0.89085703  -0.01438302  0.34646748  1
  S2-  S185  1  0.77796318  0.01231214  0.84953795  1
  S2-  S186  1  0.97198914  0.23256586  0.35012327  1
  S2-  S187  1  0.86107316  0.23970984  0.84125882  1
  S2-  S188  1  0.95596112  0.50524357  0.35332148  1
  S2-  S189  1  0.89647390  0.48635512  0.84830782  1
  S2-  S190  1  0.89758065  0.74822916  0.35183949  1
  S2-  S191  1  0.85958493  0.74524410  0.84775944  1
  S2-  S192  1  0.00958628  0.10725936  0.46116003  1
  S2-  S193  1  -0.00924440  0.13722051  0.95225588  1
  S2-  S194  1  0.01243144  0.35926224  0.45025589  1
  S2-  S195  1  -0.00755342  0.39134034  0.95190686  1
  S2-  S196  1  0.01391894  0.60655147  0.45917920  1
  S2-  S197  1  -0.00773473  0.63739332  0.96183726  1
  S2-  S198  1  0.01186986  0.85921569  0.45787785  1
  S2-  S199  1  -0.00671815  0.88830449  0.95645484  1
  S2-  S200  1  0.25735270  0.10817379  0.45326404  1
  S2-  S201  1  0.23890446  0.13629318  0.94938366  1
  S2-  S202  1  0.25015996  0.36010102  0.44854015  1
  S2-  S203  1  0.24074347  0.38867759  0.96108956  1
  S2-  S204  1  0.25383958  0.60515096  0.44353298  1
  S2-  S205  1  0.23861498  0.64038411  0.96517175  1
  S2-  S206  1  0.25606564  0.85901268  0.45197777  1
  S2-  S207  1  0.23738184  0.88864378  0.95906450  1
  S2-  S208  1  0.50854713  0.10964144  0.45741942  1
  S2-  S209  1  0.48996259  0.13549344  0.95503337  1
  S2-  S210  1  0.50793442  0.35912745  0.45085151  1
  S2-  S211  1  0.49124111  0.38656633  0.95329664  1
  S2-  S212  1  0.51063100  0.60082521  0.45888936  1
  S2-  S213  1  0.49064999  0.64015312  0.94839820  1
  S2-  S214  1  0.51083509  0.85863431  0.45870274  1
  S2-  S215  1  0.49472494  0.89123581  0.93749161  1
  S2-  S216  1  0.75680109  0.10291927  0.46089354  1
  S2-  S217  1  0.74441296  0.14225693  0.94829330  1
  S2-  S218  1  0.76130656  0.36321251  0.44955264  1
  S2-  S219  1  0.73862396  0.38674439  0.95774933  1
  S2-  S220  1  0.76070573  0.60421060  0.45344330  1
  S2-  S221  1  0.73952491  0.63993728  0.95466801  1
  S2-  S222  1  0.75850810  0.85843293  0.45756333  1
  S2-  S223  1  0.73988013  0.88647132  0.94695230  1
  S2-  S224  1  0.11342178  0.01627022  0.04745495  1
  S2-  S225  1  0.13982692  -0.01742602  0.54105822  1
  S2-  S226  1  0.11449384  0.26349016  0.05031179  1
  S2-  S227  1  0.13469167  0.22871568  0.55024913  1
  S2-  S228  1  0.10751369  0.50139707  0.05902023  1
  S2-  S229  1  0.13679303  0.48450185  0.55170114  1
  S2-  S230  1  0.11282763  0.76231891  0.04721511  1
  S2-  S231  1  0.13785732  0.73004329  0.53897908  1
  S2-  S232  1  0.35912271  0.01447354  0.04064203  1
  S2-  S233  1  0.38593094  -0.01977234  0.55055617  1
  S2-  S234  1  0.36737456  0.25570772  0.05027613  1
  S2-  S235  1  0.38145640  0.23209015  0.54326669  1
  S2-  S236  1  0.36647977  0.51366999  0.04623437  1
  S2-  S237  1  0.38339559  0.48177822  0.54470226  1
  S2-  S238  1  0.37093068  0.76086369  0.05154658  1
  S2-  S239  1  0.38507149  0.72867357  0.53602377  1
  S2-  S240  1  0.62051754  0.01535813  0.03258011  1
  S2-  S241  1  0.63180390  -0.02104730  0.54823131  1
  S2-  S242  1  0.61310758  0.25875050  0.04721943  1
  S2-  S243  1  0.63570531  0.23720168  0.53795721  1
  S2-  S244  1  0.61629976  0.51287463  0.04499790  1
  S2-  S245  1  0.63538371  0.47567977  0.54136970  1
  S2-  S246  1  0.61193430  0.76414825  0.04096775  1
  S2-  S247  1  0.63497140  0.72985676  0.54126456  1
  S2-  S248  1  0.86701322  0.01165619  0.04102729  1
  S2-  S249  1  0.87924211  -0.02381557  0.54972350  1
  S2-  S250  1  0.86618111  0.26477820  0.04404596  1
  S2-  S251  1  0.88669852  0.23697536  0.53951416  1
  S2-  S252  1  0.86684297  0.50525489  0.04919259  1
  S2-  S253  1  0.88602233  0.48351728  0.54868164  1
  S2-  S254  1  0.86638432  0.76948333  0.04904084  1
  S2-  S255  1  0.87898397  0.72862658  0.55146485  1
