# generated using pymatgen
data_La6Ce7Pr13Nd19Sm19(BiS2)64
_symmetry_space_group_name_H-M   'P 1'
_cell_length_a   16.04263972
_cell_length_b   16.06872161
_cell_length_c   27.57746462
_cell_angle_alpha   89.97068038
_cell_angle_beta   89.83811547
_cell_angle_gamma   90.06006466
_symmetry_Int_Tables_number   1
_chemical_formula_structural   La6Ce7Pr13Nd19Sm19(BiS2)64
_chemical_formula_sum   'La6 Ce7 Pr13 Nd19 Sm19 Bi64 S128'
_cell_volume   7109.01553687
_cell_formula_units_Z   1
loop_
 _symmetry_equiv_pos_site_id
 _symmetry_equiv_pos_as_xyz
  1  'x, y, z'
loop_
 _atom_type_symbol
 _atom_type_oxidation_number
  La3+  3.0
  Ce3+  3.0
  Pr3+  3.0
  Nd3+  3.0
  Sm3+  3.0
  Bi2+  2.0
  S2-  -2.0
loop_
 _atom_site_type_symbol
 _atom_site_label
 _atom_site_symmetry_multiplicity
 _atom_site_fract_x
 _atom_site_fract_y
 _atom_site_fract_z
 _atom_site_occupancy
  La3+  La0  1  0.85151714  0.01772666  0.88361613  1
  La3+  La1  1  0.52533597  0.15163490  0.10971596  1
  La3+  La2  1  0.24822126  0.13472265  0.09726804  1
  La3+  La3  1  0.37376144  0.01730009  0.94744625  1
  La3+  La4  1  0.38715464  0.25080825  0.40352216  1
  La3+  La5  1  0.01518480  0.86695607  0.59474105  1
  Ce3+  Ce6  1  0.74955887  0.63949756  0.05431655  1
  Ce3+  Ce7  1  0.37436048  0.49186278  0.43871308  1
  Ce3+  Ce8  1  -0.00247442  0.63937573  0.06160329  1
  Ce3+  Ce9  1  0.25273466  0.38268784  0.05895529  1
  Ce3+  Ce10  1  0.75129608  0.11915876  0.55489116  1
  Ce3+  Ce11  1  0.87839317  0.51179973  0.93783694  1
  Ce3+  Ce12  1  0.75126503  0.62443087  0.56464591  1
  Pr3+  Pr13  1  0.48394536  0.11899131  0.56263143  1
  Pr3+  Pr14  1  0.62839529  0.76939530  0.93978812  1
  Pr3+  Pr15  1  0.50150393  0.89430014  0.06778303  1
  Pr3+  Pr16  1  0.37404597  0.26178582  0.94352403  1
  Pr3+  Pr17  1  0.88034693  0.26633215  0.93031451  1
  Pr3+  Pr18  1  0.37741366  0.76608991  0.94545045  1
  Pr3+  Pr19  1  0.11729989  0.25923766  0.40123518  1
  Pr3+  Pr20  1  0.75259473  0.87413946  0.56319508  1
  Pr3+  Pr21  1  0.12522266  -0.00427836  0.42864931  1
  Pr3+  Pr22  1  0.12129768  0.26203995  0.93849381  1
  Pr3+  Pr23  1  0.00424910  0.36717597  0.56438607  1
  Pr3+  Pr24  1  0.25004398  0.88597679  0.07059474  1
  Pr3+  Pr25  1  0.38130697  -0.01547872  0.40035935  1
  Nd3+  Nd26  1  0.12352735  0.74614923  0.44203047  1
  Nd3+  Nd27  1  0.24962203  0.63869449  0.06842825  1
  Nd3+  Nd28  1  0.87649687  0.76538972  0.93630165  1
  Nd3+  Nd29  1  0.00201896  0.39488370  0.06984458  1
  Nd3+  Nd30  1  0.25223750  0.62092871  0.55765278  1
  Nd3+  Nd31  1  0.62456696  0.26921886  0.93045351  1
  Nd3+  Nd32  1  0.25256407  0.36789919  0.55421925  1
  Nd3+  Nd33  1  0.00543942  0.11981666  0.56072341  1
  Nd3+  Nd34  1  0.37384484  0.51521571  0.94477880  1
  Nd3+  Nd35  1  0.49833396  0.36742821  0.56041467  1
  Nd3+  Nd36  1  0.74754435  0.36592656  0.56966113  1
  Nd3+  Nd37  1  0.49975089  0.62256078  0.55923656  1
  Nd3+  Nd38  1  0.00383682  0.14004214  0.05784698  1
  Nd3+  Nd39  1  0.87624462  0.24756900  0.44173405  1
  Nd3+  Nd40  1  0.62527866  0.24573178  0.43974040  1
  Nd3+  Nd41  1  0.62816096  0.74586655  0.44539509  1
  Nd3+  Nd42  1  0.00217105  0.89181662  0.05649985  1
  Nd3+  Nd43  1  0.88275739  -0.00473475  0.43764154  1
  Nd3+  Nd44  1  0.75533425  0.14275919  0.05469456  1
  Sm3+  Sm45  1  0.25242914  0.87617817  0.55386771  1
  Sm3+  Sm46  1  0.49664598  0.87392083  0.55423658  1
  Sm3+  Sm47  1  0.62592497  0.01974868  0.94764246  1
  Sm3+  Sm48  1  0.12710288  0.76572824  0.93804470  1
  Sm3+  Sm49  1  0.87545916  0.49279831  0.45627941  1
  Sm3+  Sm50  1  0.11549584  0.00807814  0.93091685  1
  Sm3+  Sm51  1  0.75012362  0.38526720  0.05947622  1
  Sm3+  Sm52  1  0.00202189  0.62181029  0.56153314  1
  Sm3+  Sm53  1  0.49947099  0.38595443  0.06331883  1
  Sm3+  Sm54  1  0.62168283  -0.00324320  0.44484583  1
  Sm3+  Sm55  1  0.37570046  0.74368016  0.43994835  1
  Sm3+  Sm56  1  0.75176643  0.89265883  0.05622276  1
  Sm3+  Sm57  1  0.87728741  0.74813705  0.44945641  1
  Sm3+  Sm58  1  0.62645845  0.51006070  0.94244461  1
  Sm3+  Sm59  1  0.12369908  0.49308539  0.44371703  1
  Sm3+  Sm60  1  0.50310830  0.63743920  0.05630861  1
  Sm3+  Sm61  1  0.62776265  0.49609712  0.44846026  1
  Sm3+  Sm62  1  0.12649611  0.51545832  0.94530295  1
  Sm3+  Sm63  1  0.25349586  0.12279153  0.52969687  1
  Bi2+  Bi64  1  -0.02958441  0.10992301  0.28298399  1
  Bi2+  Bi65  1  -0.00746734  0.15275325  0.78025947  1
  Bi2+  Bi66  1  -0.03141854  0.38020504  0.29383013  1
  Bi2+  Bi67  1  0.00034394  0.39296143  0.79068684  1
  Bi2+  Bi68  1  -0.04952921  0.65790863  0.26581759  1
  Bi2+  Bi69  1  -0.04454811  0.67152741  0.80361855  1
  Bi2+  Bi70  1  0.00369748  0.84453644  0.29876109  1
  Bi2+  Bi71  1  0.02713371  0.87092446  0.80011612  1
  Bi2+  Bi72  1  0.24367817  0.09357879  0.27259451  1
  Bi2+  Bi73  1  0.27116776  0.13654342  0.75582028  1
  Bi2+  Bi74  1  0.23724412  0.44754917  0.28299393  1
  Bi2+  Bi75  1  0.22295929  0.41246824  0.78725645  1
  Bi2+  Bi76  1  0.26703570  0.63622061  0.30429855  1
  Bi2+  Bi77  1  0.21427044  0.62261359  0.81709525  1
  Bi2+  Bi78  1  0.22914277  0.83368711  0.28347707  1
  Bi2+  Bi79  1  0.23756892  0.80903450  0.77429150  1
  Bi2+  Bi80  1  0.51580671  0.12043939  0.28836272  1
  Bi2+  Bi81  1  0.46631254  0.10681146  0.80090801  1
  Bi2+  Bi82  1  0.50334309  0.45289745  0.28594403  1
  Bi2+  Bi83  1  0.48158905  0.34618522  0.80348964  1
  Bi2+  Bi84  1  0.47097395  0.64416066  0.30385072  1
  Bi2+  Bi85  1  0.41543893  0.60107715  0.78844430  1
  Bi2+  Bi86  1  0.52218551  0.84100611  0.29797529  1
  Bi2+  Bi87  1  0.46788489  0.86493130  0.79399849  1
  Bi2+  Bi88  1  0.76459076  0.09814835  0.29971829  1
  Bi2+  Bi89  1  0.72015180  0.14214864  0.78176226  1
  Bi2+  Bi90  1  0.78014396  0.34663717  0.32683700  1
  Bi2+  Bi91  1  0.75511096  0.41018481  0.78650086  1
  Bi2+  Bi92  1  0.67243098  0.61052736  0.30657658  1
  Bi2+  Bi93  1  0.76190225  0.61414866  0.80534678  1
  Bi2+  Bi94  1  0.81351771  0.90417947  0.30963994  1
  Bi2+  Bi95  1  0.71592388  0.87424930  0.79340670  1
  Bi2+  Bi96  1  0.06134857  -0.02732990  0.20221972  1
  Bi2+  Bi97  1  0.17319511  -0.02506633  0.72456811  1
  Bi2+  Bi98  1  0.11698242  0.26210114  0.20618525  1
  Bi2+  Bi99  1  0.17066755  0.28207545  0.70901917  1
  Bi2+  Bi100  1  0.17474189  0.51639575  0.18258903  1
  Bi2+  Bi101  1  0.10407270  0.48119427  0.69872992  1
  Bi2+  Bi102  1  0.08581243  0.68876789  0.18551021  1
  Bi2+  Bi103  1  0.11081191  0.67862644  0.72625117  1
  Bi2+  Bi104  1  0.39143893  -0.03222723  0.19551075  1
  Bi2+  Bi105  1  0.36172364  -0.00120058  0.68661031  1
  Bi2+  Bi106  1  0.38327775  0.29098745  0.21239975  1
  Bi2+  Bi107  1  0.42190593  0.26535811  0.70372174  1
  Bi2+  Bi108  1  0.36818656  0.51689019  0.20231527  1
  Bi2+  Bi109  1  0.30550215  0.51601729  0.70349562  1
  Bi2+  Bi110  1  0.35215818  0.72720244  0.21454438  1
  Bi2+  Bi111  1  0.39752833  0.74586524  0.70385748  1
  Bi2+  Bi112  1  0.65631640  -0.06240322  0.23899682  1
  Bi2+  Bi113  1  0.55429570  -0.00474414  0.72129588  1
  Bi2+  Bi114  1  0.70153445  0.25660174  0.23516785  1
  Bi2+  Bi115  1  0.63465302  0.26724440  0.69783606  1
  Bi2+  Bi116  1  0.64368645  0.47239193  0.20442306  1
  Bi2+  Bi117  1  0.59502394  0.51717661  0.76492106  1
  Bi2+  Bi118  1  0.63123677  0.67183184  0.20033412  1
  Bi2+  Bi119  1  0.64125497  0.68809060  0.71741117  1
  Bi2+  Bi120  1  0.86090263  0.00930861  0.20725268  1
  Bi2+  Bi121  1  0.84837605  0.00720778  0.68008192  1
  Bi2+  Bi122  1  0.87346242  0.20893061  0.19728478  1
  Bi2+  Bi123  1  0.88453951  0.24802097  0.69727183  1
  Bi2+  Bi124  1  0.82883610  0.49833938  0.25474744  1
  Bi2+  Bi125  1  0.88985164  0.52715315  0.73061454  1
  Bi2+  Bi126  1  0.81828734  0.76794373  0.20990937  1
  Bi2+  Bi127  1  0.86511551  0.75926271  0.70169878  1
  S2-  S128  1  0.08717248  0.13043721  0.14702107  1
  S2-  S129  1  -0.01578829  0.11046533  0.65978569  1
  S2-  S130  1  -0.01055946  0.32721256  0.16243328  1
  S2-  S131  1  0.01380420  0.33023476  0.66126952  1
  S2-  S132  1  0.00881026  0.53871561  0.13989354  1
  S2-  S133  1  0.00474551  0.70775660  0.64528653  1
  S2-  S134  1  0.00476563  0.83890672  0.15172783  1
  S2-  S135  1  -0.03331974  0.89085167  0.69417449  1
  S2-  S136  1  0.37610600  0.13953919  0.16787719  1
  S2-  S137  1  0.32500721  0.10889112  0.61884480  1
  S2-  S138  1  0.24766273  0.30198017  0.14608045  1
  S2-  S139  1  0.30246345  0.34918783  0.64843172  1
  S2-  S140  1  0.23381122  0.75382239  0.14143169  1
  S2-  S141  1  0.26673708  0.66065292  0.65253530  1
  S2-  S142  1  0.22792830  0.97718156  0.15677440  1
  S2-  S143  1  0.17458805  0.88792528  0.64021189  1
  S2-  S144  1  0.54881402  0.03163354  0.18502730  1
  S2-  S145  1  0.53515451  0.13952952  0.65937096  1
  S2-  S146  1  0.51330288  0.31378606  0.15197470  1
  S2-  S147  1  0.53322506  0.37918054  0.65710826  1
  S2-  S148  1  0.51162632  0.58151765  0.14805456  1
  S2-  S149  1  0.51211166  0.63756041  0.65686959  1
  S2-  S150  1  0.46233557  0.83272282  0.15855798  1
  S2-  S151  1  0.48455703  0.87650820  0.65133214  1
  S2-  S152  1  0.70141939  0.16766800  0.14694677  1
  S2-  S153  1  0.75339621  0.14832710  0.65050715  1
  S2-  S154  1  0.76263984  0.39092313  0.15645008  1
  S2-  S155  1  0.76982010  0.37075701  0.66648575  1
  S2-  S156  1  0.78635980  0.63911908  0.14780212  1
  S2-  S157  1  0.77009551  0.61822917  0.66043866  1
  S2-  S158  1  0.72597077  0.87793535  0.15225430  1
  S2-  S159  1  0.74209375  0.86648852  0.66248163  1
  S2-  S160  1  0.20895111  -0.03141423  0.34062607  1
  S2-  S161  1  0.02043739  0.03011550  0.84500142  1
  S2-  S162  1  0.15945167  0.21793024  0.30532244  1
  S2-  S163  1  0.06641279  0.25346653  0.84178931  1
  S2-  S164  1  0.10902601  0.42206974  0.35516655  1
  S2-  S165  1  0.10141194  0.49942964  0.84987621  1
  S2-  S166  1  0.12849899  0.73082563  0.34385151  1
  S2-  S167  1  0.15227908  0.87612287  0.86243910  1
  S2-  S168  1  0.38782207  0.01148431  0.29718511  1
  S2-  S169  1  0.38353714  -0.01580404  0.84754502  1
  S2-  S170  1  0.36464114  0.20871591  0.30214024  1
  S2-  S171  1  0.37076872  0.23916656  0.84372644  1
  S2-  S172  1  0.37291066  0.41069123  0.35310815  1
  S2-  S173  1  0.38147736  0.46445630  0.85108104  1
  S2-  S174  1  0.37973247  0.82484698  0.35483103  1
  S2-  S175  1  0.37711868  0.74891001  0.84732137  1
  S2-  S176  1  0.55807811  -0.00736393  0.35501053  1
  S2-  S177  1  0.67396165  0.00118836  0.85476128  1
  S2-  S178  1  0.54566969  0.23286258  0.35324077  1
  S2-  S179  1  0.60378722  0.21174582  0.83413437  1
  S2-  S180  1  0.63868535  0.44837933  0.35528300  1
  S2-  S181  1  0.62085142  0.41348138  0.86242282  1
  S2-  S182  1  0.65115118  0.76821082  0.34905984  1
  S2-  S183  1  0.60812676  0.78000989  0.84084023  1
  S2-  S184  1  0.99206074  -0.00843382  0.35923612  1
  S2-  S185  1  0.82970054  0.00794826  0.77471520  1
  S2-  S186  1  0.96012300  0.24191935  0.35530373  1
  S2-  S187  1  0.85054110  0.18208612  0.84172438  1
  S2-  S188  1  0.88124461  0.48988689  0.36014233  1
  S2-  S189  1  0.87518265  0.40309421  0.86150631  1
  S2-  S190  1  0.88736441  0.74490850  0.35278586  1
  S2-  S191  1  0.86358162  0.84621832  0.84852871  1
  S2-  S192  1  0.00631770  0.12800439  0.45568267  1
  S2-  S193  1  -0.00367092  0.13522024  0.95390960  1
  S2-  S194  1  0.00076065  0.37092343  0.46046156  1
  S2-  S195  1  0.00411183  0.39227471  0.96132645  1
  S2-  S196  1  -0.00108075  0.61797907  0.45762470  1
  S2-  S197  1  0.00264164  0.64098345  0.95290875  1
  S2-  S198  1  0.00111340  0.86766958  0.45913421  1
  S2-  S199  1  -0.00052541  0.88474084  0.95334106  1
  S2-  S200  1  0.25240499  0.12862348  0.42849597  1
  S2-  S201  1  0.24249053  0.13432676  0.93947112  1
  S2-  S202  1  0.24395046  0.36728940  0.44986989  1
  S2-  S203  1  0.24786189  0.38916943  0.95271088  1
  S2-  S204  1  0.24942715  0.61846791  0.45152012  1
  S2-  S205  1  0.24972278  0.64043200  0.95892520  1
  S2-  S206  1  0.25062606  0.86692501  0.45080235  1
  S2-  S207  1  0.25186056  0.88705484  0.96358192  1
  S2-  S208  1  0.49811511  0.11843390  0.45310377  1
  S2-  S209  1  0.50419467  0.14041976  0.94831528  1
  S2-  S210  1  0.50499495  0.37352065  0.45506137  1
  S2-  S211  1  0.49753185  0.39040323  0.96034006  1
  S2-  S212  1  0.50182269  0.62007147  0.45286190  1
  S2-  S213  1  0.50405888  0.63665443  0.95122247  1
  S2-  S214  1  0.50222457  0.86668523  0.45268058  1
  S2-  S215  1  0.50403388  0.89191615  0.95908045  1
  S2-  S216  1  0.75146090  0.11814926  0.44880991  1
  S2-  S217  1  0.74973849  0.14184830  0.95002787  1
  S2-  S218  1  0.75000816  0.37049011  0.46413547  1
  S2-  S219  1  0.75146323  0.38908384  0.95751144  1
  S2-  S220  1  0.75420408  0.62003677  0.45843139  1
  S2-  S221  1  0.74934725  0.63709213  0.94839512  1
  S2-  S222  1  0.75210841  0.87459623  0.45646995  1
  S2-  S223  1  0.75441613  0.89608792  0.95470740  1
  S2-  S224  1  0.12694389  0.01407185  0.03912751  1
  S2-  S225  1  0.12980963  -0.00048202  0.53780695  1
  S2-  S226  1  0.12607158  0.26396536  0.04378995  1
  S2-  S227  1  0.13218182  0.24177040  0.55236342  1
  S2-  S228  1  0.13114072  0.51425544  0.04546460  1
  S2-  S229  1  0.12637044  0.49693093  0.54834284  1
  S2-  S230  1  0.12300139  0.76185229  0.04032238  1
  S2-  S231  1  0.12810159  0.74492862  0.54543614  1
  S2-  S232  1  0.37639555  0.01783434  0.05437862  1
  S2-  S233  1  0.37360239  -0.01073351  0.52644558  1
  S2-  S234  1  0.37881446  0.25861464  0.04808282  1
  S2-  S235  1  0.37589701  0.25046967  0.52981665  1
  S2-  S236  1  0.37608318  0.51427520  0.05005250  1
  S2-  S237  1  0.37680440  0.49599685  0.54550839  1
  S2-  S238  1  0.38117569  0.75918091  0.04890079  1
  S2-  S239  1  0.37525987  0.74775268  0.54348649  1
  S2-  S240  1  0.62656553  0.01939422  0.05138667  1
  S2-  S241  1  0.62044383  -0.00322133  0.54926799  1
  S2-  S242  1  0.62531108  0.26610427  0.04071438  1
  S2-  S243  1  0.62284302  0.24278616  0.54548682  1
  S2-  S244  1  0.62587966  0.50965253  0.04580122  1
  S2-  S245  1  0.62616157  0.49642936  0.55277625  1
  S2-  S246  1  0.62507572  0.76492213  0.04671068  1
  S2-  S247  1  0.62342720  0.74951534  0.55086046  1
  S2-  S248  1  0.87564438  0.01495288  0.06012255  1
  S2-  S249  1  0.88298023  -0.00668021  0.54656823  1
  S2-  S250  1  0.87857149  0.26773529  0.04413652  1
  S2-  S251  1  0.87657707  0.24514543  0.54727211  1
  S2-  S252  1  0.87210842  0.51215586  0.04284242  1
  S2-  S253  1  0.87739220  0.49519185  0.55998597  1
  S2-  S254  1  0.87335968  0.76707598  0.04259224  1
  S2-  S255  1  0.87925832  0.74911754  0.55194871  1
