# generated using pymatgen
data_La6Ce7Pr13Nd19Sm19(BiS2)64
_symmetry_space_group_name_H-M   'P 1'
_cell_length_a   16.08418349
_cell_length_b   16.09667306
_cell_length_c   27.34571557
_cell_angle_alpha   90.09990637
_cell_angle_beta   90.01796514
_cell_angle_gamma   89.95464332
_symmetry_Int_Tables_number   1
_chemical_formula_structural   La6Ce7Pr13Nd19Sm19(BiS2)64
_chemical_formula_sum   'La6 Ce7 Pr13 Nd19 Sm19 Bi64 S128'
_cell_volume   7079.84283735
_cell_formula_units_Z   1
loop_
 _symmetry_equiv_pos_site_id
 _symmetry_equiv_pos_as_xyz
  1  'x, y, z'
loop_
 _atom_type_symbol
 _atom_type_oxidation_number
  La3+  3.0
  Ce3+  3.0
  Pr3+  3.0
  Nd3+  3.0
  Sm3+  3.0
  Bi2+  2.0
  S2-  -2.0
loop_
 _atom_site_type_symbol
 _atom_site_label
 _atom_site_symmetry_multiplicity
 _atom_site_fract_x
 _atom_site_fract_y
 _atom_site_fract_z
 _atom_site_occupancy
  La3+  La0  1  0.61838642  -0.01170452  0.39281499  1
  La3+  La1  1  0.13243796  0.01316385  0.42763158  1
  La3+  La2  1  0.77249011  0.14766689  0.10382412  1
  La3+  La3  1  0.25758778  0.61952919  0.07100204  1
  La3+  La4  1  0.39109647  0.73911758  0.91990206  1
  La3+  La5  1  -0.00776470  0.59671469  0.10592831  1
  Ce3+  Ce6  1  0.25519296  0.63615122  0.55963922  1
  Ce3+  Ce7  1  0.63254731  0.75297944  0.44266512  1
  Ce3+  Ce8  1  0.88660802  0.74222198  0.94703301  1
  Ce3+  Ce9  1  0.75954361  0.61625097  0.05457589  1
  Ce3+  Ce10  1  0.88003206  0.00876888  0.44049343  1
  Ce3+  Ce11  1  0.51141496  0.36720530  0.05308635  1
  Ce3+  Ce12  1  0.63244789  0.49290033  0.93962493  1
  Pr3+  Pr13  1  0.01729570  0.12332761  0.57618079  1
  Pr3+  Pr14  1  0.63056790  0.50100383  0.43536964  1
  Pr3+  Pr15  1  0.00959084  0.37525310  0.59914615  1
  Pr3+  Pr16  1  0.13923137  0.24180994  0.93272052  1
  Pr3+  Pr17  1  0.88288822  0.25417159  0.44502129  1
  Pr3+  Pr18  1  0.75706634  0.13628873  0.56328161  1
  Pr3+  Pr19  1  0.76153598  0.86865757  0.06378831  1
  Pr3+  Pr20  1  0.25809883  0.38285251  0.57082562  1
  Pr3+  Pr21  1  0.50672870  0.13016513  0.57034383  1
  Pr3+  Pr22  1  0.51247784  0.12086813  0.06936995  1
  Pr3+  Pr23  1  0.62599415  0.25248963  0.43048484  1
  Pr3+  Pr24  1  0.88351662  0.75666493  0.43317943  1
  Pr3+  Pr25  1  0.88830475  0.49427283  0.92994748  1
  Nd3+  Nd26  1  0.13367545  0.25675640  0.44123562  1
  Nd3+  Nd27  1  0.89013710  0.23648407  0.91800917  1
  Nd3+  Nd28  1  0.50902246  0.63174659  0.55583366  1
  Nd3+  Nd29  1  0.01175729  0.86771959  0.06424613  1
  Nd3+  Nd30  1  0.26304516  0.13009575  0.56468352  1
  Nd3+  Nd31  1  0.01762744  0.11816089  0.06250165  1
  Nd3+  Nd32  1  0.38384741  0.75923352  0.43364980  1
  Nd3+  Nd33  1  0.13733333  -0.00759765  0.94033479  1
  Nd3+  Nd34  1  0.51072459  0.86655375  0.06617584  1
  Nd3+  Nd35  1  0.13585771  0.74039849  0.94000872  1
  Nd3+  Nd36  1  0.13231711  0.50753071  0.44216035  1
  Nd3+  Nd37  1  0.75717169  0.88483469  0.55224410  1
  Nd3+  Nd38  1  0.00489696  0.35985144  0.05621258  1
  Nd3+  Nd39  1  0.26334099  0.86481608  0.05469418  1
  Nd3+  Nd40  1  0.13743690  0.75428603  0.40120574  1
  Nd3+  Nd41  1  0.00866681  0.63405388  0.56182250  1
  Nd3+  Nd42  1  0.50893229  0.38496699  0.57165741  1
  Nd3+  Nd43  1  0.76154592  0.63153378  0.55683977  1
  Nd3+  Nd44  1  0.88365655  -0.00285739  0.95061784  1
  Sm3+  Sm45  1  0.38771137  -0.00732231  0.94866209  1
  Sm3+  Sm46  1  0.50909706  0.87820584  0.56200387  1
  Sm3+  Sm47  1  0.63515267  0.24005475  0.94017179  1
  Sm3+  Sm48  1  0.63583544  -0.00331833  0.95001329  1
  Sm3+  Sm49  1  0.26161735  0.12056453  0.06649727  1
  Sm3+  Sm50  1  0.38498050  0.25652902  0.44822318  1
  Sm3+  Sm51  1  0.50787035  0.61868427  0.06466806  1
  Sm3+  Sm52  1  0.13490398  0.49541847  0.94519391  1
  Sm3+  Sm53  1  0.38637323  0.49424982  0.93994588  1
  Sm3+  Sm54  1  0.76242566  0.36848629  0.04444634  1
  Sm3+  Sm55  1  0.38297396  0.24042916  0.93792514  1
  Sm3+  Sm56  1  0.25882412  0.37009350  0.05639755  1
  Sm3+  Sm57  1  0.01049804  0.88442152  0.55157653  1
  Sm3+  Sm58  1  0.88721537  0.50491065  0.45065701  1
  Sm3+  Sm59  1  0.38545091  0.00768041  0.44290393  1
  Sm3+  Sm60  1  0.63299735  0.74474499  0.94206015  1
  Sm3+  Sm61  1  0.75927041  0.38100795  0.55753789  1
  Sm3+  Sm62  1  0.25743619  0.87930200  0.55178157  1
  Sm3+  Sm63  1  0.37925632  0.50746453  0.44647914  1
  Bi2+  Bi64  1  0.00765269  0.20428287  0.28579727  1
  Bi2+  Bi65  1  -0.00052967  0.09841990  0.79565292  1
  Bi2+  Bi66  1  0.03780015  0.39138762  0.31132797  1
  Bi2+  Bi67  1  -0.03330691  0.36205424  0.78946873  1
  Bi2+  Bi68  1  -0.01849879  0.63502795  0.29440690  1
  Bi2+  Bi69  1  -0.00019021  0.62584370  0.80910939  1
  Bi2+  Bi70  1  -0.02300837  0.89850470  0.28743239  1
  Bi2+  Bi71  1  0.00404992  0.87075536  0.73177339  1
  Bi2+  Bi72  1  0.24750313  0.15624491  0.28486591  1
  Bi2+  Bi73  1  0.24078431  0.15006890  0.77350590  1
  Bi2+  Bi74  1  0.23163295  0.35260549  0.31114443  1
  Bi2+  Bi75  1  0.29735584  0.37468255  0.80362476  1
  Bi2+  Bi76  1  0.25278000  0.55142844  0.28707132  1
  Bi2+  Bi77  1  0.24166217  0.64754556  0.79575917  1
  Bi2+  Bi78  1  0.27296034  0.90717092  0.29060404  1
  Bi2+  Bi79  1  0.25734032  0.92504381  0.79310013  1
  Bi2+  Bi80  1  0.49472084  0.12312498  0.28820104  1
  Bi2+  Bi81  1  0.47451497  0.19705486  0.80382210  1
  Bi2+  Bi82  1  0.42568917  0.32224235  0.26591531  1
  Bi2+  Bi83  1  0.49073231  0.40151987  0.81069692  1
  Bi2+  Bi84  1  0.49603214  0.60394295  0.29056975  1
  Bi2+  Bi85  1  0.49842365  0.62459249  0.79191860  1
  Bi2+  Bi86  1  0.43681361  0.79324046  0.29942063  1
  Bi2+  Bi87  1  0.51973369  0.89836604  0.79773548  1
  Bi2+  Bi88  1  0.77915426  0.10695295  0.29611935  1
  Bi2+  Bi89  1  0.73698124  0.10279591  0.81002702  1
  Bi2+  Bi90  1  0.73329061  0.33742138  0.29132662  1
  Bi2+  Bi91  1  0.63753950  0.37125855  0.73337254  1
  Bi2+  Bi92  1  0.68526623  0.54607516  0.31180882  1
  Bi2+  Bi93  1  0.68453542  0.64795273  0.75979196  1
  Bi2+  Bi94  1  0.70377798  0.73629251  0.29068686  1
  Bi2+  Bi95  1  0.76759576  0.81597420  0.79167758  1
  Bi2+  Bi96  1  0.16637480  0.00590979  0.20952362  1
  Bi2+  Bi97  1  0.14605080  -0.00420020  0.70061622  1
  Bi2+  Bi98  1  0.18167115  0.27149712  0.19847649  1
  Bi2+  Bi99  1  0.11922799  0.26142826  0.71619472  1
  Bi2+  Bi100  1  0.11967133  0.47037480  0.21652240  1
  Bi2+  Bi101  1  0.16382028  0.47757577  0.74870047  1
  Bi2+  Bi102  1  0.13468461  0.75743158  0.20277375  1
  Bi2+  Bi103  1  0.14157184  0.74002809  0.69985766  1
  Bi2+  Bi104  1  0.36964945  0.01278947  0.21201197  1
  Bi2+  Bi105  1  0.40070027  0.03506344  0.74129540  1
  Bi2+  Bi106  1  0.36575889  0.19754502  0.18013074  1
  Bi2+  Bi107  1  0.36708263  0.25889943  0.70664497  1
  Bi2+  Bi108  1  0.38684360  0.48919873  0.21014940  1
  Bi2+  Bi109  1  0.37152557  0.51120014  0.72510188  1
  Bi2+  Bi110  1  0.41056127  0.76738290  0.18994910  1
  Bi2+  Bi111  1  0.37427562  0.77604980  0.69548143  1
  Bi2+  Bi112  1  0.65474793  -0.02423765  0.20394723  1
  Bi2+  Bi113  1  0.62558841  0.02853954  0.72226484  1
  Bi2+  Bi114  1  0.63050648  0.27425172  0.20590509  1
  Bi2+  Bi115  1  0.55680069  0.20409971  0.69222775  1
  Bi2+  Bi116  1  0.60203411  0.50948813  0.20516070  1
  Bi2+  Bi117  1  0.55652033  0.52197603  0.68183968  1
  Bi2+  Bi118  1  0.59659978  0.69949500  0.18387961  1
  Bi2+  Bi119  1  0.62789675  0.82614418  0.70856573  1
  Bi2+  Bi120  1  0.97362114  0.05362489  0.21250252  1
  Bi2+  Bi121  1  0.82572015  -0.03120161  0.72518259  1
  Bi2+  Bi122  1  0.90313466  0.31223578  0.20511319  1
  Bi2+  Bi123  1  0.84162867  0.23836987  0.71003599  1
  Bi2+  Bi124  1  0.85422911  0.48127690  0.25625700  1
  Bi2+  Bi125  1  0.80547120  0.49639227  0.73049465  1
  Bi2+  Bi126  1  0.79814602  0.70297054  0.19542099  1
  Bi2+  Bi127  1  0.88346619  0.72739867  0.69551919  1
  S2-  S128  1  -0.06082073  0.19182077  0.13950167  1
  S2-  S129  1  -0.01852018  0.22964972  0.65631183  1
  S2-  S130  1  -0.00177319  0.43338500  0.14712380  1
  S2-  S131  1  -0.06515476  0.42730968  0.69168261  1
  S2-  S132  1  -0.02833344  0.69237518  0.19320970  1
  S2-  S133  1  0.01944951  0.63907177  0.66177095  1
  S2-  S134  1  0.02715604  0.90517668  0.16156944  1
  S2-  S135  1  0.01183610  0.96983392  0.63760996  1
  S2-  S136  1  0.14417811  0.12434909  0.13763019  1
  S2-  S137  1  0.15928354  0.13349624  0.64449216  1
  S2-  S138  1  0.25870869  0.41180519  0.15148723  1
  S2-  S139  1  0.15599515  0.39153676  0.65437265  1
  S2-  S140  1  0.15152795  0.62193901  0.15281594  1
  S2-  S141  1  0.26386878  0.64375069  0.65797569  1
  S2-  S142  1  0.26103682  0.81516958  0.14989385  1
  S2-  S143  1  0.25041632  0.87092265  0.65116219  1
  S2-  S144  1  0.61086139  0.13083171  0.15303970  1
  S2-  S145  1  0.38175105  0.11558071  0.64352798  1
  S2-  S146  1  0.52456078  0.37693352  0.14957027  1
  S2-  S147  1  0.38785012  0.39739983  0.64523154  1
  S2-  S148  1  0.39104086  0.61757671  0.13914753  1
  S2-  S149  1  0.49234548  0.67282187  0.65165660  1
  S2-  S150  1  0.50107182  0.92125740  0.16095744  1
  S2-  S151  1  0.47179268  0.88472647  0.65811052  1
  S2-  S152  1  0.79695860  0.07702758  0.19932728  1
  S2-  S153  1  0.80325401  0.10637422  0.65944900  1
  S2-  S154  1  0.76310908  0.31743038  0.13886152  1
  S2-  S155  1  0.73750539  0.32894353  0.64934630  1
  S2-  S156  1  0.81782545  0.56503991  0.14108635  1
  S2-  S157  1  0.77110130  0.61317226  0.65431218  1
  S2-  S158  1  0.76422262  0.87372088  0.16374190  1
  S2-  S159  1  0.77601707  0.85200320  0.64926530  1
  S2-  S160  1  0.12307227  -0.06281812  0.33730414  1
  S2-  S161  1  0.11946960  0.01261415  0.84231249  1
  S2-  S162  1  0.12418886  0.15343158  0.35939693  1
  S2-  S163  1  0.03179423  0.23987180  0.85254984  1
  S2-  S164  1  0.12358338  0.59235678  0.35530418  1
  S2-  S165  1  0.10760446  0.49972864  0.84699711  1
  S2-  S166  1  0.07935617  0.76283532  0.30399468  1
  S2-  S167  1  0.11053886  0.73511554  0.83985130  1
  S2-  S168  1  0.45483350  0.00414604  0.35244131  1
  S2-  S169  1  0.38813747  -0.00317520  0.85092618  1
  S2-  S170  1  0.43285914  0.24537517  0.35456678  1
  S2-  S171  1  0.26996428  0.22630928  0.86321418  1
  S2-  S172  1  0.38703968  0.51002197  0.34891078  1
  S2-  S173  1  0.36755801  0.59002338  0.85977304  1
  S2-  S174  1  0.28794521  0.75536869  0.34996357  1
  S2-  S175  1  0.32341749  0.78723885  0.82485786  1
  S2-  S176  1  0.69610714  -0.03622158  0.29706924  1
  S2-  S177  1  0.63606716  -0.01612358  0.85165945  1
  S2-  S178  1  0.63301097  0.14670885  0.34836434  1
  S2-  S179  1  0.63050132  0.22202963  0.84254615  1
  S2-  S180  1  0.61881475  0.38335694  0.36016260  1
  S2-  S181  1  0.61487811  0.51518473  0.84429844  1
  S2-  S182  1  0.59107024  0.81394575  0.35517458  1
  S2-  S183  1  0.53928125  0.75505075  0.85994101  1
  S2-  S184  1  0.90336340  0.00977612  0.34341945  1
  S2-  S185  1  0.88823224  0.02777275  0.85217029  1
  S2-  S186  1  0.86189821  0.24538888  0.34508339  1
  S2-  S187  1  0.84171251  0.26155318  0.81765986  1
  S2-  S188  1  0.90946671  0.50400869  0.35371555  1
  S2-  S189  1  0.87816023  0.49341439  0.82947120  1
  S2-  S190  1  0.87001259  0.75696998  0.33252940  1
  S2-  S191  1  0.88847969  0.72737403  0.84924577  1
  S2-  S192  1  0.00648695  0.13101940  0.46208742  1
  S2-  S193  1  0.01349020  0.11578896  0.95668646  1
  S2-  S194  1  0.00952316  0.38089986  0.45246089  1
  S2-  S195  1  0.01173965  0.36914433  0.94970921  1
  S2-  S196  1  0.00780695  0.63401601  0.45577627  1
  S2-  S197  1  0.01147075  0.61799214  0.95024834  1
  S2-  S198  1  0.01130453  0.87735137  0.44683118  1
  S2-  S199  1  0.01036733  0.87022653  0.95558602  1
  S2-  S200  1  0.26463218  0.13314149  0.45677619  1
  S2-  S201  1  0.26322692  0.11292086  0.96240289  1
  S2-  S202  1  0.25912843  0.38144402  0.45845379  1
  S2-  S203  1  0.26261072  0.37355664  0.95281268  1
  S2-  S204  1  0.25682648  0.63413501  0.45437045  1
  S2-  S205  1  0.25804183  0.61715730  0.95976194  1
  S2-  S206  1  0.25856142  0.88329894  0.44792743  1
  S2-  S207  1  0.26378256  0.86744981  0.94888305  1
  S2-  S208  1  0.50604331  0.12893622  0.46259718  1
  S2-  S209  1  0.50855502  0.11927098  0.95811849  1
  S2-  S210  1  0.50128865  0.38450660  0.46428736  1
  S2-  S211  1  0.50700321  0.36420798  0.94765438  1
  S2-  S212  1  0.50575495  0.62986573  0.44891225  1
  S2-  S213  1  0.51242301  0.61643331  0.96000569  1
  S2-  S214  1  0.50816469  0.88280504  0.45845617  1
  S2-  S215  1  0.51224291  0.87294977  0.95951373  1
  S2-  S216  1  0.75414695  0.12951255  0.45587994  1
  S2-  S217  1  0.75826918  0.11958674  0.94756563  1
  S2-  S218  1  0.76169240  0.38285736  0.45442832  1
  S2-  S219  1  0.75936889  0.36556376  0.93935108  1
  S2-  S220  1  0.76004691  0.62733332  0.45033664  1
  S2-  S221  1  0.75690024  0.61964549  0.94734019  1
  S2-  S222  1  0.75324949  0.88377386  0.44510955  1
  S2-  S223  1  0.75808227  0.86899042  0.95557832  1
  S2-  S224  1  0.14000366  -0.01096956  0.04535304  1
  S2-  S225  1  0.13968886  0.00321578  0.53703469  1
  S2-  S226  1  0.13962498  0.24714731  0.04001852  1
  S2-  S227  1  0.13431845  0.25950364  0.54622885  1
  S2-  S228  1  0.13001614  0.48994983  0.04774155  1
  S2-  S229  1  0.12999840  0.50773908  0.54901237  1
  S2-  S230  1  0.13300964  0.74635588  0.04543442  1
  S2-  S231  1  0.13000417  0.76025223  0.54915463  1
  S2-  S232  1  0.38501810  -0.00457186  0.05345663  1
  S2-  S233  1  0.38449608  -0.00188219  0.54515711  1
  S2-  S234  1  0.38285045  0.24409753  0.04285396  1
  S2-  S235  1  0.38603562  0.25966787  0.54952252  1
  S2-  S236  1  0.38629929  0.49036303  0.04265855  1
  S2-  S237  1  0.38220175  0.51266155  0.54885833  1
  S2-  S238  1  0.39053924  0.74426708  0.03817733  1
  S2-  S239  1  0.38372159  0.75752090  0.54099727  1
  S2-  S240  1  0.63620648  -0.00584759  0.05267729  1
  S2-  S241  1  0.63140132  0.00445090  0.56376622  1
  S2-  S242  1  0.63826762  0.24274297  0.04321083  1
  S2-  S243  1  0.63008096  0.26037308  0.54393038  1
  S2-  S244  1  0.63489990  0.49273584  0.04651996  1
  S2-  S245  1  0.63604539  0.50627883  0.54469823  1
  S2-  S246  1  0.63418390  0.74217823  0.04658537  1
  S2-  S247  1  0.63518609  0.75564627  0.54895730  1
  S2-  S248  1  0.88396164  -0.00080648  0.05682403  1
  S2-  S249  1  0.88153025  0.00729197  0.54448069  1
  S2-  S250  1  0.88062293  0.24283774  0.02893456  1
  S2-  S251  1  0.88558693  0.26119707  0.55048409  1
  S2-  S252  1  0.88596703  0.48971179  0.03599047  1
  S2-  S253  1  0.88685630  0.50196997  0.55510965  1
  S2-  S254  1  0.88944578  0.73966424  0.05413782  1
  S2-  S255  1  0.88458497  0.75957148  0.54136710  1
