# generated using pymatgen
data_La6Ce7Pr13Nd19Sm19(BiS2)64
_symmetry_space_group_name_H-M   'P 1'
_cell_length_a   16.04778720
_cell_length_b   16.03543414
_cell_length_c   27.24389085
_cell_angle_alpha   89.79107416
_cell_angle_beta   89.66733329
_cell_angle_gamma   89.96114693
_symmetry_Int_Tables_number   1
_chemical_formula_structural   La6Ce7Pr13Nd19Sm19(BiS2)64
_chemical_formula_sum   'La6 Ce7 Pr13 Nd19 Sm19 Bi64 S128'
_cell_volume   7010.59226916
_cell_formula_units_Z   1
loop_
 _symmetry_equiv_pos_site_id
 _symmetry_equiv_pos_as_xyz
  1  'x, y, z'
loop_
 _atom_type_symbol
 _atom_type_oxidation_number
  La3+  3.0
  Ce3+  3.0
  Pr3+  3.0
  Nd3+  3.0
  Sm3+  3.0
  Bi2+  2.0
  S2-  -2.0
loop_
 _atom_site_type_symbol
 _atom_site_label
 _atom_site_symmetry_multiplicity
 _atom_site_fract_x
 _atom_site_fract_y
 _atom_site_fract_z
 _atom_site_occupancy
  La3+  La0  1  0.86779480  0.00081703  0.89728014  1
  La3+  La1  1  0.88741342  0.26195056  0.41543205  1
  La3+  La2  1  0.49324048  0.10977395  0.07392024  1
  La3+  La3  1  0.12840027  0.48740879  0.92573065  1
  La3+  La4  1  0.24697296  0.11607242  0.61431595  1
  La3+  La5  1  0.61683446  -0.00831232  0.38470929  1
  Ce3+  Ce6  1  0.12462741  -0.01415371  0.93722651  1
  Ce3+  Ce7  1  -0.00010246  0.13134335  0.56344673  1
  Ce3+  Ce8  1  0.75999560  0.13306581  0.55283356  1
  Ce3+  Ce9  1  0.25743298  0.62949618  0.56948436  1
  Ce3+  Ce10  1  0.38397238  0.00870991  0.44584051  1
  Ce3+  Ce11  1  0.75675418  0.36533715  0.05912648  1
  Ce3+  Ce12  1  0.37542819  0.74043943  0.93702284  1
  Pr3+  Pr13  1  0.50550356  0.38566250  0.56943337  1
  Pr3+  Pr14  1  0.49803219  0.36218451  0.05162309  1
  Pr3+  Pr15  1  0.00359592  0.88739997  0.57932567  1
  Pr3+  Pr16  1  0.87600696  0.48749963  0.91302728  1
  Pr3+  Pr17  1  0.38168498  0.22776020  0.91989916  1
  Pr3+  Pr18  1  -0.00357389  0.86808423  0.06540965  1
  Pr3+  Pr19  1  0.88715638  0.51567977  0.42879048  1
  Pr3+  Pr20  1  0.49083587  0.61140389  0.07585225  1
  Pr3+  Pr21  1  0.87790223  0.73893363  0.92995150  1
  Pr3+  Pr22  1  0.87691946  0.23754064  0.94703809  1
  Pr3+  Pr23  1  0.50739316  0.88461511  0.56866246  1
  Pr3+  Pr24  1  0.03919756  0.38312847  0.11132686  1
  Pr3+  Pr25  1  0.74416570  0.11651061  0.07792206  1
  Nd3+  Nd26  1  0.49907437  0.85721698  0.06703432  1
  Nd3+  Nd27  1  0.75058412  0.88193523  0.57092870  1
  Nd3+  Nd28  1  0.76065137  0.38168632  0.55719954  1
  Nd3+  Nd29  1  0.14000646  0.50966692  0.43759583  1
  Nd3+  Nd30  1  0.38307203  0.25602602  0.44203795  1
  Nd3+  Nd31  1  0.25911204  0.37715700  0.57734931  1
  Nd3+  Nd32  1  0.00699069  0.62918223  0.56541067  1
  Nd3+  Nd33  1  0.24004246  0.60583812  0.06798008  1
  Nd3+  Nd34  1  0.12647417  0.00537128  0.43742349  1
  Nd3+  Nd35  1  0.00116904  0.61096071  0.05804149  1
  Nd3+  Nd36  1  0.63367008  0.50355626  0.43149159  1
  Nd3+  Nd37  1  0.75517223  0.60988439  0.06373233  1
  Nd3+  Nd38  1  0.13237471  0.25555026  0.44478782  1
  Nd3+  Nd39  1  0.75629245  0.62529418  0.57339429  1
  Nd3+  Nd40  1  0.62521271  0.49005419  0.94232915  1
  Nd3+  Nd41  1  0.75196962  0.86334073  0.05466104  1
  Nd3+  Nd42  1  0.24964356  0.86452990  0.06511161  1
  Nd3+  Nd43  1  0.25153839  0.10999428  0.06314130  1
  Nd3+  Nd44  1  -0.00293851  0.11315749  0.06871624  1
  Sm3+  Sm45  1  0.88157681  0.75597870  0.45112051  1
  Sm3+  Sm46  1  0.63228873  0.25600819  0.43502486  1
  Sm3+  Sm47  1  0.50657245  0.62898970  0.55146352  1
  Sm3+  Sm48  1  0.50352169  0.13479694  0.56126295  1
  Sm3+  Sm49  1  0.37479674  0.49022177  0.93113161  1
  Sm3+  Sm50  1  0.62832514  0.23551027  0.94381896  1
  Sm3+  Sm51  1  0.25610267  0.35885614  0.04839010  1
  Sm3+  Sm52  1  0.37798066  -0.01809894  0.93284791  1
  Sm3+  Sm53  1  0.25670856  0.88319941  0.55833602  1
  Sm3+  Sm54  1  0.13314548  0.75908721  0.45374778  1
  Sm3+  Sm55  1  0.00751853  0.37992944  0.55486880  1
  Sm3+  Sm56  1  0.62704405  0.73496738  0.94386398  1
  Sm3+  Sm57  1  0.38187745  0.50625057  0.44150834  1
  Sm3+  Sm58  1  0.12409071  0.73915242  0.94388506  1
  Sm3+  Sm59  1  0.12314259  0.23621320  0.94537858  1
  Sm3+  Sm60  1  0.38380773  0.75972445  0.44326937  1
  Sm3+  Sm61  1  0.62731994  -0.01240707  0.94380116  1
  Sm3+  Sm62  1  0.63533294  0.75803516  0.44455386  1
  Sm3+  Sm63  1  0.87859935  0.00506879  0.43328012  1
  Bi2+  Bi64  1  -0.00629993  0.11853941  0.29615620  1
  Bi2+  Bi65  1  -0.03675183  0.19612399  0.77029101  1
  Bi2+  Bi66  1  0.00335804  0.38771265  0.29603290  1
  Bi2+  Bi67  1  -0.11939884  0.37153166  0.79797766  1
  Bi2+  Bi68  1  -0.01622591  0.63822644  0.28809231  1
  Bi2+  Bi69  1  -0.00444247  0.61013680  0.79475550  1
  Bi2+  Bi70  1  0.00588838  0.84903359  0.28841109  1
  Bi2+  Bi71  1  0.02797565  0.85762313  0.80680409  1
  Bi2+  Bi72  1  0.21755853  0.07796534  0.29760179  1
  Bi2+  Bi73  1  0.23084388  0.11925481  0.82085504  1
  Bi2+  Bi74  1  0.20087062  0.38644481  0.24854285  1
  Bi2+  Bi75  1  0.21347776  0.37447504  0.79407061  1
  Bi2+  Bi76  1  0.24797514  0.69797363  0.30549288  1
  Bi2+  Bi77  1  0.34552707  0.64531188  0.80865759  1
  Bi2+  Bi78  1  0.28401961  0.89068286  0.28769139  1
  Bi2+  Bi79  1  0.27897489  0.82644415  0.78392356  1
  Bi2+  Bi80  1  0.48353201  0.13156987  0.29203699  1
  Bi2+  Bi81  1  0.52361808  0.11699386  0.77847128  1
  Bi2+  Bi82  1  0.45292100  0.40975505  0.31463933  1
  Bi2+  Bi83  1  0.48225542  0.42060759  0.78965125  1
  Bi2+  Bi84  1  0.52026023  0.61282121  0.29280332  1
  Bi2+  Bi85  1  0.53513070  0.59474074  0.83129706  1
  Bi2+  Bi86  1  0.46148679  0.78547509  0.24017501  1
  Bi2+  Bi87  1  0.53348325  0.85705329  0.79085565  1
  Bi2+  Bi88  1  0.73893444  0.10682986  0.27865959  1
  Bi2+  Bi89  1  0.73109515  0.13217620  0.78750623  1
  Bi2+  Bi90  1  0.71908029  0.42991674  0.28290252  1
  Bi2+  Bi91  1  0.68010913  0.35590946  0.79721532  1
  Bi2+  Bi92  1  0.71079693  0.61814388  0.32333746  1
  Bi2+  Bi93  1  0.70079012  0.61726553  0.73752250  1
  Bi2+  Bi94  1  0.77131481  0.80585403  0.29272572  1
  Bi2+  Bi95  1  0.72317651  0.87276924  0.78285983  1
  Bi2+  Bi96  1  0.11252818  -0.02169669  0.21513196  1
  Bi2+  Bi97  1  0.12414374  -0.01859946  0.71395445  1
  Bi2+  Bi98  1  0.13023678  0.20217190  0.22516649  1
  Bi2+  Bi99  1  0.07618815  0.32678429  0.71547620  1
  Bi2+  Bi100  1  0.15043844  0.59948348  0.22557679  1
  Bi2+  Bi101  1  0.13192312  0.51682767  0.72864552  1
  Bi2+  Bi102  1  0.10060082  0.78633954  0.17608332  1
  Bi2+  Bi103  1  0.22860169  0.68687085  0.70586052  1
  Bi2+  Bi104  1  0.35257767  0.02502122  0.21028440  1
  Bi2+  Bi105  1  0.48644567  -0.02327897  0.69889876  1
  Bi2+  Bi106  1  0.34112570  0.28153443  0.20680137  1
  Bi2+  Bi107  1  0.35796474  0.25217500  0.71617065  1
  Bi2+  Bi108  1  0.35894647  0.52949532  0.23905428  1
  Bi2+  Bi109  1  0.37284602  0.51439155  0.71004373  1
  Bi2+  Bi110  1  0.29099496  0.75601132  0.18405669  1
  Bi2+  Bi111  1  0.37284329  0.81230601  0.67785942  1
  Bi2+  Bi112  1  0.63459542  -0.01050902  0.18400802  1
  Bi2+  Bi113  1  0.67621556  0.03554114  0.68970598  1
  Bi2+  Bi114  1  0.59433305  0.29628408  0.20854626  1
  Bi2+  Bi115  1  0.61732049  0.23528709  0.69485610  1
  Bi2+  Bi116  1  0.57141750  0.48825741  0.20622003  1
  Bi2+  Bi117  1  0.60679711  0.44028641  0.69666586  1
  Bi2+  Bi118  1  0.64879296  0.73447926  0.21421752  1
  Bi2+  Bi119  1  0.51684986  0.69347272  0.72430391  1
  Bi2+  Bi120  1  0.87332389  -0.07736997  0.21536969  1
  Bi2+  Bi121  1  0.88239624  0.02507081  0.71433544  1
  Bi2+  Bi122  1  0.86514309  0.25686193  0.20318201  1
  Bi2+  Bi123  1  0.81691000  0.27003598  0.69690786  1
  Bi2+  Bi124  1  0.83982348  0.55258226  0.22367972  1
  Bi2+  Bi125  1  0.86189475  0.50239503  0.71458410  1
  Bi2+  Bi126  1  0.91364697  0.72814884  0.18711262  1
  Bi2+  Bi127  1  0.90093196  0.76248305  0.70315483  1
  S2-  S128  1  0.00999435  0.21789965  0.15196810  1
  S2-  S129  1  0.07577318  0.09124576  0.64963534  1
  S2-  S130  1  -0.05929338  0.40622562  0.19682018  1
  S2-  S131  1  -0.04359526  0.38141073  0.64968884  1
  S2-  S132  1  0.09173740  0.55451306  0.13632051  1
  S2-  S133  1  -0.03902564  0.62811486  0.66210008  1
  S2-  S134  1  -0.00928274  0.98485794  0.14394329  1
  S2-  S135  1  0.04931570  0.83803034  0.67739172  1
  S2-  S136  1  0.35979645  0.15942184  0.14108234  1
  S2-  S137  1  0.25063383  0.10879160  0.72774802  1
  S2-  S138  1  0.21001541  0.36653245  0.14442381  1
  S2-  S139  1  0.22197514  0.27617797  0.65858007  1
  S2-  S140  1  0.35267021  0.58993624  0.14405792  1
  S2-  S141  1  0.23907723  0.51456818  0.64393453  1
  S2-  S142  1  0.23835297  0.98573715  0.13894216  1
  S2-  S143  1  0.24791329  0.94512916  0.64964657  1
  S2-  S144  1  0.60124815  0.15067124  0.15279499  1
  S2-  S145  1  0.41849201  0.13188856  0.64981051  1
  S2-  S146  1  0.45990173  0.36793416  0.15083069  1
  S2-  S147  1  0.39928535  0.37079456  0.65104675  1
  S2-  S148  1  0.51259220  0.74166061  0.14506458  1
  S2-  S149  1  0.50657384  0.56839937  0.64364805  1
  S2-  S150  1  0.48031850  0.96627992  0.14558287  1
  S2-  S151  1  0.62315073  0.88776330  0.64588707  1
  S2-  S152  1  0.79733805  0.09485498  0.17637459  1
  S2-  S153  1  0.86392046  0.14217784  0.63487920  1
  S2-  S154  1  0.73778612  0.33366009  0.15601011  1
  S2-  S155  1  0.74682752  0.48586208  0.63818238  1
  S2-  S156  1  0.70695571  0.59132243  0.15995150  1
  S2-  S157  1  0.74858037  0.71156879  0.66284760  1
  S2-  S158  1  0.74008715  0.85517089  0.15464903  1
  S2-  S159  1  0.86401807  0.90655151  0.64799080  1
  S2-  S160  1  0.00894107  -0.00523551  0.36137326  1
  S2-  S161  1  0.17581691  -0.04697584  0.84259017  1
  S2-  S162  1  0.04703299  0.25015055  0.35666131  1
  S2-  S163  1  0.12186276  0.24196065  0.84571005  1
  S2-  S164  1  0.06402005  0.51205074  0.34833843  1
  S2-  S165  1  0.01582404  0.46651784  0.84779605  1
  S2-  S166  1  0.11684429  0.77010414  0.35606268  1
  S2-  S167  1  0.11211169  0.71156111  0.84745863  1
  S2-  S168  1  0.44364153  0.01173438  0.35446084  1
  S2-  S169  1  0.39187322  0.08742101  0.85350371  1
  S2-  S170  1  0.38838657  0.25934677  0.33987931  1
  S2-  S171  1  0.36422769  0.30317571  0.82452019  1
  S2-  S172  1  0.31601144  0.50258854  0.35161232  1
  S2-  S173  1  0.26161209  0.50618757  0.85492746  1
  S2-  S174  1  0.39186274  0.77715655  0.34510525  1
  S2-  S175  1  0.39306764  0.85565915  0.86014483  1
  S2-  S176  1  0.59378283  -0.00723303  0.27531075  1
  S2-  S177  1  0.70339255  -0.00638895  0.85304699  1
  S2-  S178  1  0.61852387  0.16518265  0.34856295  1
  S2-  S179  1  0.59139966  0.21819290  0.84843681  1
  S2-  S180  1  0.61619953  0.38047546  0.35937507  1
  S2-  S181  1  0.68742108  0.50248333  0.84941762  1
  S2-  S182  1  0.63530253  0.81956462  0.35272617  1
  S2-  S183  1  0.65093982  0.75654427  0.84587494  1
  S2-  S184  1  0.78331551  -0.00111582  0.34869110  1
  S2-  S185  1  0.97874550  0.01340577  0.80639633  1
  S2-  S186  1  0.84366435  0.21454605  0.31355395  1
  S2-  S187  1  0.85939183  0.16460283  0.85523287  1
  S2-  S188  1  0.86732819  0.40905203  0.34897905  1
  S2-  S189  1  0.86555461  0.62636156  0.85073325  1
  S2-  S190  1  0.87409336  0.66151904  0.36687755  1
  S2-  S191  1  0.87875470  0.84407375  0.84365823  1
  S2-  S192  1  0.00452575  0.13043127  0.45749896  1
  S2-  S193  1  -0.00012493  0.10900311  0.95317347  1
  S2-  S194  1  0.01195702  0.38735133  0.45273805  1
  S2-  S195  1  -0.00022612  0.35965919  0.94930828  1
  S2-  S196  1  0.01398129  0.63517520  0.46047449  1
  S2-  S197  1  0.00073661  0.61070180  0.95410627  1
  S2-  S198  1  0.00490961  0.87603834  0.46543733  1
  S2-  S199  1  0.00013658  0.86469232  0.95504690  1
  S2-  S200  1  0.25392121  0.12994434  0.44095212  1
  S2-  S201  1  0.24981476  0.11029291  0.95348554  1
  S2-  S202  1  0.25727903  0.38090479  0.45679894  1
  S2-  S203  1  0.25583353  0.35553035  0.94597121  1
  S2-  S204  1  0.26065938  0.63615585  0.45991054  1
  S2-  S205  1  0.25100460  0.61817039  0.95856711  1
  S2-  S206  1  0.25764758  0.88222426  0.45239809  1
  S2-  S207  1  0.24856183  0.86129389  0.95774343  1
  S2-  S208  1  0.50820667  0.13370567  0.45744055  1
  S2-  S209  1  0.50616792  0.10927593  0.95801989  1
  S2-  S210  1  0.50322875  0.38264214  0.46063610  1
  S2-  S211  1  0.50013539  0.36432307  0.94406012  1
  S2-  S212  1  0.50657822  0.63225231  0.44635446  1
  S2-  S213  1  0.49806391  0.61349326  0.95962164  1
  S2-  S214  1  0.50953398  0.88075505  0.45909814  1
  S2-  S215  1  0.50812221  0.86089671  0.95925492  1
  S2-  S216  1  0.76243387  0.13932507  0.44884087  1
  S2-  S217  1  0.74721016  0.11081677  0.96092040  1
  S2-  S218  1  0.75761260  0.38304475  0.45351128  1
  S2-  S219  1  0.75120830  0.36498956  0.95150805  1
  S2-  S220  1  0.75330005  0.63136337  0.46458742  1
  S2-  S221  1  0.75286272  0.61032501  0.95817046  1
  S2-  S222  1  0.75937184  0.87664403  0.46072541  1
  S2-  S223  1  0.75000659  0.86225339  0.95107378  1
  S2-  S224  1  0.12293268  -0.01063999  0.04099723  1
  S2-  S225  1  0.13238479  0.00379077  0.54254536  1
  S2-  S226  1  0.12821573  0.23858149  0.04889786  1
  S2-  S227  1  0.12960683  0.25461364  0.54840534  1
  S2-  S228  1  0.12951062  0.47835539  0.03385659  1
  S2-  S229  1  0.13024981  0.50409667  0.54473973  1
  S2-  S230  1  0.12410701  0.73954605  0.04863547  1
  S2-  S231  1  0.13287009  0.75773358  0.55880741  1
  S2-  S232  1  0.37438789  -0.01637175  0.03742148  1
  S2-  S233  1  0.37979712  0.00785151  0.54961853  1
  S2-  S234  1  0.37578962  0.23700776  0.03134078  1
  S2-  S235  1  0.37969176  0.25631018  0.54612844  1
  S2-  S236  1  0.37238988  0.48702633  0.03623148  1
  S2-  S237  1  0.37945449  0.50726808  0.54417458  1
  S2-  S238  1  0.36940300  0.73708800  0.04414409  1
  S2-  S239  1  0.38278393  0.75520199  0.54839388  1
  S2-  S240  1  0.62580647  -0.01406702  0.04816899  1
  S2-  S241  1  0.63082050  0.01523593  0.55089065  1
  S2-  S242  1  0.62534217  0.24260904  0.04558617  1
  S2-  S243  1  0.63057013  0.25893452  0.54634278  1
  S2-  S244  1  0.62338628  0.48984932  0.04971698  1
  S2-  S245  1  0.62873846  0.50582269  0.53759034  1
  S2-  S246  1  0.62920963  0.73209678  0.04675660  1
  S2-  S247  1  0.62860706  0.75025062  0.54937611  1
  S2-  S248  1  0.86864448  -0.00863281  0.04919121  1
  S2-  S249  1  0.87910801  0.00397006  0.53939659  1
  S2-  S250  1  0.87167617  0.23432152  0.05181813  1
  S2-  S251  1  0.88342929  0.26277911  0.53413565  1
  S2-  S252  1  0.88457900  0.48373338  0.06390742  1
  S2-  S253  1  0.88588443  0.50693668  0.54057836  1
  S2-  S254  1  0.87691333  0.73680540  0.04376309  1
  S2-  S255  1  0.88138541  0.75365254  0.55367458  1
