# generated using pymatgen
data_La6Ce7Pr13Nd19Sm19(BiS2)64
_symmetry_space_group_name_H-M   'P 1'
_cell_length_a   16.15089325
_cell_length_b   16.16316124
_cell_length_c   27.12887991
_cell_angle_alpha   89.99695605
_cell_angle_beta   90.10515740
_cell_angle_gamma   89.97249873
_symmetry_Int_Tables_number   1
_chemical_formula_structural   La6Ce7Pr13Nd19Sm19(BiS2)64
_chemical_formula_sum   'La6 Ce7 Pr13 Nd19 Sm19 Bi64 S128'
_cell_volume   7081.96755505
_cell_formula_units_Z   1
loop_
 _symmetry_equiv_pos_site_id
 _symmetry_equiv_pos_as_xyz
  1  'x, y, z'
loop_
 _atom_type_symbol
 _atom_type_oxidation_number
  La3+  3.0
  Ce3+  3.0
  Pr3+  3.0
  Nd3+  3.0
  Sm3+  3.0
  Bi2+  2.0
  S2-  -2.0
loop_
 _atom_site_type_symbol
 _atom_site_label
 _atom_site_symmetry_multiplicity
 _atom_site_fract_x
 _atom_site_fract_y
 _atom_site_fract_z
 _atom_site_occupancy
  La3+  La0  1  0.37742858  0.75331699  0.43054656  1
  La3+  La1  1  0.87348652  0.74231767  0.43684933  1
  La3+  La2  1  0.87054533  0.25043759  0.42926449  1
  La3+  La3  1  0.86868123  0.25436628  0.93128223  1
  La3+  La4  1  0.75753949  0.61276184  0.59337995  1
  La3+  La5  1  0.11185094  0.50749537  0.38683269  1
  Ce3+  Ce6  1  0.49902945  0.63121328  0.05005369  1
  Ce3+  Ce7  1  0.62677801  0.50466166  0.93784979  1
  Ce3+  Ce8  1  0.50036653  0.87209283  0.56441286  1
  Ce3+  Ce9  1  0.12482667  0.00187080  0.94594132  1
  Ce3+  Ce10  1  0.49711429  0.37927017  0.05691982  1
  Ce3+  Ce11  1  0.11917911  0.25460931  0.42547564  1
  Ce3+  Ce12  1  0.75004366  0.37922697  0.06069230  1
  Pr3+  Pr13  1  0.37394313  0.25518436  0.93636558  1
  Pr3+  Pr14  1  0.75317279  0.87059752  0.56384690  1
  Pr3+  Pr15  1  0.26596915  0.63527085  0.09104161  1
  Pr3+  Pr16  1  0.74866476  0.62888741  0.05810038  1
  Pr3+  Pr17  1  0.62290741  0.24872672  0.43474243  1
  Pr3+  Pr18  1  0.62710471  0.75874751  0.92949656  1
  Pr3+  Pr19  1  0.37039696  0.50520259  0.42203723  1
  Pr3+  Pr20  1  0.12546217  0.75601902  0.43297735  1
  Pr3+  Pr21  1  0.00156700  0.37160758  0.07261417  1
  Pr3+  Pr22  1  0.25059322  0.87137925  0.56275287  1
  Pr3+  Pr23  1  0.00170675  0.87546517  0.06002381  1
  Pr3+  Pr24  1  0.37227704  0.50519737  0.94123911  1
  Pr3+  Pr25  1  0.87901432  0.50371812  0.94241765  1
  Nd3+  Nd26  1  0.36991833  0.75669493  0.93508974  1
  Nd3+  Nd27  1  0.75305513  0.36391218  0.57050711  1
  Nd3+  Nd28  1  0.74979712  0.12939102  0.06097859  1
  Nd3+  Nd29  1  -0.00024154  0.12888203  0.05747816  1
  Nd3+  Nd30  1  0.12709804  0.50297086  0.95139810  1
  Nd3+  Nd31  1  0.25261550  0.87737196  0.06924579  1
  Nd3+  Nd32  1  0.12524927  0.25502850  0.94544838  1
  Nd3+  Nd33  1  0.62750933  0.74526639  0.44989056  1
  Nd3+  Nd34  1  0.12390507  -0.00119265  0.43911241  1
  Nd3+  Nd35  1  0.37272737  0.00304933  0.94001279  1
  Nd3+  Nd36  1  0.62613210  -0.00141373  0.44994999  1
  Nd3+  Nd37  1  0.25259105  0.12647412  0.05992824  1
  Nd3+  Nd38  1  0.26071441  0.37402155  0.07995788  1
  Nd3+  Nd39  1  0.87353085  0.00023834  0.44811340  1
  Nd3+  Nd40  1  0.75120030  0.87741484  0.06043981  1
  Nd3+  Nd41  1  0.25050331  0.62076302  0.55382783  1
  Nd3+  Nd42  1  -0.00207012  0.62718458  0.06917383  1
  Nd3+  Nd43  1  0.87674341  0.75266266  0.93681105  1
  Nd3+  Nd44  1  0.37699933  -0.00208384  0.43422206  1
  Sm3+  Sm45  1  0.75331852  0.12547222  0.56583702  1
  Sm3+  Sm46  1  0.49813589  0.12499368  0.55608106  1
  Sm3+  Sm47  1  0.50083639  0.62069565  0.55610296  1
  Sm3+  Sm48  1  0.00133352  0.37416480  0.55082550  1
  Sm3+  Sm49  1  0.25057283  0.12576746  0.54836746  1
  Sm3+  Sm50  1  0.49989391  0.12581872  0.05127992  1
  Sm3+  Sm51  1  0.00058451  0.62025295  0.55421507  1
  Sm3+  Sm52  1  0.62800204  0.49872684  0.44448652  1
  Sm3+  Sm53  1  0.00148461  0.87256189  0.55653431  1
  Sm3+  Sm54  1  0.24933384  0.37560293  0.54862307  1
  Sm3+  Sm55  1  0.50148482  0.87737920  0.05460347  1
  Sm3+  Sm56  1  0.62629747  0.00198138  0.94321550  1
  Sm3+  Sm57  1  0.87492846  0.00253528  0.94522414  1
  Sm3+  Sm58  1  0.00349526  0.12672607  0.55458207  1
  Sm3+  Sm59  1  0.62471827  0.25286981  0.94794314  1
  Sm3+  Sm60  1  0.86385657  0.49773730  0.43731944  1
  Sm3+  Sm61  1  0.12702105  0.75189933  0.95057052  1
  Sm3+  Sm62  1  0.37355225  0.25041256  0.43669963  1
  Sm3+  Sm63  1  0.50057215  0.37435984  0.55108707  1
  Bi2+  Bi64  1  0.01434072  0.09238627  0.28626114  1
  Bi2+  Bi65  1  0.02780606  0.11969697  0.75676076  1
  Bi2+  Bi66  1  -0.01242911  0.36479356  0.28654594  1
  Bi2+  Bi67  1  0.00808901  0.39452319  0.80594295  1
  Bi2+  Bi68  1  -0.02387068  0.63561327  0.28853957  1
  Bi2+  Bi69  1  0.02672125  0.60156334  0.75826194  1
  Bi2+  Bi70  1  -0.00863673  0.89691726  0.29220571  1
  Bi2+  Bi71  1  0.03805305  0.87616199  0.75004114  1
  Bi2+  Bi72  1  0.29350404  0.11468094  0.29710737  1
  Bi2+  Bi73  1  0.22312195  0.11050580  0.78899501  1
  Bi2+  Bi74  1  0.25315789  0.36438948  0.27135146  1
  Bi2+  Bi75  1  0.26397911  0.36365032  0.80109187  1
  Bi2+  Bi76  1  0.25397764  0.63228502  0.28510230  1
  Bi2+  Bi77  1  0.22457229  0.62584701  0.81390934  1
  Bi2+  Bi78  1  0.25686746  0.88146212  0.28987994  1
  Bi2+  Bi79  1  0.24582626  0.86592445  0.81135630  1
  Bi2+  Bi80  1  0.48488383  0.16851193  0.31813251  1
  Bi2+  Bi81  1  0.49775559  0.16788590  0.79887964  1
  Bi2+  Bi82  1  0.52795934  0.40925455  0.29234980  1
  Bi2+  Bi83  1  0.48080717  0.35324066  0.76012965  1
  Bi2+  Bi84  1  0.52006836  0.63480975  0.28901428  1
  Bi2+  Bi85  1  0.47041196  0.62045017  0.74824700  1
  Bi2+  Bi86  1  0.49110270  0.97606831  0.28678915  1
  Bi2+  Bi87  1  0.50548416  0.90303550  0.77529802  1
  Bi2+  Bi88  1  0.74756171  0.09954637  0.29619905  1
  Bi2+  Bi89  1  0.76802129  0.13050605  0.79972986  1
  Bi2+  Bi90  1  0.72437781  0.37710560  0.29433328  1
  Bi2+  Bi91  1  0.75476234  0.37391987  0.80189075  1
  Bi2+  Bi92  1  0.72354440  0.65210063  0.30187102  1
  Bi2+  Bi93  1  0.75126405  0.61821068  0.80347500  1
  Bi2+  Bi94  1  0.70434004  0.90079156  0.26493889  1
  Bi2+  Bi95  1  0.76026158  0.86694468  0.80981299  1
  Bi2+  Bi96  1  0.13572520  -0.00079599  0.20652935  1
  Bi2+  Bi97  1  0.15590444  0.00398634  0.69958981  1
  Bi2+  Bi98  1  0.14462927  0.19804501  0.22229038  1
  Bi2+  Bi99  1  0.16625373  0.26317876  0.71441846  1
  Bi2+  Bi100  1  0.09635236  0.50166711  0.18133969  1
  Bi2+  Bi101  1  0.13930597  0.46019658  0.71421350  1
  Bi2+  Bi102  1  0.12074605  0.80661151  0.21614049  1
  Bi2+  Bi103  1  0.15354301  0.72804442  0.71391952  1
  Bi2+  Bi104  1  0.33578273  -0.00601300  0.20857390  1
  Bi2+  Bi105  1  0.39445604  0.04564460  0.73279761  1
  Bi2+  Bi106  1  0.41102903  0.22775477  0.20700529  1
  Bi2+  Bi107  1  0.37192739  0.23075233  0.69280994  1
  Bi2+  Bi108  1  0.41549338  0.50194884  0.21055612  1
  Bi2+  Bi109  1  0.33289813  0.50144724  0.71001876  1
  Bi2+  Bi110  1  0.40791380  0.76756163  0.20870521  1
  Bi2+  Bi111  1  0.36061119  0.77027247  0.70748363  1
  Bi2+  Bi112  1  0.61744088  0.04416384  0.20549612  1
  Bi2+  Bi113  1  0.65688765  0.01406237  0.73325167  1
  Bi2+  Bi114  1  0.60649519  0.24630321  0.23605383  1
  Bi2+  Bi115  1  0.63555420  0.20693431  0.71938869  1
  Bi2+  Bi116  1  0.61557162  0.52271886  0.20841753  1
  Bi2+  Bi117  1  0.59658432  0.47724275  0.70877194  1
  Bi2+  Bi118  1  0.61232544  0.75258758  0.20899365  1
  Bi2+  Bi119  1  0.61457621  0.76155507  0.70860927  1
  Bi2+  Bi120  1  0.86877323  -0.00168913  0.22274981  1
  Bi2+  Bi121  1  0.86260909  -0.00078962  0.73740750  1
  Bi2+  Bi122  1  0.87143410  0.24243257  0.19566176  1
  Bi2+  Bi123  1  0.89749719  0.24134016  0.70452159  1
  Bi2+  Bi124  1  0.81299000  0.48770824  0.21631463  1
  Bi2+  Bi125  1  0.89184808  0.48655270  0.70699592  1
  Bi2+  Bi126  1  0.87539921  0.75269215  0.19961505  1
  Bi2+  Bi127  1  0.87250764  0.75829041  0.70428168  1
  S2-  S128  1  0.00268339  0.18307588  0.15166346  1
  S2-  S129  1  -0.02174646  0.13098649  0.65168044  1
  S2-  S130  1  -0.04125930  0.39185322  0.17180897  1
  S2-  S131  1  -0.03566278  0.36928717  0.64925539  1
  S2-  S132  1  0.01474642  0.65656287  0.16799050  1
  S2-  S133  1  -0.07595047  0.62440546  0.64251149  1
  S2-  S134  1  -0.03558818  0.87569946  0.15781715  1
  S2-  S135  1  -0.01811895  0.85913215  0.65321680  1
  S2-  S136  1  0.27213646  0.17137723  0.15477243  1
  S2-  S137  1  0.23604247  0.14086558  0.64536909  1
  S2-  S138  1  0.18571825  0.36077623  0.17143648  1
  S2-  S139  1  0.26196882  0.37897967  0.64756495  1
  S2-  S140  1  0.24863089  0.56873736  0.18591469  1
  S2-  S141  1  0.27049960  0.64293916  0.65304603  1
  S2-  S142  1  0.25493765  0.78079653  0.15199330  1
  S2-  S143  1  0.27386496  0.89177491  0.66133513  1
  S2-  S144  1  0.49385024  0.11668294  0.14887984  1
  S2-  S145  1  0.48989853  0.12316154  0.65366774  1
  S2-  S146  1  0.40650844  0.37250881  0.14121406  1
  S2-  S147  1  0.51276325  0.37266343  0.64940226  1
  S2-  S148  1  0.43242839  0.63434822  0.13970403  1
  S2-  S149  1  0.53318325  0.62004421  0.65278291  1
  S2-  S150  1  0.50358504  0.86126111  0.15300280  1
  S2-  S151  1  0.49474886  0.85963786  0.66181146  1
  S2-  S152  1  0.77988764  0.10841613  0.15783142  1
  S2-  S153  1  0.75320100  0.23465865  0.64162942  1
  S2-  S154  1  0.75088914  0.34834675  0.15629546  1
  S2-  S155  1  0.74726318  0.46551932  0.65074384  1
  S2-  S156  1  0.80698541  0.61642037  0.15288832  1
  S2-  S157  1  0.73834634  0.65345108  0.69930274  1
  S2-  S158  1  0.74472081  0.83334768  0.15605531  1
  S2-  S159  1  0.74264800  0.84802238  0.66351024  1
  S2-  S160  1  0.12466236  -0.10402487  0.35901565  1
  S2-  S161  1  0.14227748  -0.01031140  0.84904706  1
  S2-  S162  1  0.13123241  0.34298767  0.34027003  1
  S2-  S163  1  0.11670959  0.29514579  0.84897847  1
  S2-  S164  1  0.09375541  0.51746542  0.27700406  1
  S2-  S165  1  0.08818340  0.52721894  0.85501488  1
  S2-  S166  1  0.11606363  0.67518442  0.34359869  1
  S2-  S167  1  0.13003388  0.75551561  0.85255167  1
  S2-  S168  1  0.39114980  -0.11487159  0.35832739  1
  S2-  S169  1  0.37544595  -0.05215747  0.84623164  1
  S2-  S170  1  0.34709505  0.27731798  0.34031738  1
  S2-  S171  1  0.34218403  0.21315327  0.84105805  1
  S2-  S172  1  0.27182040  0.48729989  0.33697528  1
  S2-  S173  1  0.33612535  0.49398859  0.84330125  1
  S2-  S174  1  0.37413038  0.64662155  0.35034536  1
  S2-  S175  1  0.35130873  0.72930810  0.83728640  1
  S2-  S176  1  0.63745061  -0.00845087  0.35047346  1
  S2-  S177  1  0.62436379  -0.05007315  0.85019749  1
  S2-  S178  1  0.73929987  0.24012362  0.35966330  1
  S2-  S179  1  0.68793706  0.25881754  0.85743174  1
  S2-  S180  1  0.73158537  0.50941335  0.36615950  1
  S2-  S181  1  0.64372469  0.49263770  0.83952597  1
  S2-  S182  1  0.61254981  0.74872703  0.35074759  1
  S2-  S183  1  0.64194047  0.72971431  0.82973577  1
  S2-  S184  1  0.87744773  0.01116173  0.34938800  1
  S2-  S185  1  0.86521452  -0.00130049  0.84727205  1
  S2-  S186  1  0.96861572  0.23811349  0.34466445  1
  S2-  S187  1  0.89504496  0.27567774  0.83207065  1
  S2-  S188  1  0.94160589  0.49946182  0.34701171  1
  S2-  S189  1  0.86038945  0.49581111  0.84226043  1
  S2-  S190  1  0.86211385  0.74496456  0.33597070  1
  S2-  S191  1  0.86662783  0.73937292  0.83711697  1
  S2-  S192  1  0.00111075  0.12220217  0.45044311  1
  S2-  S193  1  -0.00209851  0.12869517  0.94927179  1
  S2-  S194  1  -0.00109128  0.37967320  0.44831753  1
  S2-  S195  1  0.00029333  0.37731831  0.96162506  1
  S2-  S196  1  0.00106359  0.62009483  0.45108473  1
  S2-  S197  1  0.00163361  0.63056553  0.96030720  1
  S2-  S198  1  -0.00527281  0.87448751  0.45341615  1
  S2-  S199  1  -0.00046298  0.87718662  0.95173486  1
  S2-  S200  1  0.24980019  0.12433883  0.44349150  1
  S2-  S201  1  0.24911513  0.12777542  0.95302402  1
  S2-  S202  1  0.25173433  0.37345417  0.44733573  1
  S2-  S203  1  0.25036216  0.37766958  0.96231715  1
  S2-  S204  1  0.24504168  0.62491016  0.44995175  1
  S2-  S205  1  0.24901059  0.63033990  0.95906242  1
  S2-  S206  1  0.25177873  0.87732210  0.45722794  1
  S2-  S207  1  0.24869328  0.87844110  0.96134025  1
  S2-  S208  1  0.49862419  0.12332232  0.45108158  1
  S2-  S209  1  0.50240271  0.12603734  0.94624340  1
  S2-  S210  1  0.49853536  0.37615857  0.44512998  1
  S2-  S211  1  0.50124371  0.37744876  0.94745154  1
  S2-  S212  1  0.50323418  0.62024256  0.45189393  1
  S2-  S213  1  0.49893380  0.63230090  0.94191889  1
  S2-  S214  1  0.50565755  0.87412000  0.45917932  1
  S2-  S215  1  0.49941484  0.87900525  0.95015601  1
  S2-  S216  1  0.74861535  0.12193006  0.46190391  1
  S2-  S217  1  0.74813541  0.12478530  0.95464728  1
  S2-  S218  1  0.74524665  0.37218784  0.46298589  1
  S2-  S219  1  0.74824317  0.38000126  0.95555141  1
  S2-  S220  1  0.74853077  0.62342208  0.46627987  1
  S2-  S221  1  0.75098805  0.62969794  0.95013048  1
  S2-  S222  1  0.75039050  0.87336863  0.45569155  1
  S2-  S223  1  0.75297693  0.87953377  0.95390601  1
  S2-  S224  1  0.12608429  0.00277186  0.05404219  1
  S2-  S225  1  0.12481361  -0.00051510  0.54601799  1
  S2-  S226  1  0.12980645  0.25249658  0.05150040  1
  S2-  S227  1  0.12624828  0.25014032  0.53903556  1
  S2-  S228  1  0.12950999  0.50298246  0.05939320  1
  S2-  S229  1  0.12413160  0.49772311  0.55413144  1
  S2-  S230  1  0.12741805  0.74934329  0.05509150  1
  S2-  S231  1  0.12298594  0.74752124  0.54652900  1
  S2-  S232  1  0.37687057  0.00094174  0.04797348  1
  S2-  S233  1  0.37461908  0.00101505  0.54464624  1
  S2-  S234  1  0.37810355  0.24805531  0.04252692  1
  S2-  S235  1  0.37484963  0.25017954  0.54231659  1
  S2-  S236  1  0.37289764  0.50614653  0.04649773  1
  S2-  S237  1  0.37665534  0.49782415  0.54011691  1
  S2-  S238  1  0.37652330  0.75841447  0.04209893  1
  S2-  S239  1  0.37735620  0.74591879  0.54454343  1
  S2-  S240  1  0.62544996  0.00202407  0.04872111  1
  S2-  S241  1  0.62703961  0.00262546  0.55782184  1
  S2-  S242  1  0.62184200  0.25128382  0.05257560  1
  S2-  S243  1  0.62003330  0.24616476  0.54325656  1
  S2-  S244  1  0.62291501  0.50386115  0.04694131  1
  S2-  S245  1  0.62377954  0.49664406  0.54806058  1
  S2-  S246  1  0.62510283  0.75521596  0.04091004  1
  S2-  S247  1  0.62792936  0.74359237  0.55623215  1
  S2-  S248  1  0.87557644  0.00325681  0.05045899  1
  S2-  S249  1  0.87809836  0.00075683  0.55483272  1
  S2-  S250  1  0.87406971  0.25234330  0.04300876  1
  S2-  S251  1  0.88018350  0.24590868  0.53925895  1
  S2-  S252  1  0.87778743  0.50043169  0.04996185  1
  S2-  S253  1  0.87743637  0.49494141  0.54236295  1
  S2-  S254  1  0.87578935  0.75229085  0.04472064  1
  S2-  S255  1  0.87850679  0.74847842  0.54549507  1
