# generated using pymatgen
data_La6Ce7Pr13Nd19Sm19(BiS2)64
_symmetry_space_group_name_H-M   'P 1'
_cell_length_a   16.04159836
_cell_length_b   16.01765897
_cell_length_c   27.27357218
_cell_angle_alpha   89.90752811
_cell_angle_beta   89.44184553
_cell_angle_gamma   89.93224198
_symmetry_Int_Tables_number   1
_chemical_formula_structural   La6Ce7Pr13Nd19Sm19(BiS2)64
_chemical_formula_sum   'La6 Ce7 Pr13 Nd19 Sm19 Bi64 S128'
_cell_volume   7007.56664012
_cell_formula_units_Z   1
loop_
 _symmetry_equiv_pos_site_id
 _symmetry_equiv_pos_as_xyz
  1  'x, y, z'
loop_
 _atom_type_symbol
 _atom_type_oxidation_number
  La3+  3.0
  Ce3+  3.0
  Pr3+  3.0
  Nd3+  3.0
  Sm3+  3.0
  Bi2+  2.0
  S2-  -2.0
loop_
 _atom_site_type_symbol
 _atom_site_label
 _atom_site_symmetry_multiplicity
 _atom_site_fract_x
 _atom_site_fract_y
 _atom_site_fract_z
 _atom_site_occupancy
  La3+  La0  1  -0.01360381  0.39371422  0.08185259  1
  La3+  La1  1  0.48047790  0.13527955  0.08384440  1
  La3+  La2  1  0.09656595  0.50992687  0.89639514  1
  La3+  La3  1  0.50431307  0.61415205  0.61751848  1
  La3+  La4  1  0.49710688  0.87531036  0.57973521  1
  La3+  La5  1  0.62480305  0.76468535  0.91760835  1
  Ce3+  Ce6  1  0.88025851  0.74678966  0.45079742  1
  Ce3+  Ce7  1  0.88120768  0.25173547  0.42279156  1
  Ce3+  Ce8  1  0.61876828  0.50814894  0.94989505  1
  Ce3+  Ce9  1  0.38710096  0.24762280  0.43227241  1
  Ce3+  Ce10  1  0.13092481  0.73674934  0.43925508  1
  Ce3+  Ce11  1  0.73658235  0.38299729  0.07180377  1
  Ce3+  Ce12  1  0.48490558  0.63797646  0.05081913  1
  Pr3+  Pr13  1  0.00473031  0.61953766  0.56998343  1
  Pr3+  Pr14  1  0.51554831  0.36772348  0.57001532  1
  Pr3+  Pr15  1  0.23219797  0.38748705  0.05661547  1
  Pr3+  Pr16  1  0.13207641  0.25583993  0.41413000  1
  Pr3+  Pr17  1  0.11245482  0.76404109  0.93344358  1
  Pr3+  Pr18  1  -0.02029725  0.63635112  0.06324891  1
  Pr3+  Pr19  1  0.88469639  -0.00494161  0.43823051  1
  Pr3+  Pr20  1  0.11439326  0.01200398  0.93218021  1
  Pr3+  Pr21  1  0.23167327  0.13383315  0.06845419  1
  Pr3+  Pr22  1  0.35855656  0.26349568  0.93529292  1
  Pr3+  Pr23  1  0.25203010  0.87063168  0.56380957  1
  Pr3+  Pr24  1  0.48551955  0.88209479  0.05157343  1
  Pr3+  Pr25  1  0.39549123  -0.01471212  0.41333866  1
  Nd3+  Nd26  1  0.25604545  0.36618872  0.56476038  1
  Nd3+  Nd27  1  0.48304052  0.38502912  0.06701572  1
  Nd3+  Nd28  1  0.73060396  0.88736056  0.05901926  1
  Nd3+  Nd29  1  0.86317887  0.76748241  0.92831545  1
  Nd3+  Nd30  1  0.86937287  0.51549868  0.40892231  1
  Nd3+  Nd31  1  0.13536497  -0.00089044  0.43677807  1
  Nd3+  Nd32  1  -0.01186751  0.12584292  0.07578008  1
  Nd3+  Nd33  1  0.61276523  0.25892171  0.93911922  1
  Nd3+  Nd34  1  0.75696908  0.12376321  0.55097440  1
  Nd3+  Nd35  1  0.00804033  0.12915970  0.55457206  1
  Nd3+  Nd36  1  0.73320298  0.64481056  0.06803943  1
  Nd3+  Nd37  1  -0.01522978  0.88539330  0.06058422  1
  Nd3+  Nd38  1  0.75761589  0.88350765  0.58186672  1
  Nd3+  Nd39  1  0.36144165  0.50405848  0.92973480  1
  Nd3+  Nd40  1  0.86320440  0.01812694  0.93356006  1
  Nd3+  Nd41  1  0.60454525  0.01617474  0.92824594  1
  Nd3+  Nd42  1  0.37241133  0.74977135  0.90601784  1
  Nd3+  Nd43  1  0.85566317  0.50967467  0.93707893  1
  Nd3+  Nd44  1  0.36215502  0.01319573  0.93773509  1
  Sm3+  Sm45  1  0.73310568  0.12938299  0.06648772  1
  Sm3+  Sm46  1  0.23807491  0.88205340  0.05299056  1
  Sm3+  Sm47  1  0.38503439  0.74716247  0.45086507  1
  Sm3+  Sm48  1  0.38523782  0.49734966  0.44946625  1
  Sm3+  Sm49  1  0.25405798  0.61200483  0.57605192  1
  Sm3+  Sm50  1  0.63655959  -0.01093009  0.43927594  1
  Sm3+  Sm51  1  0.50700654  0.11796147  0.55555791  1
  Sm3+  Sm52  1  0.25822527  0.12629720  0.54923313  1
  Sm3+  Sm53  1  0.10643006  0.26395764  0.94447422  1
  Sm3+  Sm54  1  0.63174057  0.74724112  0.45800478  1
  Sm3+  Sm55  1  0.75417585  0.37447009  0.55284090  1
  Sm3+  Sm56  1  0.13240079  0.49918838  0.43553727  1
  Sm3+  Sm57  1  0.23340648  0.63251908  0.04678004  1
  Sm3+  Sm58  1  0.86434232  0.25676960  0.95319944  1
  Sm3+  Sm59  1  0.63276685  0.24874086  0.42770481  1
  Sm3+  Sm60  1  0.01146265  0.87280442  0.56046731  1
  Sm3+  Sm61  1  0.75363503  0.62455516  0.57166883  1
  Sm3+  Sm62  1  0.00493440  0.37503989  0.54846550  1
  Sm3+  Sm63  1  0.62984535  0.50026506  0.44427731  1
  Bi2+  Bi64  1  -0.07631615  0.07063229  0.31177419  1
  Bi2+  Bi65  1  0.04330654  0.14041064  0.82661362  1
  Bi2+  Bi66  1  0.04252309  0.34396199  0.26926110  1
  Bi2+  Bi67  1  -0.05753262  0.36220850  0.80488688  1
  Bi2+  Bi68  1  0.00095577  0.59798059  0.29300947  1
  Bi2+  Bi69  1  -0.03192783  0.69968699  0.77571528  1
  Bi2+  Bi70  1  -0.03819131  0.87529669  0.29942824  1
  Bi2+  Bi71  1  0.01124367  0.96026175  0.78642104  1
  Bi2+  Bi72  1  0.21081807  0.13708886  0.28606590  1
  Bi2+  Bi73  1  0.24438215  0.13320288  0.84588986  1
  Bi2+  Bi74  1  0.28738577  0.40625676  0.30456082  1
  Bi2+  Bi75  1  0.23674374  0.30375828  0.78785257  1
  Bi2+  Bi76  1  0.26813600  0.62374749  0.28713415  1
  Bi2+  Bi77  1  0.23055672  0.66702815  0.79208481  1
  Bi2+  Bi78  1  0.23717533  0.87681128  0.25658456  1
  Bi2+  Bi79  1  0.22904891  0.96553195  0.78500581  1
  Bi2+  Bi80  1  0.50385502  0.10702831  0.28441892  1
  Bi2+  Bi81  1  0.49601067  0.16075278  0.79190083  1
  Bi2+  Bi82  1  0.55706101  0.37201776  0.29561343  1
  Bi2+  Bi83  1  0.51987601  0.35249217  0.82615441  1
  Bi2+  Bi84  1  0.46681966  0.61384906  0.28830907  1
  Bi2+  Bi85  1  0.53814065  0.56818804  0.82558266  1
  Bi2+  Bi86  1  0.51942711  0.83754490  0.30082090  1
  Bi2+  Bi87  1  0.51193334  0.90141235  0.79181371  1
  Bi2+  Bi88  1  0.71690114  0.14240403  0.27854104  1
  Bi2+  Bi89  1  0.76272223  0.12265769  0.79129494  1
  Bi2+  Bi90  1  0.75333917  0.41087138  0.29060162  1
  Bi2+  Bi91  1  0.72252105  0.34628347  0.81190101  1
  Bi2+  Bi92  1  0.74684815  0.67832140  0.29395942  1
  Bi2+  Bi93  1  0.88252918  0.64401874  0.68271868  1
  Bi2+  Bi94  1  0.77804489  0.86386581  0.25668145  1
  Bi2+  Bi95  1  0.77813558  0.85578865  0.78740005  1
  Bi2+  Bi96  1  0.10568050  0.00648475  0.21186582  1
  Bi2+  Bi97  1  0.18910623  0.09081169  0.68894267  1
  Bi2+  Bi98  1  0.21351684  0.25815763  0.19611410  1
  Bi2+  Bi99  1  0.07708206  0.23888899  0.72716806  1
  Bi2+  Bi100  1  0.18186712  0.52434781  0.20086953  1
  Bi2+  Bi101  1  0.09959239  0.49235699  0.70806216  1
  Bi2+  Bi102  1  0.08957049  0.74928816  0.24181705  1
  Bi2+  Bi103  1  0.12247388  0.76469770  0.71325029  1
  Bi2+  Bi104  1  0.36703127  -0.00558582  0.20045861  1
  Bi2+  Bi105  1  0.37449654  0.03414269  0.71165945  1
  Bi2+  Bi106  1  0.41002753  0.29389440  0.23770403  1
  Bi2+  Bi107  1  0.37049098  0.23633855  0.71020708  1
  Bi2+  Bi108  1  0.45224833  0.48180943  0.20013301  1
  Bi2+  Bi109  1  0.35548949  0.49912751  0.71881435  1
  Bi2+  Bi110  1  0.35498332  0.73755981  0.20762992  1
  Bi2+  Bi111  1  0.37414596  0.78140049  0.71944423  1
  Bi2+  Bi112  1  0.60942604  -0.09271389  0.18893813  1
  Bi2+  Bi113  1  0.64246884  0.00766870  0.70938847  1
  Bi2+  Bi114  1  0.65831215  0.25484338  0.18967294  1
  Bi2+  Bi115  1  0.56537414  0.21155241  0.68567791  1
  Bi2+  Bi116  1  0.65259668  0.45709115  0.19314824  1
  Bi2+  Bi117  1  0.60473014  0.39659835  0.72552232  1
  Bi2+  Bi118  1  0.61604358  0.65278577  0.21165735  1
  Bi2+  Bi119  1  0.63736328  0.71515987  0.72544547  1
  Bi2+  Bi120  1  0.85092066  0.07054739  0.20347095  1
  Bi2+  Bi121  1  0.88851186  0.04702689  0.71157069  1
  Bi2+  Bi122  1  0.85005078  0.26309090  0.21726167  1
  Bi2+  Bi123  1  0.83393612  0.26264667  0.72282866  1
  Bi2+  Bi124  1  0.89323760  0.54086950  0.20749495  1
  Bi2+  Bi125  1  0.90246718  0.45067528  0.70237506  1
  Bi2+  Bi126  1  0.92777690  0.80931034  0.18896694  1
  Bi2+  Bi127  1  0.94328446  0.83954893  0.68588189  1
  S2-  S128  1  0.11402276  0.13568045  0.14838565  1
  S2-  S129  1  0.01697541  0.11604877  0.65391520  1
  S2-  S130  1  0.05905035  0.33382203  0.17547697  1
  S2-  S131  1  0.03052376  0.36186824  0.64680914  1
  S2-  S132  1  0.02774237  0.53941359  0.14865346  1
  S2-  S133  1  0.12018475  0.62595432  0.64593149  1
  S2-  S134  1  -0.02320963  0.98356151  0.14400868  1
  S2-  S135  1  0.11828262  0.87768254  0.63791617  1
  S2-  S136  1  0.33397614  0.13256184  0.15090231  1
  S2-  S137  1  0.24639065  0.22655508  0.63117570  1
  S2-  S138  1  0.28078869  0.40891247  0.15323469  1
  S2-  S139  1  0.24507204  0.45664159  0.65268421  1
  S2-  S140  1  0.23641872  0.65098254  0.14664339  1
  S2-  S141  1  0.34112255  0.64116528  0.66155669  1
  S2-  S142  1  0.22118326  0.91440531  0.15061405  1
  S2-  S143  1  0.34539207  0.88844067  0.65007093  1
  S2-  S144  1  0.52314276  0.05547254  0.17730893  1
  S2-  S145  1  0.51454766  0.02397254  0.64183863  1
  S2-  S146  1  0.49488564  0.27942630  0.14746252  1
  S2-  S147  1  0.47296286  0.44869934  0.65786158  1
  S2-  S148  1  0.47087236  0.63480284  0.14881593  1
  S2-  S149  1  0.50136323  0.60506306  0.73576161  1
  S2-  S150  1  0.45386203  0.86105992  0.15202713  1
  S2-  S151  1  0.51915433  0.77508324  0.66493000  1
  S2-  S152  1  0.73004310  0.00504870  0.13752624  1
  S2-  S153  1  0.75746528  0.04445699  0.64030049  1
  S2-  S154  1  0.84692616  0.39697181  0.14927351  1
  S2-  S155  1  0.66534797  0.34064025  0.63503993  1
  S2-  S156  1  0.85615419  0.65861004  0.14271776  1
  S2-  S157  1  0.67158703  0.60173839  0.65844752  1
  S2-  S158  1  0.67661098  0.77597900  0.13673206  1
  S2-  S159  1  0.71444060  0.85100889  0.68102840  1
  S2-  S160  1  0.12482533  0.02283423  0.33829101  1
  S2-  S161  1  0.11659657  -0.10715470  0.85571652  1
  S2-  S162  1  -0.00536632  0.22883584  0.34540711  1
  S2-  S163  1  0.09835321  0.34219199  0.85496430  1
  S2-  S164  1  0.13918348  0.40338892  0.35033922  1
  S2-  S165  1  0.17696876  0.51184101  0.79662074  1
  S2-  S166  1  0.13424438  0.62702251  0.36283051  1
  S2-  S167  1  0.08517831  0.67433336  0.84733171  1
  S2-  S168  1  0.35999847  0.05629145  0.31890809  1
  S2-  S169  1  0.45846403  0.01770487  0.85274530  1
  S2-  S170  1  0.27872568  0.25517501  0.35409544  1
  S2-  S171  1  0.35505566  0.37577940  0.85499043  1
  S2-  S172  1  0.43350443  0.47538494  0.35337028  1
  S2-  S173  1  0.36819255  0.60079101  0.84497362  1
  S2-  S174  1  0.39420455  0.82751577  0.36129228  1
  S2-  S175  1  0.31979020  0.82458726  0.81793372  1
  S2-  S176  1  0.55208202  -0.01334631  0.35291665  1
  S2-  S177  1  0.64564845  -0.08426897  0.84538833  1
  S2-  S178  1  0.51090427  0.23935154  0.35728453  1
  S2-  S179  1  0.63288316  0.14829869  0.85968297  1
  S2-  S180  1  0.71187295  0.53209680  0.35831803  1
  S2-  S181  1  0.69775622  0.50446819  0.86174869  1
  S2-  S182  1  0.64285306  0.77174796  0.35853781  1
  S2-  S183  1  0.51667556  0.74318256  0.83869697  1
  S2-  S184  1  0.80600929  -0.04315364  0.35063991  1
  S2-  S185  1  0.88263115  -0.09653938  0.85430571  1
  S2-  S186  1  0.75519054  0.26194652  0.35323100  1
  S2-  S187  1  0.87805513  0.15837593  0.86834329  1
  S2-  S188  1  0.92312221  0.44532149  0.32156133  1
  S2-  S189  1  0.93882977  0.51016294  0.84817182  1
  S2-  S190  1  0.88551089  0.67525085  0.36077386  1
  S2-  S191  1  0.76215750  0.72780165  0.84620548  1
  S2-  S192  1  0.00798662  0.12362905  0.44988367  1
  S2-  S193  1  -0.00775037  0.13511108  0.96810289  1
  S2-  S194  1  -0.00446968  0.38662500  0.44625635  1
  S2-  S195  1  -0.01940233  0.38391548  0.96151000  1
  S2-  S196  1  0.00038450  0.61750622  0.46265779  1
  S2-  S197  1  -0.01894764  0.63729716  0.95440819  1
  S2-  S198  1  0.01064621  0.86974459  0.45387998  1
  S2-  S199  1  -0.01206767  0.88936854  0.95743030  1
  S2-  S200  1  0.26372937  0.11677935  0.44673984  1
  S2-  S201  1  0.23392575  0.13952991  0.96109924  1
  S2-  S202  1  0.26075889  0.37757496  0.45723240  1
  S2-  S203  1  0.22726279  0.38959342  0.95163090  1
  S2-  S204  1  0.26327698  0.62058567  0.46068944  1
  S2-  S205  1  0.23621660  0.63354339  0.94294396  1
  S2-  S206  1  0.25286544  0.86856897  0.45286676  1
  S2-  S207  1  0.24620415  0.88202299  0.94928023  1
  S2-  S208  1  0.51090459  0.11316939  0.45327821  1
  S2-  S209  1  0.48221460  0.14221061  0.95847972  1
  S2-  S210  1  0.51249795  0.37396970  0.46010267  1
  S2-  S211  1  0.49001566  0.38515689  0.96117928  1
  S2-  S212  1  0.50853550  0.62508666  0.44937193  1
  S2-  S213  1  0.49066231  0.62996695  0.94812676  1
  S2-  S214  1  0.50966014  0.87068474  0.46661332  1
  S2-  S215  1  0.48180556  0.88052360  0.94587920  1
  S2-  S216  1  0.75674375  0.11923727  0.44687405  1
  S2-  S217  1  0.73602042  0.13578157  0.96413182  1
  S2-  S218  1  0.75826939  0.38026791  0.45161347  1
  S2-  S219  1  0.73945470  0.37739960  0.96424974  1
  S2-  S220  1  0.75565073  0.62336528  0.46709236  1
  S2-  S221  1  0.73917459  0.63738206  0.96087910  1
  S2-  S222  1  0.75791626  0.87114538  0.46746693  1
  S2-  S223  1  0.73856172  0.89440585  0.95381648  1
  S2-  S224  1  0.11431849  0.00396076  0.04037697  1
  S2-  S225  1  0.13210811  0.00442653  0.54178231  1
  S2-  S226  1  0.10567005  0.26312651  0.04879977  1
  S2-  S227  1  0.12827769  0.25100752  0.52924901  1
  S2-  S228  1  0.11049331  0.51329374  0.04236699  1
  S2-  S229  1  0.13107002  0.49433365  0.54111975  1
  S2-  S230  1  0.11088616  0.76070223  0.04573139  1
  S2-  S231  1  0.13082234  0.74205890  0.54201625  1
  S2-  S232  1  0.35966220  0.00831773  0.04404121  1
  S2-  S233  1  0.37700367  0.00204902  0.54099259  1
  S2-  S234  1  0.35961763  0.26223288  0.04354373  1
  S2-  S235  1  0.38981148  0.24532378  0.54136488  1
  S2-  S236  1  0.36134890  0.51078453  0.04017209  1
  S2-  S237  1  0.38423514  0.49589133  0.55144654  1
  S2-  S238  1  0.35725138  0.75737967  0.03962672  1
  S2-  S239  1  0.37839962  0.74084055  0.55263583  1
  S2-  S240  1  0.60277495  0.01479229  0.04001447  1
  S2-  S241  1  0.63410366  -0.00376647  0.54257455  1
  S2-  S242  1  0.61349433  0.25734248  0.04710087  1
  S2-  S243  1  0.63254882  0.24182088  0.53236989  1
  S2-  S244  1  0.61138293  0.51083615  0.05578400  1
  S2-  S245  1  0.63080110  0.50241076  0.54763767  1
  S2-  S246  1  0.60818109  0.75941004  0.02899596  1
  S2-  S247  1  0.63736338  0.75331622  0.55999360  1
  S2-  S248  1  0.86091532  0.01164397  0.04070633  1
  S2-  S249  1  0.88834491  -0.00245291  0.54596358  1
  S2-  S250  1  0.86209168  0.25010757  0.05696904  1
  S2-  S251  1  0.87905899  0.25112133  0.54384447  1
  S2-  S252  1  0.85391284  0.51165041  0.04500336  1
  S2-  S253  1  0.87604482  0.49472975  0.55845238  1
  S2-  S254  1  0.85869401  0.76816250  0.03748346  1
  S2-  S255  1  0.88099497  0.75288511  0.55558963  1
