# generated using pymatgen
data_La6Ce7Pr13Nd19Sm19(BiS2)64
_symmetry_space_group_name_H-M   'P 1'
_cell_length_a   15.99529412
_cell_length_b   16.08017165
_cell_length_c   27.23572495
_cell_angle_alpha   89.98854125
_cell_angle_beta   89.77007188
_cell_angle_gamma   89.86485467
_symmetry_Int_Tables_number   1
_chemical_formula_structural   La6Ce7Pr13Nd19Sm19(BiS2)64
_chemical_formula_sum   'La6 Ce7 Pr13 Nd19 Sm19 Bi64 S128'
_cell_volume   7005.14512652
_cell_formula_units_Z   1
loop_
 _symmetry_equiv_pos_site_id
 _symmetry_equiv_pos_as_xyz
  1  'x, y, z'
loop_
 _atom_type_symbol
 _atom_type_oxidation_number
  La3+  3.0
  Ce3+  3.0
  Pr3+  3.0
  Nd3+  3.0
  Sm3+  3.0
  Bi2+  2.0
  S2-  -2.0
loop_
 _atom_site_type_symbol
 _atom_site_label
 _atom_site_symmetry_multiplicity
 _atom_site_fract_x
 _atom_site_fract_y
 _atom_site_fract_z
 _atom_site_occupancy
  La3+  La0  1  0.35263122  0.22627895  0.41103693  1
  La3+  La1  1  0.47509508  0.10509460  0.56067260  1
  La3+  La2  1  0.89379409  0.26299884  0.89549991  1
  La3+  La3  1  0.47392063  0.85179533  0.56224950  1
  La3+  La4  1  0.89708311  0.77103821  0.93700855  1
  La3+  La5  1  0.90062557  0.52169843  0.92295759  1
  Ce3+  Ce6  1  0.35345931  0.47634374  0.43580613  1
  Ce3+  Ce7  1  0.14354417  0.26576039  0.93815201  1
  Ce3+  Ce8  1  0.14168392  0.51242070  0.94327460  1
  Ce3+  Ce9  1  0.10725976  0.22603361  0.43722372  1
  Ce3+  Ce10  1  0.39468681  0.76308711  0.94214771  1
  Ce3+  Ce11  1  -0.01768341  0.60054402  0.57318460  1
  Ce3+  Ce12  1  0.23374810  0.34921015  0.56049032  1
  Pr3+  Pr13  1  0.65277179  0.51104849  0.93723810  1
  Pr3+  Pr14  1  0.64737313  0.01539402  0.94562060  1
  Pr3+  Pr15  1  0.60417629  0.71912932  0.42500888  1
  Pr3+  Pr16  1  0.85996029  0.48222322  0.43675332  1
  Pr3+  Pr17  1  -0.01967931  0.10069514  0.56514697  1
  Pr3+  Pr18  1  0.01825873  0.64039111  0.06777869  1
  Pr3+  Pr19  1  0.35340766  -0.02460371  0.42652624  1
  Pr3+  Pr20  1  0.64408073  0.26593885  0.92944327  1
  Pr3+  Pr21  1  0.72516890  0.35260816  0.58136729  1
  Pr3+  Pr22  1  0.85493257  0.22610508  0.44232153  1
  Pr3+  Pr23  1  0.64746852  0.76377872  0.94146408  1
  Pr3+  Pr24  1  0.47736979  0.35167497  0.55809303  1
  Pr3+  Pr25  1  0.77310518  0.63982520  0.07606143  1
  Nd3+  Nd26  1  0.14295595  0.01774393  0.94523402  1
  Nd3+  Nd27  1  0.61283220  0.46976215  0.42672831  1
  Nd3+  Nd28  1  0.72122812  0.84890047  0.56637211  1
  Nd3+  Nd29  1  0.77295196  0.39426550  0.08353182  1
  Nd3+  Nd30  1  0.23255359  0.10232997  0.55884140  1
  Nd3+  Nd31  1  0.85460302  0.72876614  0.43466906  1
  Nd3+  Nd32  1  0.22684894  0.60373896  0.55838309  1
  Nd3+  Nd33  1  0.47911930  0.60009063  0.55604983  1
  Nd3+  Nd34  1  0.76652060  0.88691303  0.07898681  1
  Nd3+  Nd35  1  0.01519360  0.14578121  0.05727358  1
  Nd3+  Nd36  1  0.60691598  -0.02111794  0.43486905  1
  Nd3+  Nd37  1  0.01531944  0.89411859  0.07817601  1
  Nd3+  Nd38  1  0.14435987  0.76899118  0.94613886  1
  Nd3+  Nd39  1  0.72174964  0.60276781  0.56915906  1
  Nd3+  Nd40  1  0.61075017  0.22541837  0.43240134  1
  Nd3+  Nd41  1  -0.02106630  0.35147030  0.56218046  1
  Nd3+  Nd42  1  0.39575900  0.01532963  0.93963327  1
  Nd3+  Nd43  1  -0.03365952  0.84615046  0.58151945  1
  Nd3+  Nd44  1  0.72023163  0.10374313  0.57421047  1
  Sm3+  Sm45  1  0.10058445  -0.02653845  0.44585260  1
  Sm3+  Sm46  1  0.89376145  0.01150530  0.94472092  1
  Sm3+  Sm47  1  0.22892383  0.85131179  0.55475182  1
  Sm3+  Sm48  1  0.27538816  0.39169090  0.06486548  1
  Sm3+  Sm49  1  0.51733842  0.89012445  0.05781142  1
  Sm3+  Sm50  1  0.76832365  0.14546524  0.05408637  1
  Sm3+  Sm51  1  0.35625937  0.72675871  0.42887988  1
  Sm3+  Sm52  1  0.39546437  0.51358898  0.94442599  1
  Sm3+  Sm53  1  0.52149808  0.14312874  0.06161471  1
  Sm3+  Sm54  1  0.09948200  0.72774622  0.43984031  1
  Sm3+  Sm55  1  0.01402663  0.38929975  0.05587335  1
  Sm3+  Sm56  1  0.39822149  0.26703939  0.93741658  1
  Sm3+  Sm57  1  0.85308230  -0.02439715  0.45389577  1
  Sm3+  Sm58  1  0.27033232  0.14476352  0.05734802  1
  Sm3+  Sm59  1  0.26912869  0.89324929  0.06210576  1
  Sm3+  Sm60  1  0.26881109  0.63941787  0.05596896  1
  Sm3+  Sm61  1  0.10476582  0.47884339  0.44405831  1
  Sm3+  Sm62  1  0.52162507  0.63732909  0.05797323  1
  Sm3+  Sm63  1  0.52397210  0.38785097  0.06702351  1
  Bi2+  Bi64  1  0.01129783  0.15845575  0.30595032  1
  Bi2+  Bi65  1  0.07362462  0.09555701  0.78400058  1
  Bi2+  Bi66  1  -0.03574731  0.34770511  0.28451379  1
  Bi2+  Bi67  1  0.07141780  0.37136362  0.79118104  1
  Bi2+  Bi68  1  0.01494609  0.63405724  0.30344173  1
  Bi2+  Bi69  1  0.01978096  0.63923340  0.79025240  1
  Bi2+  Bi70  1  0.04090608  0.88229476  0.28565642  1
  Bi2+  Bi71  1  0.03400678  0.87657802  0.79780767  1
  Bi2+  Bi72  1  0.19621709  0.10606424  0.27999417  1
  Bi2+  Bi73  1  0.27420094  0.14784225  0.79194193  1
  Bi2+  Bi74  1  0.16621111  0.40710436  0.30633878  1
  Bi2+  Bi75  1  0.26849984  0.34465217  0.80708459  1
  Bi2+  Bi76  1  0.20985051  0.68452107  0.32344131  1
  Bi2+  Bi77  1  0.26249763  0.57050108  0.77800581  1
  Bi2+  Bi78  1  0.31028854  0.85711052  0.31265179  1
  Bi2+  Bi79  1  0.27724805  0.89220693  0.73333506  1
  Bi2+  Bi80  1  0.48590752  0.12093596  0.28816177  1
  Bi2+  Bi81  1  0.52010876  0.11900465  0.79055595  1
  Bi2+  Bi82  1  0.49415495  0.41018314  0.28505248  1
  Bi2+  Bi83  1  0.46471133  0.38435493  0.79406003  1
  Bi2+  Bi84  1  0.39402115  0.64636624  0.28278029  1
  Bi2+  Bi85  1  0.45869806  0.67567367  0.79336444  1
  Bi2+  Bi86  1  0.50791172  0.89631492  0.29324367  1
  Bi2+  Bi87  1  0.48729602  0.87551343  0.78047141  1
  Bi2+  Bi88  1  0.75254423  0.09056498  0.29653800  1
  Bi2+  Bi89  1  0.81337704  0.10418941  0.79131892  1
  Bi2+  Bi90  1  0.72591960  0.34792790  0.28271647  1
  Bi2+  Bi91  1  0.72034245  0.38743189  0.78396631  1
  Bi2+  Bi92  1  0.73470847  0.60522370  0.30229973  1
  Bi2+  Bi93  1  0.73560913  0.62245039  0.80414153  1
  Bi2+  Bi94  1  0.76636152  0.87272356  0.28709435  1
  Bi2+  Bi95  1  0.74978901  0.91775333  0.81198774  1
  Bi2+  Bi96  1  0.13754075  -0.04629250  0.19120104  1
  Bi2+  Bi97  1  0.19773823  0.07000953  0.69255037  1
  Bi2+  Bi98  1  0.11552090  0.26226226  0.22149406  1
  Bi2+  Bi99  1  0.19191647  0.27486228  0.69801696  1
  Bi2+  Bi100  1  0.08293762  0.51589571  0.22089593  1
  Bi2+  Bi101  1  0.15475063  0.47457689  0.69875110  1
  Bi2+  Bi102  1  0.06778900  0.76995572  0.18765724  1
  Bi2+  Bi103  1  0.10450122  0.76106739  0.70662597  1
  Bi2+  Bi104  1  0.35960593  -0.00475360  0.23313471  1
  Bi2+  Bi105  1  0.43753819  -0.01733731  0.69273273  1
  Bi2+  Bi106  1  0.36408120  0.25653173  0.19718851  1
  Bi2+  Bi107  1  0.40112706  0.25160596  0.71770264  1
  Bi2+  Bi108  1  0.28457403  0.48190663  0.21744220  1
  Bi2+  Bi109  1  0.35223189  0.51645313  0.67454171  1
  Bi2+  Bi110  1  0.26705506  0.74385948  0.21321567  1
  Bi2+  Bi111  1  0.33362102  0.70721089  0.70031535  1
  Bi2+  Bi112  1  0.64552454  -0.02070151  0.22126052  1
  Bi2+  Bi113  1  0.73011421  -0.00615703  0.71003375  1
  Bi2+  Bi114  1  0.62456041  0.22951305  0.21358700  1
  Bi2+  Bi115  1  0.61060117  0.22194862  0.70600584  1
  Bi2+  Bi116  1  0.57626892  0.49979940  0.19600541  1
  Bi2+  Bi117  1  0.53857028  0.49465824  0.70956533  1
  Bi2+  Bi118  1  0.59777219  0.76846723  0.21548113  1
  Bi2+  Bi119  1  0.58242772  0.74404870  0.71304341  1
  Bi2+  Bi120  1  0.95799852  0.02829296  0.22148369  1
  Bi2+  Bi121  1  0.93197037  0.01471522  0.71332265  1
  Bi2+  Bi122  1  0.86878575  0.24190737  0.20049092  1
  Bi2+  Bi123  1  0.89399643  0.28002167  0.69825869  1
  Bi2+  Bi124  1  0.88050547  0.50436572  0.21253387  1
  Bi2+  Bi125  1  0.88764765  0.52728922  0.71125133  1
  Bi2+  Bi126  1  0.87151191  0.77129409  0.21153111  1
  Bi2+  Bi127  1  0.85532031  0.75488229  0.72383121  1
  S2-  S128  1  0.01184823  0.16194977  0.15656123  1
  S2-  S129  1  -0.01369843  0.16183938  0.65940194  1
  S2-  S130  1  -0.07863801  0.38409674  0.14148489  1
  S2-  S131  1  -0.01123637  0.41724661  0.65505006  1
  S2-  S132  1  -0.08850546  0.63492725  0.14787300  1
  S2-  S133  1  -0.03592875  0.71145415  0.65024241  1
  S2-  S134  1  -0.10999707  0.91712914  0.15064175  1
  S2-  S135  1  0.04903905  0.90565381  0.66490499  1
  S2-  S136  1  0.27888160  0.14359118  0.15544051  1
  S2-  S137  1  0.34910085  0.09581046  0.63559005  1
  S2-  S138  1  0.21624260  0.35711425  0.15503776  1
  S2-  S139  1  0.34985213  0.33776983  0.63450505  1
  S2-  S140  1  0.27565154  0.60248123  0.15170623  1
  S2-  S141  1  0.13214395  0.61408840  0.64267246  1
  S2-  S142  1  0.31218587  0.89450512  0.15677603  1
  S2-  S143  1  0.33539772  0.85097940  0.63405987  1
  S2-  S144  1  0.49787498  0.16193407  0.15926621  1
  S2-  S145  1  0.58050496  0.09020202  0.64512987  1
  S2-  S146  1  0.42657822  0.40381793  0.15048549  1
  S2-  S147  1  0.57763472  0.36156527  0.64439451  1
  S2-  S148  1  0.51900891  0.64150232  0.15732479  1
  S2-  S149  1  0.57666972  0.61093219  0.64018954  1
  S2-  S150  1  0.54415607  0.89427431  0.15409255  1
  S2-  S151  1  0.59311043  0.84548651  0.63918498  1
  S2-  S152  1  0.75529984  0.15107420  0.15334965  1
  S2-  S153  1  0.75451217  0.21568377  0.64978013  1
  S2-  S154  1  0.63581042  0.35567330  0.14480595  1
  S2-  S155  1  0.77591920  0.41700582  0.68248758  1
  S2-  S156  1  0.73774156  0.52597478  0.15543690  1
  S2-  S157  1  0.77618077  0.62752505  0.67074994  1
  S2-  S158  1  0.73311442  0.76203504  0.15045423  1
  S2-  S159  1  0.81662251  0.85966406  0.65380998  1
  S2-  S160  1  0.11832285  0.00081834  0.34842139  1
  S2-  S161  1  0.14260448  -0.02141732  0.84827230  1
  S2-  S162  1  0.19840597  0.24545223  0.35347703  1
  S2-  S163  1  0.06172976  0.23202330  0.85340098  1
  S2-  S164  1  0.02311677  0.46650838  0.35775351  1
  S2-  S165  1  0.05354609  0.51455999  0.85764434  1
  S2-  S166  1  -0.00510752  0.77394925  0.36419163  1
  S2-  S167  1  0.11664574  0.75270624  0.84791989  1
  S2-  S168  1  0.35726204  0.08444310  0.34763773  1
  S2-  S169  1  0.38673714  0.04993702  0.84258600  1
  S2-  S170  1  0.40223534  0.27676868  0.30357247  1
  S2-  S171  1  0.50808898  0.26228114  0.85994525  1
  S2-  S172  1  0.36957150  0.49860207  0.33847925  1
  S2-  S173  1  0.38666509  0.53093154  0.84652723  1
  S2-  S174  1  0.46961413  0.74716545  0.35235294  1
  S2-  S175  1  0.37426427  0.80080119  0.84794629  1
  S2-  S176  1  0.61094417  0.09619963  0.35837402  1
  S2-  S177  1  0.61383523  0.02520489  0.84701861  1
  S2-  S178  1  0.59269776  0.33644768  0.35288259  1
  S2-  S179  1  0.73644100  0.24943271  0.84159694  1
  S2-  S180  1  0.59765254  0.58239498  0.34799698  1
  S2-  S181  1  0.62238971  0.50675005  0.83658822  1
  S2-  S182  1  0.73062263  0.75719982  0.35482688  1
  S2-  S183  1  0.67139272  0.77260448  0.84207569  1
  S2-  S184  1  0.84658778  -0.01264319  0.35516249  1
  S2-  S185  1  0.90258996  -0.09501989  0.86660471  1
  S2-  S186  1  0.78768767  0.22521166  0.34915110  1
  S2-  S187  1  0.91367919  0.32170720  0.79391972  1
  S2-  S188  1  0.75957294  0.45372832  0.35242782  1
  S2-  S189  1  0.81954645  0.48779364  0.83271154  1
  S2-  S190  1  0.87305402  0.60971066  0.35915396  1
  S2-  S191  1  0.88713047  0.67398550  0.85132321  1
  S2-  S192  1  -0.01941582  0.09925988  0.45734124  1
  S2-  S193  1  0.01234650  0.13757559  0.95264731  1
  S2-  S194  1  -0.01741298  0.34977325  0.45597620  1
  S2-  S195  1  0.01392963  0.38283375  0.95217052  1
  S2-  S196  1  -0.01454771  0.60340867  0.46558471  1
  S2-  S197  1  0.02392849  0.64353639  0.96162566  1
  S2-  S198  1  -0.02374639  0.85633521  0.47044469  1
  S2-  S199  1  0.02367574  0.89448566  0.96925784  1
  S2-  S200  1  0.22523730  0.09726485  0.45326207  1
  S2-  S201  1  0.27150439  0.14310780  0.95111526  1
  S2-  S202  1  0.22815137  0.35612809  0.45384066  1
  S2-  S203  1  0.27210679  0.38958306  0.95593227  1
  S2-  S204  1  0.22744400  0.60486412  0.45121318  1
  S2-  S205  1  0.26777112  0.63819448  0.95098980  1
  S2-  S206  1  0.22629909  0.84986366  0.44959268  1
  S2-  S207  1  0.26997476  0.89297667  0.95720860  1
  S2-  S208  1  0.47760413  0.10338364  0.45172009  1
  S2-  S209  1  0.51800367  0.13865715  0.95775827  1
  S2-  S210  1  0.47476261  0.35022864  0.44949662  1
  S2-  S211  1  0.51795108  0.39314379  0.95869844  1
  S2-  S212  1  0.47371475  0.60000718  0.45129327  1
  S2-  S213  1  0.52000790  0.63694522  0.95166322  1
  S2-  S214  1  0.48045641  0.85602399  0.45240853  1
  S2-  S215  1  0.51937129  0.89024723  0.95262676  1
  S2-  S216  1  0.73243194  0.10046543  0.46407158  1
  S2-  S217  1  0.77533034  0.13929517  0.94896170  1
  S2-  S218  1  0.73421051  0.35029624  0.46319542  1
  S2-  S219  1  0.77634868  0.38481632  0.94227901  1
  S2-  S220  1  0.73039338  0.60081869  0.46023751  1
  S2-  S221  1  0.77069817  0.64036435  0.95990800  1
  S2-  S222  1  0.72936414  0.85671154  0.45999645  1
  S2-  S223  1  0.76773230  0.89130045  0.96796184  1
  S2-  S224  1  0.14509793  0.01974755  0.05207638  1
  S2-  S225  1  0.10790795  -0.02410228  0.55041239  1
  S2-  S226  1  0.14452345  0.26768044  0.04526207  1
  S2-  S227  1  0.10610957  0.22640981  0.54668399  1
  S2-  S228  1  0.14407512  0.51152934  0.05082781  1
  S2-  S229  1  0.10706517  0.47320959  0.54667642  1
  S2-  S230  1  0.14743851  0.76801304  0.05351991  1
  S2-  S231  1  0.10386757  0.73433630  0.54361347  1
  S2-  S232  1  0.39495598  0.01865209  0.04830370  1
  S2-  S233  1  0.34991480  -0.02488599  0.53277296  1
  S2-  S234  1  0.39613827  0.26539945  0.04329933  1
  S2-  S235  1  0.35048722  0.22701800  0.52875078  1
  S2-  S236  1  0.39452941  0.51706550  0.04730109  1
  S2-  S237  1  0.35087842  0.48011017  0.53977694  1
  S2-  S238  1  0.39382491  0.76428201  0.05021868  1
  S2-  S239  1  0.35175871  0.72357665  0.53490912  1
  S2-  S240  1  0.64362315  0.01614923  0.05306825  1
  S2-  S241  1  0.60231080  -0.02141017  0.53942805  1
  S2-  S242  1  0.64380208  0.26360856  0.03860273  1
  S2-  S243  1  0.60433566  0.22841875  0.54052308  1
  S2-  S244  1  0.64365232  0.51293440  0.04421651  1
  S2-  S245  1  0.60357036  0.47661613  0.53842125  1
  S2-  S246  1  0.63765912  0.76498087  0.04712533  1
  S2-  S247  1  0.60027427  0.72410147  0.53455509  1
  S2-  S248  1  0.89149036  0.02028970  0.04791773  1
  S2-  S249  1  0.85046005  -0.01842763  0.55800674  1
  S2-  S250  1  0.88831352  0.26633859  0.04485192  1
  S2-  S251  1  0.85628070  0.22695278  0.54800647  1
  S2-  S252  1  0.89429816  0.51333480  0.04032826  1
  S2-  S253  1  0.85327421  0.47730939  0.55115655  1
  S2-  S254  1  0.89657893  0.77074477  0.04855742  1
  S2-  S255  1  0.84605901  0.72302101  0.54561581  1
