# generated using pymatgen
data_La6Ce7Pr13Nd19Sm19(BiS2)64
_symmetry_space_group_name_H-M   'P 1'
_cell_length_a   16.08733954
_cell_length_b   16.09406945
_cell_length_c   27.36241848
_cell_angle_alpha   89.83772535
_cell_angle_beta   90.06616823
_cell_angle_gamma   89.97783902
_symmetry_Int_Tables_number   1
_chemical_formula_structural   La6Ce7Pr13Nd19Sm19(BiS2)64
_chemical_formula_sum   'La6 Ce7 Pr13 Nd19 Sm19 Bi64 S128'
_cell_volume   7084.39087931
_cell_formula_units_Z   1
loop_
 _symmetry_equiv_pos_site_id
 _symmetry_equiv_pos_as_xyz
  1  'x, y, z'
loop_
 _atom_type_symbol
 _atom_type_oxidation_number
  La3+  3.0
  Ce3+  3.0
  Pr3+  3.0
  Nd3+  3.0
  Sm3+  3.0
  Bi2+  2.0
  S2-  -2.0
loop_
 _atom_site_type_symbol
 _atom_site_label
 _atom_site_symmetry_multiplicity
 _atom_site_fract_x
 _atom_site_fract_y
 _atom_site_fract_z
 _atom_site_occupancy
  La3+  La0  1  0.37479372  0.25936289  0.91380022  1
  La3+  La1  1  0.23675890  0.37355685  0.59975104  1
  La3+  La2  1  0.12821320  -0.00124389  0.89760525  1
  La3+  La3  1  0.50803073  0.36550990  0.59102323  1
  La3+  La4  1  0.25699239  0.13561657  0.06418590  1
  La3+  La5  1  0.64197162  0.50393653  0.89425682  1
  Ce3+  Ce6  1  0.11856671  0.49549416  0.43766642  1
  Ce3+  Ce7  1  0.62600078  0.00396466  0.93261627  1
  Ce3+  Ce8  1  0.37595141  0.49378903  0.44230938  1
  Ce3+  Ce9  1  0.25052444  0.61432975  0.55834867  1
  Ce3+  Ce10  1  0.87555840  0.00111822  0.42937784  1
  Ce3+  Ce11  1  0.62203609  0.74583189  0.44191452  1
  Ce3+  Ce12  1  0.87370779  0.74355367  0.43704942  1
  Pr3+  Pr13  1  0.61981384  -0.00340942  0.44365495  1
  Pr3+  Pr14  1  0.12480469  0.25347449  0.92909766  1
  Pr3+  Pr15  1  0.24785561  0.86883866  0.56642618  1
  Pr3+  Pr16  1  0.00787577  0.12836098  0.05978732  1
  Pr3+  Pr17  1  0.75789454  0.88177139  0.07110578  1
  Pr3+  Pr18  1  0.63360024  0.25746068  0.93455679  1
  Pr3+  Pr19  1  0.50802447  0.88174630  0.07268011  1
  Pr3+  Pr20  1  0.75576663  0.38065622  0.06259480  1
  Pr3+  Pr21  1  0.00719836  0.37342203  0.06801851  1
  Pr3+  Pr22  1  0.50804690  0.62676099  0.06312951  1
  Pr3+  Pr23  1  0.61606874  0.49753111  0.42951958  1
  Pr3+  Pr24  1  0.88391681  0.50761481  0.93835355  1
  Pr3+  Pr25  1  0.86718891  0.50436440  0.38099681  1
  Nd3+  Nd26  1  0.88511834  0.25455953  0.93463272  1
  Nd3+  Nd27  1  0.38073148  0.76079345  0.94765551  1
  Nd3+  Nd28  1  -0.00488400  0.87104038  0.55634270  1
  Nd3+  Nd29  1  0.37919695  0.00511781  0.93982876  1
  Nd3+  Nd30  1  0.74818364  0.87186388  0.54949685  1
  Nd3+  Nd31  1  0.37023219  0.74911896  0.43877449  1
  Nd3+  Nd32  1  -0.00229419  0.12290232  0.56041947  1
  Nd3+  Nd33  1  0.50576958  0.13150507  0.05257085  1
  Nd3+  Nd34  1  0.49747588  0.86954865  0.56435761  1
  Nd3+  Nd35  1  0.88252121  0.75766710  0.94778406  1
  Nd3+  Nd36  1  0.61917688  0.24723088  0.43304287  1
  Nd3+  Nd37  1  0.88041494  0.00087503  0.93877135  1
  Nd3+  Nd38  1  0.49740511  0.61708414  0.56105844  1
  Nd3+  Nd39  1  0.13212759  0.50645839  0.94312608  1
  Nd3+  Nd40  1  -0.00427851  0.61643127  0.55792346  1
  Nd3+  Nd41  1  0.62992722  0.75475908  0.94068835  1
  Nd3+  Nd42  1  0.38273997  0.50837889  0.93432051  1
  Nd3+  Nd43  1  0.25922934  0.37834333  0.05748121  1
  Nd3+  Nd44  1  0.00937926  0.62432001  0.06580100  1
  Sm3+  Sm45  1  0.50817670  0.38154226  0.04854211  1
  Sm3+  Sm46  1  0.13253201  0.76171682  0.94866417  1
  Sm3+  Sm47  1  0.87192466  0.24846641  0.43193514  1
  Sm3+  Sm48  1  0.75609573  0.62891855  0.05826884  1
  Sm3+  Sm49  1  0.36976873  0.24879945  0.45268906  1
  Sm3+  Sm50  1  0.24619161  0.12036874  0.56434961  1
  Sm3+  Sm51  1  0.49596864  0.12499057  0.56116916  1
  Sm3+  Sm52  1  0.12313116  -0.00204628  0.44164526  1
  Sm3+  Sm53  1  0.25784509  0.88421666  0.07801899  1
  Sm3+  Sm54  1  0.12306389  0.74617092  0.44981419  1
  Sm3+  Sm55  1  0.25905094  0.63027637  0.05667533  1
  Sm3+  Sm56  1  -0.00513500  0.37047142  0.55555073  1
  Sm3+  Sm57  1  0.74687280  0.61591812  0.55416013  1
  Sm3+  Sm58  1  0.12463954  0.24749817  0.44552398  1
  Sm3+  Sm59  1  0.37070466  -0.00113560  0.44844348  1
  Sm3+  Sm60  1  0.75500400  0.12804342  0.05110421  1
  Sm3+  Sm61  1  0.01095977  0.87869237  0.07194975  1
  Sm3+  Sm62  1  0.74550175  0.37104970  0.55138450  1
  Sm3+  Sm63  1  0.74710372  0.12267493  0.55392591  1
  Bi2+  Bi64  1  0.01691261  0.08267886  0.30828178  1
  Bi2+  Bi65  1  -0.13365523  0.17779613  0.81047349  1
  Bi2+  Bi66  1  0.02791665  0.34964445  0.28312180  1
  Bi2+  Bi67  1  -0.01386351  0.38061306  0.74128326  1
  Bi2+  Bi68  1  0.04701130  0.64211962  0.29812028  1
  Bi2+  Bi69  1  -0.03134451  0.63656330  0.78744175  1
  Bi2+  Bi70  1  -0.04908746  0.89762215  0.31217411  1
  Bi2+  Bi71  1  0.01006348  0.83332407  0.79380026  1
  Bi2+  Bi72  1  0.24039135  0.17829765  0.29350013  1
  Bi2+  Bi73  1  0.27875720  0.11571792  0.78810176  1
  Bi2+  Bi74  1  0.30200502  0.38222561  0.30192002  1
  Bi2+  Bi75  1  0.23329364  0.39151073  0.79716678  1
  Bi2+  Bi76  1  0.23325131  0.56961376  0.29509475  1
  Bi2+  Bi77  1  0.22482168  0.59112890  0.80216594  1
  Bi2+  Bi78  1  0.19301473  0.88158756  0.29030567  1
  Bi2+  Bi79  1  0.28093001  0.85785373  0.78766827  1
  Bi2+  Bi80  1  0.47711719  0.10530967  0.30359079  1
  Bi2+  Bi81  1  0.51055364  0.05970140  0.76559026  1
  Bi2+  Bi82  1  0.47217765  0.35612681  0.24356137  1
  Bi2+  Bi83  1  0.49938680  0.35262184  0.78579505  1
  Bi2+  Bi84  1  0.49139920  0.61921544  0.29352215  1
  Bi2+  Bi85  1  0.48906580  0.66515449  0.78353652  1
  Bi2+  Bi86  1  0.51231945  0.85939377  0.31430344  1
  Bi2+  Bi87  1  0.53645419  0.84741335  0.81143458  1
  Bi2+  Bi88  1  0.74572425  0.08320507  0.28873479  1
  Bi2+  Bi89  1  0.67869272  0.11784103  0.81573380  1
  Bi2+  Bi90  1  0.75495506  0.36729855  0.27815304  1
  Bi2+  Bi91  1  0.78378850  0.37023275  0.78475610  1
  Bi2+  Bi92  1  0.74152613  0.62878717  0.28403239  1
  Bi2+  Bi93  1  0.76628673  0.64769671  0.78832737  1
  Bi2+  Bi94  1  0.76307530  0.88479035  0.27488480  1
  Bi2+  Bi95  1  0.72984124  0.92268750  0.82656723  1
  Bi2+  Bi96  1  0.07548623  -0.02785003  0.21527833  1
  Bi2+  Bi97  1  0.10489501  -0.01081205  0.70777714  1
  Bi2+  Bi98  1  0.13938257  0.16351042  0.19494575  1
  Bi2+  Bi99  1  0.11146457  0.22951994  0.70661701  1
  Bi2+  Bi100  1  0.17118200  0.42919547  0.21918838  1
  Bi2+  Bi101  1  0.10157070  0.55267776  0.71066150  1
  Bi2+  Bi102  1  0.14085317  0.70346171  0.20711174  1
  Bi2+  Bi103  1  0.16369836  0.73955970  0.72632472  1
  Bi2+  Bi104  1  0.38314793  -0.03720475  0.24483568  1
  Bi2+  Bi105  1  0.39911916  -0.06282148  0.70516421  1
  Bi2+  Bi106  1  0.36517671  0.19695562  0.19754697  1
  Bi2+  Bi107  1  0.38194956  0.23397790  0.70378655  1
  Bi2+  Bi108  1  0.35960716  0.50944448  0.21066450  1
  Bi2+  Bi109  1  0.36572844  0.55977833  0.72030723  1
  Bi2+  Bi110  1  0.31966808  0.78178638  0.22142394  1
  Bi2+  Bi111  1  0.34582455  0.74711637  0.68320015  1
  Bi2+  Bi112  1  0.62479018  0.01664861  0.20150182  1
  Bi2+  Bi113  1  0.68143466  -0.00206826  0.71274252  1
  Bi2+  Bi114  1  0.60935829  0.21017272  0.23785514  1
  Bi2+  Bi115  1  0.65897269  0.24215086  0.70959032  1
  Bi2+  Bi116  1  0.62740350  0.52253170  0.18267213  1
  Bi2+  Bi117  1  0.63411195  0.50969359  0.70340522  1
  Bi2+  Bi118  1  0.60145639  0.77439780  0.22876626  1
  Bi2+  Bi119  1  0.67707037  0.79873379  0.73412044  1
  Bi2+  Bi120  1  0.88245116  0.03403065  0.19713461  1
  Bi2+  Bi121  1  0.87775264  -0.00799046  0.76367490  1
  Bi2+  Bi122  1  0.92946731  0.21580019  0.22834735  1
  Bi2+  Bi123  1  0.85411337  0.25192670  0.70085216  1
  Bi2+  Bi124  1  0.88144762  0.52028339  0.17756867  1
  Bi2+  Bi125  1  0.86462488  0.52584380  0.70668912  1
  Bi2+  Bi126  1  0.90273202  0.77691757  0.22540588  1
  Bi2+  Bi127  1  0.88418334  0.79704656  0.70591638  1
  S2-  S128  1  0.00453443  0.24040092  0.13876009  1
  S2-  S129  1  0.01329233  0.11419425  0.65883746  1
  S2-  S130  1  0.02973763  0.46449947  0.15341525  1
  S2-  S131  1  0.06618005  0.36409048  0.64454633  1
  S2-  S132  1  -0.01664737  0.66564050  0.16080110  1
  S2-  S133  1  -0.02253187  0.63300131  0.65559414  1
  S2-  S134  1  -0.11439807  0.87822673  0.14382396  1
  S2-  S135  1  0.00303883  0.87847503  0.65474520  1
  S2-  S136  1  0.26914390  0.06737717  0.15886395  1
  S2-  S137  1  0.24450064  0.15245519  0.66020159  1
  S2-  S138  1  0.25506388  0.27938438  0.13875288  1
  S2-  S139  1  0.24651330  0.33871428  0.70209797  1
  S2-  S140  1  0.28270213  0.63754319  0.15335421  1
  S2-  S141  1  0.24540392  0.53433349  0.64508832  1
  S2-  S142  1  0.13088228  0.85861086  0.14732554  1
  S2-  S143  1  0.23319273  0.94100058  0.65701890  1
  S2-  S144  1  0.51479451  0.13276441  0.15177957  1
  S2-  S145  1  0.52052540  0.19753953  0.64767007  1
  S2-  S146  1  0.50582782  0.41295776  0.14506947  1
  S2-  S147  1  0.44335042  0.38488690  0.68567187  1
  S2-  S148  1  0.53188021  0.65118806  0.16289385  1
  S2-  S149  1  0.51207313  0.57999672  0.65750443  1
  S2-  S150  1  0.38711166  0.87907889  0.14878830  1
  S2-  S151  1  0.50149679  0.81808841  0.65815270  1
  S2-  S152  1  0.75194724  0.10781498  0.14784504  1
  S2-  S153  1  0.75572090  0.12639926  0.65159396  1
  S2-  S154  1  0.75625310  0.39411942  0.16410550  1
  S2-  S155  1  0.66717327  0.37370317  0.64026000  1
  S2-  S156  1  0.74947130  0.63640358  0.15692365  1
  S2-  S157  1  0.73417825  0.60982016  0.65265064  1
  S2-  S158  1  0.63510035  0.87931422  0.14521966  1
  S2-  S159  1  0.75784727  0.87236116  0.64741261  1
  S2-  S160  1  0.17401042  0.03037955  0.34984532  1
  S2-  S161  1  0.12453968  0.07297391  0.79704330  1
  S2-  S162  1  0.11030314  0.25713013  0.34715900  1
  S2-  S163  1  0.23086834  0.25021590  0.84849788  1
  S2-  S164  1  0.03828310  0.49310077  0.35057398  1
  S2-  S165  1  0.10525360  0.48239627  0.84688498  1
  S2-  S166  1  0.13965860  0.75705978  0.35269533  1
  S2-  S167  1  0.13993799  0.83214241  0.85949262  1
  S2-  S168  1  0.38890840  -0.03063604  0.35319436  1
  S2-  S169  1  0.28941448  -0.00800204  0.85321212  1
  S2-  S170  1  0.38197949  0.21359019  0.35550302  1
  S2-  S171  1  0.43496005  0.20034497  0.82024845  1
  S2-  S172  1  0.47635362  0.50181626  0.36018883  1
  S2-  S173  1  0.38024434  0.41201061  0.85116917  1
  S2-  S174  1  0.39516551  0.73395502  0.34061307  1
  S2-  S175  1  0.38210186  0.75279125  0.84757880  1
  S2-  S176  1  0.61149187  0.00606603  0.34434464  1
  S2-  S177  1  0.50139369  -0.01189571  0.86305240  1
  S2-  S178  1  0.64416511  0.26740764  0.33505823  1
  S2-  S179  1  0.64033460  0.33923130  0.84587227  1
  S2-  S180  1  0.70199680  0.49206023  0.34060415  1
  S2-  S181  1  0.55756897  0.50788593  0.80058698  1
  S2-  S182  1  0.62327461  0.70806497  0.34696816  1
  S2-  S183  1  0.63579713  0.67041521  0.85391148  1
  S2-  S184  1  0.86847098  0.12268498  0.35868807  1
  S2-  S185  1  0.96391758  -0.02215178  0.85311384  1
  S2-  S186  1  0.87319933  0.33746349  0.34611341  1
  S2-  S187  1  0.99224587  0.26267719  0.85731486  1
  S2-  S188  1  0.86085293  0.50817559  0.27194170  1
  S2-  S189  1  0.80302552  0.50207724  0.84953776  1
  S2-  S190  1  0.87095949  0.67469200  0.34767166  1
  S2-  S191  1  0.87917712  0.74416581  0.84859593  1
  S2-  S192  1  0.00198503  0.12352328  0.45504637  1
  S2-  S193  1  0.00846853  0.12027526  0.95334075  1
  S2-  S194  1  -0.00197644  0.36605767  0.45405686  1
  S2-  S195  1  0.00615984  0.38453471  0.96016314  1
  S2-  S196  1  -0.00061365  0.62319789  0.45345213  1
  S2-  S197  1  0.00947380  0.63385255  0.95556427  1
  S2-  S198  1  0.00044663  0.87214813  0.45080171  1
  S2-  S199  1  0.00781988  0.87937151  0.96551770  1
  S2-  S200  1  0.24762926  0.12162737  0.45958160  1
  S2-  S201  1  0.25176570  0.12659271  0.95205584  1
  S2-  S202  1  0.24726414  0.37106009  0.44822070  1
  S2-  S203  1  0.25534522  0.38416342  0.95331617  1
  S2-  S204  1  0.24776894  0.62139066  0.45180372  1
  S2-  S205  1  0.25582243  0.63348778  0.95182945  1
  S2-  S206  1  0.24611351  0.87435976  0.45832518  1
  S2-  S207  1  0.25535939  0.88057117  0.96685637  1
  S2-  S208  1  0.49406099  0.12237130  0.45769889  1
  S2-  S209  1  0.50453413  0.13777861  0.94805525  1
  S2-  S210  1  0.49601348  0.36536480  0.45628096  1
  S2-  S211  1  0.51408331  0.39008459  0.94623852  1
  S2-  S212  1  0.49463709  0.62688437  0.45696989  1
  S2-  S213  1  0.50402098  0.63097691  0.95445103  1
  S2-  S214  1  0.49462085  0.87209756  0.45807221  1
  S2-  S215  1  0.50759024  0.87728406  0.96462458  1
  S2-  S216  1  0.74354253  0.12306681  0.45157431  1
  S2-  S217  1  0.75792776  0.12916246  0.94729618  1
  S2-  S218  1  0.74525704  0.36894267  0.44965362  1
  S2-  S219  1  0.76055550  0.38068944  0.95438288  1
  S2-  S220  1  0.74829692  0.61820855  0.45061769  1
  S2-  S221  1  0.75753096  0.63021898  0.95468815  1
  S2-  S222  1  0.74917670  0.87296448  0.44292799  1
  S2-  S223  1  0.75467795  0.87854939  0.96049856  1
  S2-  S224  1  0.13153625  0.00437917  0.05825208  1
  S2-  S225  1  0.12183949  -0.00288187  0.54670450  1
  S2-  S226  1  0.13123250  0.25682415  0.03615877  1
  S2-  S227  1  0.12597461  0.24650958  0.54880678  1
  S2-  S228  1  0.13747012  0.50543191  0.04881288  1
  S2-  S229  1  0.12094852  0.49231141  0.54366119  1
  S2-  S230  1  0.13387074  0.74880695  0.05025529  1
  S2-  S231  1  0.12213950  0.74312642  0.55456864  1
  S2-  S232  1  0.38266489  0.00645215  0.04641328  1
  S2-  S233  1  0.37382702  -0.00139658  0.55330828  1
  S2-  S234  1  0.38670236  0.26007512  0.03520502  1
  S2-  S235  1  0.36749095  0.24949798  0.55654949  1
  S2-  S236  1  0.38114499  0.50455932  0.04177526  1
  S2-  S237  1  0.37606723  0.48695405  0.55009032  1
  S2-  S238  1  0.38083655  0.75304509  0.05148272  1
  S2-  S239  1  0.37272945  0.74489804  0.54565396  1
  S2-  S240  1  0.63131908  0.00807983  0.04034169  1
  S2-  S241  1  0.62018465  -0.00088780  0.55162956  1
  S2-  S242  1  0.63196569  0.25580885  0.04406066  1
  S2-  S243  1  0.62319216  0.24356954  0.54018428  1
  S2-  S244  1  0.63353203  0.50542627  0.04704722  1
  S2-  S245  1  0.62149963  0.49520797  0.53985011  1
  S2-  S246  1  0.63390115  0.75126986  0.04657398  1
  S2-  S247  1  0.62413563  0.74455377  0.54869939  1
  S2-  S248  1  0.88058020  0.00684520  0.04442897  1
  S2-  S249  1  0.87227589  -0.00117876  0.54061758  1
  S2-  S250  1  0.87649298  0.25216891  0.04098289  1
  S2-  S251  1  0.87063474  0.24677188  0.54301075  1
  S2-  S252  1  0.88186345  0.50526901  0.04588751  1
  S2-  S253  1  0.87035616  0.49142632  0.55385939  1
  S2-  S254  1  0.88280188  0.74961924  0.05066071  1
  S2-  S255  1  0.87057460  0.74369213  0.54452226  1
