# generated using pymatgen
data_La6Ce7Pr13Nd19Sm19(BiS2)64
_symmetry_space_group_name_H-M   'P 1'
_cell_length_a   16.12308374
_cell_length_b   16.13140213
_cell_length_c   27.21637593
_cell_angle_alpha   89.89940393
_cell_angle_beta   90.02655115
_cell_angle_gamma   90.04266412
_symmetry_Int_Tables_number   1
_chemical_formula_structural   La6Ce7Pr13Nd19Sm19(BiS2)64
_chemical_formula_sum   'La6 Ce7 Pr13 Nd19 Sm19 Bi64 S128'
_cell_volume   7078.63772272
_cell_formula_units_Z   1
loop_
 _symmetry_equiv_pos_site_id
 _symmetry_equiv_pos_as_xyz
  1  'x, y, z'
loop_
 _atom_type_symbol
 _atom_type_oxidation_number
  La3+  3.0
  Ce3+  3.0
  Pr3+  3.0
  Nd3+  3.0
  Sm3+  3.0
  Bi2+  2.0
  S2-  -2.0
loop_
 _atom_site_type_symbol
 _atom_site_label
 _atom_site_symmetry_multiplicity
 _atom_site_fract_x
 _atom_site_fract_y
 _atom_site_fract_z
 _atom_site_occupancy
  La3+  La0  1  0.74906461  0.62230731  0.06775597  1
  La3+  La1  1  0.86141086  0.75118509  0.91556803  1
  La3+  La2  1  0.37650654  0.26389525  0.42731572  1
  La3+  La3  1  0.11894395  0.23729797  0.93012903  1
  La3+  La4  1  0.75880942  0.36715737  0.10850680  1
  La3+  La5  1  0.12083904  0.01286830  0.38163456  1
  Ce3+  Ce6  1  0.74267548  0.64323023  0.58262722  1
  Ce3+  Ce7  1  0.25422181  0.88509792  0.55314007  1
  Ce3+  Ce8  1  0.50627792  0.62986331  0.55744073  1
  Ce3+  Ce9  1  0.86692194  0.24701318  0.93769158  1
  Ce3+  Ce10  1  0.50393720  0.12991258  0.55127549  1
  Ce3+  Ce11  1  0.49537499  0.12138756  0.05901607  1
  Ce3+  Ce12  1  0.12717071  0.50768040  0.43663269  1
  Pr3+  Pr13  1  0.36686417  -0.00704571  0.93705821  1
  Pr3+  Pr14  1  0.75646588  0.38039054  0.57652861  1
  Pr3+  Pr15  1  0.00593044  0.13154506  0.55908243  1
  Pr3+  Pr16  1  0.23554598  0.86087397  0.08336013  1
  Pr3+  Pr17  1  0.49162225  0.87010460  0.05786823  1
  Pr3+  Pr18  1  0.49450083  0.61815544  0.06675911  1
  Pr3+  Pr19  1  0.61851493  0.49383045  0.94354072  1
  Pr3+  Pr20  1  -0.00997937  0.86732812  0.06330024  1
  Pr3+  Pr21  1  0.12174915  0.48839323  0.92380308  1
  Pr3+  Pr22  1  0.12987502  0.75916334  0.43177192  1
  Pr3+  Pr23  1  0.49506173  0.36562624  0.06988764  1
  Pr3+  Pr24  1  0.50585500  0.37678324  0.56550476  1
  Pr3+  Pr25  1  -0.00644152  0.11966765  0.05781496  1
  Nd3+  Nd26  1  0.24591482  0.11283949  0.06821083  1
  Nd3+  Nd27  1  0.86764669  0.49546418  0.93545636  1
  Nd3+  Nd28  1  0.87807037  0.75742758  0.44251389  1
  Nd3+  Nd29  1  0.64153800  0.51153603  0.42987898  1
  Nd3+  Nd30  1  0.61887026  0.24875599  0.93969565  1
  Nd3+  Nd31  1  0.86530947  -0.00793366  0.93810326  1
  Nd3+  Nd32  1  0.61841887  -0.00599102  0.94293215  1
  Nd3+  Nd33  1  0.01385220  0.38206414  0.57345574  1
  Nd3+  Nd34  1  0.00284817  0.63278957  0.56314541  1
  Nd3+  Nd35  1  0.61583594  0.74118376  0.94022567  1
  Nd3+  Nd36  1  0.25466254  0.63347159  0.55667108  1
  Nd3+  Nd37  1  0.12327884  0.26557130  0.43313360  1
  Nd3+  Nd38  1  0.62987080  0.26597440  0.43544458  1
  Nd3+  Nd39  1  0.62841843  0.00885970  0.42672532  1
  Nd3+  Nd40  1  0.87856628  0.26014743  0.44485616  1
  Nd3+  Nd41  1  0.36968127  0.24388482  0.94209239  1
  Nd3+  Nd42  1  0.37873615  0.00964332  0.42422434  1
  Nd3+  Nd43  1  0.75318915  0.13078475  0.55618899  1
  Nd3+  Nd44  1  0.23819796  0.61801843  0.06376850  1
  Sm3+  Sm45  1  0.63015240  0.75584063  0.43594950  1
  Sm3+  Sm46  1  0.11757697  0.74496126  0.93967288  1
  Sm3+  Sm47  1  0.38048200  0.50494283  0.44314643  1
  Sm3+  Sm48  1  0.36471898  0.74385765  0.94500771  1
  Sm3+  Sm49  1  0.24009561  0.36726994  0.05722069  1
  Sm3+  Sm50  1  -0.00564969  0.36869515  0.05582906  1
  Sm3+  Sm51  1  0.36875126  0.49493007  0.95161656  1
  Sm3+  Sm52  1  0.75192749  0.88102460  0.55582000  1
  Sm3+  Sm53  1  0.38042908  0.75847800  0.44415518  1
  Sm3+  Sm54  1  0.25341906  0.37905457  0.56189261  1
  Sm3+  Sm55  1  0.50286185  0.88522284  0.55378482  1
  Sm3+  Sm56  1  0.87561671  0.50955440  0.45423326  1
  Sm3+  Sm57  1  0.25275509  0.13044468  0.54727211  1
  Sm3+  Sm58  1  0.74437085  0.12310418  0.05608972  1
  Sm3+  Sm59  1  0.11922821  -0.00792155  0.93572659  1
  Sm3+  Sm60  1  0.88202031  0.00769226  0.44298601  1
  Sm3+  Sm61  1  -0.00957861  0.61743799  0.04634734  1
  Sm3+  Sm62  1  0.00569932  0.88212694  0.55754746  1
  Sm3+  Sm63  1  0.74368701  0.86838043  0.06341793  1
  Bi2+  Bi64  1  -0.00104655  0.16202941  0.29417567  1
  Bi2+  Bi65  1  -0.02606088  0.10498926  0.79257388  1
  Bi2+  Bi66  1  -0.02585127  0.40334122  0.23988007  1
  Bi2+  Bi67  1  0.01754446  0.38635374  0.78733244  1
  Bi2+  Bi68  1  0.00784295  0.57670541  0.30138767  1
  Bi2+  Bi69  1  0.03552792  0.66178344  0.77070458  1
  Bi2+  Bi70  1  -0.06020574  0.87442927  0.28651400  1
  Bi2+  Bi71  1  0.00816072  0.91407582  0.78764059  1
  Bi2+  Bi72  1  0.26491746  0.13049658  0.27843158  1
  Bi2+  Bi73  1  0.25496987  0.11475344  0.79333212  1
  Bi2+  Bi74  1  0.22970403  0.39948411  0.29339245  1
  Bi2+  Bi75  1  0.28021349  0.37259532  0.78985976  1
  Bi2+  Bi76  1  0.19444592  0.61190048  0.32179664  1
  Bi2+  Bi77  1  0.28850209  0.61103165  0.80584385  1
  Bi2+  Bi78  1  0.24808676  0.84853503  0.28403450  1
  Bi2+  Bi79  1  0.28804968  0.91917276  0.81804757  1
  Bi2+  Bi80  1  0.53840699  0.06010160  0.25344137  1
  Bi2+  Bi81  1  0.46457768  0.09728241  0.74564163  1
  Bi2+  Bi82  1  0.48855095  0.32534413  0.30010955  1
  Bi2+  Bi83  1  0.51059288  0.37634951  0.81162553  1
  Bi2+  Bi84  1  0.47697820  0.66060411  0.30147497  1
  Bi2+  Bi85  1  0.50667691  0.62146780  0.78543372  1
  Bi2+  Bi86  1  0.53985202  0.84836848  0.31202226  1
  Bi2+  Bi87  1  0.46049771  0.84460621  0.77597139  1
  Bi2+  Bi88  1  0.72253540  0.07879453  0.29984205  1
  Bi2+  Bi89  1  0.76923822  0.08685317  0.78871391  1
  Bi2+  Bi90  1  0.74956120  0.36589355  0.31552447  1
  Bi2+  Bi91  1  0.76854319  0.35004939  0.79663650  1
  Bi2+  Bi92  1  0.75644754  0.68624371  0.29344730  1
  Bi2+  Bi93  1  0.74856459  0.62044489  0.79606499  1
  Bi2+  Bi94  1  0.73491381  0.88316630  0.31493396  1
  Bi2+  Bi95  1  0.73288199  0.88605365  0.78601036  1
  Bi2+  Bi96  1  0.12062967  0.02640107  0.17695314  1
  Bi2+  Bi97  1  0.17379816  -0.02260591  0.72690857  1
  Bi2+  Bi98  1  0.11752636  0.28108048  0.19384027  1
  Bi2+  Bi99  1  0.15343622  0.23619421  0.70658658  1
  Bi2+  Bi100  1  0.13849665  0.49028691  0.19708761  1
  Bi2+  Bi101  1  0.17909930  0.49180749  0.71973233  1
  Bi2+  Bi102  1  0.11489220  0.67811610  0.22176845  1
  Bi2+  Bi103  1  0.20294659  0.76834709  0.75907724  1
  Bi2+  Bi104  1  0.39898627  -0.07368527  0.22654504  1
  Bi2+  Bi105  1  0.37614462  -0.04747891  0.68598908  1
  Bi2+  Bi106  1  0.38602633  0.28835574  0.20478541  1
  Bi2+  Bi107  1  0.35153298  0.24914422  0.71094357  1
  Bi2+  Bi108  1  0.34063906  0.54429553  0.25184251  1
  Bi2+  Bi109  1  0.37317176  0.52621163  0.71106942  1
  Bi2+  Bi110  1  0.38896607  0.71363693  0.20080820  1
  Bi2+  Bi111  1  0.37313965  0.72312655  0.69803769  1
  Bi2+  Bi112  1  0.68821296  -0.02039368  0.19157740  1
  Bi2+  Bi113  1  0.63502805  0.01255161  0.71458971  1
  Bi2+  Bi114  1  0.61530532  0.22754617  0.20763181  1
  Bi2+  Bi115  1  0.61694118  0.25820171  0.69982380  1
  Bi2+  Bi116  1  0.60897235  0.50891843  0.21724348  1
  Bi2+  Bi117  1  0.63189303  0.50391247  0.70662963  1
  Bi2+  Bi118  1  0.64719163  0.79142421  0.21588110  1
  Bi2+  Bi119  1  0.60258393  0.74961650  0.72049768  1
  Bi2+  Bi120  1  0.88587788  -0.02653047  0.18942769  1
  Bi2+  Bi121  1  0.88407505  -0.00572547  0.70948605  1
  Bi2+  Bi122  1  0.85161423  0.15790772  0.22709869  1
  Bi2+  Bi123  1  0.89163781  0.21311583  0.70779955  1
  Bi2+  Bi124  1  0.86489679  0.57236502  0.22323679  1
  Bi2+  Bi125  1  0.92759705  0.50357610  0.71577621  1
  Bi2+  Bi126  1  0.90935429  0.77780718  0.19022555  1
  Bi2+  Bi127  1  0.87735409  0.75104247  0.69412710  1
  S2-  S128  1  0.01076228  0.16486820  0.15512510  1
  S2-  S129  1  0.02499354  0.15241845  0.65894983  1
  S2-  S130  1  -0.07531181  0.37415296  0.14523445  1
  S2-  S131  1  -0.06664513  0.36700034  0.66253451  1
  S2-  S132  1  -0.02903640  0.63306319  0.14340065  1
  S2-  S133  1  0.00946086  0.64132809  0.66299534  1
  S2-  S134  1  0.09090924  0.87533474  0.14583561  1
  S2-  S135  1  -0.02456853  0.87207437  0.65540985  1
  S2-  S136  1  0.23283398  0.17110393  0.16418730  1
  S2-  S137  1  0.26037772  0.14931559  0.64665604  1
  S2-  S138  1  0.25886204  0.38047054  0.15466779  1
  S2-  S139  1  0.15183187  0.37904461  0.64183196  1
  S2-  S140  1  0.23985132  0.71558105  0.14701930  1
  S2-  S141  1  0.24379240  0.61980266  0.65489381  1
  S2-  S142  1  0.28234732  0.97780750  0.15240809  1
  S2-  S143  1  0.22871252  0.87335095  0.64981664  1
  S2-  S144  1  0.47373399  0.16074570  0.15267840  1
  S2-  S145  1  0.50808624  0.18346682  0.64410572  1
  S2-  S146  1  0.49401491  0.39998143  0.16957362  1
  S2-  S147  1  0.52463211  0.39916877  0.66620312  1
  S2-  S148  1  0.53479976  0.61612618  0.16501498  1
  S2-  S149  1  0.58789225  0.63926062  0.64325155  1
  S2-  S150  1  0.49519989  0.84150071  0.15691995  1
  S2-  S151  1  0.53871396  0.92619370  0.64722617  1
  S2-  S152  1  0.74890754  0.19805393  0.14512050  1
  S2-  S153  1  0.74599888  0.17555601  0.65191091  1
  S2-  S154  1  0.70748863  0.36126733  0.21326824  1
  S2-  S155  1  0.73035399  0.38498603  0.67941331  1
  S2-  S156  1  0.74232418  0.52740900  0.15272111  1
  S2-  S157  1  0.79651180  0.59587349  0.67656572  1
  S2-  S158  1  0.75670224  0.75639546  0.13823089  1
  S2-  S159  1  0.74900021  0.79773646  0.64199122  1
  S2-  S160  1  0.11312680  0.03390474  0.27229013  1
  S2-  S161  1  0.11986061  0.10396253  0.85806289  1
  S2-  S162  1  0.14162146  0.18228531  0.34539966  1
  S2-  S163  1  0.13683477  0.34875327  0.85275452  1
  S2-  S164  1  0.11218928  0.39597645  0.36245734  1
  S2-  S165  1  0.05962830  0.53666539  0.83221822  1
  S2-  S166  1  0.11899478  0.84367941  0.34317866  1
  S2-  S167  1  0.10221735  0.80151390  0.84746026  1
  S2-  S168  1  0.28368553  -0.00565943  0.33972893  1
  S2-  S169  1  0.40411595  0.04590886  0.84295155  1
  S2-  S170  1  0.38248407  0.19145708  0.33243428  1
  S2-  S171  1  0.40213844  0.27203875  0.84530032  1
  S2-  S172  1  0.37070222  0.40629817  0.36111332  1
  S2-  S173  1  0.38090256  0.48325788  0.85414596  1
  S2-  S174  1  0.36495662  0.77059710  0.34645245  1
  S2-  S175  1  0.41328484  0.72415558  0.85215285  1
  S2-  S176  1  0.50852189  0.00553816  0.35366522  1
  S2-  S177  1  0.64449573  -0.00607044  0.84487636  1
  S2-  S178  1  0.64322235  0.22560396  0.33838645  1
  S2-  S179  1  0.62700169  0.26603385  0.83903812  1
  S2-  S180  1  0.59398263  0.42566117  0.34395878  1
  S2-  S181  1  0.61268670  0.51527304  0.84258295  1
  S2-  S182  1  0.63164551  0.64610319  0.36037554  1
  S2-  S183  1  0.70072316  0.74716111  0.85425191  1
  S2-  S184  1  0.94554990  0.01721249  0.35178536  1
  S2-  S185  1  0.87428504  -0.10264453  0.85556518  1
  S2-  S186  1  0.89025384  0.27560420  0.34639869  1
  S2-  S187  1  0.89838429  0.27927772  0.84099522  1
  S2-  S188  1  0.79702891  0.49402987  0.36658580  1
  S2-  S189  1  0.83132939  0.48153834  0.83608210  1
  S2-  S190  1  0.90644404  0.73426124  0.34493283  1
  S2-  S191  1  0.89059794  0.68560608  0.81952625  1
  S2-  S192  1  0.00288975  0.13379870  0.45326860  1
  S2-  S193  1  -0.01168843  0.11502029  0.95184911  1
  S2-  S194  1  -0.00296482  0.38676488  0.46543893  1
  S2-  S195  1  -0.00636115  0.37046043  0.95053860  1
  S2-  S196  1  0.00222052  0.63272048  0.45554387  1
  S2-  S197  1  -0.00541256  0.62169311  0.94273492  1
  S2-  S198  1  0.00270164  0.88303379  0.45335748  1
  S2-  S199  1  -0.00229552  0.87201388  0.95591898  1
  S2-  S200  1  0.25223394  0.13336771  0.44591884  1
  S2-  S201  1  0.24636522  0.11733039  0.95860529  1
  S2-  S202  1  0.25105881  0.38639131  0.46004035  1
  S2-  S203  1  0.24817679  0.36967647  0.95429949  1
  S2-  S204  1  0.25886601  0.63204679  0.45128325  1
  S2-  S205  1  0.24190223  0.61874248  0.95463427  1
  S2-  S206  1  0.25676725  0.88071214  0.44919804  1
  S2-  S207  1  0.24125733  0.86742121  0.95583852  1
  S2-  S208  1  0.50715769  0.13892447  0.44757382  1
  S2-  S209  1  0.49639390  0.12126664  0.95271343  1
  S2-  S210  1  0.50722361  0.38697486  0.45892304  1
  S2-  S211  1  0.49138485  0.37005030  0.96123009  1
  S2-  S212  1  0.50085438  0.63063675  0.45389025  1
  S2-  S213  1  0.48991900  0.61946309  0.95915519  1
  S2-  S214  1  0.50562360  0.87913476  0.45083916  1
  S2-  S215  1  0.49247834  0.86736407  0.94991474  1
  S2-  S216  1  0.75509644  0.13109574  0.44938401  1
  S2-  S217  1  0.74249888  0.12029941  0.95054168  1
  S2-  S218  1  0.75494622  0.38167691  0.46724098  1
  S2-  S219  1  0.74382598  0.37061949  0.94687658  1
  S2-  S220  1  0.75526672  0.63753436  0.46655746  1
  S2-  S221  1  0.74351943  0.61869154  0.95560569  1
  S2-  S222  1  0.75375960  0.88365173  0.45099602  1
  S2-  S223  1  0.73864717  0.87023830  0.95933331  1
  S2-  S224  1  0.11927217  -0.00556690  0.04096972  1
  S2-  S225  1  0.12838517  0.00695889  0.55350371  1
  S2-  S226  1  0.11979232  0.24441700  0.04172897  1
  S2-  S227  1  0.13176259  0.25510202  0.54086154  1
  S2-  S228  1  0.11711893  0.49353641  0.03999081  1
  S2-  S229  1  0.13066175  0.51068972  0.54497709  1
  S2-  S230  1  0.11417855  0.74009097  0.04318858  1
  S2-  S231  1  0.12784646  0.75688423  0.54290353  1
  S2-  S232  1  0.37134369  -0.00454078  0.04435943  1
  S2-  S233  1  0.37940992  0.00816699  0.53681293  1
  S2-  S234  1  0.36456634  0.24486981  0.04872340  1
  S2-  S235  1  0.37586708  0.25793272  0.54097001  1
  S2-  S236  1  0.36543956  0.49367247  0.05645185  1
  S2-  S237  1  0.37765806  0.50407381  0.54938650  1
  S2-  S238  1  0.36667784  0.74312321  0.04815955  1
  S2-  S239  1  0.38184886  0.75841737  0.54919464  1
  S2-  S240  1  0.62170425  -0.00437933  0.04991485  1
  S2-  S241  1  0.63074537  0.00572094  0.53671421  1
  S2-  S242  1  0.62178477  0.24671984  0.04683517  1
  S2-  S243  1  0.63163610  0.25642619  0.54371938  1
  S2-  S244  1  0.61900354  0.49043006  0.05118569  1
  S2-  S245  1  0.63118280  0.50360820  0.54805170  1
  S2-  S246  1  0.61619738  0.74556252  0.04604561  1
  S2-  S247  1  0.62351351  0.76354720  0.53980529  1
  S2-  S248  1  0.86387578  -0.00498738  0.04577099  1
  S2-  S249  1  0.87768277  0.00412276  0.54892600  1
  S2-  S250  1  0.86849461  0.24615808  0.04322516  1
  S2-  S251  1  0.87918456  0.25658922  0.55136418  1
  S2-  S252  1  0.86980945  0.49093483  0.04207670  1
  S2-  S253  1  0.87991299  0.50734602  0.55791034  1
  S2-  S254  1  0.87143713  0.74570069  0.03278662  1
  S2-  S255  1  0.88048570  0.75926108  0.54765065  1
