# generated using pymatgen
data_La6Ce7Pr13Nd19Sm19(BiS2)64
_symmetry_space_group_name_H-M   'P 1'
_cell_length_a   16.12535130
_cell_length_b   16.13944187
_cell_length_c   27.20094482
_cell_angle_alpha   89.86095615
_cell_angle_beta   90.12982922
_cell_angle_gamma   89.96163753
_symmetry_Int_Tables_number   1
_chemical_formula_structural   La6Ce7Pr13Nd19Sm19(BiS2)64
_chemical_formula_sum   'La6 Ce7 Pr13 Nd19 Sm19 Bi64 S128'
_cell_volume   7079.11868589
_cell_formula_units_Z   1
loop_
 _symmetry_equiv_pos_site_id
 _symmetry_equiv_pos_as_xyz
  1  'x, y, z'
loop_
 _atom_type_symbol
 _atom_type_oxidation_number
  La3+  3.0
  Ce3+  3.0
  Pr3+  3.0
  Nd3+  3.0
  Sm3+  3.0
  Bi2+  2.0
  S2-  -2.0
loop_
 _atom_site_type_symbol
 _atom_site_label
 _atom_site_symmetry_multiplicity
 _atom_site_fract_x
 _atom_site_fract_y
 _atom_site_fract_z
 _atom_site_occupancy
  La3+  La0  1  0.11641752  0.49659918  0.38242717  1
  La3+  La1  1  0.87408154  -0.00015851  0.94085389  1
  La3+  La2  1  0.36825943  0.76221263  0.92857113  1
  La3+  La3  1  0.50331579  0.36432603  0.59738855  1
  La3+  La4  1  0.25511207  0.88346859  0.08527416  1
  La3+  La5  1  0.11624474  0.24370412  0.91764505  1
  Ce3+  Ce6  1  0.37472792  0.50571664  0.93889998  1
  Ce3+  Ce7  1  0.00401602  0.61841772  0.08428430  1
  Ce3+  Ce8  1  0.74539902  0.87446601  0.06425575  1
  Ce3+  Ce9  1  0.25174651  0.61550780  0.55810953  1
  Ce3+  Ce10  1  0.50263703  0.12825804  0.05859377  1
  Ce3+  Ce11  1  0.87645960  0.24364466  0.44096467  1
  Ce3+  Ce12  1  0.75021998  0.36763257  0.56104695  1
  Pr3+  Pr13  1  0.25801218  0.62858807  0.07413406  1
  Pr3+  Pr14  1  0.87701247  0.74047831  0.43699341  1
  Pr3+  Pr15  1  0.37468364  0.25368035  0.93232131  1
  Pr3+  Pr16  1  0.24989327  0.37457752  0.05115195  1
  Pr3+  Pr17  1  0.62315790  0.48909845  0.43348755  1
  Pr3+  Pr18  1  0.00393375  0.61546210  0.55158975  1
  Pr3+  Pr19  1  0.86864999  0.49154659  0.43092631  1
  Pr3+  Pr20  1  0.88265863  0.50491408  0.93832782  1
  Pr3+  Pr21  1  0.62071311  0.75465601  0.91211613  1
  Pr3+  Pr22  1  0.13364826  0.74653975  0.42382862  1
  Pr3+  Pr23  1  0.62390851  0.00191650  0.93387342  1
  Pr3+  Pr24  1  0.50156351  0.11817264  0.57081193  1
  Pr3+  Pr25  1  0.36964621  0.49010684  0.44009414  1
  Nd3+  Nd26  1  -0.00468569  0.87442997  0.06440055  1
  Nd3+  Nd27  1  0.00065370  0.36849321  0.06886850  1
  Nd3+  Nd28  1  0.62567738  0.50651659  0.93610325  1
  Nd3+  Nd29  1  0.12791771  0.75134622  0.95104851  1
  Nd3+  Nd30  1  0.00270238  0.86497856  0.55555072  1
  Nd3+  Nd31  1  0.00249113  0.36829260  0.55572077  1
  Nd3+  Nd32  1  0.62397299  0.74308316  0.43819011  1
  Nd3+  Nd33  1  0.12429984  0.24583013  0.43065860  1
  Nd3+  Nd34  1  0.49931905  0.63022478  0.06012889  1
  Nd3+  Nd35  1  0.50025328  0.86452473  0.56159918  1
  Nd3+  Nd36  1  0.75009990  0.62687435  0.05459559  1
  Nd3+  Nd37  1  0.37607688  -0.00506175  0.44444914  1
  Nd3+  Nd38  1  0.00169202  0.11680377  0.55478541  1
  Nd3+  Nd39  1  0.25056229  0.13533039  0.06342925  1
  Nd3+  Nd40  1  0.74747868  0.12636686  0.05725602  1
  Nd3+  Nd41  1  0.24929789  0.11981727  0.55945351  1
  Nd3+  Nd42  1  0.74771787  0.61536649  0.56226219  1
  Nd3+  Nd43  1  0.75085124  0.86621674  0.55676692  1
  Nd3+  Nd44  1  0.25039891  0.86554520  0.56165964  1
  Sm3+  Sm45  1  0.12400365  0.50351091  0.95101985  1
  Sm3+  Sm46  1  0.62420342  0.25465596  0.94157540  1
  Sm3+  Sm47  1  0.12575078  0.00330757  0.95142895  1
  Sm3+  Sm48  1  0.75148062  0.11707153  0.55430076  1
  Sm3+  Sm49  1  0.12693452  -0.00785646  0.43324524  1
  Sm3+  Sm50  1  0.87804972  0.75059073  0.94837432  1
  Sm3+  Sm51  1  0.87422267  -0.00723336  0.44245345  1
  Sm3+  Sm52  1  0.37374838  0.00425279  0.94696773  1
  Sm3+  Sm53  1  0.50009367  0.61453512  0.55357390  1
  Sm3+  Sm54  1  0.37435164  0.24295234  0.44710929  1
  Sm3+  Sm55  1  0.62207574  0.24192672  0.44721357  1
  Sm3+  Sm56  1  0.24978267  0.36663378  0.55786881  1
  Sm3+  Sm57  1  0.37420728  0.74276349  0.44170976  1
  Sm3+  Sm58  1  0.87523393  0.25391780  0.94204338  1
  Sm3+  Sm59  1  0.62352717  -0.00693976  0.44793448  1
  Sm3+  Sm60  1  0.50090628  0.37792911  0.05615077  1
  Sm3+  Sm61  1  0.75084586  0.38006118  0.05289396  1
  Sm3+  Sm62  1  -0.00147059  0.12840386  0.06625967  1
  Sm3+  Sm63  1  0.50029397  0.87651441  0.05953697  1
  Bi2+  Bi64  1  0.07288321  0.11194695  0.31333432  1
  Bi2+  Bi65  1  -0.01652939  0.12204439  0.79079729  1
  Bi2+  Bi66  1  -0.00779240  0.35628031  0.28100585  1
  Bi2+  Bi67  1  -0.01939896  0.39976855  0.79915737  1
  Bi2+  Bi68  1  -0.03128813  0.62090958  0.27785746  1
  Bi2+  Bi69  1  0.00892193  0.64466332  0.81782350  1
  Bi2+  Bi70  1  -0.00642947  0.93403103  0.28844276  1
  Bi2+  Bi71  1  0.02714879  0.84119078  0.80233058  1
  Bi2+  Bi72  1  0.26677158  0.12686573  0.29161515  1
  Bi2+  Bi73  1  0.25015616  0.14117044  0.79970379  1
  Bi2+  Bi74  1  0.29289423  0.37457636  0.28558442  1
  Bi2+  Bi75  1  0.21364964  0.40353612  0.75602595  1
  Bi2+  Bi76  1  0.25593742  0.63997143  0.28544049  1
  Bi2+  Bi77  1  0.19191658  0.66615926  0.77050507  1
  Bi2+  Bi78  1  0.25693269  0.88566752  0.29095414  1
  Bi2+  Bi79  1  0.24917637  0.85775460  0.79269812  1
  Bi2+  Bi80  1  0.55142220  0.13155704  0.29358729  1
  Bi2+  Bi81  1  0.56069042  0.09507433  0.81248987  1
  Bi2+  Bi82  1  0.54079260  0.41942183  0.30489692  1
  Bi2+  Bi83  1  0.48217986  0.37376371  0.79919909  1
  Bi2+  Bi84  1  0.49129345  0.60553437  0.29083322  1
  Bi2+  Bi85  1  0.53514077  0.62052768  0.79317498  1
  Bi2+  Bi86  1  0.51751380  0.86809715  0.28436563  1
  Bi2+  Bi87  1  0.53795047  0.87798543  0.78343048  1
  Bi2+  Bi88  1  0.75273485  0.19018559  0.29260503  1
  Bi2+  Bi89  1  0.75629130  0.11103811  0.80270603  1
  Bi2+  Bi90  1  0.69981583  0.36557383  0.24440845  1
  Bi2+  Bi91  1  0.73680367  0.39594225  0.78237210  1
  Bi2+  Bi92  1  0.71765363  0.62656012  0.30096435  1
  Bi2+  Bi93  1  0.80264666  0.61625564  0.76421260  1
  Bi2+  Bi94  1  0.72312164  0.91833870  0.28948995  1
  Bi2+  Bi95  1  0.75034484  0.92512393  0.75175527  1
  Bi2+  Bi96  1  0.10280086  0.02780086  0.20848458  1
  Bi2+  Bi97  1  0.12476790  -0.00216530  0.76035698  1
  Bi2+  Bi98  1  0.16147138  0.22954343  0.20492524  1
  Bi2+  Bi99  1  0.12044715  0.23305495  0.68955986  1
  Bi2+  Bi100  1  0.16489532  0.46853191  0.18161434  1
  Bi2+  Bi101  1  0.06535265  0.51604992  0.71784134  1
  Bi2+  Bi102  1  0.08986515  0.76957902  0.20966526  1
  Bi2+  Bi103  1  0.11212828  0.77702659  0.68469864  1
  Bi2+  Bi104  1  0.43318071  0.00964991  0.21574100  1
  Bi2+  Bi105  1  0.39624236  0.01205511  0.77461863  1
  Bi2+  Bi106  1  0.41154728  0.23626661  0.24269883  1
  Bi2+  Bi107  1  0.35172158  0.22201137  0.71219066  1
  Bi2+  Bi108  1  0.39469744  0.48231361  0.21035340  1
  Bi2+  Bi109  1  0.34375958  0.54669825  0.73875786  1
  Bi2+  Bi110  1  0.41894942  0.74594671  0.21409683  1
  Bi2+  Bi111  1  0.37590825  0.76471538  0.69511379  1
  Bi2+  Bi112  1  0.62694586  -0.00693378  0.19433743  1
  Bi2+  Bi113  1  0.62964373  0.05485350  0.70382261  1
  Bi2+  Bi114  1  0.63725293  0.19488259  0.19296603  1
  Bi2+  Bi115  1  0.64213433  0.25093768  0.71977234  1
  Bi2+  Bi116  1  0.59600769  0.52620115  0.20362979  1
  Bi2+  Bi117  1  0.60423534  0.51210344  0.70051818  1
  Bi2+  Bi118  1  0.59440563  0.80087534  0.17332051  1
  Bi2+  Bi119  1  0.62953062  0.75226712  0.69280834  1
  Bi2+  Bi120  1  0.84593988  0.01605334  0.21538206  1
  Bi2+  Bi121  1  0.89865672  0.02190785  0.70241492  1
  Bi2+  Bi122  1  0.92858956  0.19281789  0.22977270  1
  Bi2+  Bi123  1  0.83902975  0.25024744  0.73355543  1
  Bi2+  Bi124  1  0.84917986  0.51449238  0.19160403  1
  Bi2+  Bi125  1  0.87983620  0.44025089  0.70121930  1
  Bi2+  Bi126  1  0.76680562  0.76122583  0.22273425  1
  Bi2+  Bi127  1  0.92309812  0.75216210  0.71851539  1
  S2-  S128  1  0.01368858  0.23970686  0.14095134  1
  S2-  S129  1  0.02581929  0.11486341  0.65281570  1
  S2-  S130  1  -0.00515340  0.47272939  0.14879469  1
  S2-  S131  1  0.01090029  0.33689450  0.65451023  1
  S2-  S132  1  -0.04830021  0.66891568  0.17549846  1
  S2-  S133  1  0.00528248  0.63815749  0.65190719  1
  S2-  S134  1  0.02183538  0.89517879  0.16132051  1
  S2-  S135  1  -0.01559734  0.88540715  0.65358593  1
  S2-  S136  1  0.23573106  0.08611802  0.15871033  1
  S2-  S137  1  0.25600290  0.11924887  0.65910018  1
  S2-  S138  1  0.25271288  0.32077670  0.14744969  1
  S2-  S139  1  0.25519871  0.34292225  0.65634966  1
  S2-  S140  1  0.17276061  0.62937572  0.16447853  1
  S2-  S141  1  0.28475945  0.62873812  0.65372945  1
  S2-  S142  1  0.21764239  0.85744099  0.18740086  1
  S2-  S143  1  0.26222148  0.87019582  0.66112569  1
  S2-  S144  1  0.45883631  0.15045501  0.15199681  1
  S2-  S145  1  0.49086072  0.21456588  0.65509146  1
  S2-  S146  1  0.50731192  0.39506027  0.15372867  1
  S2-  S147  1  0.46176565  0.43281446  0.69076622  1
  S2-  S148  1  0.39574431  0.62715655  0.14185490  1
  S2-  S149  1  0.51437201  0.63780758  0.65068471  1
  S2-  S150  1  0.40735755  0.88831758  0.14407404  1
  S2-  S151  1  0.49432176  0.86152467  0.66171458  1
  S2-  S152  1  0.79285309  0.14537172  0.15245419  1
  S2-  S153  1  0.77466346  0.11048664  0.65101764  1
  S2-  S154  1  0.77569213  0.38260756  0.15010266  1
  S2-  S155  1  0.66187612  0.37566492  0.64569944  1
  S2-  S156  1  0.72448797  0.61785718  0.15297386  1
  S2-  S157  1  0.73789323  0.62245844  0.66197558  1
  S2-  S158  1  0.81898163  0.87355726  0.15249834  1
  S2-  S159  1  0.73895943  0.85233541  0.65569268  1
  S2-  S160  1  0.12925383  -0.11623185  0.35502126  1
  S2-  S161  1  0.11613970  0.07589352  0.86205437  1
  S2-  S162  1  0.12401318  0.33203298  0.34412468  1
  S2-  S163  1  0.17314300  0.29072416  0.82302080  1
  S2-  S164  1  0.09942039  0.49637876  0.26644450  1
  S2-  S165  1  0.08946604  0.50601793  0.85544377  1
  S2-  S166  1  0.11332916  0.65836792  0.33603184  1
  S2-  S167  1  0.22586553  0.73584753  0.86816359  1
  S2-  S168  1  0.33500202  -0.01080779  0.34743909  1
  S2-  S169  1  0.35512195  -0.08020620  0.86354962  1
  S2-  S170  1  0.35596726  0.24541415  0.34880882  1
  S2-  S171  1  0.38461258  0.25784214  0.83081214  1
  S2-  S172  1  0.28918777  0.50285189  0.34934144  1
  S2-  S173  1  0.38113682  0.49809473  0.84059582  1
  S2-  S174  1  0.30900040  0.74756332  0.34957512  1
  S2-  S175  1  0.47706777  0.74202259  0.84724085  1
  S2-  S176  1  0.59472415  -0.01168079  0.35228357  1
  S2-  S177  1  0.65015279  -0.10109541  0.85320380  1
  S2-  S178  1  0.61497538  0.26882350  0.35039294  1
  S2-  S179  1  0.59497311  0.26183506  0.84547843  1
  S2-  S180  1  0.73720640  0.49460576  0.35714963  1
  S2-  S181  1  0.60887838  0.47741868  0.83827651  1
  S2-  S182  1  0.59078424  0.73487590  0.34102897  1
  S2-  S183  1  0.68075231  0.68036598  0.82191777  1
  S2-  S184  1  0.86090064  -0.01640946  0.34515554  1
  S2-  S185  1  0.88205453  0.00942608  0.84084687  1
  S2-  S186  1  0.87475530  0.27809621  0.34557271  1
  S2-  S187  1  0.96487906  0.25984377  0.85924423  1
  S2-  S188  1  0.95099863  0.49098496  0.34122407  1
  S2-  S189  1  0.84785364  0.50179342  0.83994928  1
  S2-  S190  1  0.86363588  0.71159706  0.33782180  1
  S2-  S191  1  0.88978440  0.76836076  0.85157300  1
  S2-  S192  1  0.00065665  0.11444383  0.44815668  1
  S2-  S193  1  -0.00515740  0.12589320  0.96208914  1
  S2-  S194  1  0.00077893  0.37077795  0.45067329  1
  S2-  S195  1  0.00070563  0.37736595  0.96038173  1
  S2-  S196  1  0.00246571  0.61502973  0.44623074  1
  S2-  S197  1  0.00292761  0.62894907  0.96603842  1
  S2-  S198  1  -0.00221366  0.87008329  0.44999575  1
  S2-  S199  1  0.00338411  0.87715585  0.95710745  1
  S2-  S200  1  0.24818914  0.11835192  0.45230291  1
  S2-  S201  1  0.25199010  0.12763558  0.95503701  1
  S2-  S202  1  0.24981707  0.36369122  0.45401712  1
  S2-  S203  1  0.24658354  0.37791730  0.94460118  1
  S2-  S204  1  0.25076583  0.61959288  0.45351142  1
  S2-  S205  1  0.24978790  0.62189680  0.96570158  1
  S2-  S206  1  0.25462900  0.87044195  0.45669110  1
  S2-  S207  1  0.24549540  0.88481645  0.97033157  1
  S2-  S208  1  0.49983849  0.11875954  0.46000381  1
  S2-  S209  1  0.49998452  0.12864413  0.95127966  1
  S2-  S210  1  0.49710882  0.36437890  0.45252848  1
  S2-  S211  1  0.50126048  0.37920085  0.95078424  1
  S2-  S212  1  0.49732174  0.61738811  0.44810922  1
  S2-  S213  1  0.50115550  0.62871681  0.95309394  1
  S2-  S214  1  0.49843090  0.86745070  0.45421853  1
  S2-  S215  1  0.50079812  0.88122993  0.95590919  1
  S2-  S216  1  0.74793665  0.11663080  0.44919860  1
  S2-  S217  1  0.74885072  0.13113300  0.94994947  1
  S2-  S218  1  0.74722689  0.36260859  0.45637015  1
  S2-  S219  1  0.75090772  0.37748622  0.94723460  1
  S2-  S220  1  0.74746511  0.62060072  0.45621326  1
  S2-  S221  1  0.75195377  0.62963549  0.94827275  1
  S2-  S222  1  0.74885709  0.86859970  0.45015601  1
  S2-  S223  1  0.75231742  0.87196752  0.95707956  1
  S2-  S224  1  0.12250036  0.00591852  0.05490711  1
  S2-  S225  1  0.12685839  -0.00847401  0.54204444  1
  S2-  S226  1  0.12476979  0.24848987  0.03567151  1
  S2-  S227  1  0.12601437  0.24279949  0.53981193  1
  S2-  S228  1  0.12808606  0.50020596  0.05328595  1
  S2-  S229  1  0.12819570  0.48963914  0.55654817  1
  S2-  S230  1  0.12661587  0.75522031  0.05731607  1
  S2-  S231  1  0.12789107  0.74279452  0.53932485  1
  S2-  S232  1  0.37516140  0.00848359  0.04859815  1
  S2-  S233  1  0.37618692  -0.00665300  0.55252733  1
  S2-  S234  1  0.37904997  0.25413927  0.04064950  1
  S2-  S235  1  0.37593268  0.24443458  0.55073386  1
  S2-  S236  1  0.37770356  0.49779659  0.04497831  1
  S2-  S237  1  0.37930542  0.48685268  0.55006538  1
  S2-  S238  1  0.37649660  0.75669282  0.04211561  1
  S2-  S239  1  0.37725945  0.74149509  0.54582136  1
  S2-  S240  1  0.62409538  0.00157983  0.04468559  1
  S2-  S241  1  0.62613158  -0.00764592  0.55290288  1
  S2-  S242  1  0.62690160  0.25637187  0.04676419  1
  S2-  S243  1  0.62664102  0.23955913  0.55087014  1
  S2-  S244  1  0.62374651  0.50158856  0.04345540  1
  S2-  S245  1  0.62187463  0.49273491  0.54220211  1
  S2-  S246  1  0.62285642  0.75146874  0.04208574  1
  S2-  S247  1  0.62399330  0.74121724  0.54477595  1
  S2-  S248  1  0.87526495  0.00478517  0.04934682  1
  S2-  S249  1  0.87520202  -0.00825424  0.54707353  1
  S2-  S250  1  0.87052098  0.25206502  0.04465277  1
  S2-  S251  1  0.87572617  0.24100527  0.54857536  1
  S2-  S252  1  0.87402164  0.50139343  0.04499047  1
  S2-  S253  1  0.87453499  0.49281271  0.54546344  1
  S2-  S254  1  0.87574274  0.74800904  0.05254566  1
  S2-  S255  1  0.87447001  0.74119298  0.54568444  1
