# generated using pymatgen
data_La6Ce7Pr13Nd19Sm19(BiS2)64
_symmetry_space_group_name_H-M   'P 1'
_cell_length_a   16.10152921
_cell_length_b   16.08877073
_cell_length_c   27.20838625
_cell_angle_alpha   90.01352817
_cell_angle_beta   89.87963031
_cell_angle_gamma   90.06699806
_symmetry_Int_Tables_number   1
_chemical_formula_structural   La6Ce7Pr13Nd19Sm19(BiS2)64
_chemical_formula_sum   'La6 Ce7 Pr13 Nd19 Sm19 Bi64 S128'
_cell_volume   7048.41560770
_cell_formula_units_Z   1
loop_
 _symmetry_equiv_pos_site_id
 _symmetry_equiv_pos_as_xyz
  1  'x, y, z'
loop_
 _atom_type_symbol
 _atom_type_oxidation_number
  La3+  3.0
  Ce3+  3.0
  Pr3+  3.0
  Nd3+  3.0
  Sm3+  3.0
  Bi2+  2.0
  S2-  -2.0
loop_
 _atom_site_type_symbol
 _atom_site_label
 _atom_site_symmetry_multiplicity
 _atom_site_fract_x
 _atom_site_fract_y
 _atom_site_fract_z
 _atom_site_occupancy
  La3+  La0  1  0.86271914  0.26834128  0.91826825  1
  La3+  La1  1  0.12901943  0.26844175  0.90772825  1
  La3+  La2  1  0.74416124  0.37279587  0.60670350  1
  La3+  La3  1  0.62522406  0.25968376  0.39239233  1
  La3+  La4  1  0.88688267  0.00803294  0.42367000  1
  La3+  La5  1  0.24682901  0.89490098  0.08534984  1
  Ce3+  Ce6  1  0.11933397  0.50765223  0.94071622  1
  Ce3+  Ce7  1  -0.00514108  0.63566293  0.05714397  1
  Ce3+  Ce8  1  0.01207565  0.12578323  0.57008294  1
  Ce3+  Ce9  1  0.75930424  0.62232651  0.56566241  1
  Ce3+  Ce10  1  0.36930615  0.76385837  0.94696064  1
  Ce3+  Ce11  1  0.13327366  0.50181227  0.43914632  1
  Ce3+  Ce12  1  0.74856185  0.88846448  0.06011479  1
  Pr3+  Pr13  1  0.50567402  0.87407715  0.55786829  1
  Pr3+  Pr14  1  0.49580840  0.13672149  0.06470687  1
  Pr3+  Pr15  1  0.86292453  0.51258926  0.92818200  1
  Pr3+  Pr16  1  0.74091774  0.39338911  0.07461282  1
  Pr3+  Pr17  1  0.11882887  0.00992940  0.93778240  1
  Pr3+  Pr18  1  0.74920250  0.63666205  0.06550441  1
  Pr3+  Pr19  1  0.24403495  0.38546087  0.06823381  1
  Pr3+  Pr20  1  0.49190369  0.39060382  0.07373363  1
  Pr3+  Pr21  1  0.49472901  0.88724655  0.06706443  1
  Pr3+  Pr22  1  0.37253022  0.26318690  0.94028467  1
  Pr3+  Pr23  1  -0.01613434  0.88906350  0.09696739  1
  Pr3+  Pr24  1  0.61674515  0.51040073  0.93479047  1
  Pr3+  Pr25  1  0.24281449  0.87249274  0.57485312  1
  Nd3+  Nd26  1  0.12117861  0.76414908  0.94603479  1
  Nd3+  Nd27  1  0.87157697  0.76256162  0.93939034  1
  Nd3+  Nd28  1  0.24013962  0.63883046  0.05823082  1
  Nd3+  Nd29  1  0.62080046  0.01134346  0.94746403  1
  Nd3+  Nd30  1  0.87262853  0.01387625  0.93508213  1
  Nd3+  Nd31  1  0.88352431  0.75196235  0.43736805  1
  Nd3+  Nd32  1  0.63441070  0.74990438  0.43756510  1
  Nd3+  Nd33  1  0.23976956  0.13439450  0.05543384  1
  Nd3+  Nd34  1  0.51044873  0.12726957  0.56234976  1
  Nd3+  Nd35  1  0.14038859  0.74614693  0.41871983  1
  Nd3+  Nd36  1  0.14035997  0.00791515  0.43026525  1
  Nd3+  Nd37  1  0.87730798  0.24982246  0.44448381  1
  Nd3+  Nd38  1  0.36956033  0.00987567  0.93631870  1
  Nd3+  Nd39  1  0.37934005  0.75195100  0.44452929  1
  Nd3+  Nd40  1  0.38497061  0.49875820  0.44181011  1
  Nd3+  Nd41  1  0.26713090  0.12838743  0.58691833  1
  Nd3+  Nd42  1  0.49339124  0.63863312  0.06354658  1
  Nd3+  Nd43  1  0.25375024  0.62395665  0.56889740  1
  Nd3+  Nd44  1  -0.00446629  0.13921090  0.05573515  1
  Sm3+  Sm45  1  0.62019449  0.76189738  0.94867482  1
  Sm3+  Sm46  1  0.75885054  0.12180840  0.56279161  1
  Sm3+  Sm47  1  0.62120577  0.26319567  0.94684340  1
  Sm3+  Sm48  1  0.00679418  0.37129502  0.55662669  1
  Sm3+  Sm49  1  0.63691028  0.50577130  0.43330020  1
  Sm3+  Sm50  1  0.87615638  0.49454782  0.44708595  1
  Sm3+  Sm51  1  0.13348784  0.24742832  0.44216918  1
  Sm3+  Sm52  1  0.51103653  0.62171887  0.55580690  1
  Sm3+  Sm53  1  0.38574123  0.24816677  0.43893704  1
  Sm3+  Sm54  1  0.51335712  0.37421676  0.55585438  1
  Sm3+  Sm55  1  0.00437503  0.62312704  0.55550634  1
  Sm3+  Sm56  1  0.25914217  0.37305447  0.55458196  1
  Sm3+  Sm57  1  0.00978084  0.87754887  0.54723626  1
  Sm3+  Sm58  1  0.37795729  0.00096915  0.44505160  1
  Sm3+  Sm59  1  0.63247207  0.00472075  0.44052448  1
  Sm3+  Sm60  1  0.75070441  0.13956034  0.05864537  1
  Sm3+  Sm61  1  0.76058460  0.87784211  0.56038374  1
  Sm3+  Sm62  1  0.37262784  0.51125566  0.93956255  1
  Sm3+  Sm63  1  -0.00688036  0.37958203  0.05762881  1
  Bi2+  Bi64  1  0.02265746  0.13297769  0.29645109  1
  Bi2+  Bi65  1  -0.01491308  0.07109228  0.79625511  1
  Bi2+  Bi66  1  0.00563505  0.36737177  0.29237053  1
  Bi2+  Bi67  1  0.01919240  0.44039250  0.77640972  1
  Bi2+  Bi68  1  0.02028404  0.55052971  0.24888234  1
  Bi2+  Bi69  1  0.03523570  0.62702771  0.79524815  1
  Bi2+  Bi70  1  -0.03576836  0.86696602  0.29411880  1
  Bi2+  Bi71  1  -0.03421478  0.81104368  0.77989339  1
  Bi2+  Bi72  1  0.27734000  0.10238204  0.28737007  1
  Bi2+  Bi73  1  0.24427028  0.13781521  0.79127057  1
  Bi2+  Bi74  1  0.20039003  0.36613265  0.29711253  1
  Bi2+  Bi75  1  0.31278019  0.42409013  0.80188478  1
  Bi2+  Bi76  1  0.26285800  0.60411225  0.30130549  1
  Bi2+  Bi77  1  0.24648665  0.61071027  0.79161889  1
  Bi2+  Bi78  1  0.26127059  0.86350110  0.28651534  1
  Bi2+  Bi79  1  0.23920111  0.88435858  0.80504340  1
  Bi2+  Bi80  1  0.47168785  0.08715445  0.30567531  1
  Bi2+  Bi81  1  0.50092934  0.13814209  0.79294957  1
  Bi2+  Bi82  1  0.48052962  0.39585942  0.28255711  1
  Bi2+  Bi83  1  0.50197563  0.34749804  0.80106157  1
  Bi2+  Bi84  1  0.52988804  0.69341255  0.29169236  1
  Bi2+  Bi85  1  0.52590036  0.64552321  0.78557231  1
  Bi2+  Bi86  1  0.47660749  0.88626346  0.30162204  1
  Bi2+  Bi87  1  0.48293686  0.83927113  0.78812346  1
  Bi2+  Bi88  1  0.76844270  0.08557700  0.29497939  1
  Bi2+  Bi89  1  0.72080632  0.13907149  0.79396554  1
  Bi2+  Bi90  1  0.74635735  0.42015209  0.28145344  1
  Bi2+  Bi91  1  0.75666682  0.39546928  0.79140806  1
  Bi2+  Bi92  1  0.79630366  0.62923299  0.29568525  1
  Bi2+  Bi93  1  0.74508928  0.64707874  0.78052650  1
  Bi2+  Bi94  1  0.67786204  0.83833593  0.29361977  1
  Bi2+  Bi95  1  0.68067061  0.89489740  0.79030068  1
  Bi2+  Bi96  1  0.12583797  -0.00307484  0.20842373  1
  Bi2+  Bi97  1  0.10586268  -0.00404690  0.69791252  1
  Bi2+  Bi98  1  0.14024844  0.23717262  0.20494232  1
  Bi2+  Bi99  1  0.14201581  0.28611628  0.70819780  1
  Bi2+  Bi100  1  0.10532930  0.42073056  0.17479609  1
  Bi2+  Bi101  1  0.16082706  0.50781689  0.70448110  1
  Bi2+  Bi102  1  0.11360830  0.71175816  0.20524059  1
  Bi2+  Bi103  1  0.11128099  0.74224937  0.71099674  1
  Bi2+  Bi104  1  0.40573683  0.02947356  0.20000247  1
  Bi2+  Bi105  1  0.40308892  -0.00676391  0.71201813  1
  Bi2+  Bi106  1  0.32996312  0.27136103  0.22884061  1
  Bi2+  Bi107  1  0.38938903  0.25083364  0.72241517  1
  Bi2+  Bi108  1  0.28192678  0.48352150  0.21232243  1
  Bi2+  Bi109  1  0.36021311  0.51140371  0.70030697  1
  Bi2+  Bi110  1  0.40328582  0.71475455  0.20323565  1
  Bi2+  Bi111  1  0.37010600  0.71145293  0.71865500  1
  Bi2+  Bi112  1  0.59652935  -0.02107168  0.22193593  1
  Bi2+  Bi113  1  0.61650893  0.02085343  0.70712545  1
  Bi2+  Bi114  1  0.64727965  0.23763805  0.19841799  1
  Bi2+  Bi115  1  0.61246048  0.22491091  0.71087179  1
  Bi2+  Bi116  1  0.60255382  0.51552685  0.21886693  1
  Bi2+  Bi117  1  0.56022688  0.48704828  0.72243284  1
  Bi2+  Bi118  1  0.57714970  0.79458180  0.17957476  1
  Bi2+  Bi119  1  0.64008710  0.76774099  0.70650819  1
  Bi2+  Bi120  1  0.86262046  0.02464967  0.20728412  1
  Bi2+  Bi121  1  0.84983045  -0.03357440  0.71692748  1
  Bi2+  Bi122  1  0.91467481  0.24262977  0.22093289  1
  Bi2+  Bi123  1  0.89333815  0.22906114  0.70740779  1
  Bi2+  Bi124  1  0.87231814  0.46091856  0.19565724  1
  Bi2+  Bi125  1  0.87952086  0.58702719  0.70503113  1
  Bi2+  Bi126  1  0.75508475  0.73150241  0.20270836  1
  Bi2+  Bi127  1  0.83459134  0.77572307  0.68469758  1
  S2-  S128  1  -0.00178704  0.04470160  0.14451379  1
  S2-  S129  1  -0.05320631  0.07458631  0.66129892  1
  S2-  S130  1  0.00280515  0.25974266  0.13285713  1
  S2-  S131  1  0.01047878  0.32555449  0.65216320  1
  S2-  S132  1  -0.01797800  0.62821779  0.15436553  1
  S2-  S133  1  0.03198422  0.61690318  0.65288436  1
  S2-  S134  1  0.00516472  0.83347210  0.19600887  1
  S2-  S135  1  0.07605941  0.87412122  0.63917933  1
  S2-  S136  1  0.23938137  0.05084310  0.14457639  1
  S2-  S137  1  0.13191467  0.14304488  0.64878690  1
  S2-  S138  1  0.36202633  0.38047577  0.14459547  1
  S2-  S139  1  0.27304869  0.30480217  0.64463873  1
  S2-  S140  1  0.25895280  0.64280070  0.15751834  1
  S2-  S141  1  0.25364054  0.73859838  0.64513048  1
  S2-  S142  1  0.19955994  0.84927860  0.18269166  1
  S2-  S143  1  0.26513898  0.98022394  0.65666093  1
  S2-  S144  1  0.50264733  0.17262559  0.16307567  1
  S2-  S145  1  0.41370444  0.13067458  0.64773593  1
  S2-  S146  1  0.60006760  0.37918396  0.15311015  1
  S2-  S147  1  0.57807319  0.37031711  0.64880446  1
  S2-  S148  1  0.48620412  0.58037338  0.15759972  1
  S2-  S149  1  0.49461700  0.61248947  0.65330320  1
  S2-  S150  1  0.39433294  0.88086716  0.15027129  1
  S2-  S151  1  0.50487403  0.88980166  0.65779091  1
  S2-  S152  1  0.73921481  0.10565329  0.15581403  1
  S2-  S153  1  0.76179130  0.20746717  0.65073063  1
  S2-  S154  1  0.79455262  0.30925501  0.15858383  1
  S2-  S155  1  0.82211670  0.37398556  0.70440940  1
  S2-  S156  1  0.74284317  0.53621458  0.14737296  1
  S2-  S157  1  0.73883492  0.54039774  0.64910451  1
  S2-  S158  1  0.82145681  0.88505335  0.14833755  1
  S2-  S159  1  0.74705939  0.98712225  0.63704146  1
  S2-  S160  1  0.02211169  -0.00155295  0.35290138  1
  S2-  S161  1  0.13925709  0.01438518  0.83688107  1
  S2-  S162  1  0.15835273  0.16180486  0.35793548  1
  S2-  S163  1  0.10232004  0.21688300  0.80511584  1
  S2-  S164  1  0.12884304  0.59819224  0.35801090  1
  S2-  S165  1  0.12653365  0.42454512  0.85481492  1
  S2-  S166  1  0.11769357  0.81793738  0.32430593  1
  S2-  S167  1  0.12058730  0.80313318  0.84807622  1
  S2-  S168  1  0.27705817  -0.01942344  0.36442271  1
  S2-  S169  1  0.34954425  0.01478970  0.83717887  1
  S2-  S170  1  0.46080558  0.25843422  0.34884598  1
  S2-  S171  1  0.28758772  0.26679256  0.85231968  1
  S2-  S172  1  0.39440788  0.50430276  0.34186020  1
  S2-  S173  1  0.48350019  0.48984647  0.86406092  1
  S2-  S174  1  0.29945862  0.74384184  0.35615597  1
  S2-  S175  1  0.35295010  0.78437393  0.85083725  1
  S2-  S176  1  0.62919027  0.09122446  0.35513035  1
  S2-  S177  1  0.61005639  0.02501069  0.84889931  1
  S2-  S178  1  0.70675095  0.25917788  0.29576126  1
  S2-  S179  1  0.69948597  0.27241714  0.85889082  1
  S2-  S180  1  0.60970706  0.42419175  0.34649972  1
  S2-  S181  1  0.72962755  0.52456524  0.85677104  1
  S2-  S182  1  0.65026612  0.63784348  0.36065536  1
  S2-  S183  1  0.61083634  0.75831723  0.85144328  1
  S2-  S184  1  0.81413286  -0.06945273  0.33875362  1
  S2-  S185  1  0.88419287  -0.03504934  0.83886666  1
  S2-  S186  1  0.88080888  0.15893369  0.35841382  1
  S2-  S187  1  0.87959873  0.18856980  0.82127532  1
  S2-  S188  1  0.86664468  0.49809059  0.34861738  1
  S2-  S189  1  0.89572991  0.40207783  0.84925200  1
  S2-  S190  1  0.91509476  0.72435286  0.34005326  1
  S2-  S191  1  0.86694064  0.71249754  0.84392315  1
  S2-  S192  1  0.01035530  0.13050201  0.46132135  1
  S2-  S193  1  -0.00326817  0.14161405  0.94331478  1
  S2-  S194  1  0.00744386  0.37382535  0.45047251  1
  S2-  S195  1  -0.00281734  0.38320688  0.95432733  1
  S2-  S196  1  -0.00022491  0.62015690  0.45319151  1
  S2-  S197  1  -0.00390276  0.63572527  0.94988106  1
  S2-  S198  1  0.01373506  0.86923096  0.44619839  1
  S2-  S199  1  -0.00638435  0.88565733  0.94827476  1
  S2-  S200  1  0.26473556  0.13112050  0.46317190  1
  S2-  S201  1  0.24518372  0.13522779  0.94996229  1
  S2-  S202  1  0.25967309  0.37229740  0.44890232  1
  S2-  S203  1  0.25082854  0.39025898  0.95942933  1
  S2-  S204  1  0.26030141  0.62150805  0.46202469  1
  S2-  S205  1  0.24590349  0.63433052  0.95043996  1
  S2-  S206  1  0.25572234  0.87196243  0.46416290  1
  S2-  S207  1  0.24586168  0.88845772  0.95989861  1
  S2-  S208  1  0.50318756  0.12277181  0.45704479  1
  S2-  S209  1  0.49647581  0.13678527  0.95448431  1
  S2-  S210  1  0.50969294  0.37486020  0.45328544  1
  S2-  S211  1  0.49524316  0.38227709  0.96569490  1
  S2-  S212  1  0.50498327  0.62696990  0.45159661  1
  S2-  S213  1  0.49384916  0.64083493  0.95606812  1
  S2-  S214  1  0.50726115  0.87635854  0.45012486  1
  S2-  S215  1  0.49625897  0.88697043  0.95689871  1
  S2-  S216  1  0.75241882  0.12593769  0.45700336  1
  S2-  S217  1  0.74468684  0.13559353  0.95332433  1
  S2-  S218  1  0.75172187  0.37139016  0.44054738  1
  S2-  S219  1  0.74005062  0.38902928  0.96206899  1
  S2-  S220  1  0.76253032  0.62550305  0.45943409  1
  S2-  S221  1  0.74308622  0.64183313  0.95893404  1
  S2-  S222  1  0.75422262  0.87680595  0.45572547  1
  S2-  S223  1  0.74565935  0.88652807  0.95192800  1
  S2-  S224  1  0.11519424  0.00667614  0.04378986  1
  S2-  S225  1  0.13138621  0.00290292  0.54026482  1
  S2-  S226  1  0.12490497  0.26236531  0.03584667  1
  S2-  S227  1  0.13526156  0.25464329  0.54397913  1
  S2-  S228  1  0.11861297  0.50962455  0.04727235  1
  S2-  S229  1  0.13172894  0.49710648  0.54696267  1
  S2-  S230  1  0.11610716  0.76804767  0.05424275  1
  S2-  S231  1  0.12669711  0.74165595  0.53795737  1
  S2-  S232  1  0.37156087  0.01363655  0.04321250  1
  S2-  S233  1  0.38184745  -0.00115984  0.54743858  1
  S2-  S234  1  0.36742979  0.25554615  0.04679467  1
  S2-  S235  1  0.38787669  0.25504443  0.54274502  1
  S2-  S236  1  0.36675588  0.51650533  0.04440154  1
  S2-  S237  1  0.38462486  0.49823191  0.54872499  1
  S2-  S238  1  0.36628773  0.76160692  0.05115073  1
  S2-  S239  1  0.38540154  0.74427001  0.54905384  1
  S2-  S240  1  0.62206007  0.01190506  0.05364238  1
  S2-  S241  1  0.62919198  0.00031413  0.54320784  1
  S2-  S242  1  0.62321104  0.25857269  0.04966162  1
  S2-  S243  1  0.63368268  0.24847903  0.55093486  1
  S2-  S244  1  0.61613756  0.51675463  0.04376638  1
  S2-  S245  1  0.63357557  0.49917737  0.54008685  1
  S2-  S246  1  0.62213448  0.76158475  0.05250880  1
  S2-  S247  1  0.63414651  0.74966071  0.54637592  1
  S2-  S248  1  0.87136054  0.01306074  0.04180293  1
  S2-  S249  1  0.88455438  -0.00246767  0.53864530  1
  S2-  S250  1  0.86761070  0.26092737  0.03571250  1
  S2-  S251  1  0.88060499  0.25289884  0.54838986  1
  S2-  S252  1  0.87422994  0.50830745  0.04118884  1
  S2-  S253  1  0.88198829  0.49292867  0.55219106  1
  S2-  S254  1  0.87448595  0.76392978  0.04718897  1
  S2-  S255  1  0.88412902  0.75222441  0.54584713  1
