# generated using pymatgen
data_La6Ce7Pr13Nd19Sm19(BiS2)64
_symmetry_space_group_name_H-M   'P 1'
_cell_length_a   16.09721646
_cell_length_b   16.12379002
_cell_length_c   27.36322552
_cell_angle_alpha   89.93604116
_cell_angle_beta   89.98084824
_cell_angle_gamma   89.96643102
_symmetry_Int_Tables_number   1
_chemical_formula_structural   La6Ce7Pr13Nd19Sm19(BiS2)64
_chemical_formula_sum   'La6 Ce7 Pr13 Nd19 Sm19 Bi64 S128'
_cell_volume   7102.06819795
_cell_formula_units_Z   1
loop_
 _symmetry_equiv_pos_site_id
 _symmetry_equiv_pos_as_xyz
  1  'x, y, z'
loop_
 _atom_type_symbol
 _atom_type_oxidation_number
  La3+  3.0
  Ce3+  3.0
  Pr3+  3.0
  Nd3+  3.0
  Sm3+  3.0
  Bi2+  2.0
  S2-  -2.0
loop_
 _atom_site_type_symbol
 _atom_site_label
 _atom_site_symmetry_multiplicity
 _atom_site_fract_x
 _atom_site_fract_y
 _atom_site_fract_z
 _atom_site_occupancy
  La3+  La0  1  0.25299033  0.63441227  0.10629911  1
  La3+  La1  1  0.27430767  0.88704305  0.57420572  1
  La3+  La2  1  0.25271225  0.37652675  0.10503891  1
  La3+  La3  1  0.39402356  0.77288418  0.41174153  1
  La3+  La4  1  0.88799733  0.51752415  0.92210639  1
  La3+  La5  1  0.37954765  0.26117352  0.92916991  1
  Ce3+  Ce6  1  0.62821566  0.00398396  0.93875791  1
  Ce3+  Ce7  1  0.00026539  0.38193696  0.06410207  1
  Ce3+  Ce8  1  0.49699951  0.38291963  0.05802292  1
  Ce3+  Ce9  1  0.88822203  0.51526827  0.44194916  1
  Ce3+  Ce10  1  0.77085398  0.63525891  0.57424979  1
  Ce3+  Ce11  1  0.13928906  0.26070268  0.43717560  1
  Ce3+  Ce12  1  0.51698935  0.88272271  0.55813702  1
  Pr3+  Pr13  1  0.50272720  0.13583510  0.05559319  1
  Pr3+  Pr14  1  0.02128922  0.39050052  0.55711739  1
  Pr3+  Pr15  1  0.76666565  0.88208679  0.57172676  1
  Pr3+  Pr16  1  0.75351672  0.88035023  0.06015780  1
  Pr3+  Pr17  1  0.02350972  0.63639387  0.56828814  1
  Pr3+  Pr18  1  0.27109084  0.63675179  0.55613713  1
  Pr3+  Pr19  1  0.87851482  0.26109469  0.92656205  1
  Pr3+  Pr20  1  0.76998137  0.14512828  0.58119599  1
  Pr3+  Pr21  1  0.63028438  0.25990781  0.93602222  1
  Pr3+  Pr22  1  0.64426178  0.76273165  0.43312934  1
  Pr3+  Pr23  1  0.52205777  0.13735547  0.56855458  1
  Pr3+  Pr24  1  0.13140523  0.51722976  0.42163263  1
  Pr3+  Pr25  1  0.12950786  0.50901858  0.94984140  1
  Nd3+  Nd26  1  0.25270449  0.13237205  0.06076654  1
  Nd3+  Nd27  1  0.37692388  0.75702885  0.93774692  1
  Nd3+  Nd28  1  0.25278785  0.88086504  0.06916729  1
  Nd3+  Nd29  1  0.76899138  0.39244427  0.57226163  1
  Nd3+  Nd30  1  0.39282229  0.26123665  0.43915814  1
  Nd3+  Nd31  1  0.49817703  0.63063386  0.06021799  1
  Nd3+  Nd32  1  0.00277802  0.62919753  0.07038241  1
  Nd3+  Nd33  1  0.75845308  0.38218038  0.05720442  1
  Nd3+  Nd34  1  0.26870905  0.13921377  0.55839081  1
  Nd3+  Nd35  1  0.64287431  0.26172736  0.44474051  1
  Nd3+  Nd36  1  0.87945551  0.00547716  0.94115415  1
  Nd3+  Nd37  1  0.12851425  0.25892037  0.94052363  1
  Nd3+  Nd38  1  0.00426086  0.13367722  0.05187196  1
  Nd3+  Nd39  1  0.14555142  0.76628897  0.44129475  1
  Nd3+  Nd40  1  0.01534610  0.13734343  0.56407648  1
  Nd3+  Nd41  1  0.51376425  0.38928497  0.56266252  1
  Nd3+  Nd42  1  0.89085613  0.76187715  0.44498066  1
  Nd3+  Nd43  1  0.13376947  0.00567514  0.93781903  1
  Nd3+  Nd44  1  0.39840906  0.51025909  0.42208475  1
  Sm3+  Sm45  1  0.64112999  0.51227231  0.44160950  1
  Sm3+  Sm46  1  0.51123034  0.63935164  0.54969042  1
  Sm3+  Sm47  1  0.75626906  0.62968251  0.06405815  1
  Sm3+  Sm48  1  0.63073038  0.50942391  0.94770839  1
  Sm3+  Sm49  1  0.88032214  0.75759688  0.93990116  1
  Sm3+  Sm50  1  0.75268014  0.13200698  0.05028452  1
  Sm3+  Sm51  1  0.14096263  0.01337811  0.44698295  1
  Sm3+  Sm52  1  0.00412717  0.87921420  0.05554701  1
  Sm3+  Sm53  1  0.13273766  0.75665005  0.94857609  1
  Sm3+  Sm54  1  0.62805189  0.75588625  0.94680249  1
  Sm3+  Sm55  1  0.64432842  0.01416004  0.44793898  1
  Sm3+  Sm56  1  0.50160485  0.87904704  0.05682299  1
  Sm3+  Sm57  1  0.88828953  0.26264277  0.44449304  1
  Sm3+  Sm58  1  0.37864393  0.00688567  0.94830929  1
  Sm3+  Sm59  1  0.01807006  0.88655202  0.55630273  1
  Sm3+  Sm60  1  0.37561908  0.50855138  0.94684372  1
  Sm3+  Sm61  1  0.26707758  0.38743952  0.54679127  1
  Sm3+  Sm62  1  0.39253789  0.01250265  0.44196695  1
  Sm3+  Sm63  1  0.88924380  0.01406176  0.44731822  1
  Bi2+  Bi64  1  0.01088193  0.07517300  0.28432973  1
  Bi2+  Bi65  1  -0.03202861  0.06362351  0.78523573  1
  Bi2+  Bi66  1  -0.06429686  0.34748173  0.27981129  1
  Bi2+  Bi67  1  -0.02813687  0.32413598  0.80794529  1
  Bi2+  Bi68  1  -0.07475872  0.62651614  0.28379162  1
  Bi2+  Bi69  1  0.00834909  0.64579644  0.80503219  1
  Bi2+  Bi70  1  -0.01883161  0.88481749  0.28106099  1
  Bi2+  Bi71  1  -0.01070504  0.86002756  0.75959818  1
  Bi2+  Bi72  1  0.23394251  0.11005773  0.28716235  1
  Bi2+  Bi73  1  0.22433739  0.11255618  0.80001011  1
  Bi2+  Bi74  1  0.26580139  0.35838298  0.31021557  1
  Bi2+  Bi75  1  0.23629707  0.39155820  0.75202395  1
  Bi2+  Bi76  1  0.22716813  0.62876215  0.30741269  1
  Bi2+  Bi77  1  0.19284343  0.59062556  0.77146400  1
  Bi2+  Bi78  1  0.24528443  0.87570818  0.30488279  1
  Bi2+  Bi79  1  0.23470050  0.86036563  0.80592095  1
  Bi2+  Bi80  1  0.51466862  0.07048287  0.29131146  1
  Bi2+  Bi81  1  0.49635769  0.12684272  0.79158489  1
  Bi2+  Bi82  1  0.53225498  0.34961745  0.29470104  1
  Bi2+  Bi83  1  0.46279207  0.36886224  0.79265248  1
  Bi2+  Bi84  1  0.58397662  0.61037889  0.28647971  1
  Bi2+  Bi85  1  0.43179805  0.61659970  0.78993248  1
  Bi2+  Bi86  1  0.58981048  0.88270019  0.28622661  1
  Bi2+  Bi87  1  0.51868731  0.85407758  0.77641360  1
  Bi2+  Bi88  1  0.78309145  0.11324552  0.30238909  1
  Bi2+  Bi89  1  0.69818136  0.04108940  0.73262969  1
  Bi2+  Bi90  1  0.74763198  0.38791864  0.29691945  1
  Bi2+  Bi91  1  0.72097297  0.36433594  0.80175189  1
  Bi2+  Bi92  1  0.75906620  0.57597043  0.33895052  1
  Bi2+  Bi93  1  0.70737867  0.64142900  0.79194357  1
  Bi2+  Bi94  1  0.74441174  0.76795369  0.30363437  1
  Bi2+  Bi95  1  0.71220156  0.89675256  0.81103384  1
  Bi2+  Bi96  1  0.19538912  0.01476951  0.17380270  1
  Bi2+  Bi97  1  0.11590053  0.04021262  0.71131360  1
  Bi2+  Bi98  1  0.10834186  0.18511209  0.20903660  1
  Bi2+  Bi99  1  0.08666084  0.22929306  0.73231950  1
  Bi2+  Bi100  1  0.11137166  0.49545988  0.21453090  1
  Bi2+  Bi101  1  0.05938849  0.46457312  0.72420002  1
  Bi2+  Bi102  1  0.12521682  0.84376619  0.20892609  1
  Bi2+  Bi103  1  0.09140513  0.72687678  0.69535960  1
  Bi2+  Bi104  1  0.36412281  -0.00123537  0.22993198  1
  Bi2+  Bi105  1  0.37978946  -0.01182740  0.75581791  1
  Bi2+  Bi106  1  0.39082441  0.23998445  0.20932297  1
  Bi2+  Bi107  1  0.32575939  0.24205433  0.69639482  1
  Bi2+  Bi108  1  0.39501840  0.50196942  0.22076145  1
  Bi2+  Bi109  1  0.33710277  0.53539329  0.70107674  1
  Bi2+  Bi110  1  0.41451982  0.76937664  0.20990050  1
  Bi2+  Bi111  1  0.35177168  0.76544168  0.69549385  1
  Bi2+  Bi112  1  0.63935512  0.01051426  0.20565978  1
  Bi2+  Bi113  1  0.63131010  -0.12599355  0.68232010  1
  Bi2+  Bi114  1  0.60335834  0.20176887  0.21828005  1
  Bi2+  Bi115  1  0.58575395  0.25510723  0.69500436  1
  Bi2+  Bi116  1  0.65582048  0.47143792  0.20430183  1
  Bi2+  Bi117  1  0.59732252  0.49761697  0.74502875  1
  Bi2+  Bi118  1  0.66881827  0.66473681  0.18913232  1
  Bi2+  Bi119  1  0.56370461  0.68861259  0.71165235  1
  Bi2+  Bi120  1  0.85449319  -0.00448285  0.22266719  1
  Bi2+  Bi121  1  0.86769243  -0.02333643  0.69428946  1
  Bi2+  Bi122  1  0.85314334  0.23347781  0.20035954  1
  Bi2+  Bi123  1  0.87794541  0.25715209  0.71078315  1
  Bi2+  Bi124  1  0.85963116  0.48868084  0.21012085  1
  Bi2+  Bi125  1  0.86939075  0.51534836  0.71070414  1
  Bi2+  Bi126  1  0.84085402  0.76073371  0.19867734  1
  Bi2+  Bi127  1  0.81537667  0.77864979  0.73949651  1
  S2-  S128  1  -0.02247352  0.14040524  0.14964841  1
  S2-  S129  1  -0.08763459  0.13680768  0.64491783  1
  S2-  S130  1  0.08868583  0.37859369  0.14898129  1
  S2-  S131  1  -0.03667544  0.38737658  0.65196496  1
  S2-  S132  1  0.09196052  0.62355422  0.15591401  1
  S2-  S133  1  -0.06664660  0.63217741  0.65704224  1
  S2-  S134  1  -0.01837316  0.84716564  0.15018199  1
  S2-  S135  1  -0.00850082  0.87057353  0.65209332  1
  S2-  S136  1  0.25927583  0.21493298  0.14794884  1
  S2-  S137  1  0.24228711  0.10799748  0.65474108  1
  S2-  S138  1  0.25954629  0.39359833  0.21345128  1
  S2-  S139  1  0.24590137  0.37457410  0.64323731  1
  S2-  S140  1  0.26021912  0.59227733  0.20871478  1
  S2-  S141  1  0.15655786  0.61665415  0.63598961  1
  S2-  S142  1  0.27259355  0.79074318  0.15383610  1
  S2-  S143  1  0.21555433  0.84441934  0.66869477  1
  S2-  S144  1  0.47452905  0.13678494  0.15436513  1
  S2-  S145  1  0.45010327  0.15673886  0.66269132  1
  S2-  S146  1  0.42890374  0.37895872  0.14716211  1
  S2-  S147  1  0.49941562  0.37806386  0.66164332  1
  S2-  S148  1  0.43168893  0.62823278  0.15143249  1
  S2-  S149  1  0.40359039  0.63345512  0.62735024  1
  S2-  S150  1  0.49477359  0.86901826  0.15448891  1
  S2-  S151  1  0.41803180  0.88406594  0.63843887  1
  S2-  S152  1  0.73185187  0.16273896  0.14542367  1
  S2-  S153  1  0.64146412  0.11164046  0.64735534  1
  S2-  S154  1  0.86853764  0.36707372  0.13356470  1
  S2-  S155  1  0.74743194  0.28768552  0.65375152  1
  S2-  S156  1  0.86936697  0.62284633  0.13808471  1
  S2-  S157  1  0.75011767  0.51325513  0.64507308  1
  S2-  S158  1  0.74503368  0.90173349  0.15891646  1
  S2-  S159  1  0.75554765  0.75790969  0.64416251  1
  S2-  S160  1  0.13812748  0.00146849  0.34920315  1
  S2-  S161  1  0.11415684  -0.00254609  0.84009178  1
  S2-  S162  1  0.15124881  0.24112557  0.34115262  1
  S2-  S163  1  0.12567101  0.24117809  0.84138215  1
  S2-  S164  1  0.14724170  0.46580925  0.32287652  1
  S2-  S165  1  0.04567179  0.51554777  0.86146081  1
  S2-  S166  1  0.13252093  0.74805025  0.34290824  1
  S2-  S167  1  0.12493706  0.76595225  0.85023462  1
  S2-  S168  1  0.37729563  -0.07224784  0.35821638  1
  S2-  S169  1  0.33440560  -0.00624708  0.85444499  1
  S2-  S170  1  0.40982559  0.26065196  0.34056810  1
  S2-  S171  1  0.36719902  0.23551159  0.82968565  1
  S2-  S172  1  0.35327894  0.50810901  0.32479384  1
  S2-  S173  1  0.39150301  0.47618044  0.84953807  1
  S2-  S174  1  0.35004826  0.73446650  0.30945122  1
  S2-  S175  1  0.35336619  0.75840426  0.83875484  1
  S2-  S176  1  0.65331367  0.01951994  0.34999820  1
  S2-  S177  1  0.59338080  0.03237951  0.84449448  1
  S2-  S178  1  0.65131708  0.26538075  0.34595279  1
  S2-  S179  1  0.58743461  0.26253026  0.83865507  1
  S2-  S180  1  0.54652364  0.49266263  0.35860170  1
  S2-  S181  1  0.64079111  0.50456640  0.85000639  1
  S2-  S182  1  0.54380296  0.75767759  0.35047964  1
  S2-  S183  1  0.61479374  0.75761235  0.84951799  1
  S2-  S184  1  0.88176755  0.00168472  0.35035206  1
  S2-  S185  1  0.86286542  -0.02512705  0.84515550  1
  S2-  S186  1  0.89213915  0.22943182  0.34829190  1
  S2-  S187  1  0.82521811  0.23215905  0.83121296  1
  S2-  S188  1  0.97867645  0.53878496  0.36155334  1
  S2-  S189  1  0.85013591  0.44258756  0.83106844  1
  S2-  S190  1  0.90943223  0.77292919  0.34621269  1
  S2-  S191  1  0.86697153  0.66480710  0.85868937  1
  S2-  S192  1  0.01330308  0.13640023  0.45697818  1
  S2-  S193  1  0.00396448  0.13019366  0.94522913  1
  S2-  S194  1  0.01389973  0.38367661  0.44988426  1
  S2-  S195  1  0.00268318  0.37963065  0.95579368  1
  S2-  S196  1  0.01884858  0.64491894  0.46033568  1
  S2-  S197  1  0.00670712  0.64160265  0.96315812  1
  S2-  S198  1  0.01552693  0.89058817  0.45194439  1
  S2-  S199  1  0.00509596  0.88024373  0.95034246  1
  S2-  S200  1  0.26714370  0.13508621  0.45139239  1
  S2-  S201  1  0.25492449  0.13191950  0.95367701  1
  S2-  S202  1  0.26597256  0.38690748  0.44203911  1
  S2-  S203  1  0.25274352  0.38385456  0.94089397  1
  S2-  S204  1  0.26921444  0.63787784  0.44290730  1
  S2-  S205  1  0.25471288  0.63263084  0.94450187  1
  S2-  S206  1  0.26413660  0.89404352  0.46056702  1
  S2-  S207  1  0.25521859  0.88192203  0.96083583  1
  S2-  S208  1  0.51790227  0.13576491  0.45532701  1
  S2-  S209  1  0.50232794  0.13171354  0.95008838  1
  S2-  S210  1  0.51725934  0.38299492  0.45669327  1
  S2-  S211  1  0.50522711  0.38709991  0.95278874  1
  S2-  S212  1  0.51609668  0.63739346  0.44884357  1
  S2-  S213  1  0.50331358  0.63121055  0.95313478  1
  S2-  S214  1  0.52124119  0.89300063  0.45293316  1
  S2-  S215  1  0.50209409  0.88102851  0.95127974  1
  S2-  S216  1  0.76771669  0.13779031  0.46214551  1
  S2-  S217  1  0.75352394  0.13047197  0.94575989  1
  S2-  S218  1  0.76527601  0.38755027  0.45704619  1
  S2-  S219  1  0.75422977  0.38615296  0.95154283  1
  S2-  S220  1  0.76467029  0.63822305  0.46229040  1
  S2-  S221  1  0.75033656  0.63500611  0.95969086  1
  S2-  S222  1  0.76688464  0.88912778  0.45772177  1
  S2-  S223  1  0.75384095  0.87828486  0.95362053  1
  S2-  S224  1  0.12617081  0.00476823  0.04380417  1
  S2-  S225  1  0.14003105  0.01242409  0.55142273  1
  S2-  S226  1  0.12990292  0.25737652  0.04515333  1
  S2-  S227  1  0.14159471  0.26029009  0.54471538  1
  S2-  S228  1  0.13725671  0.50626789  0.05368188  1
  S2-  S229  1  0.14646826  0.50909248  0.53098542  1
  S2-  S230  1  0.12988739  0.75714826  0.05202033  1
  S2-  S231  1  0.14453934  0.76802749  0.54598883  1
  S2-  S232  1  0.37958508  0.00546909  0.05241802  1
  S2-  S233  1  0.39465233  0.01771360  0.54500233  1
  S2-  S234  1  0.37476861  0.25891528  0.03901953  1
  S2-  S235  1  0.39146854  0.26304802  0.54520659  1
  S2-  S236  1  0.36921350  0.50777100  0.04944789  1
  S2-  S237  1  0.39053266  0.50742377  0.53154789  1
  S2-  S238  1  0.37761890  0.75671899  0.04402214  1
  S2-  S239  1  0.39240398  0.76397608  0.52915752  1
  S2-  S240  1  0.62638046  0.00634130  0.04636574  1
  S2-  S241  1  0.64436795  0.00701645  0.54946131  1
  S2-  S242  1  0.62940922  0.26013404  0.04357814  1
  S2-  S243  1  0.64090704  0.26753390  0.54866725  1
  S2-  S244  1  0.62920905  0.50720121  0.05247370  1
  S2-  S245  1  0.63390809  0.51439791  0.54480545  1
  S2-  S246  1  0.62653813  0.75416369  0.05119776  1
  S2-  S247  1  0.63784589  0.75867665  0.54100480  1
  S2-  S248  1  0.87877066  0.00678616  0.04747527  1
  S2-  S249  1  0.89097283  0.00833390  0.54960153  1
  S2-  S250  1  0.87569540  0.25082515  0.03376462  1
  S2-  S251  1  0.89345281  0.26701121  0.54650826  1
  S2-  S252  1  0.87701316  0.50873969  0.03513217  1
  S2-  S253  1  0.89519407  0.51214219  0.54535885  1
  S2-  S254  1  0.87786609  0.75844924  0.04265111  1
  S2-  S255  1  0.89589526  0.76361154  0.54821900  1
