# generated using pymatgen
data_La6Ce7Pr13Nd19Sm19(BiS2)64
_symmetry_space_group_name_H-M   'P 1'
_cell_length_a   16.08746350
_cell_length_b   16.11546392
_cell_length_c   27.34420300
_cell_angle_alpha   89.96836200
_cell_angle_beta   90.38520043
_cell_angle_gamma   89.98158912
_symmetry_Int_Tables_number   1
_chemical_formula_structural   La6Ce7Pr13Nd19Sm19(BiS2)64
_chemical_formula_sum   'La6 Ce7 Pr13 Nd19 Sm19 Bi64 S128'
_cell_volume   7089.01266325
_cell_formula_units_Z   1
loop_
 _symmetry_equiv_pos_site_id
 _symmetry_equiv_pos_as_xyz
  1  'x, y, z'
loop_
 _atom_type_symbol
 _atom_type_oxidation_number
  La3+  3.0
  Ce3+  3.0
  Pr3+  3.0
  Nd3+  3.0
  Sm3+  3.0
  Bi2+  2.0
  S2-  -2.0
loop_
 _atom_site_type_symbol
 _atom_site_label
 _atom_site_symmetry_multiplicity
 _atom_site_fract_x
 _atom_site_fract_y
 _atom_site_fract_z
 _atom_site_occupancy
  La3+  La0  1  0.00897509  0.39421038  0.08732550  1
  La3+  La1  1  0.12338284  0.74309292  0.41856187  1
  La3+  La2  1  0.52458022  0.63227501  0.09376648  1
  La3+  La3  1  0.51851308  0.89860338  0.07991666  1
  La3+  La4  1  0.38444586  0.73521268  0.39253073  1
  La3+  La5  1  0.00825664  0.86393573  0.57817634  1
  Ce3+  Ce6  1  0.37526008  -0.01286205  0.43889568  1
  Ce3+  Ce7  1  0.63468552  0.51084251  0.93752494  1
  Ce3+  Ce8  1  0.88132776  0.01516131  0.93742069  1
  Ce3+  Ce9  1  0.87347330  -0.01256793  0.44719624  1
  Ce3+  Ce10  1  0.62386883  0.74485505  0.44179087  1
  Ce3+  Ce11  1  0.50026946  0.36810697  0.56286309  1
  Ce3+  Ce12  1  0.75351696  0.89046149  0.05251381  1
  Pr3+  Pr13  1  0.13699720  0.01346359  0.93769285  1
  Pr3+  Pr14  1  0.75762620  0.14243853  0.05359414  1
  Pr3+  Pr15  1  0.74832604  0.11446756  0.56758937  1
  Pr3+  Pr16  1  0.12607001  -0.00935343  0.43207342  1
  Pr3+  Pr17  1  0.38244326  0.51673694  0.94401827  1
  Pr3+  Pr18  1  0.26260402  0.14153439  0.06218046  1
  Pr3+  Pr19  1  0.01198537  0.13767806  0.05427398  1
  Pr3+  Pr20  1  0.26108569  0.64136087  0.07100636  1
  Pr3+  Pr21  1  0.50528377  0.86748437  0.56866653  1
  Pr3+  Pr22  1  0.12217805  0.23829218  0.42414950  1
  Pr3+  Pr23  1  0.75167566  0.36756978  0.56126466  1
  Pr3+  Pr24  1  0.62678800  0.26937467  0.92062450  1
  Pr3+  Pr25  1  0.62720864  0.02098550  0.91778591  1
  Nd3+  Nd26  1  0.01062962  0.89205962  0.05976156  1
  Nd3+  Nd27  1  0.62422067  0.24137001  0.44320527  1
  Nd3+  Nd28  1  0.38668771  0.76519066  0.95544233  1
  Nd3+  Nd29  1  0.26205965  0.38935405  0.06591121  1
  Nd3+  Nd30  1  0.25216773  0.86402045  0.55571019  1
  Nd3+  Nd31  1  0.62355271  0.49606455  0.44350659  1
  Nd3+  Nd32  1  0.37495135  0.49310943  0.43743886  1
  Nd3+  Nd33  1  0.25187207  0.61889001  0.55535212  1
  Nd3+  Nd34  1  0.24814869  0.11722059  0.55852669  1
  Nd3+  Nd35  1  0.26517575  0.89804727  0.09433012  1
  Nd3+  Nd36  1  0.01180289  0.64354852  0.05845927  1
  Nd3+  Nd37  1  0.88347933  0.76577625  0.94027268  1
  Nd3+  Nd38  1  0.87434015  0.75179920  0.43281816  1
  Nd3+  Nd39  1  0.51387665  0.38751243  0.06637646  1
  Nd3+  Nd40  1  0.75552068  0.85711841  0.57804642  1
  Nd3+  Nd41  1  0.76046786  0.63822894  0.05391037  1
  Nd3+  Nd42  1  0.12420548  0.49251800  0.43909021  1
  Nd3+  Nd43  1  0.51142019  0.14450025  0.05785749  1
  Nd3+  Nd44  1  0.62944856  0.76692089  0.93730735  1
  Sm3+  Sm45  1  0.13425580  0.26694031  0.94369212  1
  Sm3+  Sm46  1  0.87125713  0.24045345  0.44709897  1
  Sm3+  Sm47  1  0.37650970  0.24081380  0.44459220  1
  Sm3+  Sm48  1  0.88469810  0.26685482  0.94214483  1
  Sm3+  Sm49  1  0.49802653  0.61960933  0.56024982  1
  Sm3+  Sm50  1  0.88697895  0.51348993  0.94167473  1
  Sm3+  Sm51  1  0.00405555  0.61968555  0.55736198  1
  Sm3+  Sm52  1  0.87374803  0.49419729  0.44514231  1
  Sm3+  Sm53  1  0.38533207  0.01146604  0.94449537  1
  Sm3+  Sm54  1  0.75350583  0.62068553  0.55775904  1
  Sm3+  Sm55  1  0.50032400  0.11621865  0.55732936  1
  Sm3+  Sm56  1  0.76016265  0.38884043  0.06325582  1
  Sm3+  Sm57  1  0.38240255  0.26675439  0.93285817  1
  Sm3+  Sm58  1  0.62381090  -0.01216979  0.44209675  1
  Sm3+  Sm59  1  0.24976264  0.36569694  0.55015627  1
  Sm3+  Sm60  1  0.13381101  0.51521940  0.94772891  1
  Sm3+  Sm61  1  0.13667894  0.76694331  0.95044892  1
  Sm3+  Sm62  1  0.00195740  0.36681814  0.55233217  1
  Sm3+  Sm63  1  0.00379924  0.11764295  0.55573506  1
  Bi2+  Bi64  1  -0.01661874  0.12705398  0.29293414  1
  Bi2+  Bi65  1  0.00013393  0.13831664  0.73889808  1
  Bi2+  Bi66  1  0.03965286  0.31997833  0.30796423  1
  Bi2+  Bi67  1  0.04548411  0.38491553  0.78737874  1
  Bi2+  Bi68  1  -0.01400862  0.59676116  0.28989452  1
  Bi2+  Bi69  1  0.04068222  0.61313773  0.77757769  1
  Bi2+  Bi70  1  -0.02471346  0.86038186  0.28998497  1
  Bi2+  Bi71  1  0.03244667  0.86418435  0.79541635  1
  Bi2+  Bi72  1  0.23894333  0.19430269  0.29322056  1
  Bi2+  Bi73  1  0.24720243  0.14131893  0.80328911  1
  Bi2+  Bi74  1  0.22234564  0.39282827  0.29361392  1
  Bi2+  Bi75  1  0.26354495  0.33293025  0.80857232  1
  Bi2+  Bi76  1  0.24331479  0.59132793  0.28193120  1
  Bi2+  Bi77  1  0.24554329  0.60192738  0.79851719  1
  Bi2+  Bi78  1  0.23791835  0.88204911  0.28663463  1
  Bi2+  Bi79  1  0.25294022  0.88147416  0.81634735  1
  Bi2+  Bi80  1  0.51021575  0.14323439  0.28694249  1
  Bi2+  Bi81  1  0.51375298  0.15346329  0.78826430  1
  Bi2+  Bi82  1  0.49281096  0.34412950  0.29110793  1
  Bi2+  Bi83  1  0.43732364  0.37523445  0.75594365  1
  Bi2+  Bi84  1  0.52338578  0.59833067  0.29110161  1
  Bi2+  Bi85  1  0.45474699  0.63026357  0.75999488  1
  Bi2+  Bi86  1  0.47003728  0.94637174  0.27314072  1
  Bi2+  Bi87  1  0.51661822  0.86309453  0.80800637  1
  Bi2+  Bi88  1  0.79081116  0.10849629  0.29195176  1
  Bi2+  Bi89  1  0.79681295  0.14458684  0.78870884  1
  Bi2+  Bi90  1  0.69819525  0.35191161  0.27957125  1
  Bi2+  Bi91  1  0.78050446  0.39301867  0.79448277  1
  Bi2+  Bi92  1  0.77740873  0.63774185  0.29823332  1
  Bi2+  Bi93  1  0.76140835  0.59451023  0.77122836  1
  Bi2+  Bi94  1  0.71489372  0.84599650  0.30843051  1
  Bi2+  Bi95  1  0.75683127  0.81768514  0.79042250  1
  Bi2+  Bi96  1  0.08949077  0.02435731  0.20255695  1
  Bi2+  Bi97  1  0.17022800  0.00881957  0.70591971  1
  Bi2+  Bi98  1  0.11509179  0.24489206  0.20643951  1
  Bi2+  Bi99  1  0.15860658  0.26207589  0.70882450  1
  Bi2+  Bi100  1  0.04859485  0.44350172  0.21817544  1
  Bi2+  Bi101  1  0.10109423  0.48914896  0.69480976  1
  Bi2+  Bi102  1  0.09094353  0.70547377  0.19837432  1
  Bi2+  Bi103  1  0.13181224  0.74955481  0.70937230  1
  Bi2+  Bi104  1  0.35175217  0.09706888  0.22020526  1
  Bi2+  Bi105  1  0.37961498  0.01023573  0.76654236  1
  Bi2+  Bi106  1  0.38384439  0.25690326  0.15090076  1
  Bi2+  Bi107  1  0.35155661  0.21113176  0.70983811  1
  Bi2+  Bi108  1  0.36791924  0.41657624  0.21591723  1
  Bi2+  Bi109  1  0.29876524  0.49904271  0.70485821  1
  Bi2+  Bi110  1  0.35196089  0.74697937  0.19832104  1
  Bi2+  Bi111  1  0.32627866  0.77262377  0.72203264  1
  Bi2+  Bi112  1  0.65962283  0.02751554  0.20104026  1
  Bi2+  Bi113  1  0.63902937  0.01843962  0.71437447  1
  Bi2+  Bi114  1  0.57216744  0.23486852  0.19080450  1
  Bi2+  Bi115  1  0.63924366  0.25648454  0.69060928  1
  Bi2+  Bi116  1  0.63234428  0.48633241  0.20368561  1
  Bi2+  Bi117  1  0.59519348  0.49298012  0.76848883  1
  Bi2+  Bi118  1  0.66288453  0.75404719  0.21255332  1
  Bi2+  Bi119  1  0.57146545  0.75568527  0.69702565  1
  Bi2+  Bi120  1  0.84500312  -0.04328636  0.22370437  1
  Bi2+  Bi121  1  0.89978924  -0.03029224  0.73866516  1
  Bi2+  Bi122  1  0.83901267  0.25455321  0.21892059  1
  Bi2+  Bi123  1  0.90084162  0.31143129  0.71257739  1
  Bi2+  Bi124  1  0.83232320  0.47755581  0.23388431  1
  Bi2+  Bi125  1  0.90920549  0.52789273  0.70429068  1
  Bi2+  Bi126  1  0.86218140  0.75420808  0.21715030  1
  Bi2+  Bi127  1  0.87167362  0.73862154  0.70271119  1
  S2-  S128  1  0.00228441  0.14543225  0.15406900  1
  S2-  S129  1  0.03788346  0.07739936  0.64853834  1
  S2-  S130  1  -0.13545850  0.38254200  0.14587087  1
  S2-  S131  1  0.02649191  0.32201509  0.64456763  1
  S2-  S132  1  -0.00151009  0.59603881  0.15326643  1
  S2-  S133  1  0.00996940  0.71319420  0.63929111  1
  S2-  S134  1  0.00085430  0.91005285  0.15843081  1
  S2-  S135  1  -0.12001053  0.88766786  0.65011963  1
  S2-  S136  1  0.23891292  0.04814126  0.14758656  1
  S2-  S137  1  0.28681214  0.07731583  0.65252163  1
  S2-  S138  1  0.15644867  0.38893301  0.14604575  1
  S2-  S139  1  0.26927202  0.35385282  0.64678818  1
  S2-  S140  1  0.23506060  0.61609945  0.17100630  1
  S2-  S141  1  0.25259666  0.65269186  0.65350359  1
  S2-  S142  1  0.20118112  0.83811910  0.18459577  1
  S2-  S143  1  0.15592840  0.87983835  0.63975313  1
  S2-  S144  1  0.53279742  0.05241257  0.14224885  1
  S2-  S145  1  0.54226920  0.11655871  0.65298019  1
  S2-  S146  1  0.48484169  0.48839984  0.15019904  1
  S2-  S147  1  0.52105537  0.35971687  0.66000789  1
  S2-  S148  1  0.50432648  0.68545968  0.19295263  1
  S2-  S149  1  0.51659218  0.61666754  0.65834991  1
  S2-  S150  1  0.40388532  0.88360157  0.15729287  1
  S2-  S151  1  0.43335102  0.84942299  0.66211635  1
  S2-  S152  1  0.75604199  0.15284896  0.15441362  1
  S2-  S153  1  0.75418600  0.12155614  0.66896473  1
  S2-  S154  1  0.64431231  0.35880947  0.13614885  1
  S2-  S155  1  0.74856097  0.36715541  0.66143519  1
  S2-  S156  1  0.69165267  0.62276328  0.14391110  1
  S2-  S157  1  0.74349844  0.70658892  0.64267276  1
  S2-  S158  1  0.67008892  0.88460996  0.13861500  1
  S2-  S159  1  0.63740635  0.89992800  0.64895008  1
  S2-  S160  1  0.11348888  -0.10487958  0.34747461  1
  S2-  S161  1  0.11661658  -0.00566512  0.83852749  1
  S2-  S162  1  0.12462084  0.11095427  0.35455228  1
  S2-  S163  1  0.11309705  0.25838505  0.84645059  1
  S2-  S164  1  0.12160310  0.56201634  0.34858983  1
  S2-  S165  1  0.12168968  0.50740753  0.85059516  1
  S2-  S166  1  0.23297978  0.73446755  0.33666794  1
  S2-  S167  1  0.14756476  0.76444541  0.85317272  1
  S2-  S168  1  0.34738452  -0.01082022  0.34189652  1
  S2-  S169  1  0.47316862  0.01239441  0.85967214  1
  S2-  S170  1  0.38988863  0.24110474  0.34751610  1
  S2-  S171  1  0.47714584  0.27108723  0.85166056  1
  S2-  S172  1  0.38010223  0.57046689  0.34721504  1
  S2-  S173  1  0.38260507  0.54635200  0.84484909  1
  S2-  S174  1  0.40300155  0.80313183  0.29285590  1
  S2-  S175  1  0.38883951  0.79228900  0.85665575  1
  S2-  S176  1  0.60594267  -0.03988021  0.34522867  1
  S2-  S177  1  0.66612884  -0.05328858  0.82289969  1
  S2-  S178  1  0.62950391  0.23466439  0.34540932  1
  S2-  S179  1  0.65745725  0.15468083  0.84508160  1
  S2-  S180  1  0.60939211  0.49294684  0.34453058  1
  S2-  S181  1  0.64006563  0.41055803  0.85766259  1
  S2-  S182  1  0.55640017  0.71699365  0.35325052  1
  S2-  S183  1  0.62524316  0.73666593  0.83886932  1
  S2-  S184  1  0.85364778  -0.10402514  0.36490815  1
  S2-  S185  1  0.87828090  0.02662451  0.84032526  1
  S2-  S186  1  0.87137617  0.23461080  0.35011693  1
  S2-  S187  1  0.86918001  0.26459455  0.84416365  1
  S2-  S188  1  0.86401379  0.50617362  0.34762579  1
  S2-  S189  1  0.86670958  0.51355143  0.84430364  1
  S2-  S190  1  0.98224703  0.72835962  0.35526016  1
  S2-  S191  1  0.89828187  0.77305057  0.84183778  1
  S2-  S192  1  -0.00624662  0.11831055  0.45239218  1
  S2-  S193  1  0.01024448  0.14092778  0.94761965  1
  S2-  S194  1  -0.00395650  0.36675407  0.44863478  1
  S2-  S195  1  0.01079371  0.39050159  0.95487937  1
  S2-  S196  1  -0.00310752  0.61262596  0.45569487  1
  S2-  S197  1  0.01089823  0.64126249  0.95137643  1
  S2-  S198  1  0.00093533  0.86882647  0.46141925  1
  S2-  S199  1  0.00994451  0.88906233  0.95332266  1
  S2-  S200  1  0.25439680  0.11953247  0.45233280  1
  S2-  S201  1  0.26141353  0.14149248  0.95195679  1
  S2-  S202  1  0.25001998  0.36482159  0.44536561  1
  S2-  S203  1  0.25698412  0.38977924  0.95645030  1
  S2-  S204  1  0.25223328  0.61515301  0.45059436  1
  S2-  S205  1  0.25630996  0.64168763  0.96149953  1
  S2-  S206  1  0.25716700  0.86125890  0.44941298  1
  S2-  S207  1  0.26079707  0.88955102  0.95896852  1
  S2-  S208  1  0.50086378  0.11544011  0.45179045  1
  S2-  S209  1  0.50213866  0.14235557  0.95378696  1
  S2-  S210  1  0.49975243  0.36748101  0.45452610  1
  S2-  S211  1  0.50382487  0.39147422  0.95721603  1
  S2-  S212  1  0.49646231  0.61728783  0.45650563  1
  S2-  S213  1  0.51018381  0.63860792  0.95033673  1
  S2-  S214  1  0.49822719  0.86498774  0.45416703  1
  S2-  S215  1  0.50925015  0.89010039  0.96225782  1
  S2-  S216  1  0.74774757  0.11475997  0.45662349  1
  S2-  S217  1  0.76217184  0.14261623  0.94868845  1
  S2-  S218  1  0.74941048  0.36866728  0.45340566  1
  S2-  S219  1  0.76629008  0.39110809  0.95791059  1
  S2-  S220  1  0.75105271  0.61884682  0.45319200  1
  S2-  S221  1  0.76081895  0.63874391  0.94740013  1
  S2-  S222  1  0.74454002  0.86734703  0.46681191  1
  S2-  S223  1  0.75707583  0.88973903  0.94661113  1
  S2-  S224  1  0.13729710  0.01183776  0.04429571  1
  S2-  S225  1  0.12696188  -0.00473022  0.53828318  1
  S2-  S226  1  0.13460306  0.26507925  0.04696437  1
  S2-  S227  1  0.12565337  0.24303297  0.53618478  1
  S2-  S228  1  0.13444409  0.51695269  0.05013330  1
  S2-  S229  1  0.12607848  0.49051502  0.54550807  1
  S2-  S230  1  0.13807916  0.77013665  0.05521300  1
  S2-  S231  1  0.12962949  0.73894245  0.53535279  1
  S2-  S232  1  0.38438443  0.01545621  0.04730739  1
  S2-  S233  1  0.37727567  -0.00679042  0.54602838  1
  S2-  S234  1  0.38458891  0.26790113  0.03620966  1
  S2-  S235  1  0.37613848  0.24134060  0.54887422  1
  S2-  S236  1  0.38279627  0.51601397  0.04987498  1
  S2-  S237  1  0.37523144  0.49075697  0.54577936  1
  S2-  S238  1  0.39248242  0.75872109  0.05996216  1
  S2-  S239  1  0.37738814  0.74106314  0.55112164  1
  S2-  S240  1  0.63631359  0.01909618  0.03215654  1
  S2-  S241  1  0.62425030  -0.00452209  0.54476798  1
  S2-  S242  1  0.63495566  0.26437546  0.03197454  1
  S2-  S243  1  0.62480308  0.24180073  0.54849238  1
  S2-  S244  1  0.63641637  0.51261795  0.04143692  1
  S2-  S245  1  0.62670643  0.49690997  0.55084720  1
  S2-  S246  1  0.63250244  0.75858653  0.04326069  1
  S2-  S247  1  0.62254364  0.73800747  0.54576386  1
  S2-  S248  1  0.88271223  0.01377521  0.04570696  1
  S2-  S249  1  0.87789168  -0.00348609  0.55057522  1
  S2-  S250  1  0.88896443  0.26503883  0.04556563  1
  S2-  S251  1  0.87733228  0.24054949  0.55166833  1
  S2-  S252  1  0.88789635  0.51679249  0.04562704  1
  S2-  S253  1  0.87847353  0.49402876  0.55074510  1
  S2-  S254  1  0.88352231  0.76616604  0.04831793  1
  S2-  S255  1  0.87775731  0.73851963  0.53965218  1
