# generated using pymatgen
data_La6Ce7Pr13Nd19Sm19(BiS2)64
_symmetry_space_group_name_H-M   'P 1'
_cell_length_a   16.09741001
_cell_length_b   16.07251102
_cell_length_c   27.31400803
_cell_angle_alpha   89.96817848
_cell_angle_beta   89.68681077
_cell_angle_gamma   90.01221487
_symmetry_Int_Tables_number   1
_chemical_formula_structural   La6Ce7Pr13Nd19Sm19(BiS2)64
_chemical_formula_sum   'La6 Ce7 Pr13 Nd19 Sm19 Bi64 S128'
_cell_volume   7066.73174041
_cell_formula_units_Z   1
loop_
 _symmetry_equiv_pos_site_id
 _symmetry_equiv_pos_as_xyz
  1  'x, y, z'
loop_
 _atom_type_symbol
 _atom_type_oxidation_number
  La3+  3.0
  Ce3+  3.0
  Pr3+  3.0
  Nd3+  3.0
  Sm3+  3.0
  Bi2+  2.0
  S2-  -2.0
loop_
 _atom_site_type_symbol
 _atom_site_label
 _atom_site_symmetry_multiplicity
 _atom_site_fract_x
 _atom_site_fract_y
 _atom_site_fract_z
 _atom_site_occupancy
  La3+  La0  1  0.63943400  0.49596043  0.42290790  1
  La3+  La1  1  0.50268770  0.10645770  0.58326227  1
  La3+  La2  1  0.38506695  0.00714481  0.90964707  1
  La3+  La3  1  0.38737085  0.50551880  0.93303782  1
  La3+  La4  1  0.64342743  -0.00496563  0.41684579  1
  La3+  La5  1  0.88402095  0.49804728  0.92399517  1
  Ce3+  Ce6  1  0.75615579  0.36897508  0.55718595  1
  Ce3+  Ce7  1  0.49915793  0.37450788  0.07143401  1
  Ce3+  Ce8  1  0.75776618  0.37779846  0.06748282  1
  Ce3+  Ce9  1  0.13222875  -0.00518322  0.43467471  1
  Ce3+  Ce10  1  0.63048947  0.74945833  0.95180747  1
  Ce3+  Ce11  1  0.38816489  0.49634882  0.43109518  1
  Ce3+  Ce12  1  0.62923270  0.24936174  0.95292426  1
  Pr3+  Pr13  1  0.00844880  0.61376645  0.57362399  1
  Pr3+  Pr14  1  0.63840647  0.24255728  0.42708476  1
  Pr3+  Pr15  1  0.75927711  0.12483349  0.06810145  1
  Pr3+  Pr16  1  0.75663604  0.87257229  0.56171611  1
  Pr3+  Pr17  1  0.64124797  0.74666110  0.42424900  1
  Pr3+  Pr18  1  0.26544957  0.36754721  0.54909883  1
  Pr3+  Pr19  1  0.51071688  0.36810186  0.55217712  1
  Pr3+  Pr20  1  0.13071225  0.75125248  0.94523494  1
  Pr3+  Pr21  1  0.51088066  0.11776332  0.07840043  1
  Pr3+  Pr22  1  0.88220247  0.00184808  0.92690980  1
  Pr3+  Pr23  1  0.37676875  -0.00753465  0.41222696  1
  Pr3+  Pr24  1  0.88504478  0.49707269  0.43379520  1
  Pr3+  Pr25  1  0.13170073  0.49554018  0.43645349  1
  Nd3+  Nd26  1  0.88053020  0.25229178  0.93699900  1
  Nd3+  Nd27  1  0.49949802  0.62319205  0.07989233  1
  Nd3+  Nd28  1  0.00189716  0.12582255  0.06902324  1
  Nd3+  Nd29  1  0.00883278  0.86962029  0.56531580  1
  Nd3+  Nd30  1  0.88771087  -0.00617389  0.43722238  1
  Nd3+  Nd31  1  0.26472881  0.87307845  0.55571848  1
  Nd3+  Nd32  1  0.38826140  0.24271958  0.42708591  1
  Nd3+  Nd33  1  0.00813886  0.37037601  0.56470953  1
  Nd3+  Nd34  1  0.13437268  0.24545364  0.44390421  1
  Nd3+  Nd35  1  0.75729472  0.11842003  0.55625938  1
  Nd3+  Nd36  1  0.13055226  0.24881910  0.94375840  1
  Nd3+  Nd37  1  0.25627613  0.88114639  0.05827503  1
  Nd3+  Nd38  1  0.50619173  0.87835449  0.05838185  1
  Nd3+  Nd39  1  0.25297176  0.62589298  0.06859080  1
  Nd3+  Nd40  1  0.87484353  0.74538356  0.92378280  1
  Nd3+  Nd41  1  0.75715150  0.61864332  0.56133640  1
  Nd3+  Nd42  1  0.26227360  0.61964603  0.55417603  1
  Nd3+  Nd43  1  0.13339637  0.74430639  0.44591655  1
  Nd3+  Nd44  1  0.01013386  0.11836485  0.55770486  1
  Sm3+  Sm45  1  0.00493085  0.62718377  0.06001134  1
  Sm3+  Sm46  1  0.75769971  0.87629617  0.05714037  1
  Sm3+  Sm47  1  0.51207986  0.62021286  0.54854651  1
  Sm3+  Sm48  1  0.38627815  0.74564582  0.43868055  1
  Sm3+  Sm49  1  0.38166287  0.74824012  0.94575960  1
  Sm3+  Sm50  1  0.13110022  0.00000979  0.93291696  1
  Sm3+  Sm51  1  0.88545165  0.74396799  0.44073506  1
  Sm3+  Sm52  1  0.25525079  0.37495142  0.05318511  1
  Sm3+  Sm53  1  0.75734087  0.62660766  0.06523905  1
  Sm3+  Sm54  1  0.26231154  0.11746603  0.55180837  1
  Sm3+  Sm55  1  0.88435520  0.24660335  0.43809459  1
  Sm3+  Sm56  1  0.38797116  0.25614425  0.93676467  1
  Sm3+  Sm57  1  0.51101293  0.87420593  0.54143722  1
  Sm3+  Sm58  1  0.25890780  0.12542037  0.05469057  1
  Sm3+  Sm59  1  0.12873109  0.50348895  0.94203340  1
  Sm3+  Sm60  1  0.00293331  0.87724763  0.05538896  1
  Sm3+  Sm61  1  0.00643750  0.37780969  0.05909856  1
  Sm3+  Sm62  1  0.63357555  0.00322941  0.93180462  1
  Sm3+  Sm63  1  0.63207601  0.50208252  0.95465726  1
  Bi2+  Bi64  1  -0.00034498  0.02847187  0.32218901  1
  Bi2+  Bi65  1  -0.01151392  0.18124104  0.81686538  1
  Bi2+  Bi66  1  -0.00967092  0.40632931  0.33074201  1
  Bi2+  Bi67  1  0.00172812  0.38676699  0.79782581  1
  Bi2+  Bi68  1  -0.03010309  0.61153071  0.32118971  1
  Bi2+  Bi69  1  -0.01639224  0.65970747  0.80151766  1
  Bi2+  Bi70  1  -0.00249012  0.82668731  0.32759385  1
  Bi2+  Bi71  1  0.04070915  0.95449688  0.76215156  1
  Bi2+  Bi72  1  0.17556780  0.10816694  0.28754879  1
  Bi2+  Bi73  1  0.25192528  0.10354737  0.77924811  1
  Bi2+  Bi74  1  0.15922321  0.35065028  0.26611883  1
  Bi2+  Bi75  1  0.26474343  0.36911501  0.78972351  1
  Bi2+  Bi76  1  0.21019169  0.61441645  0.27716956  1
  Bi2+  Bi77  1  0.27158893  0.64535631  0.80591205  1
  Bi2+  Bi78  1  0.18158200  0.86439942  0.27734561  1
  Bi2+  Bi79  1  0.20726590  0.84986556  0.78390688  1
  Bi2+  Bi80  1  0.49166745  0.13151217  0.28967101  1
  Bi2+  Bi81  1  0.50310287  0.13799746  0.79337201  1
  Bi2+  Bi82  1  0.46726836  0.37577242  0.29009366  1
  Bi2+  Bi83  1  0.53389714  0.38899041  0.79911823  1
  Bi2+  Bi84  1  0.47528152  0.62237916  0.29396310  1
  Bi2+  Bi85  1  0.47425950  0.60280375  0.74992877  1
  Bi2+  Bi86  1  0.46167164  0.83684107  0.27742857  1
  Bi2+  Bi87  1  0.42845923  0.87441464  0.79147886  1
  Bi2+  Bi88  1  0.74446644  0.11650966  0.28669512  1
  Bi2+  Bi89  1  0.80314981  0.14290898  0.79416707  1
  Bi2+  Bi90  1  0.79638902  0.37048055  0.28275974  1
  Bi2+  Bi91  1  0.79165375  0.39754597  0.76234230  1
  Bi2+  Bi92  1  0.78819987  0.62601005  0.28467770  1
  Bi2+  Bi93  1  0.70028027  0.61514056  0.79392124  1
  Bi2+  Bi94  1  0.80929063  0.86225260  0.28268827  1
  Bi2+  Bi95  1  0.75853440  0.86504313  0.79192428  1
  Bi2+  Bi96  1  0.08136400  -0.00347330  0.21062080  1
  Bi2+  Bi97  1  0.13362141  0.07316189  0.69021337  1
  Bi2+  Bi98  1  0.05474334  0.22272802  0.20327685  1
  Bi2+  Bi99  1  0.15157169  0.26308073  0.71058631  1
  Bi2+  Bi100  1  0.12729299  0.50315118  0.19284087  1
  Bi2+  Bi101  1  0.16680480  0.52079100  0.74478847  1
  Bi2+  Bi102  1  0.13088994  0.70258829  0.18557892  1
  Bi2+  Bi103  1  0.14636069  0.70658800  0.70669326  1
  Bi2+  Bi104  1  0.35929712  0.01167784  0.19689876  1
  Bi2+  Bi105  1  0.37715932  -0.01688822  0.70336460  1
  Bi2+  Bi106  1  0.31747136  0.23160521  0.21491795  1
  Bi2+  Bi107  1  0.35066669  0.23839349  0.71760173  1
  Bi2+  Bi108  1  0.34507690  0.48666794  0.20911364  1
  Bi2+  Bi109  1  0.36605983  0.47324813  0.69492166  1
  Bi2+  Bi110  1  0.32060652  0.75057975  0.21370892  1
  Bi2+  Bi111  1  0.34535804  0.75620458  0.70957580  1
  Bi2+  Bi112  1  0.62825321  -0.01638887  0.20779919  1
  Bi2+  Bi113  1  0.62879298  0.00957637  0.69668303  1
  Bi2+  Bi114  1  0.66026884  0.26141329  0.22984063  1
  Bi2+  Bi115  1  0.65286704  0.25353973  0.75049907  1
  Bi2+  Bi116  1  0.63250358  0.49984503  0.20056435  1
  Bi2+  Bi117  1  0.62101060  0.50652672  0.68014071  1
  Bi2+  Bi118  1  0.67843659  0.73928545  0.21271089  1
  Bi2+  Bi119  1  0.58888534  0.76975233  0.75774250  1
  Bi2+  Bi120  1  0.88406062  0.01143173  0.21053715  1
  Bi2+  Bi121  1  0.87756186  0.02037499  0.71352894  1
  Bi2+  Bi122  1  0.92643929  0.21165503  0.28954373  1
  Bi2+  Bi123  1  0.92830001  0.27030604  0.71678130  1
  Bi2+  Bi124  1  0.93668453  0.48398601  0.22892472  1
  Bi2+  Bi125  1  0.88616190  0.53126222  0.69526336  1
  Bi2+  Bi126  1  0.94366482  0.75331510  0.22382663  1
  Bi2+  Bi127  1  0.84262424  0.77793844  0.70067048  1
  S2-  S128  1  -0.11683636  0.13263427  0.14271877  1
  S2-  S129  1  -0.02440556  0.13496837  0.65388153  1
  S2-  S130  1  -0.00068199  0.36471256  0.15681948  1
  S2-  S131  1  0.01179269  0.47431834  0.64335181  1
  S2-  S132  1  -0.02180672  0.61760256  0.15630310  1
  S2-  S133  1  -0.02002351  0.67712186  0.66784805  1
  S2-  S134  1  -0.01905279  0.89039616  0.15246319  1
  S2-  S135  1  -0.03752931  0.88893716  0.66044681  1
  S2-  S136  1  0.24300136  0.12015488  0.15283210  1
  S2-  S137  1  0.34967582  0.11795792  0.63623794  1
  S2-  S138  1  0.28674633  0.36510719  0.14882707  1
  S2-  S139  1  0.26635432  0.35222324  0.64817769  1
  S2-  S140  1  0.35928965  0.61460136  0.14604611  1
  S2-  S141  1  0.24574518  0.59059358  0.65111652  1
  S2-  S142  1  0.27182036  0.89418669  0.15726136  1
  S2-  S143  1  0.26261629  0.88357948  0.65441469  1
  S2-  S144  1  0.44875682  0.16653406  0.17351225  1
  S2-  S145  1  0.56440490  0.15639548  0.67510214  1
  S2-  S146  1  0.50170773  0.42405877  0.16698186  1
  S2-  S147  1  0.50669222  0.39343916  0.65213785  1
  S2-  S148  1  0.55650181  0.65150299  0.17639013  1
  S2-  S149  1  0.52404903  0.62797147  0.64594394  1
  S2-  S150  1  0.49715261  0.93330223  0.15338519  1
  S2-  S151  1  0.50518955  0.94332384  0.63158246  1
  S2-  S152  1  0.64792509  0.10595198  0.14703916  1
  S2-  S153  1  0.75465188  0.09036418  0.65454115  1
  S2-  S154  1  0.73909365  0.36605869  0.16593455  1
  S2-  S155  1  0.76287651  0.40570679  0.65242736  1
  S2-  S156  1  0.75759543  0.60980093  0.16291973  1
  S2-  S157  1  0.75686701  0.63677214  0.66087081  1
  S2-  S158  1  0.73313333  0.88017164  0.15484458  1
  S2-  S159  1  0.71745447  0.86277776  0.65983816  1
  S2-  S160  1  0.22539887  -0.02325033  0.35348561  1
  S2-  S161  1  0.01634312  0.01647041  0.85798135  1
  S2-  S162  1  0.13334404  0.23843202  0.34556767  1
  S2-  S163  1  0.13091091  0.28238831  0.84629035  1
  S2-  S164  1  0.15520538  0.48381003  0.33731319  1
  S2-  S165  1  0.03757357  0.51932733  0.85886454  1
  S2-  S166  1  0.15304497  0.73944423  0.34711338  1
  S2-  S167  1  0.11967732  0.73358186  0.84633590  1
  S2-  S168  1  0.40441324  -0.00125235  0.30754462  1
  S2-  S169  1  0.23670958  -0.01692404  0.85205217  1
  S2-  S170  1  0.36627284  0.24766785  0.32740539  1
  S2-  S171  1  0.37599003  0.15937194  0.85414380  1
  S2-  S172  1  0.36771847  0.50081849  0.33428617  1
  S2-  S173  1  0.39890339  0.38317610  0.85880880  1
  S2-  S174  1  0.36992559  0.74674550  0.34186784  1
  S2-  S175  1  0.40304340  0.64390545  0.86829363  1
  S2-  S176  1  0.60291942  0.01648537  0.31485059  1
  S2-  S177  1  0.53030060  -0.00129137  0.84973294  1
  S2-  S178  1  0.57783952  0.27703683  0.32987618  1
  S2-  S179  1  0.60130184  0.24983041  0.85561655  1
  S2-  S180  1  0.57048017  0.50558979  0.32651258  1
  S2-  S181  1  0.61616241  0.50684524  0.85537565  1
  S2-  S182  1  0.57928758  0.75125730  0.32634234  1
  S2-  S183  1  0.65522019  0.75308696  0.85533083  1
  S2-  S184  1  0.79197461  -0.01222403  0.35426223  1
  S2-  S185  1  0.75373995  0.00291115  0.85675613  1
  S2-  S186  1  0.78030165  0.24113655  0.35936870  1
  S2-  S187  1  0.85640281  0.36370193  0.85913295  1
  S2-  S188  1  0.77303135  0.49330291  0.35401849  1
  S2-  S189  1  0.84662247  0.61630461  0.85026649  1
  S2-  S190  1  0.78356548  0.74701566  0.35954276  1
  S2-  S191  1  0.90390265  0.80999423  0.83080170  1
  S2-  S192  1  0.00770723  0.12356832  0.45178055  1
  S2-  S193  1  0.00424211  0.12816494  0.96204422  1
  S2-  S194  1  0.00814318  0.36814025  0.45870226  1
  S2-  S195  1  0.00943755  0.37586643  0.95610291  1
  S2-  S196  1  0.00871467  0.62141993  0.46103334  1
  S2-  S197  1  0.00228311  0.62918248  0.95780286  1
  S2-  S198  1  0.00926729  0.86860845  0.45830518  1
  S2-  S199  1  0.00314846  0.87186558  0.95186088  1
  S2-  S200  1  0.26006018  0.12165280  0.44743223  1
  S2-  S201  1  0.25437346  0.12494288  0.95257371  1
  S2-  S202  1  0.26134688  0.36920410  0.44301218  1
  S2-  S203  1  0.25243287  0.37770312  0.95095941  1
  S2-  S204  1  0.26136007  0.62102654  0.44830899  1
  S2-  S205  1  0.25294420  0.62509565  0.96196051  1
  S2-  S206  1  0.26072646  0.86539162  0.45118723  1
  S2-  S207  1  0.26102194  0.87378538  0.95341925  1
  S2-  S208  1  0.50978869  0.11604283  0.42950679  1
  S2-  S209  1  0.50597403  0.12415483  0.96074289  1
  S2-  S210  1  0.51181629  0.36944437  0.44482333  1
  S2-  S211  1  0.50959890  0.37837022  0.96489711  1
  S2-  S212  1  0.51202819  0.62423001  0.44399789  1
  S2-  S213  1  0.50979866  0.62653940  0.97163810  1
  S2-  S214  1  0.50942564  0.87215245  0.43707874  1
  S2-  S215  1  0.50338059  0.87363104  0.95236589  1
  S2-  S216  1  0.76346593  0.11957150  0.45310998  1
  S2-  S217  1  0.75779621  0.12833520  0.95818636  1
  S2-  S218  1  0.76024256  0.36846355  0.45438650  1
  S2-  S219  1  0.75253893  0.37713171  0.96210322  1
  S2-  S220  1  0.76086582  0.62243194  0.45637828  1
  S2-  S221  1  0.75637662  0.62336980  0.96113238  1
  S2-  S222  1  0.76241649  0.86957080  0.45620773  1
  S2-  S223  1  0.75879363  0.87161769  0.95354189  1
  S2-  S224  1  0.12769896  0.00281522  0.04460144  1
  S2-  S225  1  0.13553958  -0.00577240  0.54403622  1
  S2-  S226  1  0.13016646  0.25014226  0.05091411  1
  S2-  S227  1  0.13586205  0.24324129  0.55012166  1
  S2-  S228  1  0.13001012  0.50160995  0.04708602  1
  S2-  S229  1  0.13846747  0.49334888  0.54304144  1
  S2-  S230  1  0.12968241  0.75379548  0.05157721  1
  S2-  S231  1  0.13633283  0.74589251  0.55267770  1
  S2-  S232  1  0.38143900  0.00350884  0.04702971  1
  S2-  S233  1  0.38448425  -0.00448993  0.52688596  1
  S2-  S234  1  0.37949876  0.24945486  0.04357434  1
  S2-  S235  1  0.38964314  0.23843743  0.53501326  1
  S2-  S236  1  0.37698948  0.49825708  0.04408908  1
  S2-  S237  1  0.38787399  0.49696130  0.53912043  1
  S2-  S238  1  0.37972958  0.75362088  0.05016702  1
  S2-  S239  1  0.38862389  0.74647547  0.54463575  1
  S2-  S240  1  0.63438242  -0.00339876  0.03862176  1
  S2-  S241  1  0.63328924  -0.00241200  0.53271323  1
  S2-  S242  1  0.62910766  0.25344694  0.05773703  1
  S2-  S243  1  0.63020016  0.23807099  0.54254749  1
  S2-  S244  1  0.63020212  0.50298159  0.05874916  1
  S2-  S245  1  0.63389851  0.49602334  0.53662932  1
  S2-  S246  1  0.63171957  0.75048400  0.05722093  1
  S2-  S247  1  0.63201781  0.74703528  0.53886208  1
  S2-  S248  1  0.88086151  -0.00242715  0.04056998  1
  S2-  S249  1  0.88550938  -0.00567173  0.54511125  1
  S2-  S250  1  0.88312594  0.25737581  0.04406485  1
  S2-  S251  1  0.88456703  0.24507634  0.54516173  1
  S2-  S252  1  0.88302029  0.50241790  0.05060546  1
  S2-  S253  1  0.88141236  0.49474773  0.54214860  1
  S2-  S254  1  0.88096733  0.75053085  0.05072783  1
  S2-  S255  1  0.88357298  0.74496065  0.54758102  1
