# generated using pymatgen
data_La6Ce7Pr13Nd19Sm19(BiS2)64
_symmetry_space_group_name_H-M   'P 1'
_cell_length_a   16.14061439
_cell_length_b   16.14990925
_cell_length_c   27.34910011
_cell_angle_alpha   89.95353590
_cell_angle_beta   89.89254796
_cell_angle_gamma   90.08164033
_symmetry_Int_Tables_number   1
_chemical_formula_structural   La6Ce7Pr13Nd19Sm19(BiS2)64
_chemical_formula_sum   'La6 Ce7 Pr13 Nd19 Sm19 Bi64 S128'
_cell_volume   7129.05296067
_cell_formula_units_Z   1
loop_
 _symmetry_equiv_pos_site_id
 _symmetry_equiv_pos_as_xyz
  1  'x, y, z'
loop_
 _atom_type_symbol
 _atom_type_oxidation_number
  La3+  3.0
  Ce3+  3.0
  Pr3+  3.0
  Nd3+  3.0
  Sm3+  3.0
  Bi2+  2.0
  S2-  -2.0
loop_
 _atom_site_type_symbol
 _atom_site_label
 _atom_site_symmetry_multiplicity
 _atom_site_fract_x
 _atom_site_fract_y
 _atom_site_fract_z
 _atom_site_occupancy
  La3+  La0  1  -0.00538586  0.64732276  0.58061902  1
  La3+  La1  1  0.37726466  0.76474838  0.42718826  1
  La3+  La2  1  0.36962142  0.50821127  0.38251039  1
  La3+  La3  1  0.37671614  0.24471590  0.89262817  1
  La3+  La4  1  0.49459305  0.88307038  0.08389012  1
  La3+  La5  1  0.12413246  0.77003957  0.42534792  1
  Ce3+  Ce6  1  0.62642769  0.50895864  0.43418967  1
  Ce3+  Ce7  1  0.12611240  0.01349223  0.44152463  1
  Ce3+  Ce8  1  0.00230315  0.62430444  0.06817835  1
  Ce3+  Ce9  1  0.49907832  0.62600331  0.06678396  1
  Ce3+  Ce10  1  0.13074900  -0.00001746  0.94405292  1
  Ce3+  Ce11  1  0.24868509  0.13298212  0.56212888  1
  Ce3+  Ce12  1  0.12900775  0.50085940  0.94888272  1
  Pr3+  Pr13  1  0.49515514  0.39256587  0.56456761  1
  Pr3+  Pr14  1  0.75194373  0.37323959  0.05988119  1
  Pr3+  Pr15  1  0.62634238  0.75174413  0.95134389  1
  Pr3+  Pr16  1  0.75494874  0.39075582  0.56962608  1
  Pr3+  Pr17  1  0.25206043  0.87450273  0.57094027  1
  Pr3+  Pr18  1  0.75759211  0.87207871  0.07328951  1
  Pr3+  Pr19  1  0.75424467  0.12352159  0.06249623  1
  Pr3+  Pr20  1  -0.00212110  0.13885005  0.55715465  1
  Pr3+  Pr21  1  0.49857410  0.63788263  0.55504963  1
  Pr3+  Pr22  1  0.62847185  0.01887739  0.42339526  1
  Pr3+  Pr23  1  0.87143272  0.26769434  0.43646205  1
  Pr3+  Pr24  1  0.62508705  0.49896148  0.94589541  1
  Pr3+  Pr25  1  0.87993319  0.49932130  0.93962869  1
  Nd3+  Nd26  1  0.12541602  0.26439124  0.44570234  1
  Nd3+  Nd27  1  0.37304521  0.01266369  0.43369985  1
  Nd3+  Nd28  1  0.87336987  0.76370269  0.43469123  1
  Nd3+  Nd29  1  0.25517187  0.37293867  0.06196275  1
  Nd3+  Nd30  1  0.62562011  -0.00001469  0.94481454  1
  Nd3+  Nd31  1  0.62269313  0.76493251  0.43744513  1
  Nd3+  Nd32  1  0.50039190  0.37248105  0.05581877  1
  Nd3+  Nd33  1  0.12643068  0.74746126  0.94255662  1
  Nd3+  Nd34  1  0.87917644  0.24933652  0.94089312  1
  Nd3+  Nd35  1  0.37875178  0.49832853  0.93502451  1
  Nd3+  Nd36  1  0.25100659  0.87461347  0.06293095  1
  Nd3+  Nd37  1  0.37985639  -0.00789658  0.93297270  1
  Nd3+  Nd38  1  0.87301283  0.51394752  0.43226775  1
  Nd3+  Nd39  1  0.49929786  0.89059507  0.55800016  1
  Nd3+  Nd40  1  0.87932361  -0.00077141  0.94670255  1
  Nd3+  Nd41  1  0.74877729  0.64105892  0.55473601  1
  Nd3+  Nd42  1  0.87191154  0.01647024  0.43288563  1
  Nd3+  Nd43  1  0.49648493  0.13834586  0.55938307  1
  Nd3+  Nd44  1  0.00438191  0.12577787  0.05918222  1
  Sm3+  Sm45  1  0.13350624  0.25054153  0.94205733  1
  Sm3+  Sm46  1  0.37425097  0.26775604  0.44423681  1
  Sm3+  Sm47  1  0.75005464  0.13946707  0.55722046  1
  Sm3+  Sm48  1  0.12712976  0.51570475  0.43774963  1
  Sm3+  Sm49  1  0.38086829  0.75195246  0.94007395  1
  Sm3+  Sm50  1  -0.00299069  0.88849067  0.55733552  1
  Sm3+  Sm51  1  0.24713359  0.39280142  0.55946018  1
  Sm3+  Sm52  1  0.25390095  0.12549007  0.05517393  1
  Sm3+  Sm53  1  0.00271214  0.37468777  0.05646050  1
  Sm3+  Sm54  1  0.24792367  0.64016323  0.54774033  1
  Sm3+  Sm55  1  0.25373410  0.62490117  0.05697514  1
  Sm3+  Sm56  1  0.75276000  0.62401996  0.05717244  1
  Sm3+  Sm57  1  0.62049740  0.26619166  0.45149220  1
  Sm3+  Sm58  1  0.87808967  0.75081043  0.94724262  1
  Sm3+  Sm59  1  0.74810125  0.89181073  0.55479153  1
  Sm3+  Sm60  1  0.49913971  0.12328446  0.05584939  1
  Sm3+  Sm61  1  0.62651838  0.24799622  0.94330376  1
  Sm3+  Sm62  1  -0.00111516  0.39278289  0.55138090  1
  Sm3+  Sm63  1  0.00413582  0.87274144  0.06243952  1
  Bi2+  Bi64  1  0.05838746  0.09470875  0.29824044  1
  Bi2+  Bi65  1  -0.06128349  0.13416838  0.78969855  1
  Bi2+  Bi66  1  -0.02194431  0.32042695  0.30271136  1
  Bi2+  Bi67  1  -0.03101562  0.38477881  0.80051696  1
  Bi2+  Bi68  1  -0.09009187  0.58619780  0.30687340  1
  Bi2+  Bi69  1  0.01245271  0.63358324  0.81115684  1
  Bi2+  Bi70  1  0.00853991  0.83068036  0.29423825  1
  Bi2+  Bi71  1  -0.04760087  0.87607383  0.78579426  1
  Bi2+  Bi72  1  0.25722851  0.08903592  0.31277844  1
  Bi2+  Bi73  1  0.23240132  0.11021629  0.79028421  1
  Bi2+  Bi74  1  0.24002493  0.27260915  0.26945239  1
  Bi2+  Bi75  1  0.26121620  0.37717412  0.76553182  1
  Bi2+  Bi76  1  0.22396136  0.60540388  0.26769745  1
  Bi2+  Bi77  1  0.28987504  0.63092260  0.78263756  1
  Bi2+  Bi78  1  0.22577278  0.85259320  0.28564060  1
  Bi2+  Bi79  1  0.25382626  0.83025019  0.78927513  1
  Bi2+  Bi80  1  0.44617024  0.13278506  0.29219252  1
  Bi2+  Bi81  1  0.52088803  0.09449867  0.79235169  1
  Bi2+  Bi82  1  0.50177906  0.34215718  0.29609705  1
  Bi2+  Bi83  1  0.51537952  0.38147842  0.79139189  1
  Bi2+  Bi84  1  0.50211880  0.61113781  0.27760705  1
  Bi2+  Bi85  1  0.46776295  0.63391147  0.82214178  1
  Bi2+  Bi86  1  0.48633039  0.84814734  0.29807768  1
  Bi2+  Bi87  1  0.50870752  0.84329986  0.79373071  1
  Bi2+  Bi88  1  0.78650499  0.11696972  0.26312415  1
  Bi2+  Bi89  1  0.74348887  0.06845782  0.74264211  1
  Bi2+  Bi90  1  0.74138973  0.34661665  0.30411104  1
  Bi2+  Bi91  1  0.77185160  0.39170114  0.79274377  1
  Bi2+  Bi92  1  0.73704664  0.59066156  0.25152981  1
  Bi2+  Bi93  1  0.73492284  0.69563289  0.77826759  1
  Bi2+  Bi94  1  0.72376108  0.88457575  0.30118453  1
  Bi2+  Bi95  1  0.75305273  0.89200172  0.79496777  1
  Bi2+  Bi96  1  0.14881705  -0.00824609  0.21183962  1
  Bi2+  Bi97  1  0.10557472  -0.01871778  0.74269404  1
  Bi2+  Bi98  1  0.07197726  0.23013619  0.21064838  1
  Bi2+  Bi99  1  0.09493813  0.24822726  0.77042673  1
  Bi2+  Bi100  1  0.06944213  0.48732075  0.27509747  1
  Bi2+  Bi101  1  0.13548992  0.51889772  0.74685280  1
  Bi2+  Bi102  1  0.11279833  0.79884138  0.19392189  1
  Bi2+  Bi103  1  0.13986027  0.77246961  0.70491942  1
  Bi2+  Bi104  1  0.36822435  0.01115010  0.21465528  1
  Bi2+  Bi105  1  0.35415821  0.00669308  0.69365629  1
  Bi2+  Bi106  1  0.36699890  0.21492670  0.19564537  1
  Bi2+  Bi107  1  0.39452927  0.23988676  0.68743385  1
  Bi2+  Bi108  1  0.38295085  0.47793708  0.17669186  1
  Bi2+  Bi109  1  0.37703208  0.48430221  0.69806791  1
  Bi2+  Bi110  1  0.38523457  0.73547434  0.19469562  1
  Bi2+  Bi111  1  0.40788548  0.74835226  0.71643977  1
  Bi2+  Bi112  1  0.61842833  0.01076286  0.21099530  1
  Bi2+  Bi113  1  0.64395527  -0.09723035  0.69756725  1
  Bi2+  Bi114  1  0.61352025  0.20311033  0.23183969  1
  Bi2+  Bi115  1  0.66170317  0.24814637  0.75370875  1
  Bi2+  Bi116  1  0.62994907  0.42989236  0.22053138  1
  Bi2+  Bi117  1  0.60622663  0.54793678  0.75469258  1
  Bi2+  Bi118  1  0.67863550  0.76494605  0.21218612  1
  Bi2+  Bi119  1  0.61897406  0.70935678  0.68502572  1
  Bi2+  Bi120  1  0.94162146  -0.01263432  0.23121936  1
  Bi2+  Bi121  1  0.92459719  0.01089004  0.69450198  1
  Bi2+  Bi122  1  0.87738193  0.25688841  0.19126991  1
  Bi2+  Bi123  1  0.86695241  0.26615713  0.68573199  1
  Bi2+  Bi124  1  0.89942090  0.46088966  0.21494742  1
  Bi2+  Bi125  1  0.90509933  0.50304159  0.69675288  1
  Bi2+  Bi126  1  0.91989205  0.71961382  0.20967260  1
  Bi2+  Bi127  1  0.87587003  0.75829245  0.70530473  1
  S2-  S128  1  -0.03860397  0.11656507  0.15457620  1
  S2-  S129  1  -0.00677617  0.15068184  0.65667747  1
  S2-  S130  1  0.01470632  0.36942248  0.15334768  1
  S2-  S131  1  -0.02138055  0.37621869  0.64825376  1
  S2-  S132  1  0.04306767  0.63962516  0.16276333  1
  S2-  S133  1  0.04521238  0.57720509  0.66901544  1
  S2-  S134  1  -0.06630289  0.86761873  0.15095864  1
  S2-  S135  1  0.01123012  0.79500928  0.64019287  1
  S2-  S136  1  0.25442826  0.10756886  0.15274989  1
  S2-  S137  1  0.26365139  0.15486221  0.65911855  1
  S2-  S138  1  0.26310179  0.36890270  0.16073815  1
  S2-  S139  1  0.25059562  0.39249646  0.65802870  1
  S2-  S140  1  0.27572196  0.61592684  0.15426347  1
  S2-  S141  1  0.23492073  0.72370595  0.63294963  1
  S2-  S142  1  0.34329393  0.87023896  0.14611449  1
  S2-  S143  1  0.21165750  0.94592532  0.66071656  1
  S2-  S144  1  0.49772486  0.03754657  0.14113859  1
  S2-  S145  1  0.48876028  0.11351035  0.65837715  1
  S2-  S146  1  0.50784701  0.36332887  0.15419091  1
  S2-  S147  1  0.50085512  0.37787472  0.66476761  1
  S2-  S148  1  0.50478069  0.61054986  0.16465084  1
  S2-  S149  1  0.47100869  0.62008911  0.65403504  1
  S2-  S150  1  0.53436663  0.82060218  0.18015476  1
  S2-  S151  1  0.41265820  0.88200632  0.64406188  1
  S2-  S152  1  0.72815253  0.14476217  0.16017402  1
  S2-  S153  1  0.74529811  0.15625490  0.65362787  1
  S2-  S154  1  0.76561849  0.38447182  0.15854885  1
  S2-  S155  1  0.76357014  0.40387157  0.66945242  1
  S2-  S156  1  0.77507571  0.64879069  0.15228014  1
  S2-  S157  1  0.83742298  0.62955832  0.63951929  1
  S2-  S158  1  0.73143722  0.91509839  0.17009722  1
  S2-  S159  1  0.79939917  0.88712049  0.64783622  1
  S2-  S160  1  0.12235607  -0.08621078  0.36120658  1
  S2-  S161  1  0.14329705  0.00210926  0.84736879  1
  S2-  S162  1  0.13275906  0.27206519  0.34772449  1
  S2-  S163  1  0.21018678  0.25438090  0.85421232  1
  S2-  S164  1  0.19935288  0.50085756  0.34914718  1
  S2-  S165  1  0.11735009  0.50550676  0.85386518  1
  S2-  S166  1  0.15549581  0.70961175  0.32863117  1
  S2-  S167  1  0.13125526  0.74874852  0.84356810  1
  S2-  S168  1  0.36343131  -0.10466684  0.35634415  1
  S2-  S169  1  0.37453041  0.08302119  0.84832094  1
  S2-  S170  1  0.37133330  0.33474098  0.35432184  1
  S2-  S171  1  0.42816102  0.24122505  0.78720979  1
  S2-  S172  1  0.36572533  0.50339416  0.27164524  1
  S2-  S173  1  0.37501024  0.41119202  0.84903156  1
  S2-  S174  1  0.39312796  0.67188763  0.33947029  1
  S2-  S175  1  0.37931514  0.85955993  0.86314167  1
  S2-  S176  1  0.56409956  -0.02445126  0.33130829  1
  S2-  S177  1  0.58107137  -0.02190332  0.84999538  1
  S2-  S178  1  0.61979991  0.24965954  0.35438343  1
  S2-  S179  1  0.61869791  0.20683771  0.84896454  1
  S2-  S180  1  0.53806837  0.50031991  0.34879150  1
  S2-  S181  1  0.64373518  0.46617079  0.84876568  1
  S2-  S182  1  0.61943170  0.75281699  0.33793794  1
  S2-  S183  1  0.60936306  0.73511673  0.85240802  1
  S2-  S184  1  0.76740316  0.02190970  0.35364458  1
  S2-  S185  1  0.87235482  0.00071429  0.84862235  1
  S2-  S186  1  0.85453664  0.21836611  0.34091580  1
  S2-  S187  1  0.85551680  0.25928281  0.84358845  1
  S2-  S188  1  0.75360610  0.47573648  0.36235486  1
  S2-  S189  1  0.88023339  0.51772759  0.83973543  1
  S2-  S190  1  0.85312165  0.80687613  0.33887689  1
  S2-  S191  1  0.90910968  0.73923783  0.85150023  1
  S2-  S192  1  -0.00252071  0.13964404  0.44954771  1
  S2-  S193  1  0.00610558  0.12720058  0.95148355  1
  S2-  S194  1  0.00099958  0.39204684  0.44628520  1
  S2-  S195  1  0.00570345  0.37182840  0.95184260  1
  S2-  S196  1  -0.00070416  0.63794131  0.43966749  1
  S2-  S197  1  0.00109359  0.62533646  0.96047275  1
  S2-  S198  1  -0.00894862  0.89245921  0.45362966  1
  S2-  S199  1  0.00311263  0.87374245  0.95638605  1
  S2-  S200  1  0.25127509  0.14092063  0.45427068  1
  S2-  S201  1  0.25500713  0.12578603  0.95270538  1
  S2-  S202  1  0.24770195  0.38941633  0.45604066  1
  S2-  S203  1  0.25313215  0.37614863  0.95630169  1
  S2-  S204  1  0.25026180  0.63760569  0.44584753  1
  S2-  S205  1  0.25690736  0.62646733  0.95085025  1
  S2-  S206  1  0.25028434  0.89096552  0.46119195  1
  S2-  S207  1  0.24999813  0.87114026  0.95810841  1
  S2-  S208  1  0.49727261  0.13952987  0.45216577  1
  S2-  S209  1  0.50169984  0.12600155  0.95293832  1
  S2-  S210  1  0.49871529  0.38701533  0.45872074  1
  S2-  S211  1  0.50207702  0.36839950  0.95036628  1
  S2-  S212  1  0.50421086  0.63695725  0.45029646  1
  S2-  S213  1  0.50019576  0.62464246  0.95955915  1
  S2-  S214  1  0.50470562  0.89484818  0.45298277  1
  S2-  S215  1  0.50356564  0.87463751  0.96707010  1
  S2-  S216  1  0.74651981  0.14345718  0.45469463  1
  S2-  S217  1  0.75302286  0.12495098  0.95451111  1
  S2-  S218  1  0.74732454  0.38388146  0.46391675  1
  S2-  S219  1  0.75250375  0.37218080  0.95355255  1
  S2-  S220  1  0.74909685  0.64073736  0.44944102  1
  S2-  S221  1  0.75358269  0.62503080  0.95206112  1
  S2-  S222  1  0.74745138  0.89003852  0.45173444  1
  S2-  S223  1  0.75471762  0.87517388  0.96013101  1
  S2-  S224  1  0.12667180  -0.00056774  0.05152695  1
  S2-  S225  1  0.12054718  0.00994173  0.54821878  1
  S2-  S226  1  0.12827827  0.25043689  0.04770241  1
  S2-  S227  1  0.12359435  0.26681622  0.55114380  1
  S2-  S228  1  0.12936018  0.49873136  0.05462401  1
  S2-  S229  1  0.12232667  0.51716578  0.54400309  1
  S2-  S230  1  0.12824465  0.74857289  0.04911982  1
  S2-  S231  1  0.11529395  0.76210715  0.53333733  1
  S2-  S232  1  0.37214991  0.00231259  0.04071765  1
  S2-  S233  1  0.37467762  0.01340963  0.54084591  1
  S2-  S234  1  0.37779627  0.24642872  0.05082420  1
  S2-  S235  1  0.37039052  0.26548683  0.54893707  1
  S2-  S236  1  0.37672406  0.49969546  0.04294266  1
  S2-  S237  1  0.36724943  0.51637808  0.55200910  1
  S2-  S238  1  0.37549134  0.74825637  0.04451348  1
  S2-  S239  1  0.37815181  0.76094522  0.53637941  1
  S2-  S240  1  0.63079653  -0.00173344  0.04988770  1
  S2-  S241  1  0.62571946  0.01674169  0.54492857  1
  S2-  S242  1  0.62523182  0.24631346  0.04865166  1
  S2-  S243  1  0.62470042  0.26374126  0.55632330  1
  S2-  S244  1  0.62748728  0.50072211  0.05258090  1
  S2-  S245  1  0.62691765  0.51322476  0.55038539  1
  S2-  S246  1  0.62913651  0.74920154  0.05730106  1
  S2-  S247  1  0.62555642  0.76724938  0.54443454  1
  S2-  S248  1  0.88040224  -0.00155661  0.05138085  1
  S2-  S249  1  0.87174923  0.01435514  0.54084244  1
  S2-  S250  1  0.87998893  0.24995888  0.04653500  1
  S2-  S251  1  0.87468533  0.26480525  0.54360660  1
  S2-  S252  1  0.87756940  0.49902270  0.04802389  1
  S2-  S253  1  0.87788336  0.51520578  0.53805299  1
  S2-  S254  1  0.87878897  0.74802008  0.04990564  1
  S2-  S255  1  0.87054482  0.76801619  0.53935546  1
