# generated using pymatgen
data_La6Ce7Pr13Nd19Sm19(BiS2)64
_symmetry_space_group_name_H-M   'P 1'
_cell_length_a   16.02200287
_cell_length_b   16.05628621
_cell_length_c   27.37350087
_cell_angle_alpha   89.75697655
_cell_angle_beta   90.00212983
_cell_angle_gamma   89.89049722
_symmetry_Int_Tables_number   1
_chemical_formula_structural   La6Ce7Pr13Nd19Sm19(BiS2)64
_chemical_formula_sum   'La6 Ce7 Pr13 Nd19 Sm19 Bi64 S128'
_cell_volume   7041.86265127
_cell_formula_units_Z   1
loop_
 _symmetry_equiv_pos_site_id
 _symmetry_equiv_pos_as_xyz
  1  'x, y, z'
loop_
 _atom_type_symbol
 _atom_type_oxidation_number
  La3+  3.0
  Ce3+  3.0
  Pr3+  3.0
  Nd3+  3.0
  Sm3+  3.0
  Bi2+  2.0
  S2-  -2.0
loop_
 _atom_site_type_symbol
 _atom_site_label
 _atom_site_symmetry_multiplicity
 _atom_site_fract_x
 _atom_site_fract_y
 _atom_site_fract_z
 _atom_site_occupancy
  La3+  La0  1  0.25710455  0.38361051  0.60394786  1
  La3+  La1  1  0.50039407  0.63448659  0.57605372  1
  La3+  La2  1  0.23153506  0.61824144  0.08112075  1
  La3+  La3  1  0.22862720  0.12494311  0.08611570  1
  La3+  La4  1  0.39040862  0.26754726  0.42016382  1
  La3+  La5  1  0.75716872  0.86744857  0.60967980  1
  Ce3+  Ce6  1  0.22820834  0.87814833  0.07592210  1
  Ce3+  Ce7  1  -0.01592052  0.37320614  0.06049110  1
  Ce3+  Ce8  1  0.85915896  0.50153152  0.94812653  1
  Ce3+  Ce9  1  0.50861637  0.13758821  0.55445269  1
  Ce3+  Ce10  1  0.48289905  0.87385701  0.05418773  1
  Ce3+  Ce11  1  0.63542047  0.00668975  0.44638933  1
  Ce3+  Ce12  1  0.75987187  0.38181638  0.56002955  1
  Pr3+  Pr13  1  0.85443315  0.00065355  0.92079732  1
  Pr3+  Pr14  1  0.85676017  0.25100616  0.93088099  1
  Pr3+  Pr15  1  0.75953263  0.13260912  0.56927617  1
  Pr3+  Pr16  1  0.11356443  0.25384869  0.94038283  1
  Pr3+  Pr17  1  0.35403906  0.48832742  0.91181767  1
  Pr3+  Pr18  1  0.35569745  0.74686426  0.93799880  1
  Pr3+  Pr19  1  0.50624081  0.38919065  0.56525105  1
  Pr3+  Pr20  1  0.25104631  0.64037402  0.57178633  1
  Pr3+  Pr21  1  0.13951503  0.25926309  0.42491406  1
  Pr3+  Pr22  1  0.25805078  0.88649708  0.55945886  1
  Pr3+  Pr23  1  0.49266632  0.38272581  0.10052495  1
  Pr3+  Pr24  1  0.22849176  0.37139920  0.08977154  1
  Pr3+  Pr25  1  0.13100477  0.76307198  0.42963714  1
  Nd3+  Nd26  1  0.47567626  0.62483673  0.06541966  1
  Nd3+  Nd27  1  0.38290452  0.51302621  0.43981059  1
  Nd3+  Nd28  1  0.88358642  0.50954439  0.44140057  1
  Nd3+  Nd29  1  0.76004136  0.63469619  0.55154951  1
  Nd3+  Nd30  1  0.60873967  -0.00181875  0.93610805  1
  Nd3+  Nd31  1  0.63122486  0.51366729  0.43921751  1
  Nd3+  Nd32  1  0.35671721  0.00330041  0.94375884  1
  Nd3+  Nd33  1  0.50646715  0.88100571  0.55921092  1
  Nd3+  Nd34  1  -0.01830150  0.87429676  0.06140080  1
  Nd3+  Nd35  1  0.26159388  0.14054383  0.55550516  1
  Nd3+  Nd36  1  0.87899868  0.25928558  0.43079874  1
  Nd3+  Nd37  1  0.73280126  0.12451274  0.05744097  1
  Nd3+  Nd38  1  0.73554547  0.86999252  0.06558663  1
  Nd3+  Nd39  1  0.00643735  0.88880394  0.56430714  1
  Nd3+  Nd40  1  0.38594668  0.00921447  0.43386826  1
  Nd3+  Nd41  1  0.01060614  0.63616991  0.55957356  1
  Nd3+  Nd42  1  0.85870480  0.75470354  0.93031654  1
  Nd3+  Nd43  1  -0.02064449  0.12303300  0.05977127  1
  Nd3+  Nd44  1  0.73298162  0.37583332  0.06309010  1
  Sm3+  Sm45  1  0.63793100  0.26025835  0.43369069  1
  Sm3+  Sm46  1  0.11294698  0.50137146  0.94356006  1
  Sm3+  Sm47  1  -0.01455718  0.62602361  0.05726766  1
  Sm3+  Sm48  1  0.88034917  0.00959579  0.44305599  1
  Sm3+  Sm49  1  0.01287016  0.38056895  0.54911474  1
  Sm3+  Sm50  1  0.13464490  0.01064469  0.44060380  1
  Sm3+  Sm51  1  0.88759623  0.76286459  0.43482901  1
  Sm3+  Sm52  1  0.60491396  0.50097149  0.94310099  1
  Sm3+  Sm53  1  0.00894527  0.13609715  0.54675999  1
  Sm3+  Sm54  1  0.48334975  0.12498123  0.06334345  1
  Sm3+  Sm55  1  0.63295383  0.76130821  0.44400740  1
  Sm3+  Sm56  1  0.35824628  0.25600346  0.95608167  1
  Sm3+  Sm57  1  0.11339788  0.74978618  0.94316040  1
  Sm3+  Sm58  1  0.13628086  0.50936534  0.44090698  1
  Sm3+  Sm59  1  0.72843589  0.62639927  0.06043730  1
  Sm3+  Sm60  1  0.11021760  0.00296113  0.94390880  1
  Sm3+  Sm61  1  0.60391090  0.25550046  0.94807964  1
  Sm3+  Sm62  1  0.37950793  0.75375561  0.43225567  1
  Sm3+  Sm63  1  0.61163519  0.74711541  0.92877949  1
  Bi2+  Bi64  1  -0.06937256  0.15220307  0.28111927  1
  Bi2+  Bi65  1  -0.06487354  0.17279621  0.75743948  1
  Bi2+  Bi66  1  -0.04647186  0.37582903  0.29045921  1
  Bi2+  Bi67  1  0.01723125  0.35280584  0.79198115  1
  Bi2+  Bi68  1  0.02668635  0.67818187  0.27011530  1
  Bi2+  Bi69  1  -0.00928496  0.58309411  0.80163256  1
  Bi2+  Bi70  1  -0.04309318  0.86899992  0.27263271  1
  Bi2+  Bi71  1  0.02625141  0.87970298  0.79122440  1
  Bi2+  Bi72  1  0.21980540  0.08306995  0.29797028  1
  Bi2+  Bi73  1  0.18797706  0.09089744  0.78489716  1
  Bi2+  Bi74  1  0.24075423  0.37334469  0.30179487  1
  Bi2+  Bi75  1  0.24505489  0.35658657  0.79683395  1
  Bi2+  Bi76  1  0.26911899  0.62420686  0.29923165  1
  Bi2+  Bi77  1  0.25101751  0.63496776  0.80381878  1
  Bi2+  Bi78  1  0.22278059  0.86846123  0.27861951  1
  Bi2+  Bi79  1  0.29272558  0.88682944  0.77975899  1
  Bi2+  Bi80  1  0.54570938  0.13109307  0.27535522  1
  Bi2+  Bi81  1  0.47407602  0.07642184  0.80082860  1
  Bi2+  Bi82  1  0.51345137  0.37874702  0.29091422  1
  Bi2+  Bi83  1  0.48579376  0.27660293  0.78620665  1
  Bi2+  Bi84  1  0.54444386  0.62171579  0.29713242  1
  Bi2+  Bi85  1  0.51483150  0.66763858  0.80496956  1
  Bi2+  Bi86  1  0.50923725  0.87588970  0.30201620  1
  Bi2+  Bi87  1  0.46615037  0.92305088  0.72546772  1
  Bi2+  Bi88  1  0.74005676  0.06206725  0.28870321  1
  Bi2+  Bi89  1  0.73078716  0.14316058  0.79489060  1
  Bi2+  Bi90  1  0.75541367  0.37056503  0.29160810  1
  Bi2+  Bi91  1  0.81908658  0.34447602  0.80699562  1
  Bi2+  Bi92  1  0.81361662  0.61383962  0.27449562  1
  Bi2+  Bi93  1  0.79772627  0.62190561  0.77861102  1
  Bi2+  Bi94  1  0.77295635  0.80612308  0.28901494  1
  Bi2+  Bi95  1  0.72605694  0.85761052  0.80163567  1
  Bi2+  Bi96  1  0.11051348  -0.01477177  0.20994401  1
  Bi2+  Bi97  1  0.09563599  -0.02917990  0.68987673  1
  Bi2+  Bi98  1  0.09913321  0.23992269  0.21456296  1
  Bi2+  Bi99  1  0.09662124  0.24163266  0.69938084  1
  Bi2+  Bi100  1  0.07896462  0.49877222  0.21523462  1
  Bi2+  Bi101  1  0.09886690  0.50767711  0.71513102  1
  Bi2+  Bi102  1  0.17416493  0.73435881  0.20037400  1
  Bi2+  Bi103  1  0.13138024  0.77057585  0.70885111  1
  Bi2+  Bi104  1  0.38854452  -0.04581755  0.21875519  1
  Bi2+  Bi105  1  0.29387613  -0.01140236  0.67739429  1
  Bi2+  Bi106  1  0.38365391  0.20028329  0.22362904  1
  Bi2+  Bi107  1  0.35023502  0.16540410  0.72355743  1
  Bi2+  Bi108  1  0.37998448  0.52791465  0.20688264  1
  Bi2+  Bi109  1  0.43203642  0.48791559  0.71237840  1
  Bi2+  Bi110  1  0.40121489  0.75493430  0.23371986  1
  Bi2+  Bi111  1  0.38556349  0.73668737  0.70872079  1
  Bi2+  Bi112  1  0.64534699  -0.09954880  0.22009127  1
  Bi2+  Bi113  1  0.60702643  0.06881621  0.71019353  1
  Bi2+  Bi114  1  0.68631728  0.22637741  0.21696062  1
  Bi2+  Bi115  1  0.62724387  0.26681570  0.70051190  1
  Bi2+  Bi116  1  0.68330270  0.50867320  0.20147099  1
  Bi2+  Bi117  1  0.63790944  0.40935058  0.78006769  1
  Bi2+  Bi118  1  0.59484071  0.71185133  0.19935226  1
  Bi2+  Bi119  1  0.63360245  0.68713691  0.69981317  1
  Bi2+  Bi120  1  0.88347613  0.03344470  0.19491113  1
  Bi2+  Bi121  1  0.89713695  -0.00379469  0.71169438  1
  Bi2+  Bi122  1  0.87803687  0.27285274  0.19302805  1
  Bi2+  Bi123  1  0.81847925  0.26836920  0.67584176  1
  Bi2+  Bi124  1  0.87748984  0.47719589  0.19118756  1
  Bi2+  Bi125  1  0.89446690  0.44626775  0.71306075  1
  Bi2+  Bi126  1  0.88440147  0.74335235  0.19388129  1
  Bi2+  Bi127  1  0.93910339  0.73181540  0.73304445  1
  S2-  S128  1  0.07003792  0.12122763  0.14608740  1
  S2-  S129  1  0.01213176  0.11494018  0.64398453  1
  S2-  S130  1  0.07028633  0.36668065  0.14624914  1
  S2-  S131  1  0.08020770  0.37463497  0.63893503  1
  S2-  S132  1  0.07833923  0.62312913  0.14087183  1
  S2-  S133  1  0.10834344  0.63279705  0.64220206  1
  S2-  S134  1  0.09300738  0.86036077  0.14192035  1
  S2-  S135  1  -0.08093171  0.86096627  0.64958776  1
  S2-  S136  1  0.24494354  0.24128254  0.16278653  1
  S2-  S137  1  0.24369875  0.21955353  0.64406971  1
  S2-  S138  1  0.23669325  0.48944976  0.16704517  1
  S2-  S139  1  0.25016251  0.44493053  0.70570349  1
  S2-  S140  1  0.36492784  0.66560182  0.14521721  1
  S2-  S141  1  0.36349873  0.60617190  0.64886148  1
  S2-  S142  1  0.26328691  0.99107742  0.15356602  1
  S2-  S143  1  0.26080270  0.78433475  0.64141038  1
  S2-  S144  1  0.49161038  0.13896062  0.16116449  1
  S2-  S145  1  0.47823637  0.12776515  0.64959845  1
  S2-  S146  1  0.43303408  0.35664958  0.19631990  1
  S2-  S147  1  0.41621905  0.36672999  0.65042082  1
  S2-  S148  1  0.52967248  0.54074045  0.15228176  1
  S2-  S149  1  0.55683382  0.53740262  0.65804650  1
  S2-  S150  1  0.51095764  0.89981779  0.14914965  1
  S2-  S151  1  0.51063141  0.77741566  0.64026661  1
  S2-  S152  1  0.73532968  0.09000643  0.15435248  1
  S2-  S153  1  0.76251112  0.03105947  0.65278368  1
  S2-  S154  1  0.65018778  0.36036375  0.15015712  1
  S2-  S155  1  0.75664887  0.43244299  0.65302810  1
  S2-  S156  1  0.72478312  0.73456436  0.13569166  1
  S2-  S157  1  0.77003293  0.68633003  0.64469660  1
  S2-  S158  1  0.86413935  0.89541626  0.13562399  1
  S2-  S159  1  0.68770494  0.84560953  0.70672567  1
  S2-  S160  1  0.11949334  -0.01864727  0.34511805  1
  S2-  S161  1  0.08146309  0.01368864  0.84651655  1
  S2-  S162  1  0.10337201  0.28878746  0.32662078  1
  S2-  S163  1  0.15915035  0.23917041  0.84266768  1
  S2-  S164  1  0.16258526  0.52297387  0.34240414  1
  S2-  S165  1  0.19936877  0.49302418  0.85727907  1
  S2-  S166  1  0.25586465  0.76700358  0.35807147  1
  S2-  S167  1  0.14899480  0.73287453  0.84682935  1
  S2-  S168  1  0.35890781  0.00645538  0.33599876  1
  S2-  S169  1  0.31987147  0.02138684  0.84679317  1
  S2-  S170  1  0.29991843  0.23203744  0.33172119  1
  S2-  S171  1  0.36487838  0.32306986  0.86287161  1
  S2-  S172  1  0.39184551  0.41567940  0.35112915  1
  S2-  S173  1  0.40226416  0.53963828  0.81551156  1
  S2-  S174  1  0.41257496  0.62925881  0.36186068  1
  S2-  S175  1  0.36682365  0.75366381  0.83729709  1
  S2-  S176  1  0.59983065  0.01017324  0.35013919  1
  S2-  S177  1  0.70639730  0.00445807  0.85404145  1
  S2-  S178  1  0.53296366  0.25036971  0.35083576  1
  S2-  S179  1  0.62445569  0.25349297  0.85081138  1
  S2-  S180  1  0.63205606  0.47909799  0.34184336  1
  S2-  S181  1  0.60765089  0.53347249  0.84563049  1
  S2-  S182  1  0.61625277  0.75185134  0.34584527  1
  S2-  S183  1  0.57409011  0.82580979  0.84028832  1
  S2-  S184  1  0.87747617  0.02133998  0.34481410  1
  S2-  S185  1  0.88375121  -0.12923205  0.85293298  1
  S2-  S186  1  0.76011249  0.24972094  0.35910072  1
  S2-  S187  1  0.87393163  0.13664752  0.85482015  1
  S2-  S188  1  0.90311351  0.51447590  0.34373999  1
  S2-  S189  1  0.85028121  0.50755963  0.85165786  1
  S2-  S190  1  0.99945758  0.76693554  0.35842480  1
  S2-  S191  1  0.74032496  0.71500881  0.85907423  1
  S2-  S192  1  0.00702471  0.13468849  0.44188658  1
  S2-  S193  1  -0.01248289  0.12800905  0.95546287  1
  S2-  S194  1  0.00838319  0.38286689  0.44507385  1
  S2-  S195  1  -0.01517747  0.37688348  0.95115527  1
  S2-  S196  1  0.00879404  0.63212117  0.45435867  1
  S2-  S197  1  -0.01299340  0.62685924  0.95233063  1
  S2-  S198  1  0.00621311  0.89158945  0.45710458  1
  S2-  S199  1  -0.00841304  0.87534953  0.95512980  1
  S2-  S200  1  0.26057933  0.13260968  0.44825242  1
  S2-  S201  1  0.23619878  0.12867940  0.96002227  1
  S2-  S202  1  0.25629238  0.38660405  0.44330490  1
  S2-  S203  1  0.23572247  0.37799307  0.96418382  1
  S2-  S204  1  0.25292572  0.63433110  0.45887786  1
  S2-  S205  1  0.23559994  0.62087393  0.96107180  1
  S2-  S206  1  0.25834789  0.88976821  0.45348478  1
  S2-  S207  1  0.23250970  0.87812568  0.95348815  1
  S2-  S208  1  0.51117711  0.13331843  0.45073991  1
  S2-  S209  1  0.48338018  0.12867442  0.95635792  1
  S2-  S210  1  0.51645405  0.38591267  0.45746325  1
  S2-  S211  1  0.48314088  0.37998913  0.95551800  1
  S2-  S212  1  0.51239352  0.63874876  0.46412465  1
  S2-  S213  1  0.47918619  0.62071630  0.95311900  1
  S2-  S214  1  0.50526170  0.87974615  0.45295267  1
  S2-  S215  1  0.48146083  0.87619762  0.94880449  1
  S2-  S216  1  0.75725347  0.13212855  0.46060638  1
  S2-  S217  1  0.72793476  0.13182885  0.95390363  1
  S2-  S218  1  0.75768147  0.38728056  0.45381563  1
  S2-  S219  1  0.73136582  0.37664927  0.95597452  1
  S2-  S220  1  0.76126390  0.63881424  0.44417040  1
  S2-  S221  1  0.73130696  0.62112304  0.95936504  1
  S2-  S222  1  0.76126178  0.88222507  0.44042560  1
  S2-  S223  1  0.72929527  0.87178186  0.95797377  1
  S2-  S224  1  0.10786959  0.00115430  0.04569905  1
  S2-  S225  1  0.13355129  0.01326074  0.54464499  1
  S2-  S226  1  0.10800396  0.24830343  0.04557254  1
  S2-  S227  1  0.13264764  0.25691956  0.53254653  1
  S2-  S228  1  0.10648430  0.49720062  0.04515304  1
  S2-  S229  1  0.13522278  0.50446687  0.54362706  1
  S2-  S230  1  0.11013174  0.74832423  0.04337932  1
  S2-  S231  1  0.12735150  0.76571143  0.53816256  1
  S2-  S232  1  0.36021246  0.00329300  0.04820761  1
  S2-  S233  1  0.38507569  0.00989670  0.54112750  1
  S2-  S234  1  0.36548185  0.25272546  0.05841970  1
  S2-  S235  1  0.38350487  0.26179890  0.53784640  1
  S2-  S236  1  0.36099534  0.49063159  0.06285950  1
  S2-  S237  1  0.37377781  0.50407339  0.54483270  1
  S2-  S238  1  0.35240461  0.75789731  0.04325310  1
  S2-  S239  1  0.38001571  0.76076100  0.53685033  1
  S2-  S240  1  0.60921838  0.00015501  0.04403657  1
  S2-  S241  1  0.63298477  0.00399100  0.55221562  1
  S2-  S242  1  0.60442810  0.25073152  0.05117548  1
  S2-  S243  1  0.63437522  0.25998286  0.54565775  1
  S2-  S244  1  0.60877370  0.50051174  0.04607722  1
  S2-  S245  1  0.63704050  0.51079310  0.54411405  1
  S2-  S246  1  0.60281997  0.74671077  0.03661604  1
  S2-  S247  1  0.64377579  0.76688141  0.54602563  1
  S2-  S248  1  0.85586252  0.00271913  0.03358191  1
  S2-  S249  1  0.88392079  0.01063539  0.54580153  1
  S2-  S250  1  0.85658156  0.25056760  0.04301700  1
  S2-  S251  1  0.88582177  0.25852798  0.53803130  1
  S2-  S252  1  0.85749179  0.50432722  0.05323515  1
  S2-  S253  1  0.88904394  0.50790042  0.54780047  1
  S2-  S254  1  0.86029600  0.74459022  0.03733200  1
  S2-  S255  1  0.88558938  0.76047466  0.53896601  1
