# generated using pymatgen
data_La6Ce7Pr13Nd19Sm19(BiS2)64
_symmetry_space_group_name_H-M   'P 1'
_cell_length_a   15.97036629
_cell_length_b   15.98355730
_cell_length_c   27.78193536
_cell_angle_alpha   89.76930937
_cell_angle_beta   89.86925800
_cell_angle_gamma   90.15011197
_symmetry_Int_Tables_number   1
_chemical_formula_structural   La6Ce7Pr13Nd19Sm19(BiS2)64
_chemical_formula_sum   'La6 Ce7 Pr13 Nd19 Sm19 Bi64 S128'
_cell_volume   7091.60706237
_cell_formula_units_Z   1
loop_
 _symmetry_equiv_pos_site_id
 _symmetry_equiv_pos_as_xyz
  1  'x, y, z'
loop_
 _atom_type_symbol
 _atom_type_oxidation_number
  La3+  3.0
  Ce3+  3.0
  Pr3+  3.0
  Nd3+  3.0
  Sm3+  3.0
  Bi2+  2.0
  S2-  -2.0
loop_
 _atom_site_type_symbol
 _atom_site_label
 _atom_site_symmetry_multiplicity
 _atom_site_fract_x
 _atom_site_fract_y
 _atom_site_fract_z
 _atom_site_occupancy
  La3+  La0  1  0.64060659  0.24677113  0.38605404  1
  La3+  La1  1  0.84506429  0.26161048  0.91380726  1
  La3+  La2  1  -0.02394261  0.38701871  0.06781294  1
  La3+  La3  1  0.14099795  0.73382082  0.39050738  1
  La3+  La4  1  -0.00228506  0.12710553  0.61388774  1
  La3+  La5  1  0.37797194  0.49247435  0.88567973  1
  Ce3+  Ce6  1  0.35032729  0.75951578  0.92772547  1
  Ce3+  Ce7  1  0.85972907  0.51085931  0.93694560  1
  Ce3+  Ce8  1  0.37600430  0.75681829  0.44960897  1
  Ce3+  Ce9  1  0.75486243  0.37491912  0.55455784  1
  Ce3+  Ce10  1  0.38180077  0.25710751  0.43785577  1
  Ce3+  Ce11  1  0.10405096  0.26615941  0.94188563  1
  Ce3+  Ce12  1  0.10097115  0.76334104  0.94160519  1
  Pr3+  Pr13  1  0.24865709  0.88194127  0.56274570  1
  Pr3+  Pr14  1  0.22991761  0.12919501  0.05673134  1
  Pr3+  Pr15  1  -0.02420478  0.89187190  0.08873852  1
  Pr3+  Pr16  1  0.50579992  0.88238308  0.55775668  1
  Pr3+  Pr17  1  0.23541930  0.38497700  0.05868543  1
  Pr3+  Pr18  1  0.11051683  0.51877683  0.92749769  1
  Pr3+  Pr19  1  0.25172994  0.37838486  0.56117849  1
  Pr3+  Pr20  1  0.47164992  0.11902646  0.09351511  1
  Pr3+  Pr21  1  0.37004103  0.51402272  0.43695049  1
  Pr3+  Pr22  1  0.72371553  0.39091096  0.07257661  1
  Pr3+  Pr23  1  0.62786753  0.75504224  0.42811755  1
  Pr3+  Pr24  1  0.88728737  0.25894369  0.43139303  1
  Pr3+  Pr25  1  0.25610108  0.63144156  0.57684304  1
  Nd3+  Nd26  1  -0.02433618  0.14093180  0.06189413  1
  Nd3+  Nd27  1  0.47254433  0.38637785  0.07219936  1
  Nd3+  Nd28  1  0.60323983  0.01416383  0.93281767  1
  Nd3+  Nd29  1  -0.02185409  0.63400802  0.06911925  1
  Nd3+  Nd30  1  0.09848062  0.01168207  0.94451188  1
  Nd3+  Nd31  1  0.88248068  0.50737384  0.44314833  1
  Nd3+  Nd32  1  0.37788109  0.00682764  0.43936637  1
  Nd3+  Nd33  1  0.62778170  0.50429484  0.43147671  1
  Nd3+  Nd34  1  0.50044431  0.13265155  0.56609573  1
  Nd3+  Nd35  1  0.22739948  0.63676067  0.05739356  1
  Nd3+  Nd36  1  0.73103859  0.13650201  0.05977401  1
  Nd3+  Nd37  1  0.72867375  0.63838886  0.05961738  1
  Nd3+  Nd38  1  -0.00126383  0.63098860  0.57233271  1
  Nd3+  Nd39  1  0.84780766  0.01108607  0.92759352  1
  Nd3+  Nd40  1  0.60107495  0.75669247  0.94189140  1
  Nd3+  Nd41  1  0.50864138  0.62842756  0.56219571  1
  Nd3+  Nd42  1  0.88380270  0.75719710  0.43720004  1
  Nd3+  Nd43  1  0.87997722  0.01037217  0.44185575  1
  Nd3+  Nd44  1  0.22860704  0.87699306  0.06987034  1
  Sm3+  Sm45  1  0.35584189  0.26086625  0.94564415  1
  Sm3+  Sm46  1  0.85626186  0.75983775  0.94618384  1
  Sm3+  Sm47  1  0.72866486  0.89185128  0.05088032  1
  Sm3+  Sm48  1  0.50498339  0.37953971  0.55296308  1
  Sm3+  Sm49  1  -0.00064722  0.38128214  0.57121289  1
  Sm3+  Sm50  1  0.47794028  0.88644877  0.04961464  1
  Sm3+  Sm51  1  0.62814929  0.01322125  0.44545314  1
  Sm3+  Sm52  1  0.75481588  0.88265787  0.55305902  1
  Sm3+  Sm53  1  0.75316054  0.63134792  0.55327530  1
  Sm3+  Sm54  1  0.47664309  0.63753350  0.05334635  1
  Sm3+  Sm55  1  0.60112944  0.26242907  0.95186438  1
  Sm3+  Sm56  1  0.60548909  0.50833251  0.94597413  1
  Sm3+  Sm57  1  0.25017922  0.13117331  0.56199653  1
  Sm3+  Sm58  1  0.35055866  0.00606629  0.93229098  1
  Sm3+  Sm59  1  0.12632473  0.50989493  0.45613666  1
  Sm3+  Sm60  1  0.75964629  0.13474252  0.55634013  1
  Sm3+  Sm61  1  0.00404050  0.88362370  0.55727136  1
  Sm3+  Sm62  1  0.12900840  0.00116851  0.43894026  1
  Sm3+  Sm63  1  0.12628661  0.25578108  0.44365799  1
  Bi2+  Bi64  1  0.00735134  0.15808674  0.29238994  1
  Bi2+  Bi65  1  0.02517316  0.12036233  0.81377699  1
  Bi2+  Bi66  1  0.06237866  0.34945990  0.26615315  1
  Bi2+  Bi67  1  0.04347457  0.38923119  0.79639965  1
  Bi2+  Bi68  1  0.02173017  0.58676067  0.29916773  1
  Bi2+  Bi69  1  0.00202537  0.63616819  0.79314321  1
  Bi2+  Bi70  1  0.00360612  0.94352082  0.29663098  1
  Bi2+  Bi71  1  -0.02967081  0.89642836  0.79963586  1
  Bi2+  Bi72  1  0.20897096  0.13052422  0.30852064  1
  Bi2+  Bi73  1  0.33473397  0.10550965  0.80044801  1
  Bi2+  Bi74  1  0.24225143  0.32794941  0.31085682  1
  Bi2+  Bi75  1  0.29275565  0.33424402  0.77958321  1
  Bi2+  Bi76  1  0.27461219  0.59810310  0.29124659  1
  Bi2+  Bi77  1  0.24564931  0.60607478  0.78673181  1
  Bi2+  Bi78  1  0.31104758  0.88211336  0.30745225  1
  Bi2+  Bi79  1  0.26129643  0.84735301  0.76607603  1
  Bi2+  Bi80  1  0.50037189  0.12420552  0.28233590  1
  Bi2+  Bi81  1  0.53344127  0.07476830  0.81060962  1
  Bi2+  Bi82  1  0.50713039  0.37871993  0.28895771  1
  Bi2+  Bi83  1  0.55068618  0.27816421  0.79352107  1
  Bi2+  Bi84  1  0.49109437  0.62777289  0.28543008  1
  Bi2+  Bi85  1  0.56980126  0.62907326  0.79590184  1
  Bi2+  Bi86  1  0.53960124  0.82136476  0.29512245  1
  Bi2+  Bi87  1  0.48833496  0.87892150  0.80237270  1
  Bi2+  Bi88  1  0.73772164  0.00163676  0.29155385  1
  Bi2+  Bi89  1  0.74910271  0.08419996  0.77570217  1
  Bi2+  Bi90  1  0.79067175  0.39719573  0.29146153  1
  Bi2+  Bi91  1  0.73169866  0.38285312  0.79408989  1
  Bi2+  Bi92  1  0.75926477  0.62289106  0.29305820  1
  Bi2+  Bi93  1  0.76432892  0.57243940  0.81286877  1
  Bi2+  Bi94  1  0.75275719  0.81417144  0.32517997  1
  Bi2+  Bi95  1  0.78844571  0.78302507  0.77179224  1
  Bi2+  Bi96  1  0.15876328  -0.01687407  0.23003989  1
  Bi2+  Bi97  1  0.14136077  -0.03104043  0.71018832  1
  Bi2+  Bi98  1  0.12794363  0.18577505  0.20022406  1
  Bi2+  Bi99  1  0.20464168  0.18690854  0.73484500  1
  Bi2+  Bi100  1  0.21612808  0.45255790  0.21762344  1
  Bi2+  Bi101  1  0.12494447  0.44984647  0.70174519  1
  Bi2+  Bi102  1  0.11902472  0.72385673  0.18853592  1
  Bi2+  Bi103  1  0.06854646  0.77775096  0.72498074  1
  Bi2+  Bi104  1  0.35192978  -0.03216595  0.20457310  1
  Bi2+  Bi105  1  0.40614880  0.01565912  0.70779623  1
  Bi2+  Bi106  1  0.31823739  0.22129971  0.22694297  1
  Bi2+  Bi107  1  0.47410930  0.25184746  0.69062857  1
  Bi2+  Bi108  1  0.40190291  0.51539387  0.19432381  1
  Bi2+  Bi109  1  0.37082469  0.49408197  0.67961955  1
  Bi2+  Bi110  1  0.38213268  0.77752750  0.22132785  1
  Bi2+  Bi111  1  0.42044613  0.75447304  0.72415288  1
  Bi2+  Bi112  1  0.60864149  -0.05713673  0.21281612  1
  Bi2+  Bi113  1  0.59715217  0.08350547  0.69601886  1
  Bi2+  Bi114  1  0.64514954  0.26939406  0.18685801  1
  Bi2+  Bi115  1  0.67328438  0.27426711  0.70098028  1
  Bi2+  Bi116  1  0.62797217  0.55410496  0.20868137  1
  Bi2+  Bi117  1  0.66256985  0.54651328  0.71310955  1
  Bi2+  Bi118  1  0.67707815  0.75821712  0.20831944  1
  Bi2+  Bi119  1  0.62826529  0.85926877  0.72059982  1
  Bi2+  Bi120  1  0.87200242  -0.04175653  0.21198545  1
  Bi2+  Bi121  1  0.85737717  -0.04705596  0.71398770  1
  Bi2+  Bi122  1  0.87121755  0.20797455  0.19248741  1
  Bi2+  Bi123  1  0.88833875  0.26536956  0.70986857  1
  Bi2+  Bi124  1  0.90025555  0.55551637  0.21156497  1
  Bi2+  Bi125  1  0.86182146  0.51670733  0.71346041  1
  Bi2+  Bi126  1  0.88593521  0.76392458  0.24096669  1
  Bi2+  Bi127  1  0.89104081  0.70794597  0.68581445  1
  S2-  S128  1  -0.04597118  0.04219996  0.14432817  1
  S2-  S129  1  -0.01324230  0.13378845  0.72397837  1
  S2-  S130  1  0.00004991  0.26011931  0.13981963  1
  S2-  S131  1  0.01924872  0.29353702  0.65353496  1
  S2-  S132  1  0.00043605  0.51185618  0.14152757  1
  S2-  S133  1  -0.00288513  0.50995719  0.64560451  1
  S2-  S134  1  -0.04164711  0.74475560  0.14777250  1
  S2-  S135  1  -0.00222253  0.95387806  0.64579451  1
  S2-  S136  1  0.31307093  0.11180780  0.14353285  1
  S2-  S137  1  0.16707034  0.11539433  0.64829141  1
  S2-  S138  1  0.33405116  0.37912676  0.14253050  1
  S2-  S139  1  0.25359386  0.36092278  0.66011055  1
  S2-  S140  1  0.26025823  0.73358244  0.13988347  1
  S2-  S141  1  0.21932665  0.59275406  0.67366950  1
  S2-  S142  1  0.12034581  0.88810220  0.14998449  1
  S2-  S143  1  0.26107679  0.88156086  0.66203543  1
  S2-  S144  1  0.50181494  0.18585418  0.18464219  1
  S2-  S145  1  0.37597298  0.13365568  0.63738691  1
  S2-  S146  1  0.57806147  0.41036484  0.14953633  1
  S2-  S147  1  0.50869951  0.41450550  0.64800527  1
  S2-  S148  1  0.49410433  0.64069490  0.15024714  1
  S2-  S149  1  0.45424379  0.64270497  0.65485102  1
  S2-  S150  1  0.48947725  0.95737735  0.13767221  1
  S2-  S151  1  0.49297417  0.87945459  0.65630955  1
  S2-  S152  1  0.73101118  0.12376037  0.15798102  1
  S2-  S153  1  0.82648890  0.14332350  0.64524133  1
  S2-  S154  1  0.80551279  0.34747156  0.16039242  1
  S2-  S155  1  0.78834312  0.38625377  0.65000668  1
  S2-  S156  1  0.75915173  0.56498800  0.14637353  1
  S2-  S157  1  0.72557635  0.65825265  0.64691956  1
  S2-  S158  1  0.74473030  0.88720538  0.14655575  1
  S2-  S159  1  0.73985419  0.90200943  0.64859697  1
  S2-  S160  1  0.14101894  -0.09557250  0.35670316  1
  S2-  S161  1  0.10293664  -0.02442631  0.84775796  1
  S2-  S162  1  0.02886940  0.28173154  0.36301388  1
  S2-  S163  1  0.12362709  0.25959993  0.84587831  1
  S2-  S164  1  0.15458010  0.55345252  0.36361971  1
  S2-  S165  1  0.20892767  0.48150573  0.84521826  1
  S2-  S166  1  0.14249783  0.71530665  0.28181514  1
  S2-  S167  1  0.12265864  0.68535662  0.85534003  1
  S2-  S168  1  0.39415046  0.01672253  0.34153368  1
  S2-  S169  1  0.33265008  -0.10962493  0.85833028  1
  S2-  S170  1  0.46293354  0.24780643  0.35217882  1
  S2-  S171  1  0.38809591  0.31827294  0.85539376  1
  S2-  S172  1  0.40416077  0.49466179  0.33990126  1
  S2-  S173  1  0.37705672  0.48677216  0.77407581  1
  S2-  S174  1  0.31629315  0.72232166  0.36192472  1
  S2-  S175  1  0.36136829  0.65812532  0.84734935  1
  S2-  S176  1  0.61505271  0.07367124  0.35569955  1
  S2-  S177  1  0.70257043  -0.00136490  0.85182427  1
  S2-  S178  1  0.62141973  0.24330025  0.27962156  1
  S2-  S179  1  0.67796915  0.26586403  0.86382037  1
  S2-  S180  1  0.63544444  0.41423906  0.34506107  1
  S2-  S181  1  0.55039857  0.49377374  0.85546564  1
  S2-  S182  1  0.61880448  0.62790030  0.35770803  1
  S2-  S183  1  0.61106742  0.77266714  0.84534864  1
  S2-  S184  1  0.88464211  0.04332015  0.34525229  1
  S2-  S185  1  0.86716270  0.12019420  0.85051954  1
  S2-  S186  1  0.80272350  0.26357756  0.34305989  1
  S2-  S187  1  0.89844264  0.32006493  0.81817060  1
  S2-  S188  1  0.89951402  0.47571375  0.34649732  1
  S2-  S189  1  0.97282100  0.51288740  0.86079103  1
  S2-  S190  1  0.97286033  0.71353541  0.35730173  1
  S2-  S191  1  0.89534044  0.75680507  0.85106980  1
  S2-  S192  1  0.00959384  0.12704306  0.44814757  1
  S2-  S193  1  -0.02360005  0.14014239  0.95549018  1
  S2-  S194  1  0.00689439  0.38562764  0.46546188  1
  S2-  S195  1  -0.02450918  0.38125531  0.95593693  1
  S2-  S196  1  0.00580664  0.63258132  0.46723089  1
  S2-  S197  1  -0.02167786  0.63759962  0.96247286  1
  S2-  S198  1  0.00268843  0.88236615  0.45545592  1
  S2-  S199  1  -0.02719591  0.88845744  0.95167057  1
  S2-  S200  1  0.25164395  0.13124022  0.45421624  1
  S2-  S201  1  0.23106600  0.13387405  0.95020540  1
  S2-  S202  1  0.25012988  0.38238521  0.45477530  1
  S2-  S203  1  0.23691325  0.38633688  0.95472124  1
  S2-  S204  1  0.24694093  0.63674752  0.46950419  1
  S2-  S205  1  0.22922075  0.64169976  0.95654187  1
  S2-  S206  1  0.25319744  0.87978432  0.45858479  1
  S2-  S207  1  0.22439630  0.88800804  0.96161209  1
  S2-  S208  1  0.50192423  0.13035336  0.46161559  1
  S2-  S209  1  0.47682977  0.13532474  0.94361795  1
  S2-  S210  1  0.49753669  0.38831305  0.45183052  1
  S2-  S211  1  0.47993520  0.38584605  0.96364170  1
  S2-  S212  1  0.50102930  0.63173776  0.45711577  1
  S2-  S213  1  0.47812103  0.63087200  0.95141996  1
  S2-  S214  1  0.50582818  0.88287456  0.45131672  1
  S2-  S215  1  0.48057581  0.88675227  0.94854868  1
  S2-  S216  1  0.75281943  0.13589576  0.45307332  1
  S2-  S217  1  0.72713816  0.13706560  0.95612925  1
  S2-  S218  1  0.75477683  0.38114916  0.45113593  1
  S2-  S219  1  0.72857422  0.38720946  0.96005740  1
  S2-  S220  1  0.75720017  0.63203240  0.45102414  1
  S2-  S221  1  0.72922974  0.63578116  0.95422287  1
  S2-  S222  1  0.75172610  0.88419556  0.45083584  1
  S2-  S223  1  0.72879104  0.88102039  0.95011561  1
  S2-  S224  1  0.10161609  0.00870818  0.04816450  1
  S2-  S225  1  0.12676556  0.00647379  0.54176103  1
  S2-  S226  1  0.11145015  0.25963786  0.04341913  1
  S2-  S227  1  0.12684972  0.25392854  0.54576585  1
  S2-  S228  1  0.11003362  0.50880692  0.03893669  1
  S2-  S229  1  0.12930562  0.50738330  0.55540705  1
  S2-  S230  1  0.09830508  0.76230749  0.04516344  1
  S2-  S231  1  0.12330359  0.75544154  0.56954468  1
  S2-  S232  1  0.35418392  0.00544202  0.03628601  1
  S2-  S233  1  0.37671421  0.00345112  0.54407128  1
  S2-  S234  1  0.36228492  0.24898694  0.04640134  1
  S2-  S235  1  0.37839294  0.25837721  0.54172558  1
  S2-  S236  1  0.35511770  0.51755095  0.05101983  1
  S2-  S237  1  0.37870359  0.50671219  0.54551869  1
  S2-  S238  1  0.35754670  0.76270478  0.03603068  1
  S2-  S239  1  0.37953365  0.75650642  0.55318247  1
  S2-  S240  1  0.60142412  0.01404288  0.03886444  1
  S2-  S241  1  0.63145150  0.01017386  0.54853523  1
  S2-  S242  1  0.59776454  0.25498129  0.05431384  1
  S2-  S243  1  0.62740973  0.25372458  0.55703767  1
  S2-  S244  1  0.60085670  0.51558861  0.04703713  1
  S2-  S245  1  0.63061401  0.50523468  0.54167801  1
  S2-  S246  1  0.60387899  0.76444834  0.04685355  1
  S2-  S247  1  0.63048450  0.75718130  0.53928798  1
  S2-  S248  1  0.85317750  0.00991438  0.03732255  1
  S2-  S249  1  0.87827745  0.00663441  0.54476633  1
  S2-  S250  1  0.84810289  0.26314704  0.04338611  1
  S2-  S251  1  0.88420331  0.25593966  0.54146606  1
  S2-  S252  1  0.85069613  0.51202565  0.04086815  1
  S2-  S253  1  0.87444255  0.50751023  0.54653502  1
  S2-  S254  1  0.85095378  0.76656099  0.04711474  1
  S2-  S255  1  0.87739306  0.75861170  0.54408420  1
