# generated using pymatgen
data_La6Ce7Pr13Nd19Sm19(BiS2)64
_symmetry_space_group_name_H-M   'P 1'
_cell_length_a   16.10256052
_cell_length_b   16.13400029
_cell_length_c   27.28286327
_cell_angle_alpha   89.80705644
_cell_angle_beta   90.05607220
_cell_angle_gamma   89.94473779
_symmetry_Int_Tables_number   1
_chemical_formula_structural   La6Ce7Pr13Nd19Sm19(BiS2)64
_chemical_formula_sum   'La6 Ce7 Pr13 Nd19 Sm19 Bi64 S128'
_cell_volume   7088.00594688
_cell_formula_units_Z   1
loop_
 _symmetry_equiv_pos_site_id
 _symmetry_equiv_pos_as_xyz
  1  'x, y, z'
loop_
 _atom_type_symbol
 _atom_type_oxidation_number
  La3+  3.0
  Ce3+  3.0
  Pr3+  3.0
  Nd3+  3.0
  Sm3+  3.0
  Bi2+  2.0
  S2-  -2.0
loop_
 _atom_site_type_symbol
 _atom_site_label
 _atom_site_symmetry_multiplicity
 _atom_site_fract_x
 _atom_site_fract_y
 _atom_site_fract_z
 _atom_site_occupancy
  La3+  La0  1  -0.00407676  0.36369478  0.08609716  1
  La3+  La1  1  0.51463463  0.87668502  0.07194921  1
  La3+  La2  1  0.48939633  0.86988453  0.58547254  1
  La3+  La3  1  0.62465667  0.25601865  0.88895409  1
  La3+  La4  1  0.12030390  0.50647240  0.39542790  1
  La3+  La5  1  0.88134272  0.24469775  0.92809449  1
  Ce3+  Ce6  1  0.74022443  0.12676868  0.57815131  1
  Ce3+  Ce7  1  0.25377032  0.12332708  0.05900580  1
  Ce3+  Ce8  1  0.36997666  -0.00024909  0.44012730  1
  Ce3+  Ce9  1  -0.00942228  0.37753691  0.56214823  1
  Ce3+  Ce10  1  0.49382085  0.62892301  0.55816924  1
  Ce3+  Ce11  1  0.50555791  0.12359660  0.04847278  1
  Ce3+  Ce12  1  0.86460171  0.25395849  0.44667193  1
  Pr3+  Pr13  1  0.11267091  0.75373338  0.43265181  1
  Pr3+  Pr14  1  0.74341601  0.37878473  0.60285551  1
  Pr3+  Pr15  1  0.75116748  0.12102003  0.04848275  1
  Pr3+  Pr16  1  -0.00804123  0.62768714  0.55477661  1
  Pr3+  Pr17  1  0.11654560  0.25609659  0.44126670  1
  Pr3+  Pr18  1  0.62109857  -0.00176375  0.92108605  1
  Pr3+  Pr19  1  0.25350194  0.61996506  0.06338857  1
  Pr3+  Pr20  1  0.37961182  -0.00158371  0.93755421  1
  Pr3+  Pr21  1  0.50618569  0.62016310  0.05938034  1
  Pr3+  Pr22  1  0.62711889  0.74920806  0.93404168  1
  Pr3+  Pr23  1  0.24373308  0.37848767  0.56915195  1
  Pr3+  Pr24  1  0.00465529  0.87129337  0.06926975  1
  Pr3+  Pr25  1  0.75554098  0.61793417  0.06151586  1
  Nd3+  Nd26  1  0.75383552  0.36910439  0.05477576  1
  Nd3+  Nd27  1  0.87833327  0.74714305  0.94148981  1
  Nd3+  Nd28  1  0.37929092  0.49514749  0.94309103  1
  Nd3+  Nd29  1  0.85331725  0.75439213  0.43212039  1
  Nd3+  Nd30  1  0.88376456  0.49374188  0.93537988  1
  Nd3+  Nd31  1  0.36593605  0.50311934  0.44073971  1
  Nd3+  Nd32  1  0.50549350  0.36984290  0.05510939  1
  Nd3+  Nd33  1  0.61825783  0.25435128  0.44792349  1
  Nd3+  Nd34  1  0.38027939  0.74351659  0.94300788  1
  Nd3+  Nd35  1  0.74503218  0.88090975  0.57878096  1
  Nd3+  Nd36  1  0.12790703  0.74795708  0.94462346  1
  Nd3+  Nd37  1  0.61763912  0.50211332  0.44919247  1
  Nd3+  Nd38  1  0.86882700  0.50096734  0.43780547  1
  Nd3+  Nd39  1  0.49162938  0.37705571  0.57060470  1
  Nd3+  Nd40  1  0.11526827  0.00248918  0.44461452  1
  Nd3+  Nd41  1  0.36532518  0.25596300  0.44435873  1
  Nd3+  Nd42  1  0.24309608  0.87587815  0.56499866  1
  Nd3+  Nd43  1  0.12913288  -0.00464860  0.94545565  1
  Nd3+  Nd44  1  0.74614606  0.63070081  0.56865064  1
  Sm3+  Sm45  1  0.24924597  0.36967675  0.05477346  1
  Sm3+  Sm46  1  0.61478122  0.75568650  0.44508107  1
  Sm3+  Sm47  1  0.75509950  0.87063284  0.05301393  1
  Sm3+  Sm48  1  0.36549602  0.75348916  0.44151110  1
  Sm3+  Sm49  1  0.49319937  0.12583518  0.56107647  1
  Sm3+  Sm50  1  0.86284723  0.00472210  0.44786886  1
  Sm3+  Sm51  1  0.25564638  0.87082815  0.05601521  1
  Sm3+  Sm52  1  -0.00765333  0.12835200  0.55807323  1
  Sm3+  Sm53  1  0.23971832  0.62661121  0.55448864  1
  Sm3+  Sm54  1  0.61601101  0.00286335  0.45074630  1
  Sm3+  Sm55  1  0.24350934  0.12504545  0.55585909  1
  Sm3+  Sm56  1  0.63776124  0.49708077  0.92676210  1
  Sm3+  Sm57  1  0.87697171  -0.00347563  0.94033375  1
  Sm3+  Sm58  1  0.00374356  0.61952577  0.05925307  1
  Sm3+  Sm59  1  0.00207378  0.11955920  0.05755828  1
  Sm3+  Sm60  1  -0.00769865  0.87616631  0.55526493  1
  Sm3+  Sm61  1  0.12536536  0.24764038  0.93761639  1
  Sm3+  Sm62  1  0.12276364  0.49572422  0.94178046  1
  Sm3+  Sm63  1  0.37763969  0.25016572  0.93635424  1
  Bi2+  Bi64  1  0.00279916  0.09695531  0.28440437  1
  Bi2+  Bi65  1  0.06102717  0.13555729  0.79049009  1
  Bi2+  Bi66  1  -0.00331563  0.36538540  0.29295055  1
  Bi2+  Bi67  1  0.02326998  0.38345609  0.78591503  1
  Bi2+  Bi68  1  -0.01049283  0.63793162  0.28361913  1
  Bi2+  Bi69  1  0.05518612  0.60367055  0.78394012  1
  Bi2+  Bi70  1  0.05500281  0.88176511  0.30963383  1
  Bi2+  Bi71  1  0.04290518  0.84310252  0.79781275  1
  Bi2+  Bi72  1  0.27460995  0.10225212  0.26180073  1
  Bi2+  Bi73  1  0.23682737  0.20259570  0.82457046  1
  Bi2+  Bi74  1  0.26382433  0.36408207  0.29640336  1
  Bi2+  Bi75  1  0.22692857  0.39559943  0.79512078  1
  Bi2+  Bi76  1  0.26937962  0.65834097  0.28672772  1
  Bi2+  Bi77  1  0.24958584  0.59709484  0.80275513  1
  Bi2+  Bi78  1  0.21003201  0.91590592  0.24453510  1
  Bi2+  Bi79  1  0.25280146  0.93005440  0.79085022  1
  Bi2+  Bi80  1  0.55777669  0.12027052  0.28483528  1
  Bi2+  Bi81  1  0.40151276  0.11686429  0.79405840  1
  Bi2+  Bi82  1  0.51585921  0.37634968  0.29862811  1
  Bi2+  Bi83  1  0.45465670  0.40153052  0.78882985  1
  Bi2+  Bi84  1  0.55812009  0.69282087  0.30133331  1
  Bi2+  Bi85  1  0.47622235  0.63944409  0.73910189  1
  Bi2+  Bi86  1  0.46034643  0.89070497  0.30915094  1
  Bi2+  Bi87  1  0.52339606  0.84600216  0.80644919  1
  Bi2+  Bi88  1  0.76641907  0.17263194  0.31189768  1
  Bi2+  Bi89  1  0.79668675  0.15068503  0.77551985  1
  Bi2+  Bi90  1  0.75134736  0.34441776  0.23019801  1
  Bi2+  Bi91  1  0.75521921  0.40504785  0.77756144  1
  Bi2+  Bi92  1  0.72247320  0.56806504  0.28763087  1
  Bi2+  Bi93  1  0.77429034  0.65029774  0.79247742  1
  Bi2+  Bi94  1  0.67336240  0.86797810  0.28647356  1
  Bi2+  Bi95  1  0.78964358  0.86142708  0.78128609  1
  Bi2+  Bi96  1  0.02888271  -0.01598526  0.18812901  1
  Bi2+  Bi97  1  0.14840335  0.03752773  0.70430619  1
  Bi2+  Bi98  1  0.14622334  0.25523042  0.19308927  1
  Bi2+  Bi99  1  0.13032839  0.33821056  0.68397033  1
  Bi2+  Bi100  1  0.14152055  0.50864757  0.19433078  1
  Bi2+  Bi101  1  0.14804459  0.53477261  0.69112442  1
  Bi2+  Bi102  1  0.06665637  0.79280755  0.20441319  1
  Bi2+  Bi103  1  0.12819841  0.84539332  0.69260925  1
  Bi2+  Bi104  1  0.43197979  0.01032403  0.21858219  1
  Bi2+  Bi105  1  0.37232745  -0.00127019  0.71015333  1
  Bi2+  Bi106  1  0.40188652  0.24803229  0.23976465  1
  Bi2+  Bi107  1  0.30554827  0.25797093  0.71706115  1
  Bi2+  Bi108  1  0.45098546  0.54679858  0.25105883  1
  Bi2+  Bi109  1  0.34951041  0.50542872  0.70518999  1
  Bi2+  Bi110  1  0.35832874  0.74580084  0.20175507  1
  Bi2+  Bi111  1  0.29082381  0.76267293  0.73450851  1
  Bi2+  Bi112  1  0.67764109  0.01894032  0.20514073  1
  Bi2+  Bi113  1  0.63505318  0.02399279  0.71858443  1
  Bi2+  Bi114  1  0.60178176  0.22897983  0.19080349  1
  Bi2+  Bi115  1  0.59950356  0.25017708  0.71185282  1
  Bi2+  Bi116  1  0.61371539  0.47746209  0.20173394  1
  Bi2+  Bi117  1  0.62565335  0.51781681  0.72428599  1
  Bi2+  Bi118  1  0.60534711  0.75241578  0.19611419  1
  Bi2+  Bi119  1  0.63721867  0.74741149  0.71148056  1
  Bi2+  Bi120  1  0.86740639  -0.04540052  0.26006226  1
  Bi2+  Bi121  1  0.91616440  0.00037605  0.75318896  1
  Bi2+  Bi122  1  0.87823632  0.19307462  0.21699855  1
  Bi2+  Bi123  1  0.95676414  0.24611159  0.71039742  1
  Bi2+  Bi124  1  0.85347391  0.53614227  0.20124578  1
  Bi2+  Bi125  1  0.88758667  0.50982214  0.71786530  1
  Bi2+  Bi126  1  0.82592244  0.72516421  0.25415404  1
  Bi2+  Bi127  1  0.90369592  0.75065899  0.70709539  1
  S2-  S128  1  0.00609183  0.20491347  0.14110369  1
  S2-  S129  1  0.00217850  0.11045516  0.65509018  1
  S2-  S130  1  0.03125226  0.37844177  0.19047758  1
  S2-  S131  1  -0.09450697  0.38368089  0.64781924  1
  S2-  S132  1  -0.00240852  0.59073779  0.15590405  1
  S2-  S133  1  -0.02062562  0.62581521  0.65555196  1
  S2-  S134  1  -0.07980151  0.84992124  0.15631167  1
  S2-  S135  1  -0.04222279  0.87120747  0.65089295  1
  S2-  S136  1  0.24719899  0.12195032  0.15555417  1
  S2-  S137  1  0.27632072  0.11848286  0.65213651  1
  S2-  S138  1  0.24175866  0.37905980  0.15302747  1
  S2-  S139  1  0.36596587  0.37084921  0.64333287  1
  S2-  S140  1  0.23850735  0.62849975  0.16310943  1
  S2-  S141  1  0.25410826  0.65174447  0.65187950  1
  S2-  S142  1  0.24492754  0.85194886  0.15276146  1
  S2-  S143  1  0.34573507  0.87490899  0.64647928  1
  S2-  S144  1  0.52697885  0.08497902  0.14221560  1
  S2-  S145  1  0.52195929  0.12533067  0.65883787  1
  S2-  S146  1  0.50759920  0.36408480  0.15445773  1
  S2-  S147  1  0.58615333  0.38397439  0.65606540  1
  S2-  S148  1  0.47244353  0.62599143  0.15771409  1
  S2-  S149  1  0.49947896  0.70594271  0.64452242  1
  S2-  S150  1  0.46403011  0.85847131  0.16864617  1
  S2-  S151  1  0.57738486  0.89656146  0.67387571  1
  S2-  S152  1  0.77783325  0.11276304  0.14912716  1
  S2-  S153  1  0.75170833  0.00614216  0.65199393  1
  S2-  S154  1  0.83776596  0.38748111  0.14116286  1
  S2-  S155  1  0.73666149  0.22912288  0.65931443  1
  S2-  S156  1  0.73966721  0.65832292  0.15866365  1
  S2-  S157  1  0.75040988  0.53350829  0.65346264  1
  S2-  S158  1  0.66762070  0.88577607  0.13588260  1
  S2-  S159  1  0.75873987  0.74993199  0.64484428  1
  S2-  S160  1  0.11643958  0.03563350  0.34789222  1
  S2-  S161  1  0.11133202  -0.02226053  0.84762376  1
  S2-  S162  1  0.12776342  0.28900105  0.34279887  1
  S2-  S163  1  0.01638342  0.25472579  0.86003116  1
  S2-  S164  1  0.13276305  0.47039491  0.29242368  1
  S2-  S165  1  0.01249229  0.50083694  0.86351625  1
  S2-  S166  1  0.12889817  0.66447599  0.34620078  1
  S2-  S167  1  0.14140660  0.72395693  0.84704637  1
  S2-  S168  1  0.35657664  0.01299737  0.34316543  1
  S2-  S169  1  0.47715659  -0.01053233  0.85471203  1
  S2-  S170  1  0.38546292  0.27249395  0.34676824  1
  S2-  S171  1  0.45494308  0.25950416  0.84817944  1
  S2-  S172  1  0.30718485  0.50952547  0.34825596  1
  S2-  S173  1  0.39670367  0.52553550  0.84640091  1
  S2-  S174  1  0.34302740  0.76863356  0.34351885  1
  S2-  S175  1  0.40121116  0.76725796  0.84597357  1
  S2-  S176  1  0.59529288  -0.01425694  0.35307671  1
  S2-  S177  1  0.67217556  -0.06162172  0.82888127  1
  S2-  S178  1  0.62626993  0.24864720  0.34827046  1
  S2-  S179  1  0.63553535  0.15473632  0.80191868  1
  S2-  S180  1  0.60956044  0.48399022  0.35039024  1
  S2-  S181  1  0.60371202  0.41238374  0.84177158  1
  S2-  S182  1  0.71147391  0.75712096  0.36516972  1
  S2-  S183  1  0.62600251  0.70697115  0.83670486  1
  S2-  S184  1  0.84295837  0.02242043  0.35030345  1
  S2-  S185  1  0.88518667  0.04762342  0.84731426  1
  S2-  S186  1  0.87263191  0.29222213  0.35098157  1
  S2-  S187  1  0.78937082  0.27754722  0.84243562  1
  S2-  S188  1  0.95427101  0.50427490  0.34935151  1
  S2-  S189  1  0.77664975  0.51980891  0.85691196  1
  S2-  S190  1  0.92670959  0.76446513  0.34155095  1
  S2-  S191  1  0.89711823  0.75619555  0.84336259  1
  S2-  S192  1  -0.00963830  0.12728423  0.45278884  1
  S2-  S193  1  0.00533781  0.11623968  0.95508007  1
  S2-  S194  1  -0.00364732  0.38217102  0.45548169  1
  S2-  S195  1  0.00696020  0.37079444  0.96387713  1
  S2-  S196  1  -0.01009986  0.63003939  0.44949429  1
  S2-  S197  1  0.00458777  0.62590787  0.95608081  1
  S2-  S198  1  -0.01346739  0.88006301  0.45128564  1
  S2-  S199  1  0.00194448  0.87324628  0.95764231  1
  S2-  S200  1  0.24252189  0.12742626  0.45103397  1
  S2-  S201  1  0.25342172  0.12351160  0.95219454  1
  S2-  S202  1  0.24046482  0.38208076  0.45671180  1
  S2-  S203  1  0.24980261  0.37273806  0.94886087  1
  S2-  S204  1  0.24070699  0.62843352  0.45137990  1
  S2-  S205  1  0.25101665  0.61902491  0.95556437  1
  S2-  S206  1  0.24069095  0.87683226  0.45455100  1
  S2-  S207  1  0.25599008  0.87024530  0.95081718  1
  S2-  S208  1  0.49194380  0.12922718  0.45463722  1
  S2-  S209  1  0.50479286  0.13134153  0.94518761  1
  S2-  S210  1  0.49077415  0.37844039  0.46078219  1
  S2-  S211  1  0.50537714  0.37379189  0.95067292  1
  S2-  S212  1  0.49144684  0.63014837  0.45033279  1
  S2-  S213  1  0.50717941  0.61714294  0.95197528  1
  S2-  S214  1  0.49194026  0.87509075  0.45785496  1
  S2-  S215  1  0.50172090  0.86921747  0.95922857  1
  S2-  S216  1  0.73917546  0.12625353  0.46362238  1
  S2-  S217  1  0.74869843  0.12010205  0.94191622  1
  S2-  S218  1  0.74149888  0.37969305  0.45154232  1
  S2-  S219  1  0.75141517  0.37167977  0.95093337  1
  S2-  S220  1  0.74051875  0.62467563  0.45970649  1
  S2-  S221  1  0.75330627  0.62511669  0.95543398  1
  S2-  S222  1  0.73955159  0.88341513  0.46315601  1
  S2-  S223  1  0.75464391  0.87283025  0.94826296  1
  S2-  S224  1  0.13020157  -0.00412276  0.05119394  1
  S2-  S225  1  0.11738985  0.00161335  0.55050026  1
  S2-  S226  1  0.12829697  0.24582529  0.04224343  1
  S2-  S227  1  0.11949224  0.24906214  0.54895924  1
  S2-  S228  1  0.12556926  0.49417906  0.04709256  1
  S2-  S229  1  0.11839402  0.50273661  0.55356353  1
  S2-  S230  1  0.12814089  0.74625671  0.05060613  1
  S2-  S231  1  0.11845064  0.75443266  0.54297287  1
  S2-  S232  1  0.37771645  -0.00494442  0.04594659  1
  S2-  S233  1  0.36889614  0.00296691  0.54636402  1
  S2-  S234  1  0.37701525  0.24942593  0.04363550  1
  S2-  S235  1  0.36694265  0.24692131  0.54867185  1
  S2-  S236  1  0.37710791  0.49298436  0.04987698  1
  S2-  S237  1  0.36678146  0.50736027  0.54713030  1
  S2-  S238  1  0.37959337  0.74726637  0.04942598  1
  S2-  S239  1  0.36376586  0.74982221  0.54390098  1
  S2-  S240  1  0.62992117  -0.00315623  0.03083184  1
  S2-  S241  1  0.61244166  -0.00074265  0.55326208  1
  S2-  S242  1  0.62942955  0.24776968  0.04737880  1
  S2-  S243  1  0.61478100  0.25252107  0.55225307  1
  S2-  S244  1  0.63027929  0.49477477  0.04238878  1
  S2-  S245  1  0.61737011  0.50358936  0.55326287  1
  S2-  S246  1  0.63169584  0.74444737  0.04177445  1
  S2-  S247  1  0.61959589  0.75544912  0.54692792  1
  S2-  S248  1  0.87847292  -0.00541206  0.04549455  1
  S2-  S249  1  0.87229168  0.00286849  0.55040131  1
  S2-  S250  1  0.87873259  0.24310800  0.03884971  1
  S2-  S251  1  0.86748471  0.24985985  0.55117825  1
  S2-  S252  1  0.88255808  0.49779875  0.04160535  1
  S2-  S253  1  0.86681955  0.50269727  0.54355305  1
  S2-  S254  1  0.87899918  0.74471211  0.04755978  1
  S2-  S255  1  0.86967627  0.75600352  0.53965473  1
