# generated using pymatgen
data_La6Ce7Pr13Nd19Sm19(BiS2)64
_symmetry_space_group_name_H-M   'P 1'
_cell_length_a   15.98481540
_cell_length_b   16.07163959
_cell_length_c   27.36247428
_cell_angle_alpha   90.02006413
_cell_angle_beta   90.21673331
_cell_angle_gamma   90.03493808
_symmetry_Int_Tables_number   1
_chemical_formula_structural   La6Ce7Pr13Nd19Sm19(BiS2)64
_chemical_formula_sum   'La6 Ce7 Pr13 Nd19 Sm19 Bi64 S128'
_cell_volume   7029.42758557
_cell_formula_units_Z   1
loop_
 _symmetry_equiv_pos_site_id
 _symmetry_equiv_pos_as_xyz
  1  'x, y, z'
loop_
 _atom_type_symbol
 _atom_type_oxidation_number
  La3+  3.0
  Ce3+  3.0
  Pr3+  3.0
  Nd3+  3.0
  Sm3+  3.0
  Bi2+  2.0
  S2-  -2.0
loop_
 _atom_site_type_symbol
 _atom_site_label
 _atom_site_symmetry_multiplicity
 _atom_site_fract_x
 _atom_site_fract_y
 _atom_site_fract_z
 _atom_site_occupancy
  La3+  La0  1  0.77556767  0.85950860  0.58399436  1
  La3+  La1  1  0.15047953  0.24428856  0.40190749  1
  La3+  La2  1  0.27059314  0.11041409  0.55382688  1
  La3+  La3  1  0.51994469  0.10693832  0.57312437  1
  La3+  La4  1  0.25738122  0.14004906  0.08384879  1
  La3+  La5  1  0.39519322  -0.01928987  0.41334609  1
  Ce3+  Ce6  1  0.49755371  0.37833076  0.04098611  1
  Ce3+  Ce7  1  0.02843637  0.60528831  0.56898654  1
  Ce3+  Ce8  1  -0.00993308  0.88130523  0.06801764  1
  Ce3+  Ce9  1  0.61481725  0.50532926  0.92104862  1
  Ce3+  Ce10  1  0.27042741  0.35698931  0.55720393  1
  Ce3+  Ce11  1  0.89503402  0.48333012  0.44981313  1
  Ce3+  Ce12  1  0.11967156  0.50862067  0.92970620  1
  Pr3+  Pr13  1  0.63414717  0.25660448  0.91886427  1
  Pr3+  Pr14  1  -0.00143277  0.38374608  0.06911958  1
  Pr3+  Pr15  1  0.86806828  0.75697187  0.92479527  1
  Pr3+  Pr16  1  0.50453599  0.87779630  0.06641117  1
  Pr3+  Pr17  1  0.01698177  0.85857724  0.55912958  1
  Pr3+  Pr18  1  0.36760519  0.50713579  0.93261614  1
  Pr3+  Pr19  1  0.75065446  0.12702584  0.06086714  1
  Pr3+  Pr20  1  0.64546711  0.73600354  0.43504729  1
  Pr3+  Pr21  1  0.27477928  0.60764098  0.57180321  1
  Pr3+  Pr22  1  0.00035431  0.13571448  0.07165478  1
  Pr3+  Pr23  1  0.76355676  0.36223838  0.56292419  1
  Pr3+  Pr24  1  0.89017931  0.73421371  0.43661120  1
  Pr3+  Pr25  1  0.64030340  0.48538421  0.44401075  1
  Nd3+  Nd26  1  0.27340791  0.86168570  0.56158456  1
  Nd3+  Nd27  1  -0.00439155  0.62902918  0.06246335  1
  Nd3+  Nd28  1  0.39243157  0.48715866  0.43815412  1
  Nd3+  Nd29  1  0.74203658  0.37928657  0.05877511  1
  Nd3+  Nd30  1  0.74845492  0.87704335  0.05864348  1
  Nd3+  Nd31  1  0.36351303  0.24720034  0.91918326  1
  Nd3+  Nd32  1  0.77472065  0.11287231  0.57060702  1
  Nd3+  Nd33  1  0.88888931  -0.01571431  0.43425312  1
  Nd3+  Nd34  1  0.37008851  0.76073508  0.93497240  1
  Nd3+  Nd35  1  0.49931663  0.63032711  0.05707012  1
  Nd3+  Nd36  1  0.52012003  0.86190615  0.56305148  1
  Nd3+  Nd37  1  0.40256248  0.23444042  0.43068699  1
  Nd3+  Nd38  1  0.89198464  0.23387205  0.43373639  1
  Nd3+  Nd39  1  0.49840203  0.13264370  0.05141813  1
  Nd3+  Nd40  1  0.25752598  0.87328720  0.08789839  1
  Nd3+  Nd41  1  0.51766251  0.61214446  0.56532490  1
  Nd3+  Nd42  1  0.39556642  0.73312011  0.42664983  1
  Nd3+  Nd43  1  0.87579356  0.00287338  0.93119978  1
  Nd3+  Nd44  1  0.62619970  0.00663341  0.92293261  1
  Sm3+  Sm45  1  0.36964342  0.00423122  0.94659336  1
  Sm3+  Sm46  1  0.14551792  0.73559705  0.44975557  1
  Sm3+  Sm47  1  0.24864696  0.38079143  0.05052719  1
  Sm3+  Sm48  1  0.01393926  0.11256685  0.55232149  1
  Sm3+  Sm49  1  0.02003501  0.35808771  0.55740767  1
  Sm3+  Sm50  1  0.61444663  0.75948387  0.92580908  1
  Sm3+  Sm51  1  0.50785453  0.35537439  0.58072632  1
  Sm3+  Sm52  1  0.12107259  0.25224447  0.94163107  1
  Sm3+  Sm53  1  0.74444551  0.63178224  0.04476139  1
  Sm3+  Sm54  1  0.14364369  -0.01373272  0.44253986  1
  Sm3+  Sm55  1  0.64457176  -0.01503731  0.44267849  1
  Sm3+  Sm56  1  0.12553597  0.75998807  0.94385732  1
  Sm3+  Sm57  1  0.12473425  0.00498131  0.95969707  1
  Sm3+  Sm58  1  0.64063395  0.23289593  0.44599534  1
  Sm3+  Sm59  1  0.87303615  0.50647938  0.94402003  1
  Sm3+  Sm60  1  0.87619094  0.25693592  0.94154710  1
  Sm3+  Sm61  1  0.14427880  0.48741070  0.44003275  1
  Sm3+  Sm62  1  0.77046851  0.61406318  0.56531499  1
  Sm3+  Sm63  1  0.24734829  0.63152645  0.05986809  1
  Bi2+  Bi64  1  -0.10634911  0.08665154  0.30953170  1
  Bi2+  Bi65  1  -0.03125251  0.12714292  0.80282350  1
  Bi2+  Bi66  1  0.02228830  0.45641280  0.28392886  1
  Bi2+  Bi67  1  0.04580435  0.30768847  0.81807885  1
  Bi2+  Bi68  1  0.00619169  0.65039467  0.30060362  1
  Bi2+  Bi69  1  0.06223609  0.63185894  0.81986893  1
  Bi2+  Bi70  1  -0.08093569  0.82633869  0.31652716  1
  Bi2+  Bi71  1  0.02785534  0.89809097  0.78838049  1
  Bi2+  Bi72  1  0.18168741  0.11111683  0.27753357  1
  Bi2+  Bi73  1  0.22547905  0.09590962  0.79981045  1
  Bi2+  Bi74  1  0.27972097  0.37734469  0.28578459  1
  Bi2+  Bi75  1  0.22553004  0.39066083  0.78599181  1
  Bi2+  Bi76  1  0.25049525  0.60927902  0.28938931  1
  Bi2+  Bi77  1  0.35455074  0.63294064  0.80475459  1
  Bi2+  Bi78  1  0.20528820  0.85115051  0.28580077  1
  Bi2+  Bi79  1  0.24982979  0.87764569  0.79731522  1
  Bi2+  Bi80  1  0.45287833  0.16253311  0.28528066  1
  Bi2+  Bi81  1  0.48226372  0.10820126  0.80486421  1
  Bi2+  Bi82  1  0.46356823  0.43314506  0.31485905  1
  Bi2+  Bi83  1  0.53444686  0.44835793  0.76534358  1
  Bi2+  Bi84  1  0.52966823  0.61317667  0.28801681  1
  Bi2+  Bi85  1  0.55525222  0.65716247  0.79321403  1
  Bi2+  Bi86  1  0.48021881  0.86160701  0.28881163  1
  Bi2+  Bi87  1  0.47564342  0.83196142  0.70902414  1
  Bi2+  Bi88  1  0.70605921  0.14804560  0.30712373  1
  Bi2+  Bi89  1  0.76804334  0.15689231  0.78539301  1
  Bi2+  Bi90  1  0.74502977  0.43878751  0.30005970  1
  Bi2+  Bi91  1  0.86074422  0.38707676  0.78532488  1
  Bi2+  Bi92  1  0.78957433  0.61024401  0.24294220  1
  Bi2+  Bi93  1  0.86913365  0.65463772  0.80220268  1
  Bi2+  Bi94  1  0.73392296  0.86633068  0.28284635  1
  Bi2+  Bi95  1  0.74401186  0.89445458  0.80208768  1
  Bi2+  Bi96  1  0.01864772  -0.03769954  0.26407266  1
  Bi2+  Bi97  1  0.08808919  0.05169506  0.71934146  1
  Bi2+  Bi98  1  0.13145196  0.27715198  0.20687058  1
  Bi2+  Bi99  1  0.14300903  0.24712621  0.71776141  1
  Bi2+  Bi100  1  0.15141036  0.49333841  0.19573939  1
  Bi2+  Bi101  1  0.08638619  0.50055726  0.73551678  1
  Bi2+  Bi102  1  0.12213677  0.69402247  0.20747169  1
  Bi2+  Bi103  1  0.12362618  0.75034701  0.73920543  1
  Bi2+  Bi104  1  0.33171347  0.01031221  0.20703153  1
  Bi2+  Bi105  1  0.34936938  -0.01236624  0.70222050  1
  Bi2+  Bi106  1  0.40222550  0.27177097  0.19741092  1
  Bi2+  Bi107  1  0.38313462  0.25427310  0.71167551  1
  Bi2+  Bi108  1  0.35228429  0.51589549  0.20669610  1
  Bi2+  Bi109  1  0.30629293  0.52637484  0.71202974  1
  Bi2+  Bi110  1  0.39017405  0.75174143  0.21003724  1
  Bi2+  Bi111  1  0.30520094  0.74548043  0.69180456  1
  Bi2+  Bi112  1  0.58728969  0.01827377  0.25586968  1
  Bi2+  Bi113  1  0.61891251  0.02154243  0.72047996  1
  Bi2+  Bi114  1  0.60031247  0.32431722  0.26057893  1
  Bi2+  Bi115  1  0.64851685  0.28663634  0.70328139  1
  Bi2+  Bi116  1  0.54779225  0.48733079  0.19928987  1
  Bi2+  Bi117  1  0.70812700  0.53918614  0.73796871  1
  Bi2+  Bi118  1  0.65480063  0.75842289  0.19791772  1
  Bi2+  Bi119  1  0.58994116  0.67836275  0.68449321  1
  Bi2+  Bi120  1  0.77617442  -0.01775145  0.19017291  1
  Bi2+  Bi121  1  0.88322280  0.01305804  0.70944197  1
  Bi2+  Bi122  1  0.84564898  0.19924678  0.19127544  1
  Bi2+  Bi123  1  0.93467694  0.26137987  0.70395556  1
  Bi2+  Bi124  1  0.87630164  0.44693644  0.20714554  1
  Bi2+  Bi125  1  0.89761746  0.53116102  0.70447824  1
  Bi2+  Bi126  1  0.93146132  0.72411314  0.19671858  1
  Bi2+  Bi127  1  0.87902755  0.76393193  0.71175977  1
  S2-  S128  1  -0.08242291  0.06525544  0.15085737  1
  S2-  S129  1  -0.08141997  0.12085354  0.63631071  1
  S2-  S130  1  -0.00460378  0.26783094  0.14759231  1
  S2-  S131  1  0.04964873  0.35910668  0.65476345  1
  S2-  S132  1  0.00066657  0.51499787  0.13920443  1
  S2-  S133  1  -0.02139503  0.66362971  0.65491107  1
  S2-  S134  1  -0.13139325  0.85487122  0.13730472  1
  S2-  S135  1  -0.07057891  0.88269104  0.64423156  1
  S2-  S136  1  0.16094573  0.12832261  0.17150697  1
  S2-  S137  1  0.30717667  0.12688031  0.65333068  1
  S2-  S138  1  0.26367087  0.30471478  0.13826327  1
  S2-  S139  1  0.35231449  0.36574900  0.64416934  1
  S2-  S140  1  0.26369659  0.72004588  0.14370065  1
  S2-  S141  1  0.16832744  0.56537260  0.64934917  1
  S2-  S142  1  0.20330503  0.91670302  0.18588254  1
  S2-  S143  1  0.22684722  0.89783024  0.65565814  1
  S2-  S144  1  0.41420629  0.13290858  0.14114816  1
  S2-  S145  1  0.50642103  0.22242368  0.65217393  1
  S2-  S146  1  0.52589030  0.34836706  0.13552570  1
  S2-  S147  1  0.58072951  0.42307471  0.66319200  1
  S2-  S148  1  0.51187714  0.71020867  0.14572703  1
  S2-  S149  1  0.40537919  0.60686085  0.64406382  1
  S2-  S150  1  0.40320537  0.89609612  0.15076160  1
  S2-  S151  1  0.50231492  0.97384953  0.64267896  1
  S2-  S152  1  0.70002145  0.13050197  0.15781826  1
  S2-  S153  1  0.68796007  0.12858271  0.65882999  1
  S2-  S154  1  0.77065466  0.34607353  0.15513722  1
  S2-  S155  1  0.78692001  0.33278703  0.66083006  1
  S2-  S156  1  0.74226462  0.63815090  0.14218674  1
  S2-  S157  1  0.75582940  0.71454866  0.64498740  1
  S2-  S158  1  0.63787670  0.89301121  0.13683902  1
  S2-  S159  1  0.72856660  0.92126245  0.68340688  1
  S2-  S160  1  0.13600857  -0.02523182  0.34478966  1
  S2-  S161  1  0.13258877  -0.01646066  0.86155322  1
  S2-  S162  1  0.06348532  0.19792481  0.31691095  1
  S2-  S163  1  0.21644573  0.22367974  0.86059233  1
  S2-  S164  1  0.14308194  0.40819162  0.35267154  1
  S2-  S165  1  0.24219155  0.51632783  0.85718410  1
  S2-  S166  1  0.14892295  0.72440394  0.35131635  1
  S2-  S167  1  0.23812128  0.76444174  0.86554433  1
  S2-  S168  1  0.34306952  0.04422027  0.31382374  1
  S2-  S169  1  0.35923197  -0.00207145  0.84772441  1
  S2-  S170  1  0.30228950  0.24499899  0.34703612  1
  S2-  S171  1  0.41314587  0.25498480  0.81851260  1
  S2-  S172  1  0.36609788  0.59726329  0.35980745  1
  S2-  S173  1  0.46832238  0.51453566  0.84855033  1
  S2-  S174  1  0.34408210  0.84220249  0.34953713  1
  S2-  S175  1  0.48208146  0.76048847  0.85714287  1
  S2-  S176  1  0.54442941  -0.01989711  0.35773466  1
  S2-  S177  1  0.58554100  -0.04102475  0.82400838  1
  S2-  S178  1  0.54574087  0.22843249  0.36320492  1
  S2-  S179  1  0.61190581  0.20305005  0.82120311  1
  S2-  S180  1  0.65041457  0.55380914  0.35155252  1
  S2-  S181  1  0.66862167  0.45992635  0.83049575  1
  S2-  S182  1  0.53144405  0.74075259  0.35610370  1
  S2-  S183  1  0.72955338  0.75478645  0.84917833  1
  S2-  S184  1  0.76327931  0.00191499  0.36427586  1
  S2-  S185  1  0.76045483  0.03555734  0.85553637  1
  S2-  S186  1  0.82839017  0.24946832  0.34144025  1
  S2-  S187  1  0.79288979  0.27648776  0.85592023  1
  S2-  S188  1  0.88947173  0.49640231  0.35390828  1
  S2-  S189  1  0.92605524  0.50341182  0.85148248  1
  S2-  S190  1  0.76937584  0.75022816  0.36079922  1
  S2-  S191  1  0.89973481  0.88308002  0.85400407  1
  S2-  S192  1  0.01989984  0.11200613  0.44786670  1
  S2-  S193  1  -0.00209270  0.13016901  0.95680149  1
  S2-  S194  1  0.02143174  0.35658477  0.45198946  1
  S2-  S195  1  -0.00143682  0.38154366  0.95766813  1
  S2-  S196  1  0.02118701  0.61023780  0.45782905  1
  S2-  S197  1  -0.00222147  0.63381368  0.95612127  1
  S2-  S198  1  0.01899980  0.86077546  0.45205695  1
  S2-  S199  1  0.00235096  0.87856668  0.96162119  1
  S2-  S200  1  0.26661728  0.10982171  0.44543882  1
  S2-  S201  1  0.24700600  0.12670503  0.96503809  1
  S2-  S202  1  0.26869324  0.36117748  0.45290403  1
  S2-  S203  1  0.24400748  0.37745227  0.94910048  1
  S2-  S204  1  0.26434953  0.61123569  0.46322104  1
  S2-  S205  1  0.24546349  0.63300430  0.95951044  1
  S2-  S206  1  0.26412592  0.86242043  0.45684254  1
  S2-  S207  1  0.24644245  0.88292007  0.96930119  1
  S2-  S208  1  0.51903027  0.10567706  0.46151078  1
  S2-  S209  1  0.49700442  0.12972637  0.94307588  1
  S2-  S210  1  0.51727310  0.36244878  0.46111907  1
  S2-  S211  1  0.49511900  0.37086825  0.93691862  1
  S2-  S212  1  0.51726969  0.61028310  0.46080791  1
  S2-  S213  1  0.49606754  0.63020513  0.95315827  1
  S2-  S214  1  0.51839361  0.86145383  0.45887963  1
  S2-  S215  1  0.49877940  0.88794579  0.95483303  1
  S2-  S216  1  0.76736964  0.11653772  0.46249225  1
  S2-  S217  1  0.75169761  0.13496752  0.95451984  1
  S2-  S218  1  0.76539758  0.35856132  0.45493135  1
  S2-  S219  1  0.74927800  0.38586352  0.95266664  1
  S2-  S220  1  0.77017017  0.60638939  0.46182859  1
  S2-  S221  1  0.74452546  0.62559833  0.94203517  1
  S2-  S222  1  0.77042829  0.86222574  0.46507275  1
  S2-  S223  1  0.74462059  0.87982353  0.95239875  1
  S2-  S224  1  0.12313343  0.00307923  0.06298872  1
  S2-  S225  1  0.13806835  -0.01160782  0.54699551  1
  S2-  S226  1  0.12457140  0.25797926  0.04385210  1
  S2-  S227  1  0.13959703  0.23341788  0.55133237  1
  S2-  S228  1  0.12679276  0.50714904  0.03871837  1
  S2-  S229  1  0.14560579  0.47823612  0.54239589  1
  S2-  S230  1  0.11910336  0.75494256  0.05020448  1
  S2-  S231  1  0.14669989  0.73676501  0.55441865  1
  S2-  S232  1  0.37294487  0.00481793  0.04826230  1
  S2-  S233  1  0.39194818  -0.01570733  0.54008425  1
  S2-  S234  1  0.37311556  0.25742426  0.03028520  1
  S2-  S235  1  0.39569885  0.23535134  0.53824934  1
  S2-  S236  1  0.37103677  0.50642990  0.04468946  1
  S2-  S237  1  0.39707900  0.48208423  0.54301137  1
  S2-  S238  1  0.37472230  0.75384231  0.04133376  1
  S2-  S239  1  0.39525965  0.73937148  0.54374441  1
  S2-  S240  1  0.62232588  0.00930305  0.03450997  1
  S2-  S241  1  0.65189213  -0.01596153  0.54924556  1
  S2-  S242  1  0.62443071  0.25325602  0.03260438  1
  S2-  S243  1  0.63985709  0.23969972  0.54842138  1
  S2-  S244  1  0.62182211  0.50579016  0.03649485  1
  S2-  S245  1  0.64340360  0.49095892  0.55076246  1
  S2-  S246  1  0.62326013  0.75299085  0.03160604  1
  S2-  S247  1  0.64271235  0.73619235  0.54450543  1
  S2-  S248  1  0.87386644  0.00400298  0.03710036  1
  S2-  S249  1  0.89356186  -0.01298609  0.53878048  1
  S2-  S250  1  0.87161351  0.25803639  0.04365972  1
  S2-  S251  1  0.89285946  0.24190091  0.54069008  1
  S2-  S252  1  0.86664540  0.50555454  0.04556615  1
  S2-  S253  1  0.89463058  0.48554484  0.55619198  1
  S2-  S254  1  0.87207336  0.74891459  0.03430400  1
  S2-  S255  1  0.89649659  0.73058856  0.54295853  1
