# generated using pymatgen
data_La6Ce7Pr13Nd19Sm19(BiS2)64
_symmetry_space_group_name_H-M   'P 1'
_cell_length_a   16.04460934
_cell_length_b   16.01869699
_cell_length_c   27.48070206
_cell_angle_alpha   89.96914578
_cell_angle_beta   89.62280425
_cell_angle_gamma   89.88806510
_symmetry_Int_Tables_number   1
_chemical_formula_structural   La6Ce7Pr13Nd19Sm19(BiS2)64
_chemical_formula_sum   'La6 Ce7 Pr13 Nd19 Sm19 Bi64 S128'
_cell_volume   7062.75037984
_cell_formula_units_Z   1
loop_
 _symmetry_equiv_pos_site_id
 _symmetry_equiv_pos_as_xyz
  1  'x, y, z'
loop_
 _atom_type_symbol
 _atom_type_oxidation_number
  La3+  3.0
  Ce3+  3.0
  Pr3+  3.0
  Nd3+  3.0
  Sm3+  3.0
  Bi2+  2.0
  S2-  -2.0
loop_
 _atom_site_type_symbol
 _atom_site_label
 _atom_site_symmetry_multiplicity
 _atom_site_fract_x
 _atom_site_fract_y
 _atom_site_fract_z
 _atom_site_occupancy
  La3+  La0  1  0.11725677  0.75633718  0.41608196  1
  La3+  La1  1  0.50176156  0.86920321  0.06257066  1
  La3+  La2  1  0.74549607  0.63610714  0.60490225  1
  La3+  La3  1  -0.00055942  0.62833053  0.10844785  1
  La3+  La4  1  0.09731246  0.73103549  0.87802749  1
  La3+  La5  1  0.38018973  0.48854223  0.42087077  1
  Ce3+  Ce6  1  0.24586971  0.62312513  0.54608354  1
  Ce3+  Ce7  1  0.87325087  0.25346509  0.44255010  1
  Ce3+  Ce8  1  0.63372293  0.74823149  0.44361525  1
  Ce3+  Ce9  1  -0.00532286  0.38107965  0.56317128  1
  Ce3+  Ce10  1  0.24787079  0.37698319  0.07313130  1
  Ce3+  Ce11  1  0.36472917  0.75859948  0.92954216  1
  Ce3+  Ce12  1  0.49992269  0.12623664  0.05876666  1
  Pr3+  Pr13  1  -0.00336519  0.61788534  0.55649545  1
  Pr3+  Pr14  1  0.87875276  0.49446067  0.42531176  1
  Pr3+  Pr15  1  0.37585772  0.00390933  0.93682535  1
  Pr3+  Pr16  1  0.49883383  0.87434392  0.56248999  1
  Pr3+  Pr17  1  0.74949469  0.62330251  0.06571728  1
  Pr3+  Pr18  1  0.62810417  0.24736858  0.92500438  1
  Pr3+  Pr19  1  0.12525910  -0.00187112  0.93405708  1
  Pr3+  Pr20  1  -0.00250906  0.86434036  0.56735373  1
  Pr3+  Pr21  1  -0.00488519  0.12464222  0.07343544  1
  Pr3+  Pr22  1  0.62418327  0.49775876  0.92780600  1
  Pr3+  Pr23  1  0.50119567  0.37552384  0.05855416  1
  Pr3+  Pr24  1  0.75057410  0.12696187  0.57210349  1
  Pr3+  Pr25  1  -0.00050873  0.37963259  0.06114302  1
  Nd3+  Nd26  1  0.62851345  0.74505054  0.92666846  1
  Nd3+  Nd27  1  0.24902026  0.12314616  0.06811764  1
  Nd3+  Nd28  1  0.74822655  0.12749411  0.06348701  1
  Nd3+  Nd29  1  0.24503724  0.87324689  0.55651253  1
  Nd3+  Nd30  1  0.12772533  0.25056517  0.44748809  1
  Nd3+  Nd31  1  0.37614843  0.75082703  0.43810765  1
  Nd3+  Nd32  1  0.75158879  0.87031105  0.05914113  1
  Nd3+  Nd33  1  0.62908265  -0.00006333  0.93825710  1
  Nd3+  Nd34  1  0.87703299  -0.00080833  0.44817788  1
  Nd3+  Nd35  1  0.38781337  -0.00948791  0.41533082  1
  Nd3+  Nd36  1  0.24607167  0.87306493  0.06477076  1
  Nd3+  Nd37  1  0.87870576  0.74874673  0.94700032  1
  Nd3+  Nd38  1  0.00290154  0.87467468  0.06687107  1
  Nd3+  Nd39  1  0.37606033  0.24635685  0.44849413  1
  Nd3+  Nd40  1  0.49389822  0.12283633  0.56278188  1
  Nd3+  Nd41  1  0.74098256  0.38007617  0.57225452  1
  Nd3+  Nd42  1  0.74969889  0.88022465  0.57084167  1
  Nd3+  Nd43  1  0.13021899  0.49455313  0.42428529  1
  Nd3+  Nd44  1  0.62624865  0.49596303  0.44135622  1
  Sm3+  Sm45  1  0.25257310  0.38112515  0.56429447  1
  Sm3+  Sm46  1  0.12855176  0.50464357  0.94894152  1
  Sm3+  Sm47  1  0.37096892  0.49973849  0.94274410  1
  Sm3+  Sm48  1  0.49381484  0.37931810  0.56927737  1
  Sm3+  Sm49  1  0.49923903  0.62387418  0.55839021  1
  Sm3+  Sm50  1  0.13255979  0.00138248  0.43545898  1
  Sm3+  Sm51  1  0.00088209  0.12896808  0.55719513  1
  Sm3+  Sm52  1  0.62520412  0.24744791  0.45048101  1
  Sm3+  Sm53  1  0.75090041  0.37839027  0.04882901  1
  Sm3+  Sm54  1  0.37166391  0.24874654  0.93984383  1
  Sm3+  Sm55  1  0.24328391  0.12142648  0.56141785  1
  Sm3+  Sm56  1  0.88122324  0.50428626  0.93811265  1
  Sm3+  Sm57  1  0.87981009  0.24893259  0.94105879  1
  Sm3+  Sm58  1  0.12560348  0.24668905  0.93991903  1
  Sm3+  Sm59  1  0.25227800  0.62904479  0.07002835  1
  Sm3+  Sm60  1  0.86903893  0.74640259  0.43829284  1
  Sm3+  Sm61  1  0.49880407  0.62568258  0.04845942  1
  Sm3+  Sm62  1  0.88042540  -0.00220983  0.94557035  1
  Sm3+  Sm63  1  0.62807452  -0.00072201  0.44374341  1
  Bi2+  Bi64  1  -0.01319526  0.11291845  0.29330636  1
  Bi2+  Bi65  1  -0.00161372  0.16131968  0.78483718  1
  Bi2+  Bi66  1  -0.00535535  0.35200914  0.29229480  1
  Bi2+  Bi67  1  0.02857243  0.35521681  0.79983771  1
  Bi2+  Bi68  1  -0.02570698  0.62718315  0.28993158  1
  Bi2+  Bi69  1  0.00119803  0.55565653  0.78438831  1
  Bi2+  Bi70  1  -0.02394719  0.88669780  0.28959990  1
  Bi2+  Bi71  1  -0.02734562  0.89205788  0.78923860  1
  Bi2+  Bi72  1  0.18208774  0.15684449  0.29388956  1
  Bi2+  Bi73  1  0.24633224  0.13485230  0.79211810  1
  Bi2+  Bi74  1  0.25615980  0.36578250  0.28759889  1
  Bi2+  Bi75  1  0.22404885  0.32184603  0.82585585  1
  Bi2+  Bi76  1  0.21630269  0.59360346  0.26595189  1
  Bi2+  Bi77  1  0.26164362  0.50467521  0.77742655  1
  Bi2+  Bi78  1  0.25469652  0.88801449  0.30290322  1
  Bi2+  Bi79  1  0.26179087  0.87281763  0.79209667  1
  Bi2+  Bi80  1  0.49417937  0.10459487  0.28070638  1
  Bi2+  Bi81  1  0.46814014  0.17821373  0.78140986  1
  Bi2+  Bi82  1  0.50303944  0.36575646  0.29646534  1
  Bi2+  Bi83  1  0.48806866  0.36633767  0.78672543  1
  Bi2+  Bi84  1  0.53481602  0.63066775  0.28451664  1
  Bi2+  Bi85  1  0.50386404  0.61513016  0.78543405  1
  Bi2+  Bi86  1  0.54333704  0.82148798  0.25793091  1
  Bi2+  Bi87  1  0.49298366  0.89938396  0.76907198  1
  Bi2+  Bi88  1  0.78242799  0.11418273  0.30045135  1
  Bi2+  Bi89  1  0.73245312  0.17701271  0.79654348  1
  Bi2+  Bi90  1  0.72381458  0.39881005  0.30350964  1
  Bi2+  Bi91  1  0.74333142  0.37445415  0.77645859  1
  Bi2+  Bi92  1  0.73110740  0.67182385  0.28095178  1
  Bi2+  Bi93  1  0.77826458  0.68270396  0.80569474  1
  Bi2+  Bi94  1  0.68598018  0.91758444  0.31307525  1
  Bi2+  Bi95  1  0.73845642  0.94944914  0.78960870  1
  Bi2+  Bi96  1  0.13189803  0.02416579  0.21500495  1
  Bi2+  Bi97  1  0.13495079  0.00702056  0.69624805  1
  Bi2+  Bi98  1  0.05355032  0.22537440  0.20090165  1
  Bi2+  Bi99  1  0.12844741  0.27327420  0.71136333  1
  Bi2+  Bi100  1  0.13833946  0.40260174  0.19956527  1
  Bi2+  Bi101  1  0.15034941  0.46524246  0.68718143  1
  Bi2+  Bi102  1  0.11382543  0.79938923  0.20668745  1
  Bi2+  Bi103  1  0.12931429  0.75283493  0.68732763  1
  Bi2+  Bi104  1  0.39018927  0.02247348  0.20038312  1
  Bi2+  Bi105  1  0.38751803  0.00640340  0.69451455  1
  Bi2+  Bi106  1  0.35096103  0.21366699  0.21926844  1
  Bi2+  Bi107  1  0.33619297  0.28719770  0.72549113  1
  Bi2+  Bi108  1  0.38445583  0.41549257  0.20056261  1
  Bi2+  Bi109  1  0.40113270  0.54402397  0.69381484  1
  Bi2+  Bi110  1  0.38200032  0.74958490  0.20888574  1
  Bi2+  Bi111  1  0.33846060  0.70425000  0.74922753  1
  Bi2+  Bi112  1  0.65725528  0.05071088  0.21428254  1
  Bi2+  Bi113  1  0.61132425  0.03355621  0.71602928  1
  Bi2+  Bi114  1  0.64051194  0.24191949  0.24697896  1
  Bi2+  Bi115  1  0.71188076  0.23867390  0.68759815  1
  Bi2+  Bi116  1  0.64003122  0.50110500  0.21623350  1
  Bi2+  Bi117  1  0.62529791  0.48812057  0.71172745  1
  Bi2+  Bi118  1  0.62093455  0.68619190  0.17498770  1
  Bi2+  Bi119  1  0.59159282  0.75354463  0.71834754  1
  Bi2+  Bi120  1  0.86800987  0.01067754  0.20576758  1
  Bi2+  Bi121  1  0.84999945  0.07457352  0.71767586  1
  Bi2+  Bi122  1  0.85132044  0.26961152  0.21347528  1
  Bi2+  Bi123  1  0.90861479  0.24318197  0.66673408  1
  Bi2+  Bi124  1  0.85270054  0.48257972  0.20833088  1
  Bi2+  Bi125  1  0.90169484  0.42563101  0.71342352  1
  Bi2+  Bi126  1  0.83000651  0.81937262  0.22150800  1
  Bi2+  Bi127  1  0.87674861  0.80821116  0.70276851  1
  S2-  S128  1  0.01403378  -0.00305486  0.14474555  1
  S2-  S129  1  0.06438833  0.12871861  0.64766178  1
  S2-  S130  1  -0.00493990  0.46076313  0.15042176  1
  S2-  S131  1  0.00323353  0.49727748  0.63684147  1
  S2-  S132  1  0.08568180  0.63709740  0.20333638  1
  S2-  S133  1  -0.00876742  0.72560551  0.63787348  1
  S2-  S134  1  -0.02662616  0.79112511  0.15658630  1
  S2-  S135  1  0.00123542  0.92695406  0.66518213  1
  S2-  S136  1  0.25395186  -0.00368247  0.14031880  1
  S2-  S137  1  0.27297953  0.10319996  0.65717879  1
  S2-  S138  1  0.25218794  0.24629738  0.14207187  1
  S2-  S139  1  0.36776009  0.39499117  0.63998531  1
  S2-  S140  1  0.25603785  0.50453136  0.14500042  1
  S2-  S141  1  0.20518277  0.61659027  0.64082144  1
  S2-  S142  1  0.25768548  0.75820025  0.14643672  1
  S2-  S143  1  0.24131744  0.88229723  0.65595722  1
  S2-  S144  1  0.53603175  0.13144564  0.15220591  1
  S2-  S145  1  0.49826435  0.12957774  0.66147031  1
  S2-  S146  1  0.53164130  0.39583525  0.15670295  1
  S2-  S147  1  0.59814943  0.36351226  0.64737181  1
  S2-  S148  1  0.46219870  0.64053564  0.14408119  1
  S2-  S149  1  0.57822857  0.62667560  0.64676519  1
  S2-  S150  1  0.46615554  0.88559253  0.16083565  1
  S2-  S151  1  0.48180373  0.85837236  0.66161158  1
  S2-  S152  1  0.85326853  0.14439949  0.14151993  1
  S2-  S153  1  0.74289000  0.00691520  0.64623366  1
  S2-  S154  1  0.76896992  0.36845227  0.14536333  1
  S2-  S155  1  0.76742493  0.48391885  0.65151207  1
  S2-  S156  1  0.83579748  0.61547558  0.15349657  1
  S2-  S157  1  0.82092730  0.65400329  0.71498222  1
  S2-  S158  1  0.70423224  0.84173224  0.15255262  1
  S2-  S159  1  0.72379573  0.79392310  0.65635185  1
  S2-  S160  1  0.10503758  -0.08962559  0.35480636  1
  S2-  S161  1  0.12015345  -0.09860547  0.84615782  1
  S2-  S162  1  0.12844271  0.30617110  0.35438043  1
  S2-  S163  1  0.11586322  0.13145296  0.86251124  1
  S2-  S164  1  0.03162102  0.50304815  0.34155096  1
  S2-  S165  1  0.12287620  0.55379921  0.85319538  1
  S2-  S166  1  0.19569927  0.72102511  0.32102751  1
  S2-  S167  1  0.07100534  0.71169557  0.77172564  1
  S2-  S168  1  0.26723541  0.03847336  0.35007623  1
  S2-  S169  1  0.39166519  -0.10295764  0.85561184  1
  S2-  S170  1  0.38169866  0.32365814  0.36003931  1
  S2-  S171  1  0.37456922  0.13341886  0.86287265  1
  S2-  S172  1  0.25741269  0.51038715  0.34822623  1
  S2-  S173  1  0.39559585  0.48687668  0.84514261  1
  S2-  S174  1  0.38477226  0.84466334  0.35412208  1
  S2-  S175  1  0.26921092  0.72757517  0.84779016  1
  S2-  S176  1  0.54124747  0.00759565  0.35887677  1
  S2-  S177  1  0.62291700  0.10538566  0.85900105  1
  S2-  S178  1  0.62792108  0.27560378  0.35407663  1
  S2-  S179  1  0.62385297  0.37627480  0.85254123  1
  S2-  S180  1  0.52243052  0.50100869  0.35882153  1
  S2-  S181  1  0.63631194  0.61639715  0.85383470  1
  S2-  S182  1  0.73815703  0.77175479  0.36591005  1
  S2-  S183  1  0.67344132  0.82756416  0.84008944  1
  S2-  S184  1  0.84148379  -0.02717499  0.35229590  1
  S2-  S185  1  0.88462313  -0.00520822  0.84683471  1
  S2-  S186  1  0.86407987  0.34640386  0.35964770  1
  S2-  S187  1  0.88459788  0.24750005  0.84305258  1
  S2-  S188  1  0.83856683  0.57199948  0.33380494  1
  S2-  S189  1  0.85290548  0.53654822  0.84313258  1
  S2-  S190  1  0.96788947  0.75371149  0.35505118  1
  S2-  S191  1  0.91897260  0.76367836  0.84951488  1
  S2-  S192  1  0.00237190  0.12520743  0.45163978  1
  S2-  S193  1  -0.00302690  0.12539878  0.96189931  1
  S2-  S194  1  0.00193462  0.37290498  0.45780455  1
  S2-  S195  1  0.00352604  0.37583031  0.95179503  1
  S2-  S196  1  -0.00062958  0.62209809  0.45033023  1
  S2-  S197  1  0.00274306  0.62547798  0.94742455  1
  S2-  S198  1  -0.00326960  0.87584796  0.46009204  1
  S2-  S199  1  0.00085777  0.87362017  0.95766011  1
  S2-  S200  1  0.25231943  0.12341098  0.45773425  1
  S2-  S201  1  0.24877689  0.12904434  0.96236201  1
  S2-  S202  1  0.25227074  0.37278532  0.46048374  1
  S2-  S203  1  0.24866489  0.37325429  0.96151013  1
  S2-  S204  1  0.25163901  0.62894938  0.44336695  1
  S2-  S205  1  0.25289328  0.62182585  0.96103765  1
  S2-  S206  1  0.25277565  0.87720527  0.45236299  1
  S2-  S207  1  0.25107128  0.88119191  0.95938297  1
  S2-  S208  1  0.49965332  0.12261861  0.45700889  1
  S2-  S209  1  0.50308728  0.12979768  0.95704174  1
  S2-  S210  1  0.50206499  0.36846810  0.46502471  1
  S2-  S211  1  0.49534151  0.37145324  0.95204752  1
  S2-  S212  1  0.50167516  0.62869295  0.45468677  1
  S2-  S213  1  0.49280545  0.62620073  0.94594290  1
  S2-  S214  1  0.50708164  0.87225969  0.45755356  1
  S2-  S215  1  0.50946210  0.87361397  0.95408707  1
  S2-  S216  1  0.74950333  0.12445227  0.45948964  1
  S2-  S217  1  0.75704438  0.12599869  0.95725550  1
  S2-  S218  1  0.74482331  0.37182153  0.46296030  1
  S2-  S219  1  0.75766754  0.37563649  0.94629395  1
  S2-  S220  1  0.74955420  0.61699179  0.45063048  1
  S2-  S221  1  0.75372177  0.62263992  0.95778625  1
  S2-  S222  1  0.75065331  0.87988695  0.46588124  1
  S2-  S223  1  0.75344714  0.87633575  0.95356247  1
  S2-  S224  1  0.12268797  0.00272929  0.04131329  1
  S2-  S225  1  0.12142751  -0.00034317  0.54161284  1
  S2-  S226  1  0.11965493  0.24927200  0.04453774  1
  S2-  S227  1  0.12809652  0.25548361  0.55196349  1
  S2-  S228  1  0.12152854  0.50867720  0.05007524  1
  S2-  S229  1  0.12772720  0.49497735  0.53362093  1
  S2-  S230  1  0.12043867  0.74422338  0.06006920  1
  S2-  S231  1  0.12447704  0.74863856  0.53387705  1
  S2-  S232  1  0.38053218  -0.00020017  0.04342013  1
  S2-  S233  1  0.37070833  -0.00128782  0.54643379  1
  S2-  S234  1  0.37649998  0.25071553  0.04382969  1
  S2-  S235  1  0.36861877  0.24653506  0.55203067  1
  S2-  S236  1  0.37756032  0.50046152  0.04500270  1
  S2-  S237  1  0.37522513  0.50282071  0.53535445  1
  S2-  S238  1  0.37503150  0.74924080  0.03862408  1
  S2-  S239  1  0.37414031  0.74877274  0.54628050  1
  S2-  S240  1  0.62822195  -0.00062548  0.04584899  1
  S2-  S241  1  0.62119740  0.00263212  0.54707959  1
  S2-  S242  1  0.62915807  0.25248870  0.03981414  1
  S2-  S243  1  0.61982772  0.24587217  0.55153600  1
  S2-  S244  1  0.62456752  0.50108997  0.03997614  1
  S2-  S245  1  0.61930186  0.50158490  0.54563524  1
  S2-  S246  1  0.62670039  0.74590969  0.03641136  1
  S2-  S247  1  0.62468134  0.74817043  0.54747792  1
  S2-  S248  1  0.87085634  -0.00225722  0.04783769  1
  S2-  S249  1  0.88163422  0.00428745  0.55209442  1
  S2-  S250  1  0.87455678  0.25526481  0.04286809  1
  S2-  S251  1  0.87237377  0.25192549  0.54675165  1
  S2-  S252  1  0.87509872  0.50160577  0.04175674  1
  S2-  S253  1  0.86685557  0.49761056  0.54053824  1
  S2-  S254  1  0.87703725  0.74631378  0.04987540  1
  S2-  S255  1  0.86188676  0.74388373  0.54492819  1
