# generated using pymatgen
data_La6Ce7Pr13Nd19Sm19(BiS2)64
_symmetry_space_group_name_H-M   'P 1'
_cell_length_a   16.10249112
_cell_length_b   16.11252251
_cell_length_c   27.35223978
_cell_angle_alpha   90.20234264
_cell_angle_beta   89.91304902
_cell_angle_gamma   89.96506948
_symmetry_Int_Tables_number   1
_chemical_formula_structural   La6Ce7Pr13Nd19Sm19(BiS2)64
_chemical_formula_sum   'La6 Ce7 Pr13 Nd19 Sm19 Bi64 S128'
_cell_volume   7096.53272298
_cell_formula_units_Z   1
loop_
 _symmetry_equiv_pos_site_id
 _symmetry_equiv_pos_as_xyz
  1  'x, y, z'
loop_
 _atom_type_symbol
 _atom_type_oxidation_number
  La3+  3.0
  Ce3+  3.0
  Pr3+  3.0
  Nd3+  3.0
  Sm3+  3.0
  Bi2+  2.0
  S2-  -2.0
loop_
 _atom_site_type_symbol
 _atom_site_label
 _atom_site_symmetry_multiplicity
 _atom_site_fract_x
 _atom_site_fract_y
 _atom_site_fract_z
 _atom_site_occupancy
  La3+  La0  1  0.12745309  0.23829098  0.93436604  1
  La3+  La1  1  0.51045303  0.86889599  0.10882616  1
  La3+  La2  1  0.12854484  0.73897431  0.93149129  1
  La3+  La3  1  0.62613274  0.73850291  0.91758384  1
  La3+  La4  1  0.88894723  0.00194678  0.90048974  1
  La3+  La5  1  0.25079078  0.61689688  0.07176294  1
  Ce3+  Ce6  1  0.38282788  0.50179117  0.44241537  1
  Ce3+  Ce7  1  0.38553741  0.24614661  0.42943095  1
  Ce3+  Ce8  1  0.74433777  0.87186995  0.04247006  1
  Ce3+  Ce9  1  0.25894401  0.37127678  0.55252302  1
  Ce3+  Ce10  1  0.50746789  0.87006472  0.55864255  1
  Ce3+  Ce11  1  0.00417926  0.87012746  0.05828362  1
  Ce3+  Ce12  1  0.00059707  0.11700232  0.06318068  1
  Pr3+  Pr13  1  0.51187067  0.12158120  0.55139350  1
  Pr3+  Pr14  1  0.00153721  0.61891735  0.05879125  1
  Pr3+  Pr15  1  0.76234515  0.12527340  0.57121714  1
  Pr3+  Pr16  1  0.87464090  0.49288374  0.94675815  1
  Pr3+  Pr17  1  0.24973347  0.36534363  0.07122314  1
  Pr3+  Pr18  1  0.75469832  0.87828832  0.57329195  1
  Pr3+  Pr19  1  0.88358566  -0.00244327  0.44348795  1
  Pr3+  Pr20  1  0.63454796  0.50132646  0.42724922  1
  Pr3+  Pr21  1  0.01406495  0.13400348  0.57418953  1
  Pr3+  Pr22  1  0.63589783  -0.00973501  0.42938570  1
  Pr3+  Pr23  1  0.74518453  0.62467885  0.06068553  1
  Pr3+  Pr24  1  0.25763166  0.62356450  0.56935586  1
  Pr3+  Pr25  1  0.37102125  0.74084652  0.41028841  1
  Nd3+  Nd26  1  0.00752786  0.87257718  0.56232816  1
  Nd3+  Nd27  1  0.50995890  0.37055745  0.55065945  1
  Nd3+  Nd28  1  0.88218314  0.24420886  0.43051156  1
  Nd3+  Nd29  1  0.62919067  0.23832891  0.93745723  1
  Nd3+  Nd30  1  0.75643949  0.36882623  0.55998754  1
  Nd3+  Nd31  1  -0.00141668  0.36665995  0.05461413  1
  Nd3+  Nd32  1  0.50188918  0.11436193  0.06162273  1
  Nd3+  Nd33  1  0.25788974  0.12547987  0.56161521  1
  Nd3+  Nd34  1  0.75802065  0.62271193  0.56085448  1
  Nd3+  Nd35  1  0.24674385  0.86322841  0.08633298  1
  Nd3+  Nd36  1  0.13503261  0.24447919  0.42457922  1
  Nd3+  Nd37  1  0.51160135  0.62169175  0.56391703  1
  Nd3+  Nd38  1  0.37581931  0.24088653  0.94236333  1
  Nd3+  Nd39  1  0.62782614  0.49118012  0.93845619  1
  Nd3+  Nd40  1  0.37790693  0.74377514  0.94418806  1
  Nd3+  Nd41  1  0.74894742  0.11294369  0.05775884  1
  Nd3+  Nd42  1  0.37607569  0.49136467  0.94584183  1
  Nd3+  Nd43  1  0.62272666  -0.00159259  0.92212966  1
  Nd3+  Nd44  1  0.63204735  0.74669971  0.43582983  1
  Sm3+  Sm45  1  0.12811477  -0.01185565  0.94194593  1
  Sm3+  Sm46  1  0.37990619  -0.01231103  0.94832827  1
  Sm3+  Sm47  1  0.87586452  0.74540462  0.94485230  1
  Sm3+  Sm48  1  0.12801852  0.49201116  0.93671530  1
  Sm3+  Sm49  1  0.38125697  -0.00719034  0.44459920  1
  Sm3+  Sm50  1  0.13262130  0.74539892  0.44379460  1
  Sm3+  Sm51  1  0.13274480  0.49997983  0.44625386  1
  Sm3+  Sm52  1  0.00699288  0.62264770  0.55884539  1
  Sm3+  Sm53  1  0.25961925  0.86917440  0.55901882  1
  Sm3+  Sm54  1  0.50199155  0.62616068  0.05744320  1
  Sm3+  Sm55  1  0.63360109  0.24048569  0.42258277  1
  Sm3+  Sm56  1  0.13387679  -0.00405919  0.44824319  1
  Sm3+  Sm57  1  0.88173157  0.74723839  0.44692976  1
  Sm3+  Sm58  1  0.25211944  0.12060409  0.05886559  1
  Sm3+  Sm59  1  0.50360889  0.36806862  0.05206379  1
  Sm3+  Sm60  1  0.88261360  0.49704465  0.44922938  1
  Sm3+  Sm61  1  0.87710796  0.24006699  0.94247263  1
  Sm3+  Sm62  1  0.00963498  0.37052720  0.55257776  1
  Sm3+  Sm63  1  0.74719187  0.36686100  0.05742657  1
  Bi2+  Bi64  1  -0.00432611  0.12828828  0.25628055  1
  Bi2+  Bi65  1  -0.00212658  0.12670017  0.78805906  1
  Bi2+  Bi66  1  0.04757386  0.35418857  0.29513684  1
  Bi2+  Bi67  1  -0.04126570  0.37747826  0.79017922  1
  Bi2+  Bi68  1  0.00465504  0.61089469  0.29126588  1
  Bi2+  Bi69  1  -0.03934239  0.63518542  0.79207632  1
  Bi2+  Bi70  1  0.02843082  0.86827061  0.28979832  1
  Bi2+  Bi71  1  0.05545004  0.85294084  0.75871034  1
  Bi2+  Bi72  1  0.19999586  0.13516233  0.28995898  1
  Bi2+  Bi73  1  0.27475860  0.17237458  0.76089736  1
  Bi2+  Bi74  1  0.24771290  0.37159450  0.28232653  1
  Bi2+  Bi75  1  0.21794061  0.36396120  0.81897577  1
  Bi2+  Bi76  1  0.23817570  0.61668862  0.29294110  1
  Bi2+  Bi77  1  0.23189335  0.69920916  0.79832254  1
  Bi2+  Bi78  1  0.24190694  0.90327491  0.30401764  1
  Bi2+  Bi79  1  0.27829847  0.90090883  0.74465482  1
  Bi2+  Bi80  1  0.49713916  0.17938982  0.25808921  1
  Bi2+  Bi81  1  0.46958705  0.12770147  0.80079149  1
  Bi2+  Bi82  1  0.50652879  0.40269661  0.30188612  1
  Bi2+  Bi83  1  0.50973723  0.37393765  0.78632344  1
  Bi2+  Bi84  1  0.50371875  0.59471593  0.28184839  1
  Bi2+  Bi85  1  0.48706536  0.62592425  0.79892617  1
  Bi2+  Bi86  1  0.49995723  0.94478272  0.30605881  1
  Bi2+  Bi87  1  0.48891207  0.88198955  0.79456393  1
  Bi2+  Bi88  1  0.75347882  0.12906782  0.29065032  1
  Bi2+  Bi89  1  0.73744811  0.16972589  0.78113023  1
  Bi2+  Bi90  1  0.70042722  0.40901538  0.30533595  1
  Bi2+  Bi91  1  0.70021876  0.36165867  0.80882517  1
  Bi2+  Bi92  1  0.76520063  0.61798945  0.30086285  1
  Bi2+  Bi93  1  0.75197827  0.56662483  0.78364446  1
  Bi2+  Bi94  1  0.75951444  0.88206140  0.29733219  1
  Bi2+  Bi95  1  0.75470007  0.82964310  0.78849771  1
  Bi2+  Bi96  1  0.16773608  -0.00210152  0.20924937  1
  Bi2+  Bi97  1  0.13152412  0.03184554  0.72903971  1
  Bi2+  Bi98  1  0.13287887  0.27036625  0.20419824  1
  Bi2+  Bi99  1  0.13274928  0.27048389  0.70158718  1
  Bi2+  Bi100  1  0.09896069  0.50982896  0.20743545  1
  Bi2+  Bi101  1  0.10642103  0.50253760  0.77012629  1
  Bi2+  Bi102  1  0.11841077  0.75069221  0.21211996  1
  Bi2+  Bi103  1  0.13924980  0.68694904  0.69807227  1
  Bi2+  Bi104  1  0.33928816  0.09158441  0.21501438  1
  Bi2+  Bi105  1  0.39568265  0.04175751  0.70441774  1
  Bi2+  Bi106  1  0.38985010  0.30999958  0.20393027  1
  Bi2+  Bi107  1  0.38622988  0.30891010  0.69996073  1
  Bi2+  Bi108  1  0.35429031  0.50679213  0.22154664  1
  Bi2+  Bi109  1  0.33438424  0.47689660  0.75449408  1
  Bi2+  Bi110  1  0.38526456  0.76675180  0.21686773  1
  Bi2+  Bi111  1  0.38020993  0.74276844  0.68773565  1
  Bi2+  Bi112  1  0.65859658  0.00093459  0.19976478  1
  Bi2+  Bi113  1  0.61247740  0.02576326  0.72300913  1
  Bi2+  Bi114  1  0.64905293  0.26803327  0.20391221  1
  Bi2+  Bi115  1  0.60958883  0.24860128  0.70748055  1
  Bi2+  Bi116  1  0.61920019  0.48996172  0.21077330  1
  Bi2+  Bi117  1  0.63621277  0.46598025  0.70921793  1
  Bi2+  Bi118  1  0.65010652  0.73056697  0.20001283  1
  Bi2+  Bi119  1  0.62309654  0.73096067  0.69268583  1
  Bi2+  Bi120  1  0.89295414  -0.03709924  0.22718127  1
  Bi2+  Bi121  1  0.85654679  -0.01839232  0.70043111  1
  Bi2+  Bi122  1  0.89812750  0.28589729  0.21131277  1
  Bi2+  Bi123  1  0.87372876  0.25196465  0.70898500  1
  Bi2+  Bi124  1  0.87532772  0.47111318  0.25184180  1
  Bi2+  Bi125  1  0.83822019  0.44482955  0.70824696  1
  Bi2+  Bi126  1  0.88417548  0.75901519  0.23966790  1
  Bi2+  Bi127  1  0.92544588  0.73674496  0.70080212  1
  S2-  S128  1  -0.03301554  0.14507530  0.15768308  1
  S2-  S129  1  -0.10504908  0.10928706  0.64734238  1
  S2-  S130  1  0.01676742  0.38110379  0.15196104  1
  S2-  S131  1  0.00869410  0.29329980  0.63901801  1
  S2-  S132  1  0.02121984  0.63339984  0.15725517  1
  S2-  S133  1  -0.00124224  0.60205410  0.65501991  1
  S2-  S134  1  0.09386150  0.87834673  0.14261292  1
  S2-  S135  1  -0.00571697  0.89869724  0.65991043  1
  S2-  S136  1  0.25443745  0.22876798  0.13807909  1
  S2-  S137  1  0.15317906  0.12803054  0.64128995  1
  S2-  S138  1  0.23667714  0.48959324  0.14362263  1
  S2-  S139  1  0.23943653  0.36492665  0.64900717  1
  S2-  S140  1  0.25255711  0.72137716  0.15386534  1
  S2-  S141  1  0.27960794  0.60086436  0.66824638  1
  S2-  S142  1  0.35723871  0.89243762  0.16151081  1
  S2-  S143  1  0.23573754  0.83622933  0.65393297  1
  S2-  S144  1  0.52665359  0.03687130  0.14772202  1
  S2-  S145  1  0.51882145  0.12451727  0.65176266  1
  S2-  S146  1  0.53065728  0.37174361  0.14825798  1
  S2-  S147  1  0.50876595  0.39218304  0.64856635  1
  S2-  S148  1  0.50469797  0.69765955  0.14728635  1
  S2-  S149  1  0.49169342  0.63072005  0.66439905  1
  S2-  S150  1  0.53509388  0.86397341  0.22220931  1
  S2-  S151  1  0.51035622  0.85193746  0.65667560  1
  S2-  S152  1  0.72733751  0.13035427  0.15751002  1
  S2-  S153  1  0.71239842  0.00862849  0.64572854  1
  S2-  S154  1  0.76763159  0.35462958  0.15354693  1
  S2-  S155  1  0.73716152  0.26142929  0.63729082  1
  S2-  S156  1  0.73006507  0.60518690  0.16013435  1
  S2-  S157  1  0.70562861  0.60854919  0.65416477  1
  S2-  S158  1  0.68947309  0.85987206  0.13534419  1
  S2-  S159  1  0.77062599  0.81361479  0.66934170  1
  S2-  S160  1  0.11004889  -0.01648028  0.35145269  1
  S2-  S161  1  0.05260486  0.02397736  0.85738527  1
  S2-  S162  1  0.00422419  0.22917042  0.35686158  1
  S2-  S163  1  0.08267914  0.25881034  0.83808022  1
  S2-  S164  1  0.12896114  0.52977167  0.34972723  1
  S2-  S165  1  0.13647928  0.60004828  0.86069604  1
  S2-  S166  1  0.21351350  0.74959822  0.35740883  1
  S2-  S167  1  0.14025438  0.82448484  0.84305812  1
  S2-  S168  1  0.35590960  0.01057360  0.34816646  1
  S2-  S169  1  0.39466590  -0.00105707  0.84942634  1
  S2-  S170  1  0.26791423  0.24486313  0.35623753  1
  S2-  S171  1  0.35434169  0.25198796  0.84542161  1
  S2-  S172  1  0.37589013  0.58669684  0.35780169  1
  S2-  S173  1  0.37657950  0.52585412  0.84869548  1
  S2-  S174  1  0.41274749  0.80840249  0.31908553  1
  S2-  S175  1  0.38579235  0.74706914  0.84285031  1
  S2-  S176  1  0.62494692  0.07258204  0.33772018  1
  S2-  S177  1  0.63313167  -0.05519882  0.82313491  1
  S2-  S178  1  0.50216089  0.24949262  0.35419945  1
  S2-  S179  1  0.61629135  0.14075271  0.85662898  1
  S2-  S180  1  0.62677145  0.63117856  0.35715982  1
  S2-  S181  1  0.62545712  0.58139375  0.85507083  1
  S2-  S182  1  0.62739987  0.85895079  0.35850952  1
  S2-  S183  1  0.59500240  0.75636561  0.81344379  1
  S2-  S184  1  0.84641436  0.01507041  0.34638052  1
  S2-  S185  1  0.85434276  -0.04850560  0.80295529  1
  S2-  S186  1  0.76259946  0.25586219  0.35509099  1
  S2-  S187  1  0.87004877  0.16284518  0.85458296  1
  S2-  S188  1  0.88911859  0.51604142  0.35303996  1
  S2-  S189  1  0.88320239  0.50331447  0.84751788  1
  S2-  S190  1  0.84463371  0.75436338  0.35192579  1
  S2-  S191  1  0.86824457  0.74420723  0.84707569  1
  S2-  S192  1  0.01209096  0.11792355  0.46075097  1
  S2-  S193  1  -0.00054195  0.11699489  0.95931012  1
  S2-  S194  1  0.00877038  0.37693191  0.44999302  1
  S2-  S195  1  0.00144849  0.36731350  0.94867032  1
  S2-  S196  1  0.00689182  0.62375580  0.45442070  1
  S2-  S197  1  -0.00260651  0.61813314  0.95352657  1
  S2-  S198  1  0.00947740  0.86882575  0.45499383  1
  S2-  S199  1  -0.00267972  0.87109878  0.95180394  1
  S2-  S200  1  0.25737729  0.11710889  0.45646611  1
  S2-  S201  1  0.25315149  0.11312177  0.95304553  1
  S2-  S202  1  0.25672426  0.37849485  0.44825885  1
  S2-  S203  1  0.25006742  0.36822317  0.95923583  1
  S2-  S204  1  0.25475948  0.62356881  0.46213000  1
  S2-  S205  1  0.25510982  0.61472962  0.96180016  1
  S2-  S206  1  0.25743823  0.86959234  0.45618514  1
  S2-  S207  1  0.25353862  0.86952336  0.95298091  1
  S2-  S208  1  0.50597124  0.11448636  0.44752624  1
  S2-  S209  1  0.49742082  0.11761314  0.95628853  1
  S2-  S210  1  0.51071348  0.37818177  0.44706552  1
  S2-  S211  1  0.50350909  0.36519787  0.94698744  1
  S2-  S212  1  0.50515880  0.62530203  0.45777620  1
  S2-  S213  1  0.50061081  0.61640550  0.95442046  1
  S2-  S214  1  0.49489481  0.86334941  0.45310796  1
  S2-  S215  1  0.50381106  0.86775478  0.93930975  1
  S2-  S216  1  0.75676623  0.12123830  0.45628332  1
  S2-  S217  1  0.75662476  0.11278804  0.95313583  1
  S2-  S218  1  0.75778632  0.37774376  0.45458756  1
  S2-  S219  1  0.75165028  0.36381720  0.95234567  1
  S2-  S220  1  0.76172459  0.62206004  0.45629094  1
  S2-  S221  1  0.75301815  0.62049995  0.95369967  1
  S2-  S222  1  0.76157676  0.86912810  0.46148886  1
  S2-  S223  1  0.75470187  0.87330179  0.93756046  1
  S2-  S224  1  0.13111638  -0.00187104  0.04569331  1
  S2-  S225  1  0.13595622  -0.00780846  0.55106520  1
  S2-  S226  1  0.12321714  0.24182456  0.04237765  1
  S2-  S227  1  0.13614763  0.25102909  0.53336036  1
  S2-  S228  1  0.12216651  0.49085350  0.04022311  1
  S2-  S229  1  0.12992310  0.49784357  0.55096542  1
  S2-  S230  1  0.12610895  0.74345077  0.04174544  1
  S2-  S231  1  0.13107655  0.74646784  0.54818174  1
  S2-  S232  1  0.37137572  -0.00448063  0.05122977  1
  S2-  S233  1  0.37947877  -0.00341663  0.55029474  1
  S2-  S234  1  0.38176598  0.24380676  0.04619025  1
  S2-  S235  1  0.38397991  0.24591483  0.54073882  1
  S2-  S236  1  0.38447801  0.49312128  0.05123145  1
  S2-  S237  1  0.38464090  0.49850881  0.54917061  1
  S2-  S238  1  0.37891506  0.74953598  0.04846128  1
  S2-  S239  1  0.38229401  0.74565081  0.55255597  1
  S2-  S240  1  0.62264963  -0.00575996  0.03354782  1
  S2-  S241  1  0.62957087  -0.00645448  0.53708195  1
  S2-  S242  1  0.62597967  0.24162547  0.04365501  1
  S2-  S243  1  0.63154505  0.24717249  0.53117892  1
  S2-  S244  1  0.62496434  0.49422531  0.04453222  1
  S2-  S245  1  0.63440421  0.49673814  0.54079104  1
  S2-  S246  1  0.62285383  0.74475719  0.03267883  1
  S2-  S247  1  0.63526801  0.74744834  0.54588622  1
  S2-  S248  1  0.87558972  -0.00900799  0.05767283  1
  S2-  S249  1  0.88547966  -0.00435370  0.54820785  1
  S2-  S250  1  0.87149269  0.24305914  0.04649449  1
  S2-  S251  1  0.88388282  0.25119102  0.53675818  1
  S2-  S252  1  0.87118172  0.49290939  0.05300597  1
  S2-  S253  1  0.88391806  0.49484250  0.55323986  1
  S2-  S254  1  0.87509064  0.74639075  0.05026226  1
  S2-  S255  1  0.88337524  0.74680312  0.55147732  1
