# generated using pymatgen
data_La6Ce7Pr13Nd19Sm19(BiS2)64
_symmetry_space_group_name_H-M   'P 1'
_cell_length_a   16.05554839
_cell_length_b   16.07368004
_cell_length_c   27.24128734
_cell_angle_alpha   90.14237652
_cell_angle_beta   90.08624916
_cell_angle_gamma   90.04483179
_symmetry_Int_Tables_number   1
_chemical_formula_structural   La6Ce7Pr13Nd19Sm19(BiS2)64
_chemical_formula_sum   'La6 Ce7 Pr13 Nd19 Sm19 Bi64 S128'
_cell_volume   7030.17478999
_cell_formula_units_Z   1
loop_
 _symmetry_equiv_pos_site_id
 _symmetry_equiv_pos_as_xyz
  1  'x, y, z'
loop_
 _atom_type_symbol
 _atom_type_oxidation_number
  La3+  3.0
  Ce3+  3.0
  Pr3+  3.0
  Nd3+  3.0
  Sm3+  3.0
  Bi2+  2.0
  S2-  -2.0
loop_
 _atom_site_type_symbol
 _atom_site_label
 _atom_site_symmetry_multiplicity
 _atom_site_fract_x
 _atom_site_fract_y
 _atom_site_fract_z
 _atom_site_occupancy
  La3+  La0  1  0.38578360  0.48789390  0.40943468  1
  La3+  La1  1  0.64059333  -0.01341373  0.42834386  1
  La3+  La2  1  0.12196315  0.74505289  0.38971065  1
  La3+  La3  1  0.74848530  0.87240022  0.59185107  1
  La3+  La4  1  0.89454418  0.49061802  0.89542531  1
  La3+  La5  1  0.01384100  0.86995474  0.59248271  1
  Ce3+  Ce6  1  0.51241685  0.36803642  0.06258956  1
  Ce3+  Ce7  1  0.63255490  -0.00473169  0.92771298  1
  Ce3+  Ce8  1  0.88413053  -0.01887267  0.44493631  1
  Ce3+  Ce9  1  0.25647898  0.37209593  0.07487439  1
  Ce3+  Ce10  1  0.13008806  0.49647582  0.94900958  1
  Ce3+  Ce11  1  0.88187127  0.74958578  0.92119977  1
  Ce3+  Ce12  1  0.13097698  -0.01662154  0.44776389  1
  Pr3+  Pr13  1  0.25625697  0.36829267  0.54926954  1
  Pr3+  Pr14  1  0.50469092  0.61480800  0.57268175  1
  Pr3+  Pr15  1  0.25689086  0.87955680  0.07241964  1
  Pr3+  Pr16  1  0.00983316  0.36753543  0.56501875  1
  Pr3+  Pr17  1  0.38364933  0.23943486  0.43044784  1
  Pr3+  Pr18  1  0.62919788  0.74674028  0.89371610  1
  Pr3+  Pr19  1  0.25866845  0.11731030  0.56005698  1
  Pr3+  Pr20  1  0.63144445  0.24784647  0.92273865  1
  Pr3+  Pr21  1  0.37881657  -0.00831998  0.93873756  1
  Pr3+  Pr22  1  0.00286093  0.86720175  0.06423123  1
  Pr3+  Pr23  1  0.12189212  0.48790113  0.41893193  1
  Pr3+  Pr24  1  0.50824037  0.11093463  0.55511413  1
  Pr3+  Pr25  1  0.26304746  0.62840208  0.07875721  1
  Nd3+  Nd26  1  0.87952777  0.49629673  0.43860297  1
  Nd3+  Nd27  1  0.50460265  0.37052783  0.56035951  1
  Nd3+  Nd28  1  0.12877481  0.23764768  0.43265202  1
  Nd3+  Nd29  1  0.75636091  0.61973284  0.04302762  1
  Nd3+  Nd30  1  0.75338452  0.12322391  0.05504536  1
  Nd3+  Nd31  1  0.37850899  0.24559672  0.95022140  1
  Nd3+  Nd32  1  0.25544661  0.85605892  0.56335143  1
  Nd3+  Nd33  1  0.12731543  0.74382987  0.93575639  1
  Nd3+  Nd34  1  0.50970359  0.62145139  0.06284357  1
  Nd3+  Nd35  1  0.37682167  0.74177123  0.93515452  1
  Nd3+  Nd36  1  0.50370117  0.85546396  0.56275742  1
  Nd3+  Nd37  1  0.38499925  0.73992471  0.42775856  1
  Nd3+  Nd38  1  0.37955828  0.49534185  0.94916412  1
  Nd3+  Nd39  1  0.00320535  0.61407403  0.56891545  1
  Nd3+  Nd40  1  0.25219569  0.61506022  0.54102211  1
  Nd3+  Nd41  1  0.12811876  0.24639618  0.95258921  1
  Nd3+  Nd42  1  0.88130463  0.24036306  0.44805537  1
  Nd3+  Nd43  1  0.62906881  0.49471282  0.92820763  1
  Nd3+  Nd44  1  0.75297182  0.86776313  0.05326593  1
  Sm3+  Sm45  1  0.75743530  0.36778060  0.56001293  1
  Sm3+  Sm46  1  0.50819578  0.87049176  0.05171007  1
  Sm3+  Sm47  1  0.75659711  0.37233928  0.04886031  1
  Sm3+  Sm48  1  0.25536731  0.11890865  0.06106973  1
  Sm3+  Sm49  1  0.75735947  0.61012867  0.58068412  1
  Sm3+  Sm50  1  0.37929383  -0.01620249  0.44628720  1
  Sm3+  Sm51  1  0.50963631  0.11950354  0.05163687  1
  Sm3+  Sm52  1  0.63203994  0.23993213  0.44818482  1
  Sm3+  Sm53  1  0.63260626  0.49459096  0.44091121  1
  Sm3+  Sm54  1  0.00211341  0.12015689  0.06347968  1
  Sm3+  Sm55  1  0.12770253  -0.00617477  0.94584551  1
  Sm3+  Sm56  1  0.62955510  0.73697460  0.44489908  1
  Sm3+  Sm57  1  0.00497618  0.61950984  0.05898482  1
  Sm3+  Sm58  1  0.00278316  0.37175885  0.06440173  1
  Sm3+  Sm59  1  0.00613714  0.11359228  0.56374804  1
  Sm3+  Sm60  1  0.75555735  0.11338807  0.56363122  1
  Sm3+  Sm61  1  0.88526604  0.73926315  0.45509757  1
  Sm3+  Sm62  1  0.88332147  0.24687740  0.93851940  1
  Sm3+  Sm63  1  0.87910112  -0.00660314  0.94437766  1
  Bi2+  Bi64  1  0.01040035  0.11000739  0.30201205  1
  Bi2+  Bi65  1  -0.02184618  0.14983756  0.80523097  1
  Bi2+  Bi66  1  -0.01758628  0.36206113  0.29546716  1
  Bi2+  Bi67  1  0.02591916  0.33992107  0.78257821  1
  Bi2+  Bi68  1  -0.09459843  0.64734641  0.28939544  1
  Bi2+  Bi69  1  0.07961169  0.61472692  0.78447948  1
  Bi2+  Bi70  1  -0.08901061  0.92890780  0.30383305  1
  Bi2+  Bi71  1  0.00507944  0.87949686  0.79309762  1
  Bi2+  Bi72  1  0.20727034  0.14490670  0.30916366  1
  Bi2+  Bi73  1  0.24609817  0.18945857  0.78723367  1
  Bi2+  Bi74  1  0.23967451  0.41244384  0.28936059  1
  Bi2+  Bi75  1  0.28832401  0.40818863  0.79238600  1
  Bi2+  Bi76  1  0.25400346  0.64633136  0.26375227  1
  Bi2+  Bi77  1  0.26718114  0.68083368  0.76790214  1
  Bi2+  Bi78  1  0.23548940  0.88816652  0.28983277  1
  Bi2+  Bi79  1  0.22962294  0.88475610  0.79231741  1
  Bi2+  Bi80  1  0.52889150  0.13011205  0.28501468  1
  Bi2+  Bi81  1  0.52300013  0.15205812  0.80543418  1
  Bi2+  Bi82  1  0.59623772  0.38917628  0.28381544  1
  Bi2+  Bi83  1  0.48152441  0.34619484  0.78561385  1
  Bi2+  Bi84  1  0.56966109  0.63316568  0.28982892  1
  Bi2+  Bi85  1  0.47498710  0.60163639  0.78563778  1
  Bi2+  Bi86  1  0.47034941  0.87351527  0.29263265  1
  Bi2+  Bi87  1  0.46912661  0.88191873  0.78460674  1
  Bi2+  Bi88  1  0.75845682  0.20160501  0.28242612  1
  Bi2+  Bi89  1  0.71091999  0.12383675  0.81567423  1
  Bi2+  Bi90  1  0.77338355  0.44355700  0.32100231  1
  Bi2+  Bi91  1  0.74717020  0.31088218  0.78653694  1
  Bi2+  Bi92  1  0.74259381  0.63155275  0.35312995  1
  Bi2+  Bi93  1  0.68607940  0.56987232  0.75103362  1
  Bi2+  Bi94  1  0.72102165  0.86712966  0.30270007  1
  Bi2+  Bi95  1  0.75622857  0.88438715  0.78482448  1
  Bi2+  Bi96  1  0.12787942  0.02408732  0.21745613  1
  Bi2+  Bi97  1  0.10894497  0.08693641  0.72303951  1
  Bi2+  Bi98  1  0.10582293  0.21673132  0.21883873  1
  Bi2+  Bi99  1  0.07297978  0.26097941  0.67547175  1
  Bi2+  Bi100  1  0.05053375  0.52781953  0.21348112  1
  Bi2+  Bi101  1  0.14525854  0.45469161  0.71643051  1
  Bi2+  Bi102  1  0.09586825  0.76551216  0.18425851  1
  Bi2+  Bi103  1  0.12091731  0.71948396  0.68947063  1
  Bi2+  Bi104  1  0.38153166  0.05029157  0.22096348  1
  Bi2+  Bi105  1  0.38344282  0.07237339  0.73049521  1
  Bi2+  Bi106  1  0.36613852  0.23216338  0.26371198  1
  Bi2+  Bi107  1  0.35016173  0.26241659  0.70008156  1
  Bi2+  Bi108  1  0.40151956  0.46965845  0.20270803  1
  Bi2+  Bi109  1  0.36374838  0.54032584  0.70014464  1
  Bi2+  Bi110  1  0.41611086  0.76298778  0.20806858  1
  Bi2+  Bi111  1  0.34194116  0.84024401  0.69993185  1
  Bi2+  Bi112  1  0.61633431  -0.00662130  0.18919766  1
  Bi2+  Bi113  1  0.62578938  0.01817372  0.71396802  1
  Bi2+  Bi114  1  0.61456191  0.24751117  0.20197555  1
  Bi2+  Bi115  1  0.62701352  0.21554455  0.70608046  1
  Bi2+  Bi116  1  0.60549210  0.52418781  0.19684051  1
  Bi2+  Bi117  1  0.61075956  0.40891059  0.70287941  1
  Bi2+  Bi118  1  0.65751982  0.75407536  0.21399835  1
  Bi2+  Bi119  1  0.58922624  0.75960236  0.70448602  1
  Bi2+  Bi120  1  0.86626634  0.07319187  0.22128943  1
  Bi2+  Bi121  1  0.87904216  0.07013724  0.72258824  1
  Bi2+  Bi122  1  0.84900769  0.33701069  0.21284038  1
  Bi2+  Bi123  1  0.88155948  0.26382117  0.70124178  1
  Bi2+  Bi124  1  0.80178737  0.52904580  0.21592431  1
  Bi2+  Bi125  1  0.89381533  0.47927138  0.70449777  1
  Bi2+  Bi126  1  0.85067961  0.80169264  0.22253226  1
  Bi2+  Bi127  1  0.87384745  0.70772578  0.73676906  1
  S2-  S128  1  -0.02624716  0.15749633  0.15799502  1
  S2-  S129  1  0.00178664  0.02718147  0.64935018  1
  S2-  S130  1  0.01015640  0.39710893  0.16192278  1
  S2-  S131  1  0.03193566  0.48612026  0.64009565  1
  S2-  S132  1  -0.02717544  0.64662396  0.15481542  1
  S2-  S133  1  -0.11609024  0.62373592  0.65215873  1
  S2-  S134  1  0.02156925  0.91195113  0.16115811  1
  S2-  S135  1  -0.03309522  0.82061893  0.69313951  1
  S2-  S136  1  0.26359551  0.03208874  0.14605285  1
  S2-  S137  1  0.25645609  0.10032289  0.65990313  1
  S2-  S138  1  0.26392090  0.38898479  0.17433331  1
  S2-  S139  1  0.26910006  0.38280046  0.64983723  1
  S2-  S140  1  0.18041472  0.60299539  0.16782323  1
  S2-  S141  1  0.24897511  0.62528857  0.64277246  1
  S2-  S142  1  0.26634568  0.80225218  0.16214668  1
  S2-  S143  1  0.17312885  0.86742496  0.65216987  1
  S2-  S144  1  0.50928982  0.10036451  0.14948960  1
  S2-  S145  1  0.50471737  0.11386229  0.65514044  1
  S2-  S146  1  0.48548778  0.34485009  0.15877516  1
  S2-  S147  1  0.48524504  0.47792951  0.63872585  1
  S2-  S148  1  0.40857389  0.62347513  0.14616836  1
  S2-  S149  1  0.45158924  0.74547688  0.64268819  1
  S2-  S150  1  0.50156540  0.87815088  0.15059641  1
  S2-  S151  1  0.59102258  0.90158403  0.64588734  1
  S2-  S152  1  0.73299183  0.10022804  0.15273040  1
  S2-  S153  1  0.76146340  0.02726475  0.64942698  1
  S2-  S154  1  0.72358756  0.33812930  0.14294302  1
  S2-  S155  1  0.75706704  0.45533792  0.64464371  1
  S2-  S156  1  0.71395648  0.62983064  0.14127470  1
  S2-  S157  1  0.63337499  0.63230155  0.65112930  1
  S2-  S158  1  0.74128162  0.88040983  0.15249857  1
  S2-  S159  1  0.75932754  0.79920662  0.68955695  1
  S2-  S160  1  0.12373289  -0.08162372  0.35800517  1
  S2-  S161  1  0.12088263  -0.02543338  0.84802970  1
  S2-  S162  1  0.12521652  0.34139285  0.35183241  1
  S2-  S163  1  0.11234463  0.23429026  0.85420698  1
  S2-  S164  1  0.15877106  0.55794365  0.32266546  1
  S2-  S165  1  0.06296660  0.49533189  0.85735561  1
  S2-  S166  1  0.11662282  0.75911902  0.27982977  1
  S2-  S167  1  0.24891550  0.75464319  0.86406814  1
  S2-  S168  1  0.36299427  -0.03402264  0.34847336  1
  S2-  S169  1  0.36077064  -0.02242387  0.83944727  1
  S2-  S170  1  0.37472131  0.33784560  0.34702325  1
  S2-  S171  1  0.35446998  0.27245993  0.85385675  1
  S2-  S172  1  0.35800413  0.53583274  0.30394427  1
  S2-  S173  1  0.35791039  0.52848006  0.85250289  1
  S2-  S174  1  0.28562614  0.75249267  0.34430039  1
  S2-  S175  1  0.46935300  0.74394136  0.84775211  1
  S2-  S176  1  0.58364323  -0.02196127  0.33094800  1
  S2-  S177  1  0.62163446  -0.09563375  0.84290653  1
  S2-  S178  1  0.62584251  0.23711329  0.35028902  1
  S2-  S179  1  0.62001624  0.37314604  0.85170332  1
  S2-  S180  1  0.54168643  0.49313117  0.35707983  1
  S2-  S181  1  0.61895293  0.59145138  0.84377067  1
  S2-  S182  1  0.52172074  0.74660947  0.36093966  1
  S2-  S183  1  0.78127692  0.74845496  0.83696365  1
  S2-  S184  1  0.78830852  0.00229129  0.36246957  1
  S2-  S185  1  0.88551083  -0.05707248  0.84956252  1
  S2-  S186  1  0.89723387  0.22995469  0.34902069  1
  S2-  S187  1  0.88757979  0.32954458  0.85212818  1
  S2-  S188  1  0.97179590  0.49506314  0.35382101  1
  S2-  S189  1  0.83332838  0.53266933  0.79655954  1
  S2-  S190  1  0.94850163  0.75693037  0.36168545  1
  S2-  S191  1  1.01397582  0.74487897  0.85331378  1
  S2-  S192  1  0.00550580  0.11313653  0.45658463  1
  S2-  S193  1  0.00256727  0.11879799  0.95739587  1
  S2-  S194  1  0.00435233  0.36221892  0.45840588  1
  S2-  S195  1  0.00268170  0.37148211  0.95959624  1
  S2-  S196  1  0.00702865  0.61637603  0.45824887  1
  S2-  S197  1  0.00049480  0.61679183  0.95514241  1
  S2-  S198  1  0.00850869  0.86256545  0.46520609  1
  S2-  S199  1  0.00430896  0.87300524  0.95775685  1
  S2-  S200  1  0.25826629  0.11407116  0.45206925  1
  S2-  S201  1  0.25241110  0.11897857  0.95540302  1
  S2-  S202  1  0.25601414  0.36358936  0.44552912  1
  S2-  S203  1  0.25370588  0.36978813  0.96468378  1
  S2-  S204  1  0.25355234  0.61354613  0.43696512  1
  S2-  S205  1  0.25339814  0.61878300  0.96625464  1
  S2-  S206  1  0.25600201  0.86104890  0.45793920  1
  S2-  S207  1  0.25058534  0.87452431  0.96343151  1
  S2-  S208  1  0.50655401  0.11195514  0.44801584  1
  S2-  S209  1  0.50530387  0.12098089  0.94656456  1
  S2-  S210  1  0.51058253  0.36219621  0.45481055  1
  S2-  S211  1  0.50309021  0.36877415  0.95527019  1
  S2-  S212  1  0.50737870  0.61335327  0.45918539  1
  S2-  S213  1  0.50539255  0.61929480  0.95655827  1
  S2-  S214  1  0.50797005  0.86934888  0.45746556  1
  S2-  S215  1  0.50653279  0.86923782  0.94850209  1
  S2-  S216  1  0.75720876  0.11886509  0.46033754  1
  S2-  S217  1  0.75940535  0.12252821  0.94855225  1
  S2-  S218  1  0.75477551  0.36501570  0.45538052  1
  S2-  S219  1  0.76204247  0.37340643  0.94712255  1
  S2-  S220  1  0.75683889  0.61586896  0.46987771  1
  S2-  S221  1  0.76675581  0.61013803  0.93866113  1
  S2-  S222  1  0.75789176  0.85685890  0.45588327  1
  S2-  S223  1  0.75405665  0.86917556  0.94841884  1
  S2-  S224  1  0.12556586  -0.00037669  0.04996699  1
  S2-  S225  1  0.13450628  -0.00696655  0.55120492  1
  S2-  S226  1  0.12904287  0.24344688  0.05898319  1
  S2-  S227  1  0.13040984  0.23744870  0.54057630  1
  S2-  S228  1  0.12927477  0.49481692  0.05509207  1
  S2-  S229  1  0.13106203  0.48990287  0.53314266  1
  S2-  S230  1  0.13038401  0.74475471  0.04825203  1
  S2-  S231  1  0.12649572  0.73732690  0.55368396  1
  S2-  S232  1  0.38466300  -0.00159882  0.04479586  1
  S2-  S233  1  0.38036998  -0.01373263  0.55208905  1
  S2-  S234  1  0.38027114  0.24068989  0.05618014  1
  S2-  S235  1  0.38475070  0.24130461  0.54075745  1
  S2-  S236  1  0.38248660  0.49125427  0.05382640  1
  S2-  S237  1  0.37908250  0.49066293  0.53234167  1
  S2-  S238  1  0.38344501  0.75090441  0.04352745  1
  S2-  S239  1  0.37777198  0.73630751  0.53449939  1
  S2-  S240  1  0.63091248  -0.00398622  0.03670253  1
  S2-  S241  1  0.63440829  -0.00780505  0.53938455  1
  S2-  S242  1  0.63125623  0.24488083  0.03477239  1
  S2-  S243  1  0.63250876  0.24300095  0.55352281  1
  S2-  S244  1  0.63119312  0.49414444  0.03889440  1
  S2-  S245  1  0.63283601  0.48875920  0.54389360  1
  S2-  S246  1  0.62864574  0.74610695  0.04486803  1
  S2-  S247  1  0.63713371  0.74285350  0.54791327  1
  S2-  S248  1  0.87888451  -0.00306399  0.04984288  1
  S2-  S249  1  0.88072332  -0.01027598  0.54910268  1
  S2-  S250  1  0.88084968  0.24683717  0.04521177  1
  S2-  S251  1  0.87994382  0.23870931  0.55458344  1
  S2-  S252  1  0.87982465  0.49442077  0.05519909  1
  S2-  S253  1  0.88054841  0.48675617  0.54367490  1
  S2-  S254  1  0.87949468  0.74425071  0.04150937  1
  S2-  S255  1  0.87986165  0.74877991  0.55881747  1
