# generated using pymatgen
data_La6Ce7Pr13Nd19Sm19(BiS2)64
_symmetry_space_group_name_H-M   'P 1'
_cell_length_a   16.04343413
_cell_length_b   16.06255947
_cell_length_c   27.63034483
_cell_angle_alpha   90.15599036
_cell_angle_beta   90.24040589
_cell_angle_gamma   90.02978318
_symmetry_Int_Tables_number   1
_chemical_formula_structural   La6Ce7Pr13Nd19Sm19(BiS2)64
_chemical_formula_sum   'La6 Ce7 Pr13 Nd19 Sm19 Bi64 S128'
_cell_volume   7120.21151752
_cell_formula_units_Z   1
loop_
 _symmetry_equiv_pos_site_id
 _symmetry_equiv_pos_as_xyz
  1  'x, y, z'
loop_
 _atom_type_symbol
 _atom_type_oxidation_number
  La3+  3.0
  Ce3+  3.0
  Pr3+  3.0
  Nd3+  3.0
  Sm3+  3.0
  Bi2+  2.0
  S2-  -2.0
loop_
 _atom_site_type_symbol
 _atom_site_label
 _atom_site_symmetry_multiplicity
 _atom_site_fract_x
 _atom_site_fract_y
 _atom_site_fract_z
 _atom_site_occupancy
  La3+  La0  1  0.36196513  -0.01452236  0.42790978  1
  La3+  La1  1  -0.01278628  0.36517350  0.12023488  1
  La3+  La2  1  0.63341951  0.26174096  0.88164104  1
  La3+  La3  1  0.25047050  0.86971496  0.61100981  1
  La3+  La4  1  0.11120551  0.22776374  0.41914958  1
  La3+  La5  1  0.11555964  0.73698101  0.89745545  1
  Ce3+  Ce6  1  0.74849515  0.87678014  0.05229686  1
  Ce3+  Ce7  1  -0.00909888  0.61300109  0.56402124  1
  Ce3+  Ce8  1  0.37045288  0.75237554  0.94284158  1
  Ce3+  Ce9  1  0.24135306  0.62813110  0.05615909  1
  Ce3+  Ce10  1  0.23812363  0.36036039  0.55671726  1
  Ce3+  Ce11  1  0.62105245  0.73616364  0.43363362  1
  Ce3+  Ce12  1  0.87530957  0.74062271  0.43479606  1
  Pr3+  Pr13  1  -0.00923165  0.11614444  0.56469627  1
  Pr3+  Pr14  1  0.75030774  0.13522483  0.06097237  1
  Pr3+  Pr15  1  0.48750838  0.61727032  0.55650988  1
  Pr3+  Pr16  1  0.24104302  0.37591516  0.06495027  1
  Pr3+  Pr17  1  0.87440735  0.50103823  0.94878143  1
  Pr3+  Pr18  1  0.50144010  0.12832074  0.06208585  1
  Pr3+  Pr19  1  0.37726547  0.25460697  0.93757481  1
  Pr3+  Pr20  1  0.00218054  0.62673846  0.07511899  1
  Pr3+  Pr21  1  -0.01125788  0.86106659  0.57393698  1
  Pr3+  Pr22  1  0.86193571  0.23752214  0.43611234  1
  Pr3+  Pr23  1  0.49903051  0.87809492  0.05319604  1
  Pr3+  Pr24  1  0.36393765  0.49270731  0.43638668  1
  Pr3+  Pr25  1  0.61433063  0.23863410  0.43443917  1
  Nd3+  Nd26  1  0.86708623  0.48584699  0.43964169  1
  Nd3+  Nd27  1  -0.00144492  0.87724681  0.05267715  1
  Nd3+  Nd28  1  0.00018959  0.13054577  0.06019803  1
  Nd3+  Nd29  1  0.49610039  0.62972589  0.05275833  1
  Nd3+  Nd30  1  0.73443277  0.11363012  0.56486364  1
  Nd3+  Nd31  1  -0.01760411  0.36410594  0.56856565  1
  Nd3+  Nd32  1  0.74688577  0.63248308  0.06780112  1
  Nd3+  Nd33  1  0.62338468  0.75085679  0.93042154  1
  Nd3+  Nd34  1  0.73195207  0.35816412  0.57366957  1
  Nd3+  Nd35  1  0.49890815  0.37834621  0.06249340  1
  Nd3+  Nd36  1  0.12130736  0.00203754  0.93064052  1
  Nd3+  Nd37  1  0.74057099  0.86127829  0.56475581  1
  Nd3+  Nd38  1  0.74023051  0.61274547  0.55702060  1
  Nd3+  Nd39  1  0.48873641  0.36276886  0.56347836  1
  Nd3+  Nd40  1  0.61603194  0.48726536  0.43816384  1
  Nd3+  Nd41  1  0.12293872  0.24972920  0.93469140  1
  Nd3+  Nd42  1  0.24073781  0.12065501  0.56440999  1
  Nd3+  Nd43  1  0.86985786  0.74928729  0.93275457  1
  Nd3+  Nd44  1  0.11552340  0.48535420  0.44331869  1
  Sm3+  Sm45  1  0.11312992  0.73811513  0.44735590  1
  Sm3+  Sm46  1  0.61655822  -0.01448794  0.44403477  1
  Sm3+  Sm47  1  0.87228522  0.00489171  0.94523733  1
  Sm3+  Sm48  1  0.11537341  -0.01111066  0.45075343  1
  Sm3+  Sm49  1  0.62250413  0.01197233  0.93776258  1
  Sm3+  Sm50  1  0.11849821  0.50122837  0.94706525  1
  Sm3+  Sm51  1  0.36703416  0.23563291  0.42985420  1
  Sm3+  Sm52  1  0.48519552  0.86246343  0.55372291  1
  Sm3+  Sm53  1  0.74198195  0.38181070  0.06522682  1
  Sm3+  Sm54  1  0.48438781  0.10878429  0.55179587  1
  Sm3+  Sm55  1  0.87002002  0.25553694  0.94512254  1
  Sm3+  Sm56  1  0.24064070  0.61932454  0.56270077  1
  Sm3+  Sm57  1  0.24414725  0.87903959  0.05393426  1
  Sm3+  Sm58  1  0.37058379  0.50198388  0.94565374  1
  Sm3+  Sm59  1  0.62430360  0.49835175  0.94216227  1
  Sm3+  Sm60  1  0.86552288  -0.01232300  0.45140609  1
  Sm3+  Sm61  1  0.36392167  0.73953958  0.43152116  1
  Sm3+  Sm62  1  0.24900404  0.12732141  0.05680873  1
  Sm3+  Sm63  1  0.37226494  0.00281121  0.94093564  1
  Bi2+  Bi64  1  0.00014604  0.10226807  0.29579614  1
  Bi2+  Bi65  1  0.01958476  0.16556998  0.79077395  1
  Bi2+  Bi66  1  0.02996093  0.39398970  0.31802045  1
  Bi2+  Bi67  1  -0.00849283  0.35749369  0.78029655  1
  Bi2+  Bi68  1  -0.04386733  0.62652699  0.31861695  1
  Bi2+  Bi69  1  -0.02434315  0.59337817  0.79818880  1
  Bi2+  Bi70  1  -0.04928535  0.87061511  0.29249135  1
  Bi2+  Bi71  1  -0.00865921  0.90049755  0.78890756  1
  Bi2+  Bi72  1  0.25322905  0.08330963  0.27228113  1
  Bi2+  Bi73  1  0.31481039  0.17549586  0.80402270  1
  Bi2+  Bi74  1  0.27583486  0.43027609  0.29421450  1
  Bi2+  Bi75  1  0.18913264  0.32738477  0.80408527  1
  Bi2+  Bi76  1  0.27321301  0.71299929  0.29605014  1
  Bi2+  Bi77  1  0.31345475  0.58999078  0.77992349  1
  Bi2+  Bi78  1  0.20535426  0.89006704  0.25869386  1
  Bi2+  Bi79  1  0.29191901  0.86371385  0.81413898  1
  Bi2+  Bi80  1  0.48558088  0.13540159  0.29841933  1
  Bi2+  Bi81  1  0.55143688  0.04706045  0.77027987  1
  Bi2+  Bi82  1  0.53862551  0.41217947  0.30317713  1
  Bi2+  Bi83  1  0.46552310  0.40160037  0.79109269  1
  Bi2+  Bi84  1  0.50952574  0.62905716  0.29876291  1
  Bi2+  Bi85  1  0.53656883  0.64389660  0.79342367  1
  Bi2+  Bi86  1  0.48572117  0.88378991  0.29236558  1
  Bi2+  Bi87  1  0.53306691  0.84900327  0.79027435  1
  Bi2+  Bi88  1  0.77928810  0.11124485  0.29707723  1
  Bi2+  Bi89  1  0.82510939  0.12349103  0.78693229  1
  Bi2+  Bi90  1  0.69531865  0.30133830  0.27081492  1
  Bi2+  Bi91  1  0.75895724  0.39988974  0.79184606  1
  Bi2+  Bi92  1  0.75740530  0.68302940  0.24556240  1
  Bi2+  Bi93  1  0.73158376  0.65365495  0.77241329  1
  Bi2+  Bi94  1  0.76826151  0.88706424  0.24407444  1
  Bi2+  Bi95  1  0.73149486  0.86874065  0.78337321  1
  Bi2+  Bi96  1  0.12335047  0.01648167  0.18315961  1
  Bi2+  Bi97  1  0.13346191  0.00732919  0.71610920  1
  Bi2+  Bi98  1  0.20088076  0.26135161  0.23172148  1
  Bi2+  Bi99  1  0.11815241  0.26954775  0.69513844  1
  Bi2+  Bi100  1  0.15852894  0.51754738  0.21336720  1
  Bi2+  Bi101  1  0.16062774  0.47912556  0.72974279  1
  Bi2+  Bi102  1  0.11028988  0.71337577  0.23326632  1
  Bi2+  Bi103  1  0.13488442  0.73774591  0.71352053  1
  Bi2+  Bi104  1  0.37909030  -0.00982891  0.20091789  1
  Bi2+  Bi105  1  0.40014725  0.01679817  0.70845350  1
  Bi2+  Bi106  1  0.40079434  0.30956550  0.23084118  1
  Bi2+  Bi107  1  0.36751077  0.28517870  0.71711319  1
  Bi2+  Bi108  1  0.35134055  0.49271926  0.19489020  1
  Bi2+  Bi109  1  0.34475091  0.47266667  0.69135097  1
  Bi2+  Bi110  1  0.39250227  0.68363431  0.20904735  1
  Bi2+  Bi111  1  0.43424731  0.73888093  0.71113069  1
  Bi2+  Bi112  1  0.62545317  0.03028574  0.24414829  1
  Bi2+  Bi113  1  0.68187678  0.01868168  0.68484484  1
  Bi2+  Bi114  1  0.57443382  0.23088699  0.19054238  1
  Bi2+  Bi115  1  0.58383964  0.24506980  0.69255690  1
  Bi2+  Bi116  1  0.60467586  0.50512820  0.20918350  1
  Bi2+  Bi117  1  0.62076664  0.53203380  0.70925717  1
  Bi2+  Bi118  1  0.59484504  0.77931501  0.19919350  1
  Bi2+  Bi119  1  0.62256887  0.83538753  0.68486414  1
  Bi2+  Bi120  1  0.91258525  0.01686301  0.20467330  1
  Bi2+  Bi121  1  0.87103554  -0.01660324  0.70826360  1
  Bi2+  Bi122  1  0.82939201  0.19897004  0.19705636  1
  Bi2+  Bi123  1  0.87816133  0.24728230  0.70537003  1
  Bi2+  Bi124  1  0.86357879  0.47868086  0.22090864  1
  Bi2+  Bi125  1  0.90064263  0.52291000  0.69171809  1
  Bi2+  Bi126  1  0.92501379  0.75121724  0.19968203  1
  Bi2+  Bi127  1  0.88078536  0.77135422  0.73029519  1
  S2-  S128  1  -0.01701273  0.19175898  0.15079170  1
  S2-  S129  1  0.03794041  0.12018469  0.66096806  1
  S2-  S130  1  -0.02241002  0.36095952  0.23138294  1
  S2-  S131  1  0.05126419  0.42011533  0.65553268  1
  S2-  S132  1  -0.02629622  0.52950045  0.16000747  1
  S2-  S133  1  0.00313014  0.65470943  0.65827642  1
  S2-  S134  1  -0.00029942  0.88897256  0.15148543  1
  S2-  S135  1  0.08705412  0.87765327  0.65686639  1
  S2-  S136  1  0.21380589  0.14247533  0.15129197  1
  S2-  S137  1  0.25766841  0.03628345  0.65152536  1
  S2-  S138  1  0.15874545  0.36786710  0.15310541  1
  S2-  S139  1  0.25375605  0.25635020  0.63425619  1
  S2-  S140  1  0.15943248  0.64030674  0.14114447  1
  S2-  S141  1  0.25604156  0.70134263  0.64792361  1
  S2-  S142  1  0.24574044  0.89721685  0.15092638  1
  S2-  S143  1  0.24697174  0.87493843  0.72392611  1
  S2-  S144  1  0.44192003  0.12411111  0.15560453  1
  S2-  S145  1  0.46659644  0.13237662  0.64790248  1
  S2-  S146  1  0.60633530  0.38915570  0.14150238  1
  S2-  S147  1  0.59738494  0.38680590  0.64198940  1
  S2-  S148  1  0.53414329  0.63477434  0.14805089  1
  S2-  S149  1  0.50654464  0.62233959  0.65558772  1
  S2-  S150  1  0.49211170  0.88695680  0.15229434  1
  S2-  S151  1  0.42177032  0.87894608  0.64388849  1
  S2-  S152  1  0.68533770  0.10912285  0.15254899  1
  S2-  S153  1  0.73649244  0.21232964  0.64574769  1
  S2-  S154  1  0.81740076  0.35597242  0.15236351  1
  S2-  S155  1  0.84829581  0.38593199  0.64773770  1
  S2-  S156  1  0.74843906  0.58054774  0.16317169  1
  S2-  S157  1  0.75511091  0.60065256  0.65529137  1
  S2-  S158  1  0.73128955  0.82969072  0.14298153  1
  S2-  S159  1  0.85197187  0.84510917  0.64190592  1
  S2-  S160  1  0.11096505  0.06633669  0.36125852  1
  S2-  S161  1  0.13106202  -0.09818294  0.84902244  1
  S2-  S162  1  0.18594747  0.29866116  0.33543134  1
  S2-  S163  1  0.13112231  0.13013429  0.86099142  1
  S2-  S164  1  0.10640685  0.54205288  0.35046634  1
  S2-  S165  1  0.09902158  0.56311760  0.85773481  1
  S2-  S166  1  0.01890634  0.76488862  0.36594185  1
  S2-  S167  1  0.19490883  0.71840267  0.80389115  1
  S2-  S168  1  0.34593566  0.11202050  0.35603478  1
  S2-  S169  1  0.35820665  0.02326382  0.84421192  1
  S2-  S170  1  0.49321216  0.26248685  0.36013594  1
  S2-  S171  1  0.45979620  0.25916431  0.84962651  1
  S2-  S172  1  0.36377864  0.61194515  0.36166954  1
  S2-  S173  1  0.35582328  0.47257385  0.84960112  1
  S2-  S174  1  0.36779612  0.85693519  0.35469363  1
  S2-  S175  1  0.39435647  0.73132247  0.84879514  1
  S2-  S176  1  0.58350589  0.00387057  0.34857888  1
  S2-  S177  1  0.63324936  0.08940346  0.85221544  1
  S2-  S178  1  0.73705949  0.24483165  0.36158879  1
  S2-  S179  1  0.65093116  0.27848344  0.77529884  1
  S2-  S180  1  0.63394610  0.53979388  0.34472325  1
  S2-  S181  1  0.62262672  0.43653953  0.85157326  1
  S2-  S182  1  0.58392045  0.76652169  0.33973421  1
  S2-  S183  1  0.74241479  0.74332069  0.85897444  1
  S2-  S184  1  0.87247125  -0.01096750  0.35436205  1
  S2-  S185  1  0.88558146  0.00226518  0.84860219  1
  S2-  S186  1  0.96864917  0.24021336  0.35433979  1
  S2-  S187  1  0.80748653  0.27058527  0.85466781  1
  S2-  S188  1  0.87789424  0.47230225  0.34080084  1
  S2-  S189  1  0.85230427  0.52069522  0.84961847  1
  S2-  S190  1  0.81410398  0.70450999  0.34612817  1
  S2-  S191  1  0.96255262  0.74660877  0.84764399  1
  S2-  S192  1  -0.01426044  0.11075404  0.46062057  1
  S2-  S193  1  -0.00748975  0.12978758  0.95446764  1
  S2-  S194  1  -0.00850014  0.36234360  0.45902139  1
  S2-  S195  1  -0.00064084  0.37388581  0.94050566  1
  S2-  S196  1  -0.00861685  0.60961152  0.45938628  1
  S2-  S197  1  -0.00248002  0.62944150  0.96205825  1
  S2-  S198  1  -0.00843828  0.86977134  0.46695285  1
  S2-  S199  1  -0.00628554  0.87795962  0.94995884  1
  S2-  S200  1  0.23887966  0.11601921  0.45927711  1
  S2-  S201  1  0.25352589  0.12733384  0.95550440  1
  S2-  S202  1  0.24449513  0.36228215  0.45097791  1
  S2-  S203  1  0.24625517  0.37746821  0.95638179  1
  S2-  S204  1  0.23683377  0.61651111  0.45900623  1
  S2-  S205  1  0.24528558  0.62674046  0.95055136  1
  S2-  S206  1  0.23064495  0.86132690  0.44461790  1
  S2-  S207  1  0.24831010  0.87724794  0.95100861  1
  S2-  S208  1  0.49264825  0.10856332  0.45177716  1
  S2-  S209  1  0.49448729  0.12497981  0.95578220  1
  S2-  S210  1  0.48730452  0.36976071  0.45896037  1
  S2-  S211  1  0.49610417  0.38284507  0.95858868  1
  S2-  S212  1  0.49373871  0.61570971  0.45319723  1
  S2-  S213  1  0.49868179  0.62396808  0.94821506  1
  S2-  S214  1  0.49449455  0.86076003  0.45276450  1
  S2-  S215  1  0.50065033  0.88008385  0.94624325  1
  S2-  S216  1  0.73848106  0.10748845  0.45941846  1
  S2-  S217  1  0.74985793  0.12970003  0.95558586  1
  S2-  S218  1  0.73888286  0.36613914  0.46156623  1
  S2-  S219  1  0.74444527  0.37685307  0.95939314  1
  S2-  S220  1  0.74342371  0.61132445  0.45323024  1
  S2-  S221  1  0.74451182  0.62458074  0.95997342  1
  S2-  S222  1  0.74211611  0.86340563  0.45632935  1
  S2-  S223  1  0.74510958  0.88382285  0.94875075  1
  S2-  S224  1  0.12360072  0.00466780  0.03946918  1
  S2-  S225  1  0.11764457  -0.00942734  0.55146863  1
  S2-  S226  1  0.12441848  0.24892009  0.04016468  1
  S2-  S227  1  0.10944105  0.24300311  0.54164342  1
  S2-  S228  1  0.11811537  0.49870576  0.04794018  1
  S2-  S229  1  0.11900980  0.49108392  0.54831623  1
  S2-  S230  1  0.12209654  0.75735201  0.04569829  1
  S2-  S231  1  0.11619456  0.73933494  0.54885096  1
  S2-  S232  1  0.37113344  0.00201266  0.04489910  1
  S2-  S233  1  0.36248418  -0.01401658  0.53848028  1
  S2-  S234  1  0.37183906  0.25424360  0.04787559  1
  S2-  S235  1  0.37068110  0.23918348  0.53488165  1
  S2-  S236  1  0.37052214  0.50313678  0.04919805  1
  S2-  S237  1  0.36287127  0.49002904  0.54487948  1
  S2-  S238  1  0.36927565  0.75412862  0.04893716  1
  S2-  S239  1  0.36261024  0.74050639  0.53861648  1
  S2-  S240  1  0.62502365  0.00341638  0.04248471  1
  S2-  S241  1  0.61211133  -0.01489044  0.54789583  1
  S2-  S242  1  0.62200163  0.25447346  0.04830837  1
  S2-  S243  1  0.60740284  0.23485368  0.54106135  1
  S2-  S244  1  0.62211957  0.50831015  0.04429134  1
  S2-  S245  1  0.61332876  0.49163853  0.54304682  1
  S2-  S246  1  0.62213727  0.75223499  0.03606420  1
  S2-  S247  1  0.61519652  0.74048481  0.54392374  1
  S2-  S248  1  0.87265634  0.00448036  0.04927683  1
  S2-  S249  1  0.86245752  -0.00795002  0.55398191  1
  S2-  S250  1  0.87722697  0.26032712  0.04655822  1
  S2-  S251  1  0.86225673  0.23751265  0.54482174  1
  S2-  S252  1  0.86840507  0.50450364  0.05281319  1
  S2-  S253  1  0.86380937  0.48942198  0.54485678  1
  S2-  S254  1  0.87429477  0.75094434  0.04443154  1
  S2-  S255  1  0.86527994  0.73521477  0.54173015  1
