# generated using pymatgen
data_La6Ce7Pr13Nd19Sm19(BiS2)64
_symmetry_space_group_name_H-M   'P 1'
_cell_length_a   16.06972622
_cell_length_b   16.07847480
_cell_length_c   27.36409916
_cell_angle_alpha   89.95561553
_cell_angle_beta   89.88026677
_cell_angle_gamma   89.96346123
_symmetry_Int_Tables_number   1
_chemical_formula_structural   La6Ce7Pr13Nd19Sm19(BiS2)64
_chemical_formula_sum   'La6 Ce7 Pr13 Nd19 Sm19 Bi64 S128'
_cell_volume   7070.22632403
_cell_formula_units_Z   1
loop_
 _symmetry_equiv_pos_site_id
 _symmetry_equiv_pos_as_xyz
  1  'x, y, z'
loop_
 _atom_type_symbol
 _atom_type_oxidation_number
  La3+  3.0
  Ce3+  3.0
  Pr3+  3.0
  Nd3+  3.0
  Sm3+  3.0
  Bi2+  2.0
  S2-  -2.0
loop_
 _atom_site_type_symbol
 _atom_site_label
 _atom_site_symmetry_multiplicity
 _atom_site_fract_x
 _atom_site_fract_y
 _atom_site_fract_z
 _atom_site_occupancy
  La3+  La0  1  0.86061668  0.00166781  0.43640773  1
  La3+  La1  1  0.37437111  -0.01267028  0.42558636  1
  La3+  La2  1  0.01378058  0.85361390  0.11852537  1
  La3+  La3  1  0.62298034  0.23678585  0.40083725  1
  La3+  La4  1  0.12520738  0.49535456  0.89215116  1
  La3+  La5  1  0.73822132  0.61210612  0.08742185  1
  Ce3+  Ce6  1  0.24481712  0.61563301  0.56905108  1
  Ce3+  Ce7  1  0.24265742  0.37602012  0.56047093  1
  Ce3+  Ce8  1  0.11855567  0.25008467  0.44580847  1
  Ce3+  Ce9  1  -0.00781941  0.87170610  0.56523196  1
  Ce3+  Ce10  1  0.75386177  0.86994391  0.06412144  1
  Ce3+  Ce11  1  -0.00661752  0.62357090  0.55289564  1
  Ce3+  Ce12  1  0.62150145  -0.00556963  0.93530900  1
  Pr3+  Pr13  1  0.24254971  0.11499534  0.05151070  1
  Pr3+  Pr14  1  0.74500554  0.12214535  0.56917156  1
  Pr3+  Pr15  1  0.73856290  0.36454186  0.07941421  1
  Pr3+  Pr16  1  0.37238657  0.24823263  0.42892519  1
  Pr3+  Pr17  1  0.61463620  0.50698087  0.41084944  1
  Pr3+  Pr18  1  0.62456084  0.49545450  0.93822428  1
  Pr3+  Pr19  1  0.49111964  0.62026509  0.06144434  1
  Pr3+  Pr20  1  0.62151111  0.75254648  0.43417780  1
  Pr3+  Pr21  1  0.12335761  0.49815569  0.43529697  1
  Pr3+  Pr22  1  0.49073563  0.88005246  0.58038774  1
  Pr3+  Pr23  1  0.24443187  0.12290669  0.55495840  1
  Pr3+  Pr24  1  0.49466996  0.12466115  0.55624891  1
  Pr3+  Pr25  1  0.37037581  0.49832930  0.43500594  1
  Nd3+  Nd26  1  0.74537465  0.62129983  0.54785623  1
  Nd3+  Nd27  1  0.86934577  0.49410179  0.93763435  1
  Nd3+  Nd28  1  0.87459812  0.74562289  0.42846914  1
  Nd3+  Nd29  1  0.36775698  0.74705379  0.44716068  1
  Nd3+  Nd30  1  0.87794458  0.49166371  0.42158258  1
  Nd3+  Nd31  1  0.36782115  0.74040297  0.93557612  1
  Nd3+  Nd32  1  -0.01590298  0.37870763  0.57095772  1
  Nd3+  Nd33  1  0.11731249  0.74581507  0.94138448  1
  Nd3+  Nd34  1  0.11837425  0.00164587  0.43285540  1
  Nd3+  Nd35  1  0.36892101  0.49273862  0.94209806  1
  Nd3+  Nd36  1  0.49028726  0.36814299  0.06640973  1
  Nd3+  Nd37  1  -0.00797327  0.61395798  0.06074499  1
  Nd3+  Nd38  1  0.49435246  0.87021412  0.05322073  1
  Nd3+  Nd39  1  0.74377214  0.12090599  0.06644568  1
  Nd3+  Nd40  1  0.24064283  0.87076016  0.56727956  1
  Nd3+  Nd41  1  0.87098121  -0.00608375  0.94093012  1
  Nd3+  Nd42  1  0.62223324  0.24625181  0.94290729  1
  Nd3+  Nd43  1  0.24528252  0.36735503  0.06751814  1
  Nd3+  Nd44  1  0.23971221  0.62118275  0.05780766  1
  Sm3+  Sm45  1  0.86777722  0.25035201  0.44626971  1
  Sm3+  Sm46  1  0.87195506  0.24710097  0.94737709  1
  Sm3+  Sm47  1  0.24319785  0.87121121  0.05180353  1
  Sm3+  Sm48  1  0.49768612  0.37479062  0.55095309  1
  Sm3+  Sm49  1  -0.00595342  0.37059837  0.06053232  1
  Sm3+  Sm50  1  0.49776318  0.62165763  0.55876268  1
  Sm3+  Sm51  1  0.12074700  0.25049834  0.94123872  1
  Sm3+  Sm52  1  0.61915551  -0.00249357  0.44519912  1
  Sm3+  Sm53  1  0.37784851  -0.00701209  0.92676967  1
  Sm3+  Sm54  1  -0.00605273  0.12074573  0.55717577  1
  Sm3+  Sm55  1  0.62487583  0.74038611  0.95122560  1
  Sm3+  Sm56  1  0.11738404  0.75512311  0.43336610  1
  Sm3+  Sm57  1  0.49264983  0.11565616  0.05410133  1
  Sm3+  Sm58  1  0.87302885  0.74178526  0.95088582  1
  Sm3+  Sm59  1  0.12167900  -0.00655650  0.93401101  1
  Sm3+  Sm60  1  0.74185675  0.37598582  0.54761017  1
  Sm3+  Sm61  1  0.36832072  0.24628179  0.94012556  1
  Sm3+  Sm62  1  -0.00310336  0.11243967  0.05480936  1
  Sm3+  Sm63  1  0.74448627  0.86857526  0.56603313  1
  Bi2+  Bi64  1  0.03220702  0.11130608  0.27785175  1
  Bi2+  Bi65  1  0.02676142  0.15398809  0.78434452  1
  Bi2+  Bi66  1  0.01030089  0.38499255  0.26446359  1
  Bi2+  Bi67  1  -0.02129656  0.34656663  0.79351156  1
  Bi2+  Bi68  1  0.07216024  0.59623687  0.29162485  1
  Bi2+  Bi69  1  -0.00623214  0.63550992  0.79408005  1
  Bi2+  Bi70  1  -0.02056042  0.87171794  0.31466772  1
  Bi2+  Bi71  1  -0.03512269  0.91520642  0.77410756  1
  Bi2+  Bi72  1  0.24059144  0.19404678  0.28924339  1
  Bi2+  Bi73  1  0.25569060  0.14203359  0.78935646  1
  Bi2+  Bi74  1  0.25177259  0.38644466  0.32516735  1
  Bi2+  Bi75  1  0.24853724  0.33625286  0.77047487  1
  Bi2+  Bi76  1  0.25234997  0.59689009  0.34137726  1
  Bi2+  Bi77  1  0.26266276  0.63985840  0.79141384  1
  Bi2+  Bi78  1  0.27559438  0.87616439  0.29451075  1
  Bi2+  Bi79  1  0.22333440  0.86495303  0.80169260  1
  Bi2+  Bi80  1  0.45588702  0.07393984  0.28522854  1
  Bi2+  Bi81  1  0.52243796  0.13839777  0.78887248  1
  Bi2+  Bi82  1  0.42984928  0.35402169  0.28066446  1
  Bi2+  Bi83  1  0.56534645  0.41576682  0.81196693  1
  Bi2+  Bi84  1  0.44151807  0.62382423  0.29845230  1
  Bi2+  Bi85  1  0.52875504  0.60697514  0.79120597  1
  Bi2+  Bi86  1  0.54602344  0.91562802  0.32772700  1
  Bi2+  Bi87  1  0.51575174  0.89584743  0.77218284  1
  Bi2+  Bi88  1  0.79043563  0.14272558  0.30191302  1
  Bi2+  Bi89  1  0.71773032  0.10492296  0.81343800  1
  Bi2+  Bi90  1  0.79833040  0.39611796  0.29045507  1
  Bi2+  Bi91  1  0.74430876  0.40681351  0.73599811  1
  Bi2+  Bi92  1  0.72378052  0.64569494  0.28899813  1
  Bi2+  Bi93  1  0.74550832  0.62152075  0.80447454  1
  Bi2+  Bi94  1  0.73520832  0.90589971  0.28094503  1
  Bi2+  Bi95  1  0.71037902  0.90625786  0.79770597  1
  Bi2+  Bi96  1  0.14169828  0.00425224  0.20620701  1
  Bi2+  Bi97  1  0.10215500  0.01678350  0.70643124  1
  Bi2+  Bi98  1  0.10696273  0.25066923  0.19892340  1
  Bi2+  Bi99  1  0.14348339  0.21963932  0.70054584  1
  Bi2+  Bi100  1  0.18558916  0.43014266  0.21607157  1
  Bi2+  Bi101  1  0.13119738  0.52713235  0.68388802  1
  Bi2+  Bi102  1  0.21861599  0.70592838  0.24654746  1
  Bi2+  Bi103  1  0.05780483  0.77413893  0.71323063  1
  Bi2+  Bi104  1  0.33227633  -0.04123676  0.19977505  1
  Bi2+  Bi105  1  0.36649263  0.00234681  0.71091376  1
  Bi2+  Bi106  1  0.37377434  0.21461472  0.20462006  1
  Bi2+  Bi107  1  0.40197595  0.24290772  0.71972382  1
  Bi2+  Bi108  1  0.36797806  0.49757892  0.20734006  1
  Bi2+  Bi109  1  0.39598323  0.47055110  0.76472601  1
  Bi2+  Bi110  1  0.40908582  0.72517549  0.20645270  1
  Bi2+  Bi111  1  0.37608332  0.73705060  0.70965547  1
  Bi2+  Bi112  1  0.62197824  0.02791059  0.21586249  1
  Bi2+  Bi113  1  0.62298818  0.03271662  0.70875623  1
  Bi2+  Bi114  1  0.62266349  0.22880115  0.20945080  1
  Bi2+  Bi115  1  0.58342746  0.30575579  0.70987383  1
  Bi2+  Bi116  1  0.61255614  0.48953069  0.20984150  1
  Bi2+  Bi117  1  0.61800335  0.54287767  0.68788602  1
  Bi2+  Bi118  1  0.57826868  0.83138127  0.22420522  1
  Bi2+  Bi119  1  0.63824787  0.77004041  0.72244109  1
  Bi2+  Bi120  1  0.86015163  0.02749689  0.20463693  1
  Bi2+  Bi121  1  0.83879565  -0.00492863  0.69431827  1
  Bi2+  Bi122  1  0.90647204  0.21648883  0.20925350  1
  Bi2+  Bi123  1  0.84630658  0.21482594  0.75007278  1
  Bi2+  Bi124  1  0.90444707  0.54639476  0.19977759  1
  Bi2+  Bi125  1  0.88162157  0.51678667  0.68635956  1
  Bi2+  Bi126  1  0.88332798  0.75014604  0.21757015  1
  Bi2+  Bi127  1  0.85232654  0.75861406  0.74637905  1
  S2-  S128  1  0.00546425  0.03222640  0.14211068  1
  S2-  S129  1  -0.02495456  0.08474730  0.65231030  1
  S2-  S130  1  -0.02626100  0.42069279  0.15542983  1
  S2-  S131  1  0.03735036  0.39582087  0.66635420  1
  S2-  S132  1  0.00639086  0.67573601  0.15355372  1
  S2-  S133  1  0.00133062  0.64042232  0.65117730  1
  S2-  S134  1  0.02913976  0.85746673  0.22582532  1
  S2-  S135  1  0.11326124  0.87519489  0.63994215  1
  S2-  S136  1  0.26419479  0.10606772  0.15054317  1
  S2-  S137  1  0.24314586  0.09347167  0.65394732  1
  S2-  S138  1  0.36545017  0.35902734  0.14092790  1
  S2-  S139  1  0.26327116  0.46627782  0.64117941  1
  S2-  S140  1  0.28195931  0.63150810  0.15390023  1
  S2-  S141  1  0.24175657  0.67361662  0.66290108  1
  S2-  S142  1  0.19019206  0.87008675  0.14393116  1
  S2-  S143  1  0.35187474  0.87536563  0.64747619  1
  S2-  S144  1  0.50856967  0.13245540  0.15096897  1
  S2-  S145  1  0.48230085  0.04091210  0.64447066  1
  S2-  S146  1  0.59171819  0.36270583  0.14802387  1
  S2-  S147  1  0.51734687  0.42610212  0.64522997  1
  S2-  S148  1  0.55840294  0.60133040  0.15223360  1
  S2-  S149  1  0.48824287  0.65982514  0.65552263  1
  S2-  S150  1  0.45658934  0.87984145  0.14942576  1
  S2-  S151  1  0.63292640  0.86330907  0.64268879  1
  S2-  S152  1  0.75596027  0.22606488  0.14737535  1
  S2-  S153  1  0.74537328  0.14642818  0.66889969  1
  S2-  S154  1  0.76414383  0.47996362  0.15646054  1
  S2-  S155  1  0.82382202  0.38984538  0.63490817  1
  S2-  S156  1  0.74885266  0.68613165  0.18314732  1
  S2-  S157  1  0.76323427  0.62165054  0.64730505  1
  S2-  S158  1  0.84028383  0.88027168  0.14993725  1
  S2-  S159  1  0.86824883  0.86522022  0.63775052  1
  S2-  S160  1  0.13371263  -0.11579327  0.35971387  1
  S2-  S161  1  0.09854364  -0.05156270  0.84042968  1
  S2-  S162  1  0.10658387  0.19989835  0.35322292  1
  S2-  S163  1  0.12385425  0.33031098  0.85464705  1
  S2-  S164  1  0.02065490  0.46577509  0.35549863  1
  S2-  S165  1  0.12641709  0.53359553  0.78543334  1
  S2-  S166  1  0.00445305  0.72293714  0.35496805  1
  S2-  S167  1  0.13088939  0.72351574  0.84278770  1
  S2-  S168  1  0.30765473  0.04520026  0.33650524  1
  S2-  S169  1  0.30150755  -0.00656783  0.83776648  1
  S2-  S170  1  0.47219674  0.22362417  0.34578157  1
  S2-  S171  1  0.35856593  0.25544392  0.84313729  1
  S2-  S172  1  0.46834889  0.47926545  0.35185909  1
  S2-  S173  1  0.29581866  0.50412471  0.85321284  1
  S2-  S174  1  0.39265666  0.83449423  0.36177485  1
  S2-  S175  1  0.35990634  0.76189772  0.83726477  1
  S2-  S176  1  0.67200984  0.07285228  0.36130008  1
  S2-  S177  1  0.51251784  -0.00422840  0.85788467  1
  S2-  S178  1  0.67449890  0.27388971  0.30324011  1
  S2-  S179  1  0.62154585  0.25297186  0.84380053  1
  S2-  S180  1  0.66490054  0.48096733  0.31203343  1
  S2-  S181  1  0.74417373  0.49218116  0.86469311  1
  S2-  S182  1  0.59172073  0.66406964  0.34948666  1
  S2-  S183  1  0.62116248  0.70721395  0.85538465  1
  S2-  S184  1  0.91605224  0.02789407  0.34297200  1
  S2-  S185  1  0.84958693  -0.00101292  0.84230674  1
  S2-  S186  1  0.87298638  0.27235635  0.34959125  1
  S2-  S187  1  0.86170212  0.27567479  0.85124786  1
  S2-  S188  1  0.84243009  0.55674546  0.32811390  1
  S2-  S189  1  0.96235565  0.49551099  0.85104860  1
  S2-  S190  1  0.78391491  0.78664243  0.34435059  1
  S2-  S191  1  0.86955193  0.72672078  0.85269492  1
  S2-  S192  1  -0.00885915  0.12559410  0.45414028  1
  S2-  S193  1  -0.00170496  0.12125100  0.94831103  1
  S2-  S194  1  -0.00638419  0.36949315  0.46199726  1
  S2-  S195  1  -0.00335697  0.36960256  0.95794620  1
  S2-  S196  1  -0.00343194  0.61927376  0.45082688  1
  S2-  S197  1  -0.00124059  0.61747477  0.95486277  1
  S2-  S198  1  -0.00872179  0.87725939  0.45593794  1
  S2-  S199  1  -0.00696160  0.86981201  0.94589875  1
  S2-  S200  1  0.24669575  0.12382360  0.44980331  1
  S2-  S201  1  0.24368817  0.12112975  0.94544394  1
  S2-  S202  1  0.24740610  0.37053182  0.45517408  1
  S2-  S203  1  0.24493159  0.36936067  0.96052798  1
  S2-  S204  1  0.24218430  0.62605778  0.46062927  1
  S2-  S205  1  0.23890921  0.61699349  0.95250238  1
  S2-  S206  1  0.24330350  0.87321688  0.46047103  1
  S2-  S207  1  0.24728474  0.87099738  0.94739298  1
  S2-  S208  1  0.49595660  0.12079751  0.45147237  1
  S2-  S209  1  0.49314006  0.12360640  0.95083032  1
  S2-  S210  1  0.50459038  0.36476235  0.44863750  1
  S2-  S211  1  0.49343457  0.36877743  0.95527774  1
  S2-  S212  1  0.49358779  0.62461892  0.45509871  1
  S2-  S213  1  0.49441870  0.61880329  0.95401617  1
  S2-  S214  1  0.49927466  0.87270368  0.46662128  1
  S2-  S215  1  0.49675799  0.86169174  0.94910278  1
  S2-  S216  1  0.74100891  0.13380078  0.46273295  1
  S2-  S217  1  0.74668496  0.12164698  0.95768493  1
  S2-  S218  1  0.74024756  0.37273735  0.44287838  1
  S2-  S219  1  0.74637321  0.36466967  0.96523500  1
  S2-  S220  1  0.74679504  0.62049533  0.44317876  1
  S2-  S221  1  0.74707269  0.62177296  0.96761274  1
  S2-  S222  1  0.74246702  0.87522517  0.45794460  1
  S2-  S223  1  0.74670532  0.86683621  0.95559036  1
  S2-  S224  1  0.11882561  -0.00944161  0.03761327  1
  S2-  S225  1  0.11736772  0.00177807  0.53936491  1
  S2-  S226  1  0.11764327  0.24367342  0.04743612  1
  S2-  S227  1  0.11440313  0.24976745  0.55267741  1
  S2-  S228  1  0.12173960  0.49159415  0.05988661  1
  S2-  S229  1  0.11538523  0.49570542  0.54314423  1
  S2-  S230  1  0.11668230  0.74796738  0.04654499  1
  S2-  S231  1  0.11984826  0.74424156  0.53995004  1
  S2-  S232  1  0.36968757  -0.00732367  0.03532218  1
  S2-  S233  1  0.36689379  -0.00107694  0.53862336  1
  S2-  S234  1  0.36914778  0.23831629  0.04333688  1
  S2-  S235  1  0.37094562  0.25143011  0.54429214  1
  S2-  S236  1  0.36563138  0.49687990  0.04640389  1
  S2-  S237  1  0.37560962  0.49844389  0.54029607  1
  S2-  S238  1  0.36641980  0.74645497  0.04290477  1
  S2-  S239  1  0.37088243  0.74331816  0.55012202  1
  S2-  S240  1  0.62135923  -0.00555299  0.04598538  1
  S2-  S241  1  0.62248971  -0.00020238  0.54684853  1
  S2-  S242  1  0.61388174  0.23944301  0.04646232  1
  S2-  S243  1  0.62106484  0.25249642  0.55713814  1
  S2-  S244  1  0.61547749  0.49264999  0.04456759  1
  S2-  S245  1  0.62074352  0.49794388  0.53594771  1
  S2-  S246  1  0.62127761  0.74718565  0.05572386  1
  S2-  S247  1  0.61937951  0.74307587  0.54209593  1
  S2-  S248  1  0.86732793  0.00083554  0.04426741  1
  S2-  S249  1  0.86721040  0.00065323  0.54332678  1
  S2-  S250  1  0.87778216  0.24121384  0.05051509  1
  S2-  S251  1  0.86990507  0.24594734  0.55027865  1
  S2-  S252  1  0.86888587  0.49098161  0.04609947  1
  S2-  S253  1  0.86849615  0.49829645  0.53078416  1
  S2-  S254  1  0.87016417  0.74051428  0.05424644  1
  S2-  S255  1  0.86781047  0.74616015  0.53562670  1
