# generated using pymatgen
data_La6Ce7Pr13Nd19Sm19(BiS2)64
_symmetry_space_group_name_H-M   'P 1'
_cell_length_a   16.10181108
_cell_length_b   16.05407981
_cell_length_c   27.51147466
_cell_angle_alpha   90.12378235
_cell_angle_beta   90.11865167
_cell_angle_gamma   90.12945624
_symmetry_Int_Tables_number   1
_chemical_formula_structural   La6Ce7Pr13Nd19Sm19(BiS2)64
_chemical_formula_sum   'La6 Ce7 Pr13 Nd19 Sm19 Bi64 S128'
_cell_volume   7111.65953441
_cell_formula_units_Z   1
loop_
 _symmetry_equiv_pos_site_id
 _symmetry_equiv_pos_as_xyz
  1  'x, y, z'
loop_
 _atom_type_symbol
 _atom_type_oxidation_number
  La3+  3.0
  Ce3+  3.0
  Pr3+  3.0
  Nd3+  3.0
  Sm3+  3.0
  Bi2+  2.0
  S2-  -2.0
loop_
 _atom_site_type_symbol
 _atom_site_label
 _atom_site_symmetry_multiplicity
 _atom_site_fract_x
 _atom_site_fract_y
 _atom_site_fract_z
 _atom_site_occupancy
  La3+  La0  1  0.26323637  0.11809865  0.58473896  1
  La3+  La1  1  0.87051571  0.01855421  0.91633314  1
  La3+  La2  1  0.88382524  0.50017846  0.41478199  1
  La3+  La3  1  0.12899269  0.26085024  0.89423760  1
  La3+  La4  1  0.37087114  0.75895863  0.38640061  1
  La3+  La5  1  0.37795454  0.51608244  0.93321879  1
  Ce3+  Ce6  1  0.24985050  0.65039704  0.06693142  1
  Ce3+  Ce7  1  0.50105483  0.89342500  0.06638564  1
  Ce3+  Ce8  1  0.76290859  0.87557217  0.56312870  1
  Ce3+  Ce9  1  0.36859397  0.26451502  0.94075455  1
  Ce3+  Ce10  1  0.75529044  0.89424523  0.06407356  1
  Ce3+  Ce11  1  0.12674068  0.76815324  0.93627242  1
  Ce3+  Ce12  1  0.38046239  0.24512478  0.43793836  1
  Pr3+  Pr13  1  0.00014340  0.89901218  0.06260127  1
  Pr3+  Pr14  1  0.00115701  0.14122795  0.05161194  1
  Pr3+  Pr15  1  0.76195179  0.37662371  0.55974938  1
  Pr3+  Pr16  1  0.87719482  0.51334636  0.92690984  1
  Pr3+  Pr17  1  0.50683992  0.62306886  0.55531645  1
  Pr3+  Pr18  1  0.88367279  -0.00072600  0.43956091  1
  Pr3+  Pr19  1  0.75814550  0.12500955  0.56965669  1
  Pr3+  Pr20  1  0.75398813  0.63753177  0.06599813  1
  Pr3+  Pr21  1  0.63432048  0.49992342  0.42861299  1
  Pr3+  Pr22  1  0.50098879  0.14229135  0.05645281  1
  Pr3+  Pr23  1  0.87560340  0.76592436  0.94440121  1
  Pr3+  Pr24  1  0.25916429  0.87285555  0.55794108  1
  Pr3+  Pr25  1  0.50742534  0.12238057  0.56320038  1
  Nd3+  Nd26  1  0.25120130  0.89336704  0.06750929  1
  Nd3+  Nd27  1  0.38728519  0.49624534  0.42461504  1
  Nd3+  Nd28  1  0.62442372  0.51859121  0.93743016  1
  Nd3+  Nd29  1  0.25135851  0.39605760  0.06461902  1
  Nd3+  Nd30  1  0.00277424  0.39220937  0.05632042  1
  Nd3+  Nd31  1  0.87738032  0.26918765  0.92970817  1
  Nd3+  Nd32  1  0.37487171  0.01407575  0.93938715  1
  Nd3+  Nd33  1  0.63623092  0.24710929  0.44491245  1
  Nd3+  Nd34  1  0.88307421  0.74791388  0.43794115  1
  Nd3+  Nd35  1  0.26594469  0.37703642  0.56620879  1
  Nd3+  Nd36  1  0.25053549  0.13959530  0.06205730  1
  Nd3+  Nd37  1  0.62823815  0.01718120  0.94594159  1
  Nd3+  Nd38  1  0.50526718  0.87078136  0.55061960  1
  Nd3+  Nd39  1  0.76294520  0.62300133  0.56167488  1
  Nd3+  Nd40  1  0.01006680  0.62185842  0.55844361  1
  Nd3+  Nd41  1  0.13288844  0.49490463  0.43591597  1
  Nd3+  Nd42  1  0.01088583  0.12018606  0.56836537  1
  Nd3+  Nd43  1  0.37795230  0.76584484  0.94511005  1
  Nd3+  Nd44  1  0.63193528  0.74757066  0.44075697  1
  Sm3+  Sm45  1  0.63215339  -0.00320076  0.44777846  1
  Sm3+  Sm46  1  0.13460224  0.24649862  0.45171505  1
  Sm3+  Sm47  1  0.49936095  0.63911257  0.06717866  1
  Sm3+  Sm48  1  0.13604541  0.00023372  0.44053599  1
  Sm3+  Sm49  1  0.12744236  0.00979662  0.93005608  1
  Sm3+  Sm50  1  0.88467980  0.24557348  0.45048063  1
  Sm3+  Sm51  1  0.13646172  0.74839038  0.43883333  1
  Sm3+  Sm52  1  0.00098235  0.64195901  0.05480692  1
  Sm3+  Sm53  1  0.26058241  0.62252211  0.54909265  1
  Sm3+  Sm54  1  0.75363081  0.39362116  0.05446037  1
  Sm3+  Sm55  1  0.01003153  0.87347050  0.54993945  1
  Sm3+  Sm56  1  0.12948148  0.51316953  0.94102656  1
  Sm3+  Sm57  1  0.75400615  0.14335739  0.05914805  1
  Sm3+  Sm58  1  0.01188005  0.37358191  0.56193561  1
  Sm3+  Sm59  1  0.62628803  0.76536472  0.95466476  1
  Sm3+  Sm60  1  0.62630483  0.26626693  0.94720681  1
  Sm3+  Sm61  1  0.50875091  0.37491267  0.55498655  1
  Sm3+  Sm62  1  0.50045089  0.39176767  0.05859208  1
  Sm3+  Sm63  1  0.38278344  0.00454624  0.43279415  1
  Bi2+  Bi64  1  -0.01142681  0.12506087  0.29716117  1
  Bi2+  Bi65  1  -0.01286335  0.11282842  0.78479551  1
  Bi2+  Bi66  1  0.02451248  0.32784760  0.29045363  1
  Bi2+  Bi67  1  -0.04027846  0.50113237  0.79186163  1
  Bi2+  Bi68  1  -0.00787424  0.58266259  0.28104291  1
  Bi2+  Bi69  1  0.08154719  0.64300420  0.82906892  1
  Bi2+  Bi70  1  0.04814880  0.85765548  0.27886795  1
  Bi2+  Bi71  1  0.01832585  0.78148549  0.75688503  1
  Bi2+  Bi72  1  0.24983210  0.16209084  0.29408067  1
  Bi2+  Bi73  1  0.25884203  0.13407675  0.78696875  1
  Bi2+  Bi74  1  0.30304431  0.34447835  0.32812102  1
  Bi2+  Bi75  1  0.23383666  0.40324656  0.78755507  1
  Bi2+  Bi76  1  0.22537131  0.51001103  0.29443675  1
  Bi2+  Bi77  1  0.26444267  0.65779343  0.78368442  1
  Bi2+  Bi78  1  0.22948622  0.93825607  0.27081606  1
  Bi2+  Bi79  1  0.18898529  0.87768006  0.76854310  1
  Bi2+  Bi80  1  0.50573460  0.15864859  0.28897308  1
  Bi2+  Bi81  1  0.47556907  0.16311731  0.78082036  1
  Bi2+  Bi82  1  0.47443490  0.35625590  0.27652376  1
  Bi2+  Bi83  1  0.51759205  0.34656539  0.74660436  1
  Bi2+  Bi84  1  0.50410446  0.60531405  0.29337337  1
  Bi2+  Bi85  1  0.49105260  0.65756498  0.81348847  1
  Bi2+  Bi86  1  0.49439698  0.92507372  0.28840964  1
  Bi2+  Bi87  1  0.45783263  0.90626035  0.81056694  1
  Bi2+  Bi88  1  0.74449745  0.12443314  0.32704935  1
  Bi2+  Bi89  1  0.72963636  0.13396069  0.79232632  1
  Bi2+  Bi90  1  0.76097842  0.36787456  0.25800621  1
  Bi2+  Bi91  1  0.72846722  0.35345918  0.79094177  1
  Bi2+  Bi92  1  0.74904604  0.62031693  0.29424559  1
  Bi2+  Bi93  1  0.79118208  0.59275674  0.81030236  1
  Bi2+  Bi94  1  0.86385822  0.83593505  0.31106473  1
  Bi2+  Bi95  1  0.78434324  0.88104422  0.80085355  1
  Bi2+  Bi96  1  0.11926035  0.07225064  0.21057869  1
  Bi2+  Bi97  1  0.11036032  0.01151715  0.69497864  1
  Bi2+  Bi98  1  0.15023019  0.26552771  0.20877306  1
  Bi2+  Bi99  1  0.08161946  0.28093421  0.70113577  1
  Bi2+  Bi100  1  0.09518819  0.45725891  0.21045894  1
  Bi2+  Bi101  1  0.10285374  0.56274984  0.72175059  1
  Bi2+  Bi102  1  0.14860487  0.69044315  0.26365398  1
  Bi2+  Bi103  1  0.17638244  0.73729323  0.68847110  1
  Bi2+  Bi104  1  0.38262569  -0.00251464  0.19962891  1
  Bi2+  Bi105  1  0.38619310  -0.00749414  0.70932800  1
  Bi2+  Bi106  1  0.37837837  0.19844808  0.20181095  1
  Bi2+  Bi107  1  0.34141748  0.27944568  0.69598604  1
  Bi2+  Bi108  1  0.36837495  0.46683662  0.20498483  1
  Bi2+  Bi109  1  0.39307977  0.53853615  0.70142970  1
  Bi2+  Bi110  1  0.36140932  0.72428391  0.19372189  1
  Bi2+  Bi111  1  0.44135104  0.77230894  0.71202722  1
  Bi2+  Bi112  1  0.65867343  0.00161125  0.24564883  1
  Bi2+  Bi113  1  0.58271385  0.00726780  0.73931903  1
  Bi2+  Bi114  1  0.68661704  0.19650570  0.21802635  1
  Bi2+  Bi115  1  0.58341141  0.18517033  0.68475967  1
  Bi2+  Bi116  1  0.61410555  0.51158805  0.19212391  1
  Bi2+  Bi117  1  0.62298781  0.51548758  0.77484732  1
  Bi2+  Bi118  1  0.69964283  0.80637563  0.25503083  1
  Bi2+  Bi119  1  0.61865137  0.80232152  0.75844366  1
  Bi2+  Bi120  1  0.89470547  -0.03484592  0.19240946  1
  Bi2+  Bi121  1  0.86740966  -0.05292647  0.70359048  1
  Bi2+  Bi122  1  0.88392353  0.22710149  0.21979379  1
  Bi2+  Bi123  1  0.77252164  0.23540549  0.69833401  1
  Bi2+  Bi124  1  0.86548895  0.48816052  0.19315370  1
  Bi2+  Bi125  1  0.83436808  0.48455561  0.68501665  1
  Bi2+  Bi126  1  0.88645239  0.72818826  0.19674884  1
  Bi2+  Bi127  1  0.84952785  0.69852358  0.71217677  1
  S2-  S128  1  0.00238385  0.03775033  0.13399719  1
  S2-  S129  1  -0.00550268  0.13687511  0.66680111  1
  S2-  S130  1  -0.02879409  0.37377062  0.15292847  1
  S2-  S131  1  -0.02634392  0.37845551  0.65660560  1
  S2-  S132  1  -0.02086854  0.61212474  0.14937395  1
  S2-  S133  1  -0.04089407  0.61277372  0.65252058  1
  S2-  S134  1  -0.00596131  0.83542944  0.15911688  1
  S2-  S135  1  0.00650108  0.89544830  0.64608215  1
  S2-  S136  1  0.24062668  0.02206572  0.13695550  1
  S2-  S137  1  0.20723471  0.16023261  0.68209044  1
  S2-  S138  1  0.28414299  0.33556474  0.15569933  1
  S2-  S139  1  0.21629317  0.37505607  0.66164690  1
  S2-  S140  1  0.28476873  0.57444006  0.15365774  1
  S2-  S141  1  0.27417852  0.59112742  0.64511653  1
  S2-  S142  1  0.23627488  0.77471004  0.14105410  1
  S2-  S143  1  0.25347955  0.96387922  0.64326218  1
  S2-  S144  1  0.50156142  0.10925070  0.15373494  1
  S2-  S145  1  0.40794666  0.13282574  0.64512654  1
  S2-  S146  1  0.51257719  0.39301550  0.15519997  1
  S2-  S147  1  0.44303382  0.39847991  0.64399523  1
  S2-  S148  1  0.51264601  0.63466072  0.16543584  1
  S2-  S149  1  0.50144095  0.63601708  0.65610387  1
  S2-  S150  1  0.45803731  0.85967148  0.15881809  1
  S2-  S151  1  0.49121846  0.89709428  0.64747742  1
  S2-  S152  1  0.79923047  0.11353348  0.15195571  1
  S2-  S153  1  0.77287554  0.05002565  0.65874546  1
  S2-  S154  1  0.73501358  0.39570355  0.15122920  1
  S2-  S155  1  0.71009968  0.38451241  0.65509980  1
  S2-  S156  1  0.74507105  0.62151209  0.16517139  1
  S2-  S157  1  0.73125457  0.60707683  0.65848486  1
  S2-  S158  1  0.76209297  0.86315741  0.15997464  1
  S2-  S159  1  0.76985999  0.82951117  0.65612873  1
  S2-  S160  1  0.11781558  -0.02202038  0.34397511  1
  S2-  S161  1  0.12833739  0.10106332  0.84535226  1
  S2-  S162  1  0.11147534  0.21649481  0.35598976  1
  S2-  S163  1  0.04810513  0.26243705  0.79674516  1
  S2-  S164  1  0.02684756  0.46892762  0.35740683  1
  S2-  S165  1  0.12126288  0.42707067  0.85559817  1
  S2-  S166  1  0.20351679  0.75165484  0.35021016  1
  S2-  S167  1  0.13653733  0.87665314  0.86204654  1
  S2-  S168  1  0.35649795  -0.07579358  0.34639832  1
  S2-  S169  1  0.33472833  0.01946760  0.84310870  1
  S2-  S170  1  0.38527711  0.13432356  0.36209722  1
  S2-  S171  1  0.29369507  0.27193815  0.85142998  1
  S2-  S172  1  0.36372784  0.59808752  0.34182112  1
  S2-  S173  1  0.30858860  0.51600769  0.83914438  1
  S2-  S174  1  0.43632657  0.76249336  0.28722372  1
  S2-  S175  1  0.35953561  0.76995149  0.84674127  1
  S2-  S176  1  0.63253992  -0.01873761  0.35120723  1
  S2-  S177  1  0.70776204  0.00774247  0.85934594  1
  S2-  S178  1  0.62484808  0.24330301  0.34719081  1
  S2-  S179  1  0.63345231  0.25116036  0.85054923  1
  S2-  S180  1  0.52080043  0.47089139  0.35266332  1
  S2-  S181  1  0.51661006  0.50821419  0.86095038  1
  S2-  S182  1  0.62714444  0.70321074  0.34484511  1
  S2-  S183  1  0.61202461  0.74831053  0.85842159  1
  S2-  S184  1  0.88157435  0.00948190  0.34013580  1
  S2-  S185  1  0.92758684  -0.04259373  0.82561549  1
  S2-  S186  1  0.86547458  0.23677309  0.35473875  1
  S2-  S187  1  0.87049447  0.16142267  0.85009789  1
  S2-  S188  1  0.74716819  0.48271284  0.34826579  1
  S2-  S189  1  0.87031649  0.38915623  0.85446700  1
  S2-  S190  1  0.88907035  0.65204802  0.35479147  1
  S2-  S191  1  0.85415811  0.74133463  0.84682327  1
  S2-  S192  1  0.01012893  0.12207698  0.46032412  1
  S2-  S193  1  0.00656590  0.14652869  0.94748740  1
  S2-  S194  1  0.00804560  0.36701185  0.45883224  1
  S2-  S195  1  0.00407512  0.38901039  0.95353995  1
  S2-  S196  1  0.01354691  0.62429419  0.45371202  1
  S2-  S197  1  0.00051822  0.63654418  0.95143735  1
  S2-  S198  1  0.01140688  0.87213346  0.44610535  1
  S2-  S199  1  -0.00338203  0.89390148  0.95427395  1
  S2-  S200  1  0.25450025  0.12268673  0.46045147  1
  S2-  S201  1  0.24981240  0.13818517  0.95586616  1
  S2-  S202  1  0.25656096  0.37387210  0.45774408  1
  S2-  S203  1  0.24949850  0.39069054  0.95875922  1
  S2-  S204  1  0.25651739  0.62063421  0.44794571  1
  S2-  S205  1  0.25019599  0.64219368  0.95557690  1
  S2-  S206  1  0.25748470  0.87451924  0.45279228  1
  S2-  S207  1  0.25622411  0.89024970  0.96041274  1
  S2-  S208  1  0.51317742  0.12163646  0.45738023  1
  S2-  S209  1  0.50097739  0.14104696  0.94950279  1
  S2-  S210  1  0.50896860  0.36858914  0.45354502  1
  S2-  S211  1  0.50036608  0.38483975  0.95511803  1
  S2-  S212  1  0.50447050  0.62815817  0.44947788  1
  S2-  S213  1  0.50231794  0.64231560  0.96309186  1
  S2-  S214  1  0.50433446  0.87235622  0.44520072  1
  S2-  S215  1  0.50423564  0.89152809  0.95878858  1
  S2-  S216  1  0.75794236  0.12087848  0.46262722  1
  S2-  S217  1  0.74989669  0.14612519  0.95657648  1
  S2-  S218  1  0.76278520  0.37070181  0.45368714  1
  S2-  S219  1  0.74623473  0.39204030  0.95226375  1
  S2-  S220  1  0.75808082  0.62436887  0.45556025  1
  S2-  S221  1  0.74979863  0.63841279  0.95844252  1
  S2-  S222  1  0.75788771  0.87274511  0.45456053  1
  S2-  S223  1  0.74943224  0.88759807  0.95861937  1
  S2-  S224  1  0.12736506  0.01661593  0.03432619  1
  S2-  S225  1  0.13204913  -0.00100685  0.54343893  1
  S2-  S226  1  0.12756706  0.26642716  0.05816687  1
  S2-  S227  1  0.13627207  0.24783899  0.55549558  1
  S2-  S228  1  0.12607507  0.51911780  0.04801934  1
  S2-  S229  1  0.13462203  0.49724336  0.54456148  1
  S2-  S230  1  0.11877987  0.76843213  0.04128286  1
  S2-  S231  1  0.13358829  0.74706855  0.54340064  1
  S2-  S232  1  0.37906595  0.01595271  0.04398946  1
  S2-  S233  1  0.38387497  -0.00197328  0.53795408  1
  S2-  S234  1  0.37601972  0.26689341  0.04656894  1
  S2-  S235  1  0.38368059  0.25094367  0.54341075  1
  S2-  S236  1  0.37964365  0.51583198  0.04440967  1
  S2-  S237  1  0.38378771  0.49844510  0.53496200  1
  S2-  S238  1  0.38199669  0.76556525  0.04921166  1
  S2-  S239  1  0.38049153  0.74701724  0.55061748  1
  S2-  S240  1  0.63024236  0.01892919  0.05139782  1
  S2-  S241  1  0.63276059  -0.00342323  0.55176464  1
  S2-  S242  1  0.62853017  0.26836112  0.05159866  1
  S2-  S243  1  0.63278794  0.25104787  0.54998995  1
  S2-  S244  1  0.62454843  0.51460995  0.04444483  1
  S2-  S245  1  0.63316648  0.49810523  0.54131401  1
  S2-  S246  1  0.62647600  0.76379054  0.05861884  1
  S2-  S247  1  0.63506773  0.74827375  0.54760179  1
  S2-  S248  1  0.87074107  0.01988672  0.03493472  1
  S2-  S249  1  0.88687496  -0.00140634  0.54564625  1
  S2-  S250  1  0.87424465  0.26848106  0.04316709  1
  S2-  S251  1  0.88643688  0.24780367  0.55436895  1
  S2-  S252  1  0.87754336  0.51517002  0.03952128  1
  S2-  S253  1  0.88792260  0.49766366  0.54181127  1
  S2-  S254  1  0.87633505  0.76444457  0.04992946  1
  S2-  S255  1  0.88679707  0.74854312  0.54337089  1
