# generated using pymatgen
data_La6Ce7Pr13Nd19Sm19(BiS2)64
_symmetry_space_group_name_H-M   'P 1'
_cell_length_a   16.13767391
_cell_length_b   16.13191852
_cell_length_c   27.13862684
_cell_angle_alpha   90.06387316
_cell_angle_beta   90.04620564
_cell_angle_gamma   90.07611170
_symmetry_Int_Tables_number   1
_chemical_formula_structural   La6Ce7Pr13Nd19Sm19(BiS2)64
_chemical_formula_sum   'La6 Ce7 Pr13 Nd19 Sm19 Bi64 S128'
_cell_volume   7065.03032250
_cell_formula_units_Z   1
loop_
 _symmetry_equiv_pos_site_id
 _symmetry_equiv_pos_as_xyz
  1  'x, y, z'
loop_
 _atom_type_symbol
 _atom_type_oxidation_number
  La3+  3.0
  Ce3+  3.0
  Pr3+  3.0
  Nd3+  3.0
  Sm3+  3.0
  Bi2+  2.0
  S2-  -2.0
loop_
 _atom_site_type_symbol
 _atom_site_label
 _atom_site_symmetry_multiplicity
 _atom_site_fract_x
 _atom_site_fract_y
 _atom_site_fract_z
 _atom_site_occupancy
  La3+  La0  1  0.74545596  0.37118576  0.11338698  1
  La3+  La1  1  0.24695707  0.87664541  0.10444001  1
  La3+  La2  1  0.74969374  0.86079356  0.58042624  1
  La3+  La3  1  0.26313714  0.12261531  0.60610593  1
  La3+  La4  1  -0.00692239  0.12803799  0.59254181  1
  La3+  La5  1  0.25548515  0.85846851  0.57172259  1
  Ce3+  Ce6  1  0.75379252  0.87479283  0.05949467  1
  Ce3+  Ce7  1  0.62613051  0.74646821  0.94280565  1
  Ce3+  Ce8  1  0.62576295  0.24458472  0.94206184  1
  Ce3+  Ce9  1  0.75191931  0.61980460  0.06067792  1
  Ce3+  Ce10  1  0.75269112  0.11742997  0.06172298  1
  Ce3+  Ce11  1  0.12806551  0.23809236  0.45526736  1
  Ce3+  Ce12  1  0.62812568  0.23911928  0.43814360  1
  Pr3+  Pr13  1  0.62859526  0.49154243  0.43445918  1
  Pr3+  Pr14  1  0.74932132  0.11738045  0.56549938  1
  Pr3+  Pr15  1  0.12170374  0.75765664  0.43031438  1
  Pr3+  Pr16  1  0.24526930  0.61862710  0.06784535  1
  Pr3+  Pr17  1  0.62641450  -0.01038497  0.44522266  1
  Pr3+  Pr18  1  0.50018334  0.62219637  0.06178288  1
  Pr3+  Pr19  1  0.36573106  0.73567404  0.41121185  1
  Pr3+  Pr20  1  0.12768389  0.49431301  0.92967762  1
  Pr3+  Pr21  1  0.12505877  0.49210862  0.44094459  1
  Pr3+  Pr22  1  0.89313109  0.22839134  0.42330166  1
  Pr3+  Pr23  1  0.24980494  0.37040031  0.06977980  1
  Pr3+  Pr24  1  0.00586959  0.86137964  0.58117373  1
  Pr3+  Pr25  1  0.49894359  0.87209312  0.05357209  1
  Nd3+  Nd26  1  0.00387871  0.11606730  0.05567011  1
  Nd3+  Nd27  1  0.25389759  0.37009736  0.56969653  1
  Nd3+  Nd28  1  0.12676036  0.73920344  0.92903102  1
  Nd3+  Nd29  1  0.87533036  0.24308993  0.93541048  1
  Nd3+  Nd30  1  0.49652051  0.86173602  0.55715673  1
  Nd3+  Nd31  1  0.49880898  0.11713543  0.05723313  1
  Nd3+  Nd32  1  0.87964725  -0.01022980  0.45083978  1
  Nd3+  Nd33  1  0.87906070  0.49268818  0.44017564  1
  Nd3+  Nd34  1  0.87178754  0.74605270  0.93567120  1
  Nd3+  Nd35  1  0.37324630  0.48976400  0.43137937  1
  Nd3+  Nd36  1  0.62388642  0.00262780  0.92785431  1
  Nd3+  Nd37  1  0.36997082  -0.00635616  0.93307357  1
  Nd3+  Nd38  1  0.62621900  0.74459890  0.43672926  1
  Nd3+  Nd39  1  0.50305636  0.36868180  0.55313175  1
  Nd3+  Nd40  1  -0.00432774  0.36901661  0.05600051  1
  Nd3+  Nd41  1  0.37354359  0.74493794  0.94111319  1
  Nd3+  Nd42  1  0.25433666  0.61609586  0.55704815  1
  Nd3+  Nd43  1  0.12095915  -0.01425743  0.92467626  1
  Nd3+  Nd44  1  0.62538854  0.49310028  0.94031126  1
  Sm3+  Sm45  1  0.37269766  0.24562487  0.94313238  1
  Sm3+  Sm46  1  0.00004661  0.36893698  0.56131599  1
  Sm3+  Sm47  1  0.50106910  0.11633205  0.55993290  1
  Sm3+  Sm48  1  0.75122904  0.61746076  0.55907780  1
  Sm3+  Sm49  1  0.87630524  0.74474127  0.44847198  1
  Sm3+  Sm50  1  0.12828418  -0.00767940  0.46504558  1
  Sm3+  Sm51  1  0.37444789  -0.00996479  0.44709206  1
  Sm3+  Sm52  1  0.87527581  -0.00525719  0.93487341  1
  Sm3+  Sm53  1  0.87097994  0.49123687  0.94233643  1
  Sm3+  Sm54  1  0.00660801  0.86777518  0.05404726  1
  Sm3+  Sm55  1  0.37352860  0.23872601  0.44741964  1
  Sm3+  Sm56  1  0.75314208  0.36711583  0.54903097  1
  Sm3+  Sm57  1  0.50113844  0.61630985  0.54807564  1
  Sm3+  Sm58  1  0.00463562  0.61854678  0.55901149  1
  Sm3+  Sm59  1  0.37551327  0.49413955  0.94828616  1
  Sm3+  Sm60  1  0.24921056  0.11700929  0.05084608  1
  Sm3+  Sm61  1  0.50531552  0.36893793  0.05903387  1
  Sm3+  Sm62  1  0.12561068  0.24431665  0.94294985  1
  Sm3+  Sm63  1  0.00085073  0.62117215  0.04790590  1
  Bi2+  Bi64  1  0.01401087  0.09655403  0.29998021  1
  Bi2+  Bi65  1  0.00443071  0.13072150  0.80077937  1
  Bi2+  Bi66  1  0.02432417  0.36498653  0.30229537  1
  Bi2+  Bi67  1  -0.02282912  0.39788815  0.79068845  1
  Bi2+  Bi68  1  -0.01587614  0.61763898  0.29114745  1
  Bi2+  Bi69  1  0.02331371  0.59003486  0.77473057  1
  Bi2+  Bi70  1  0.00177482  0.89686229  0.29154711  1
  Bi2+  Bi71  1  -0.02730124  0.84583990  0.78703776  1
  Bi2+  Bi72  1  0.21039720  0.14585420  0.26943549  1
  Bi2+  Bi73  1  0.25971380  0.15774501  0.80549748  1
  Bi2+  Bi74  1  0.26858718  0.35076098  0.29815119  1
  Bi2+  Bi75  1  0.24244081  0.42457976  0.78725446  1
  Bi2+  Bi76  1  0.24504134  0.59463456  0.28328839  1
  Bi2+  Bi77  1  0.27474268  0.62756727  0.78823518  1
  Bi2+  Bi78  1  0.24821624  0.88817708  0.30806370  1
  Bi2+  Bi79  1  0.26870656  0.88294204  0.81040697  1
  Bi2+  Bi80  1  0.42539383  0.11774886  0.28663550  1
  Bi2+  Bi81  1  0.51132888  0.16820607  0.76728453  1
  Bi2+  Bi82  1  0.46379584  0.35266048  0.26790250  1
  Bi2+  Bi83  1  0.54487299  0.38839853  0.79647427  1
  Bi2+  Bi84  1  0.51965654  0.61897899  0.28672553  1
  Bi2+  Bi85  1  0.46348899  0.56291044  0.76683885  1
  Bi2+  Bi86  1  0.53110454  0.89205851  0.29612011  1
  Bi2+  Bi87  1  0.53009350  0.83417469  0.77060962  1
  Bi2+  Bi88  1  0.73255398  0.07577845  0.27131868  1
  Bi2+  Bi89  1  0.73230341  0.12061390  0.79075849  1
  Bi2+  Bi90  1  0.74474257  0.39293834  0.31412311  1
  Bi2+  Bi91  1  0.74468639  0.38648885  0.78831360  1
  Bi2+  Bi92  1  0.79677693  0.65432212  0.26482694  1
  Bi2+  Bi93  1  0.74651786  0.58379792  0.78148403  1
  Bi2+  Bi94  1  0.78152459  0.89593735  0.30535750  1
  Bi2+  Bi95  1  0.72472218  0.84489049  0.78203696  1
  Bi2+  Bi96  1  0.10141207  0.02989396  0.20277885  1
  Bi2+  Bi97  1  0.12528899  -0.02889398  0.72021082  1
  Bi2+  Bi98  1  0.12810782  0.29819226  0.21027686  1
  Bi2+  Bi99  1  0.11755151  0.32819324  0.71788847  1
  Bi2+  Bi100  1  0.09552391  0.50476844  0.21499024  1
  Bi2+  Bi101  1  0.11154970  0.51197791  0.67173171  1
  Bi2+  Bi102  1  0.02811945  0.75530663  0.21165758  1
  Bi2+  Bi103  1  0.14008251  0.70709039  0.71457024  1
  Bi2+  Bi104  1  0.39102225  0.01428843  0.19520170  1
  Bi2+  Bi105  1  0.38683018  0.00524515  0.71450116  1
  Bi2+  Bi106  1  0.32316946  0.28313076  0.18839772  1
  Bi2+  Bi107  1  0.38050351  0.32960442  0.72389246  1
  Bi2+  Bi108  1  0.35066585  0.47989591  0.21127202  1
  Bi2+  Bi109  1  0.31167369  0.50463031  0.68377953  1
  Bi2+  Bi110  1  0.38252680  0.74687001  0.20852171  1
  Bi2+  Bi111  1  0.39087840  0.77007280  0.69752194  1
  Bi2+  Bi112  1  0.60734634  -0.02737495  0.19715984  1
  Bi2+  Bi113  1  0.62978204  0.07117128  0.69526023  1
  Bi2+  Bi114  1  0.58838492  0.20191819  0.24746719  1
  Bi2+  Bi115  1  0.64564438  0.26669311  0.70587688  1
  Bi2+  Bi116  1  0.59676704  0.50657924  0.20583859  1
  Bi2+  Bi117  1  0.61859732  0.48031515  0.69663083  1
  Bi2+  Bi118  1  0.66064165  0.78409356  0.22622576  1
  Bi2+  Bi119  1  0.61150771  0.68158817  0.71316503  1
  Bi2+  Bi120  1  0.86974878  -0.03136125  0.21014778  1
  Bi2+  Bi121  1  0.86502531  0.01523898  0.71564932  1
  Bi2+  Bi122  1  0.88148387  0.23931952  0.20895662  1
  Bi2+  Bi123  1  0.86282445  0.28185834  0.71319129  1
  Bi2+  Bi124  1  0.89434287  0.51055154  0.20812629  1
  Bi2+  Bi125  1  0.89927849  0.48070982  0.69231651  1
  Bi2+  Bi126  1  0.83851435  0.77918396  0.17571758  1
  Bi2+  Bi127  1  0.87466470  0.66767685  0.70609239  1
  S2-  S128  1  -0.00859975  0.13248572  0.15507945  1
  S2-  S129  1  0.03271335  0.09782863  0.69535492  1
  S2-  S130  1  -0.07888098  0.36956752  0.14596059  1
  S2-  S131  1  -0.00377608  0.28692792  0.64714601  1
  S2-  S132  1  0.01400160  0.61682485  0.14599578  1
  S2-  S133  1  0.01349734  0.71196810  0.64196015  1
  S2-  S134  1  0.08256030  0.88101242  0.14209390  1
  S2-  S135  1  -0.03005647  0.90100137  0.68145152  1
  S2-  S136  1  0.25002390  0.05057787  0.14074693  1
  S2-  S137  1  0.24161086  0.09624198  0.70902630  1
  S2-  S138  1  0.22359587  0.49287939  0.14040445  1
  S2-  S139  1  0.25693136  0.28251606  0.65610029  1
  S2-  S140  1  0.25708135  0.71736285  0.15087817  1
  S2-  S141  1  0.25773506  0.71617065  0.63856805  1
  S2-  S142  1  0.27870404  0.88407501  0.21271063  1
  S2-  S143  1  0.26311690  0.91492411  0.66953097  1
  S2-  S144  1  0.52569659  0.11972804  0.15624448  1
  S2-  S145  1  0.42733553  0.12471394  0.64841650  1
  S2-  S146  1  0.57602871  0.37375002  0.14879546  1
  S2-  S147  1  0.48736495  0.40106835  0.65012833  1
  S2-  S148  1  0.49496840  0.62854647  0.16340578  1
  S2-  S149  1  0.48387007  0.66209764  0.64225314  1
  S2-  S150  1  0.46536936  0.86845654  0.15278678  1
  S2-  S151  1  0.48958611  0.89000315  0.65659216  1
  S2-  S152  1  0.76080051  0.20500315  0.14779645  1
  S2-  S153  1  0.83824550  0.14047260  0.65057505  1
  S2-  S154  1  0.76046769  0.36280213  0.22271740  1
  S2-  S155  1  0.75625752  0.38174351  0.64676052  1
  S2-  S156  1  0.74194915  0.54300546  0.14889944  1
  S2-  S157  1  0.74325676  0.71268048  0.64160417  1
  S2-  S158  1  0.74570786  0.98831678  0.13399497  1
  S2-  S159  1  0.73388177  0.93163363  0.67396624  1
  S2-  S160  1  0.11412493  -0.07940356  0.37464179  1
  S2-  S161  1  0.14794170  0.02852311  0.82811718  1
  S2-  S162  1  0.06289951  0.22941719  0.36476376  1
  S2-  S163  1  0.12207649  0.23927433  0.84479171  1
  S2-  S164  1  0.15513506  0.47301094  0.34279256  1
  S2-  S165  1  0.13675519  0.61226974  0.85574831  1
  S2-  S166  1  0.21407508  0.72744774  0.34594922  1
  S2-  S167  1  0.10472515  0.83281971  0.84402167  1
  S2-  S168  1  0.35874362  0.00028653  0.34905917  1
  S2-  S169  1  0.37889487  0.00192129  0.83193287  1
  S2-  S170  1  0.38653433  0.25631732  0.34998919  1
  S2-  S171  1  0.36722946  0.25517849  0.84529599  1
  S2-  S172  1  0.37930092  0.58454054  0.34722966  1
  S2-  S173  1  0.36206602  0.50513255  0.85065878  1
  S2-  S174  1  0.39955684  0.79935054  0.31524568  1
  S2-  S175  1  0.36174160  0.76174888  0.84058279  1
  S2-  S176  1  0.62728476  0.01253377  0.34580556  1
  S2-  S177  1  0.67490384  -0.02837131  0.83328740  1
  S2-  S178  1  0.63964668  0.25975217  0.34099904  1
  S2-  S179  1  0.61122093  0.17293977  0.85275218  1
  S2-  S180  1  0.61191005  0.51314259  0.33410612  1
  S2-  S181  1  0.60987528  0.52984816  0.84316639  1
  S2-  S182  1  0.60770909  0.74821780  0.33775854  1
  S2-  S183  1  0.61528716  0.75666137  0.84484731  1
  S2-  S184  1  0.88841560  0.07845062  0.36497952  1
  S2-  S185  1  0.92355900  -0.00946941  0.83895310  1
  S2-  S186  1  0.87606006  0.29788045  0.32887555  1
  S2-  S187  1  0.87430222  0.20672601  0.83675171  1
  S2-  S188  1  0.85641252  0.52577143  0.34353148  1
  S2-  S189  1  0.86388688  0.49933189  0.84393511  1
  S2-  S190  1  0.89509846  0.80942785  0.35863777  1
  S2-  S191  1  0.85820799  0.76095406  0.83641805  1
  S2-  S192  1  0.00606864  0.11168606  0.47473511  1
  S2-  S193  1  0.00292178  0.11831424  0.94817835  1
  S2-  S194  1  0.00057660  0.36699772  0.45679210  1
  S2-  S195  1  0.00033163  0.36981087  0.94817369  1
  S2-  S196  1  0.00137138  0.62174098  0.45189174  1
  S2-  S197  1  -0.00723796  0.61684638  0.94435797  1
  S2-  S198  1  -0.00148480  0.86877979  0.47306084  1
  S2-  S199  1  -0.00383541  0.86781053  0.94988077  1
  S2-  S200  1  0.25180990  0.11376963  0.45385922  1
  S2-  S201  1  0.24763211  0.12085806  0.94700926  1
  S2-  S202  1  0.25247331  0.36595124  0.45846347  1
  S2-  S203  1  0.24997564  0.36953766  0.95696936  1
  S2-  S204  1  0.24927720  0.61527258  0.45182664  1
  S2-  S205  1  0.25487695  0.61615665  0.95879019  1
  S2-  S206  1  0.25538922  0.86737583  0.46157890  1
  S2-  S207  1  0.24852153  0.86755096  0.94298815  1
  S2-  S208  1  0.49861362  0.11668773  0.45380792  1
  S2-  S209  1  0.49271705  0.11997152  0.95050517  1
  S2-  S210  1  0.49999489  0.36610825  0.44645113  1
  S2-  S211  1  0.49789988  0.36884029  0.95262187  1
  S2-  S212  1  0.50309720  0.61719835  0.44510684  1
  S2-  S213  1  0.49900593  0.61945809  0.95360845  1
  S2-  S214  1  0.49765637  0.86498870  0.44868636  1
  S2-  S215  1  0.49981652  0.87299430  0.94550924  1
  S2-  S216  1  0.75031682  0.11625323  0.45820028  1
  S2-  S217  1  0.75326832  0.11741054  0.95136967  1
  S2-  S218  1  0.75599863  0.36528391  0.44540334  1
  S2-  S219  1  0.74989502  0.36773386  0.94162075  1
  S2-  S220  1  0.75301819  0.62056162  0.45309218  1
  S2-  S221  1  0.75010997  0.61813760  0.95182290  1
  S2-  S222  1  0.75181373  0.86585896  0.46363836  1
  S2-  S223  1  0.75021868  0.87445194  0.95050999  1
  S2-  S224  1  0.12784034  -0.00679847  0.03479706  1
  S2-  S225  1  0.12976929  -0.00351142  0.56998152  1
  S2-  S226  1  0.12649928  0.24503389  0.04919376  1
  S2-  S227  1  0.13105290  0.24265312  0.55790144  1
  S2-  S228  1  0.11855518  0.49303469  0.03650060  1
  S2-  S229  1  0.12633540  0.49136360  0.54722268  1
  S2-  S230  1  0.12392448  0.74330069  0.03717793  1
  S2-  S231  1  0.12709897  0.73932402  0.53887912  1
  S2-  S232  1  0.37085470  -0.00691882  0.04056901  1
  S2-  S233  1  0.37560238  -0.00621057  0.55163748  1
  S2-  S234  1  0.37525527  0.24435310  0.04894967  1
  S2-  S235  1  0.37828732  0.24392845  0.55005473  1
  S2-  S236  1  0.38035806  0.49145593  0.05283018  1
  S2-  S237  1  0.37786496  0.49193565  0.53872153  1
  S2-  S238  1  0.37335551  0.74755312  0.04658930  1
  S2-  S239  1  0.37936377  0.73691798  0.53313802  1
  S2-  S240  1  0.62229289  -0.00398688  0.03595089  1
  S2-  S241  1  0.62242379  -0.01002383  0.55221872  1
  S2-  S242  1  0.62377325  0.24267420  0.04607452  1
  S2-  S243  1  0.62565548  0.24316619  0.54762762  1
  S2-  S244  1  0.62478795  0.49502231  0.04530449  1
  S2-  S245  1  0.62893274  0.49401237  0.54228111  1
  S2-  S246  1  0.62745252  0.74770748  0.05138362  1
  S2-  S247  1  0.62345784  0.74050744  0.54251909  1
  S2-  S248  1  0.88388573  -0.00853667  0.04043142  1
  S2-  S249  1  0.87542513  -0.01191078  0.55883375  1
  S2-  S250  1  0.87935678  0.24013431  0.04047614  1
  S2-  S251  1  0.87398092  0.24785605  0.54044056  1
  S2-  S252  1  0.87615967  0.49694983  0.04530805  1
  S2-  S253  1  0.87728119  0.49497516  0.54715892  1
  S2-  S254  1  0.87830527  0.74625962  0.04227355  1
  S2-  S255  1  0.87749446  0.73929457  0.54945820  1
