# generated using pymatgen
data_La6Ce7Pr13Nd19Sm19(BiS2)64
_symmetry_space_group_name_H-M   'P 1'
_cell_length_a   16.11558971
_cell_length_b   16.08682577
_cell_length_c   27.41209772
_cell_angle_alpha   90.06822048
_cell_angle_beta   90.00578526
_cell_angle_gamma   90.07045027
_symmetry_Int_Tables_number   1
_chemical_formula_structural   La6Ce7Pr13Nd19Sm19(BiS2)64
_chemical_formula_sum   'La6 Ce7 Pr13 Nd19 Sm19 Bi64 S128'
_cell_volume   7106.53980679
_cell_formula_units_Z   1
loop_
 _symmetry_equiv_pos_site_id
 _symmetry_equiv_pos_as_xyz
  1  'x, y, z'
loop_
 _atom_type_symbol
 _atom_type_oxidation_number
  La3+  3.0
  Ce3+  3.0
  Pr3+  3.0
  Nd3+  3.0
  Sm3+  3.0
  Bi2+  2.0
  S2-  -2.0
loop_
 _atom_site_type_symbol
 _atom_site_label
 _atom_site_symmetry_multiplicity
 _atom_site_fract_x
 _atom_site_fract_y
 _atom_site_fract_z
 _atom_site_occupancy
  La3+  La0  1  0.50990231  0.85654742  0.09478503  1
  La3+  La1  1  0.36840962  0.22822548  0.91403308  1
  La3+  La2  1  0.12679045  0.73986621  0.42234988  1
  La3+  La3  1  0.63180670  0.22912888  0.91091966  1
  La3+  La4  1  0.39402327  0.25644723  0.41529373  1
  La3+  La5  1  0.23969395  0.12447851  0.11312532  1
  Ce3+  Ce6  1  0.25445031  0.36005845  0.05076711  1
  Ce3+  Ce7  1  0.88198918  0.24268710  0.44340379  1
  Ce3+  Ce8  1  0.12827646  0.49129345  0.93665684  1
  Ce3+  Ce9  1  0.00442736  0.86465783  0.05956533  1
  Ce3+  Ce10  1  0.62970155  0.49554913  0.45416154  1
  Ce3+  Ce11  1  0.50727414  0.87785282  0.56339237  1
  Ce3+  Ce12  1  0.74979505  0.86459386  0.05828185  1
  Pr3+  Pr13  1  0.88142464  0.49628641  0.44039386  1
  Pr3+  Pr14  1  0.75860605  0.13011785  0.58801818  1
  Pr3+  Pr15  1  0.74571345  0.12410463  0.07107947  1
  Pr3+  Pr16  1  0.00244076  0.61196379  0.05973500  1
  Pr3+  Pr17  1  0.00096607  0.11740354  0.06195340  1
  Pr3+  Pr18  1  0.38195013  0.74798614  0.43486476  1
  Pr3+  Pr19  1  0.01093701  0.62418033  0.56969049  1
  Pr3+  Pr20  1  0.24514175  0.86116436  0.08446759  1
  Pr3+  Pr21  1  0.50832414  0.62391023  0.56627959  1
  Pr3+  Pr22  1  0.13367691  0.24466584  0.44140597  1
  Pr3+  Pr23  1  0.62486797  0.73978223  0.92910426  1
  Pr3+  Pr24  1  0.87875447  0.23485303  0.93145344  1
  Pr3+  Pr25  1  0.49601555  0.11532325  0.06426338  1
  Nd3+  Nd26  1  0.63542189  0.00069929  0.43825858  1
  Nd3+  Nd27  1  0.13370108  0.49296630  0.44703647  1
  Nd3+  Nd28  1  0.76051485  0.62198706  0.56109761  1
  Nd3+  Nd29  1  0.37728855  0.74197793  0.94308080  1
  Nd3+  Nd30  1  0.12705779  0.73411463  0.93112216  1
  Nd3+  Nd31  1  0.49970854  0.35876960  0.04808570  1
  Nd3+  Nd32  1  0.88192162  -0.00119890  0.43450226  1
  Nd3+  Nd33  1  0.37536064  -0.00885672  0.95249773  1
  Nd3+  Nd34  1  0.39201512  -0.00890456  0.41654994  1
  Nd3+  Nd35  1  0.63198313  0.24433148  0.44945152  1
  Nd3+  Nd36  1  0.63193141  0.74796357  0.44348419  1
  Nd3+  Nd37  1  0.01022354  0.86816797  0.55994996  1
  Nd3+  Nd38  1  0.62531835  -0.01155049  0.94047454  1
  Nd3+  Nd39  1  0.75984751  0.87622203  0.55790144  1
  Nd3+  Nd40  1  0.25867394  0.36652112  0.56771035  1
  Nd3+  Nd41  1  0.38473812  0.49415910  0.44967976  1
  Nd3+  Nd42  1  0.88526550  0.74619381  0.43761452  1
  Nd3+  Nd43  1  0.87655782  -0.01111700  0.94716580  1
  Nd3+  Nd44  1  0.26296106  0.12057181  0.55122922  1
  Sm3+  Sm45  1  0.13039192  -0.01325223  0.94910007  1
  Sm3+  Sm46  1  0.37807179  0.48767802  0.93859005  1
  Sm3+  Sm47  1  0.74901501  0.36205361  0.04785296  1
  Sm3+  Sm48  1  0.25821337  0.87230851  0.54854221  1
  Sm3+  Sm49  1  0.00515665  0.11243921  0.56849458  1
  Sm3+  Sm50  1  0.13552785  -0.00119498  0.43861387  1
  Sm3+  Sm51  1  0.00943376  0.36998297  0.55850810  1
  Sm3+  Sm52  1  0.25868490  0.62391753  0.55622843  1
  Sm3+  Sm53  1  0.12656693  0.23339614  0.93658967  1
  Sm3+  Sm54  1  0.50515292  0.36075192  0.58152127  1
  Sm3+  Sm55  1  0.62396333  0.48610239  0.93886306  1
  Sm3+  Sm56  1  0.50386136  0.61633354  0.05535019  1
  Sm3+  Sm57  1  0.50439068  0.11705678  0.56406039  1
  Sm3+  Sm58  1  0.87604657  0.48910258  0.93842439  1
  Sm3+  Sm59  1  0.00298650  0.36469574  0.04836859  1
  Sm3+  Sm60  1  0.75871054  0.37012412  0.56065393  1
  Sm3+  Sm61  1  0.75006996  0.61288450  0.04903563  1
  Sm3+  Sm62  1  0.87609790  0.73918974  0.94776693  1
  Sm3+  Sm63  1  0.25338257  0.61830282  0.05966675  1
  Bi2+  Bi64  1  -0.05201456  0.11301616  0.29476511  1
  Bi2+  Bi65  1  -0.00747625  0.06428030  0.79081291  1
  Bi2+  Bi66  1  -0.07317006  0.36605479  0.23633206  1
  Bi2+  Bi67  1  -0.00797006  0.25583850  0.81689381  1
  Bi2+  Bi68  1  -0.00662327  0.59763042  0.29024403  1
  Bi2+  Bi69  1  0.01102642  0.59434604  0.78358084  1
  Bi2+  Bi70  1  -0.05166912  0.88412511  0.30467229  1
  Bi2+  Bi71  1  0.00832719  0.83165996  0.77870400  1
  Bi2+  Bi72  1  0.19411231  0.13047762  0.31335578  1
  Bi2+  Bi73  1  0.24092289  0.11000613  0.79958964  1
  Bi2+  Bi74  1  0.21485168  0.40980464  0.30049962  1
  Bi2+  Bi75  1  0.13642484  0.38136078  0.78669200  1
  Bi2+  Bi76  1  0.26561554  0.62063713  0.30547080  1
  Bi2+  Bi77  1  0.25278818  0.66174217  0.79416360  1
  Bi2+  Bi78  1  0.25166652  0.86223963  0.25447477  1
  Bi2+  Bi79  1  0.23696994  0.90645709  0.78084674  1
  Bi2+  Bi80  1  0.51353776  0.16045397  0.29352544  1
  Bi2+  Bi81  1  0.49107366  0.13380480  0.79578578  1
  Bi2+  Bi82  1  0.49712694  0.43171793  0.29927735  1
  Bi2+  Bi83  1  0.49193378  0.41144842  0.78903727  1
  Bi2+  Bi84  1  0.46270782  0.62597168  0.30336286  1
  Bi2+  Bi85  1  0.54776005  0.68408003  0.80433104  1
  Bi2+  Bi86  1  0.52904995  0.87957996  0.29346161  1
  Bi2+  Bi87  1  0.48905492  0.86938620  0.78044649  1
  Bi2+  Bi88  1  0.75086403  0.12893062  0.28717361  1
  Bi2+  Bi89  1  0.74788987  0.11421815  0.78965806  1
  Bi2+  Bi90  1  0.73506763  0.39527525  0.24856209  1
  Bi2+  Bi91  1  0.81365806  0.43431831  0.75469508  1
  Bi2+  Bi92  1  0.75311030  0.57750653  0.29956541  1
  Bi2+  Bi93  1  0.81342122  0.62955811  0.79831329  1
  Bi2+  Bi94  1  0.75511350  0.85868809  0.30390683  1
  Bi2+  Bi95  1  0.81639254  0.87713990  0.78350808  1
  Bi2+  Bi96  1  0.03553356  -0.02251670  0.21964807  1
  Bi2+  Bi97  1  0.13332626  0.02249705  0.70861156  1
  Bi2+  Bi98  1  0.10177391  0.26770092  0.20522784  1
  Bi2+  Bi99  1  0.10883295  0.21914803  0.72002135  1
  Bi2+  Bi100  1  0.16517408  0.52338165  0.21381470  1
  Bi2+  Bi101  1  0.07058140  0.49784913  0.69420713  1
  Bi2+  Bi102  1  0.12828164  0.73226812  0.21426197  1
  Bi2+  Bi103  1  0.16937599  0.75317496  0.69997858  1
  Bi2+  Bi104  1  0.37520316  0.03017636  0.22962018  1
  Bi2+  Bi105  1  0.36013398  -0.01171375  0.70299456  1
  Bi2+  Bi106  1  0.36843982  0.27523947  0.21032140  1
  Bi2+  Bi107  1  0.35897911  0.24831144  0.70751830  1
  Bi2+  Bi108  1  0.36126271  0.51522928  0.21597819  1
  Bi2+  Bi109  1  0.28009208  0.49000348  0.74705026  1
  Bi2+  Bi110  1  0.38311675  0.72486308  0.21621847  1
  Bi2+  Bi111  1  0.39927546  0.73795308  0.70987435  1
  Bi2+  Bi112  1  0.64739931  0.00471539  0.21455191  1
  Bi2+  Bi113  1  0.61916780  -0.03895711  0.71198848  1
  Bi2+  Bi114  1  0.61798081  0.26613022  0.19575687  1
  Bi2+  Bi115  1  0.62185327  0.27130322  0.70555813  1
  Bi2+  Bi116  1  0.60421656  0.53348154  0.21887103  1
  Bi2+  Bi117  1  0.65571097  0.55151477  0.74612609  1
  Bi2+  Bi118  1  0.65300429  0.72254786  0.20445052  1
  Bi2+  Bi119  1  0.59293118  0.74299890  0.69267975  1
  Bi2+  Bi120  1  0.84298134  -0.02164130  0.20191030  1
  Bi2+  Bi121  1  0.88030530  -0.00943963  0.69856170  1
  Bi2+  Bi122  1  0.86512307  0.17572491  0.19347413  1
  Bi2+  Bi123  1  0.89750444  0.26953549  0.71587225  1
  Bi2+  Bi124  1  0.88014773  0.54565932  0.19261453  1
  Bi2+  Bi125  1  0.88318378  0.53591034  0.66565405  1
  Bi2+  Bi126  1  0.85306381  0.73064713  0.23497856  1
  Bi2+  Bi127  1  0.89555136  0.72399850  0.70440344  1
  S2-  S128  1  0.07289232  0.12373410  0.15324610  1
  S2-  S129  1  -0.09762441  0.13521410  0.64733705  1
  S2-  S130  1  0.00747289  0.36550492  0.14564805  1
  S2-  S131  1  0.02779671  0.33769331  0.65415564  1
  S2-  S132  1  0.03877457  0.61234992  0.15698414  1
  S2-  S133  1  0.02406275  0.75393081  0.63733945  1
  S2-  S134  1  0.07497582  0.85553387  0.14705760  1
  S2-  S135  1  0.01833295  0.97531113  0.63849534  1
  S2-  S136  1  0.23582865  0.15676903  0.22229542  1
  S2-  S137  1  0.28647110  0.12194280  0.65002481  1
  S2-  S138  1  0.24276298  0.30267298  0.14244255  1
  S2-  S139  1  0.30455502  0.37947851  0.66319143  1
  S2-  S140  1  0.25548364  0.71431830  0.14241965  1
  S2-  S141  1  0.24387076  0.63176980  0.65293601  1
  S2-  S142  1  0.26337816  0.96692375  0.16499195  1
  S2-  S143  1  0.26373315  0.87460145  0.64633217  1
  S2-  S144  1  0.40398862  0.14444651  0.15265971  1
  S2-  S145  1  0.49297170  0.21865830  0.64544656  1
  S2-  S146  1  0.49341383  0.34633310  0.14867730  1
  S2-  S147  1  0.54962079  0.40494173  0.67558504  1
  S2-  S148  1  0.50884619  0.69779219  0.14241369  1
  S2-  S149  1  0.48096142  0.61404176  0.66496751  1
  S2-  S150  1  0.48710848  0.92900598  0.19108835  1
  S2-  S151  1  0.49418642  0.98983557  0.63870128  1
  S2-  S152  1  0.61811315  0.11621917  0.14207249  1
  S2-  S153  1  0.68375386  0.10242167  0.68400951  1
  S2-  S154  1  0.75683992  0.27912405  0.13300590  1
  S2-  S155  1  0.75940846  0.29694917  0.64821418  1
  S2-  S156  1  0.73029241  0.59242803  0.14479541  1
  S2-  S157  1  0.74051283  0.66174626  0.65629010  1
  S2-  S158  1  0.67235493  0.85333442  0.14477269  1
  S2-  S159  1  0.75190930  0.89434485  0.65565746  1
  S2-  S160  1  0.07350726  0.00773460  0.34762274  1
  S2-  S161  1  0.12035885  0.02889584  0.85375417  1
  S2-  S162  1  0.12486351  0.29109888  0.34400352  1
  S2-  S163  1  0.21460980  0.24475278  0.85307502  1
  S2-  S164  1  0.11881938  0.54467373  0.35364453  1
  S2-  S165  1  0.12655868  0.59585944  0.85900398  1
  S2-  S166  1  0.21242596  0.77520893  0.33618158  1
  S2-  S167  1  0.13889304  0.81095543  0.84183580  1
  S2-  S168  1  0.29815931  0.01072544  0.32907073  1
  S2-  S169  1  0.38694706  0.06569491  0.85917447  1
  S2-  S170  1  0.36011514  0.21373890  0.31592296  1
  S2-  S171  1  0.39898283  0.27462956  0.81169326  1
  S2-  S172  1  0.36473888  0.41437552  0.36210160  1
  S2-  S173  1  0.36986466  0.49182524  0.84082971  1
  S2-  S174  1  0.41573671  0.84347781  0.35454327  1
  S2-  S175  1  0.37708016  0.72990056  0.84422640  1
  S2-  S176  1  0.53326950  0.01554985  0.35456752  1
  S2-  S177  1  0.62581101  0.07247864  0.85242352  1
  S2-  S178  1  0.55428526  0.26787515  0.36127624  1
  S2-  S179  1  0.59353715  0.27609711  0.81166820  1
  S2-  S180  1  0.63623766  0.49283134  0.35742619  1
  S2-  S181  1  0.61714296  0.48971031  0.84211468  1
  S2-  S182  1  0.62975723  0.76244413  0.34457333  1
  S2-  S183  1  0.63267030  0.82321122  0.84087111  1
  S2-  S184  1  0.75667093  0.00744385  0.36337372  1
  S2-  S185  1  0.84683717  0.01018031  0.85026813  1
  S2-  S186  1  0.85785749  0.23459112  0.34783562  1
  S2-  S187  1  0.78172257  0.23309401  0.84892172  1
  S2-  S188  1  0.89236305  0.49453083  0.34109787  1
  S2-  S189  1  0.89993499  0.48761763  0.84209867  1
  S2-  S190  1  0.98738146  0.73495368  0.35714284  1
  S2-  S191  1  0.89251065  0.76264951  0.85242842  1
  S2-  S192  1  0.00781910  0.11921715  0.45794666  1
  S2-  S193  1  0.00348095  0.11144505  0.95507209  1
  S2-  S194  1  0.00706656  0.37101562  0.45357320  1
  S2-  S195  1  0.00329755  0.36635838  0.94478109  1
  S2-  S196  1  0.00695053  0.61696843  0.46297079  1
  S2-  S197  1  -0.00399632  0.61353929  0.95434867  1
  S2-  S198  1  0.00843689  0.87651787  0.45400655  1
  S2-  S199  1  0.00208566  0.86274527  0.95401903  1
  S2-  S200  1  0.26366265  0.12321420  0.44537952  1
  S2-  S201  1  0.24673456  0.11171303  0.95562122  1
  S2-  S202  1  0.25716197  0.36868386  0.46151431  1
  S2-  S203  1  0.25207583  0.36707838  0.94692007  1
  S2-  S204  1  0.25984382  0.61902261  0.45174396  1
  S2-  S205  1  0.25757700  0.61296500  0.95630088  1
  S2-  S206  1  0.25618502  0.87474399  0.44607237  1
  S2-  S207  1  0.25139618  0.86356514  0.95496577  1
  S2-  S208  1  0.50448190  0.12367952  0.45916228  1
  S2-  S209  1  0.50358486  0.11552540  0.95655752  1
  S2-  S210  1  0.50825753  0.37272566  0.47043911  1
  S2-  S211  1  0.49999164  0.36122649  0.94142987  1
  S2-  S212  1  0.50612955  0.62341072  0.45798527  1
  S2-  S213  1  0.50126497  0.61201336  0.95065036  1
  S2-  S214  1  0.51258863  0.87232112  0.45961660  1
  S2-  S215  1  0.50005264  0.86621046  0.94523080  1
  S2-  S216  1  0.75819069  0.12530874  0.46513200  1
  S2-  S217  1  0.75331387  0.11241252  0.96172035  1
  S2-  S218  1  0.75652917  0.37037623  0.45612468  1
  S2-  S219  1  0.75088638  0.36746502  0.94481177  1
  S2-  S220  1  0.75826778  0.62348430  0.45414066  1
  S2-  S221  1  0.75123389  0.61206046  0.94487093  1
  S2-  S222  1  0.76064729  0.86823549  0.45393821  1
  S2-  S223  1  0.75310549  0.86300230  0.95273896  1
  S2-  S224  1  0.12921412  -0.00755839  0.05174689  1
  S2-  S225  1  0.13700002  -0.00227316  0.54173208  1
  S2-  S226  1  0.12454066  0.24135617  0.04080472  1
  S2-  S227  1  0.13082846  0.24201749  0.54906771  1
  S2-  S228  1  0.13063955  0.48955175  0.04443887  1
  S2-  S229  1  0.13523190  0.49565628  0.55273013  1
  S2-  S230  1  0.12689569  0.73642018  0.03912993  1
  S2-  S231  1  0.13880020  0.74584881  0.53426077  1
  S2-  S232  1  0.38373540  -0.02530942  0.05581098  1
  S2-  S233  1  0.38059698  -0.00505502  0.53507767  1
  S2-  S234  1  0.37500747  0.24003285  0.03536552  1
  S2-  S235  1  0.38212574  0.24839876  0.54492842  1
  S2-  S236  1  0.37831557  0.49322079  0.04588076  1
  S2-  S237  1  0.38185347  0.49583547  0.55569302  1
  S2-  S238  1  0.38084671  0.74066323  0.04638391  1
  S2-  S239  1  0.38230891  0.74788671  0.54466612  1
  S2-  S240  1  0.62256283  -0.01624716  0.04522397  1
  S2-  S241  1  0.63709522  0.00236903  0.54672511  1
  S2-  S242  1  0.62573053  0.24277828  0.03306399  1
  S2-  S243  1  0.63193514  0.24666910  0.55282335  1
  S2-  S244  1  0.62529070  0.48818952  0.04363417  1
  S2-  S245  1  0.63411878  0.49451036  0.56006774  1
  S2-  S246  1  0.62780534  0.73647304  0.03657208  1
  S2-  S247  1  0.63398655  0.74927313  0.54913717  1
  S2-  S248  1  0.87604424  -0.00889927  0.05382163  1
  S2-  S249  1  0.88050370  -0.00149626  0.54138109  1
  S2-  S250  1  0.87959980  0.24292432  0.03750370  1
  S2-  S251  1  0.88581032  0.24965560  0.54709094  1
  S2-  S252  1  0.87394022  0.48635409  0.04323790  1
  S2-  S253  1  0.88386612  0.49273321  0.54673745  1
  S2-  S254  1  0.87505676  0.73701853  0.05302558  1
  S2-  S255  1  0.88108235  0.74710455  0.54334955  1
