# generated using pymatgen
data_La6Ce7Pr13Nd19Sm19(BiS2)64
_symmetry_space_group_name_H-M   'P 1'
_cell_length_a   16.08006976
_cell_length_b   16.08642883
_cell_length_c   27.38170585
_cell_angle_alpha   89.79730656
_cell_angle_beta   90.23225626
_cell_angle_gamma   89.95019779
_symmetry_Int_Tables_number   1
_chemical_formula_structural   La6Ce7Pr13Nd19Sm19(BiS2)64
_chemical_formula_sum   'La6 Ce7 Pr13 Nd19 Sm19 Bi64 S128'
_cell_volume   7082.74515455
_cell_formula_units_Z   1
loop_
 _symmetry_equiv_pos_site_id
 _symmetry_equiv_pos_as_xyz
  1  'x, y, z'
loop_
 _atom_type_symbol
 _atom_type_oxidation_number
  La3+  3.0
  Ce3+  3.0
  Pr3+  3.0
  Nd3+  3.0
  Sm3+  3.0
  Bi2+  2.0
  S2-  -2.0
loop_
 _atom_site_type_symbol
 _atom_site_label
 _atom_site_symmetry_multiplicity
 _atom_site_fract_x
 _atom_site_fract_y
 _atom_site_fract_z
 _atom_site_occupancy
  La3+  La0  1  0.36626823  0.51174908  0.93292465  1
  La3+  La1  1  -0.00723665  0.63345058  0.12028706  1
  La3+  La2  1  0.37901688  0.25158956  0.38094079  1
  La3+  La3  1  0.74656616  0.38165290  0.07954609  1
  La3+  La4  1  0.12466466  -0.01916860  0.88883697  1
  La3+  La5  1  0.62758583  0.49929418  0.89404327  1
  Ce3+  Ce6  1  0.24850734  0.12302202  0.56118887  1
  Ce3+  Ce7  1  0.74467405  0.13129957  0.07142234  1
  Ce3+  Ce8  1  0.74866475  0.87244863  0.56065222  1
  Ce3+  Ce9  1  0.12153710  -0.00338578  0.45254579  1
  Ce3+  Ce10  1  -0.00060010  0.37952673  0.06820836  1
  Ce3+  Ce11  1  0.87014169  0.25023009  0.43652871  1
  Ce3+  Ce12  1  -0.00563930  0.13487012  0.06235748  1
  Pr3+  Pr13  1  -0.00612692  0.88312515  0.06439412  1
  Pr3+  Pr14  1  0.86465482  0.26161086  0.94336670  1
  Pr3+  Pr15  1  0.25410851  0.87511628  0.57011478  1
  Pr3+  Pr16  1  -0.00178415  0.37411133  0.54623110  1
  Pr3+  Pr17  1  0.62176135  0.74885692  0.43979582  1
  Pr3+  Pr18  1  0.73937358  0.12675455  0.56792931  1
  Pr3+  Pr19  1  0.62227704  0.01070492  0.93041867  1
  Pr3+  Pr20  1  0.37307154  0.50178867  0.43086203  1
  Pr3+  Pr21  1  0.48981745  0.38931708  0.07894402  1
  Pr3+  Pr22  1  -0.00711099  0.61701339  0.56505207  1
  Pr3+  Pr23  1  0.87359303  0.75714669  0.93650593  1
  Pr3+  Pr24  1  0.24222641  0.38294570  0.05867410  1
  Pr3+  Pr25  1  0.61692475  0.75199359  0.93310948  1
  Nd3+  Nd26  1  0.86893969  0.01161955  0.93451275  1
  Nd3+  Nd27  1  -0.01445116  0.86401163  0.57715715  1
  Nd3+  Nd28  1  0.74974139  0.63137673  0.05916857  1
  Nd3+  Nd29  1  0.74700486  0.88071451  0.05308164  1
  Nd3+  Nd30  1  0.62988750  0.25046547  0.42715542  1
  Nd3+  Nd31  1  0.37314692  0.26084958  0.94521594  1
  Nd3+  Nd32  1  0.74986290  0.37690720  0.55960757  1
  Nd3+  Nd33  1  0.24306107  0.63052411  0.07100546  1
  Nd3+  Nd34  1  0.11753880  0.25074878  0.93116927  1
  Nd3+  Nd35  1  0.49834343  0.63098711  0.06305005  1
  Nd3+  Nd36  1  0.49805228  0.88194469  0.05587065  1
  Nd3+  Nd37  1  0.12691987  0.24621522  0.43578439  1
  Nd3+  Nd38  1  0.36940487  0.00140847  0.43192080  1
  Nd3+  Nd39  1  0.49618043  0.12542437  0.55274026  1
  Nd3+  Nd40  1  0.87089467  0.50753329  0.94673086  1
  Nd3+  Nd41  1  0.87185979  0.50683318  0.42225968  1
  Nd3+  Nd42  1  0.87503102  -0.00206943  0.43754980  1
  Nd3+  Nd43  1  0.49794516  0.87159041  0.55194430  1
  Nd3+  Nd44  1  0.37004273  0.74886699  0.43586823  1
  Sm3+  Sm45  1  0.36716291  0.00843560  0.94406559  1
  Sm3+  Sm46  1  0.12478962  0.50101233  0.43890031  1
  Sm3+  Sm47  1  0.49153251  0.61969919  0.56950767  1
  Sm3+  Sm48  1  0.87591680  0.75456053  0.43237923  1
  Sm3+  Sm49  1  0.12009173  0.50591399  0.94057468  1
  Sm3+  Sm50  1  0.49699228  0.12972773  0.05672952  1
  Sm3+  Sm51  1  0.61786012  0.26446741  0.95579187  1
  Sm3+  Sm52  1  0.62327735  0.00094600  0.44085372  1
  Sm3+  Sm53  1  0.74366843  0.62289916  0.55393291  1
  Sm3+  Sm54  1  0.36717073  0.75967083  0.95068134  1
  Sm3+  Sm55  1  0.12121899  0.75092603  0.45363232  1
  Sm3+  Sm56  1  0.62069332  0.49794271  0.44076597  1
  Sm3+  Sm57  1  0.11772067  0.75627781  0.95333971  1
  Sm3+  Sm58  1  0.25082129  0.37212435  0.54972067  1
  Sm3+  Sm59  1  0.49755931  0.37231715  0.55090877  1
  Sm3+  Sm60  1  0.24444416  0.88452734  0.06343167  1
  Sm3+  Sm61  1  -0.00598181  0.12189921  0.56254186  1
  Sm3+  Sm62  1  0.24469854  0.13108023  0.05628877  1
  Sm3+  Sm63  1  0.25221772  0.62038417  0.56098376  1
  Bi2+  Bi64  1  -0.03221074  0.10131569  0.31600894  1
  Bi2+  Bi65  1  -0.01578889  0.11906303  0.79214793  1
  Bi2+  Bi66  1  0.04895593  0.27347970  0.29287270  1
  Bi2+  Bi67  1  0.04418140  0.39254049  0.83393760  1
  Bi2+  Bi68  1  0.02405422  0.62468469  0.31962396  1
  Bi2+  Bi69  1  -0.01454426  0.56000429  0.77984225  1
  Bi2+  Bi70  1  0.00487695  0.89813802  0.29965205  1
  Bi2+  Bi71  1  -0.00479110  0.84539478  0.78930862  1
  Bi2+  Bi72  1  0.23995138  0.03045540  0.28387330  1
  Bi2+  Bi73  1  0.28217346  0.13616047  0.79066052  1
  Bi2+  Bi74  1  0.24233769  0.38188150  0.28585401  1
  Bi2+  Bi75  1  0.24423713  0.39927780  0.80398369  1
  Bi2+  Bi76  1  0.25759067  0.65397450  0.28881364  1
  Bi2+  Bi77  1  0.18654645  0.60925568  0.76976130  1
  Bi2+  Bi78  1  0.30422731  0.85957943  0.32899304  1
  Bi2+  Bi79  1  0.26178625  0.84939069  0.79827958  1
  Bi2+  Bi80  1  0.50821731  0.04601927  0.27749031  1
  Bi2+  Bi81  1  0.53749782  0.08331520  0.80978952  1
  Bi2+  Bi82  1  0.50374255  0.37495292  0.27807924  1
  Bi2+  Bi83  1  0.48725252  0.35630173  0.80143809  1
  Bi2+  Bi84  1  0.50811041  0.64840667  0.28967365  1
  Bi2+  Bi85  1  0.47217523  0.65639100  0.79155010  1
  Bi2+  Bi86  1  0.48364521  0.85284305  0.28527913  1
  Bi2+  Bi87  1  0.52005215  0.88443206  0.80326287  1
  Bi2+  Bi88  1  0.77756613  0.10846879  0.28769539  1
  Bi2+  Bi89  1  0.70250580  0.10404820  0.74209849  1
  Bi2+  Bi90  1  0.73477917  0.38056182  0.29625112  1
  Bi2+  Bi91  1  0.75044482  0.33927464  0.80698716  1
  Bi2+  Bi92  1  0.70617519  0.67816774  0.27365453  1
  Bi2+  Bi93  1  0.77249727  0.63344925  0.79023308  1
  Bi2+  Bi94  1  0.73696079  0.91174064  0.28858222  1
  Bi2+  Bi95  1  0.71050147  0.91599542  0.78145522  1
  Bi2+  Bi96  1  0.07460952  0.01232005  0.21422701  1
  Bi2+  Bi97  1  0.16164019  0.01653563  0.69095884  1
  Bi2+  Bi98  1  0.14264722  0.19807941  0.20352580  1
  Bi2+  Bi99  1  0.12235742  0.29032230  0.74268203  1
  Bi2+  Bi100  1  0.15909549  0.45667095  0.19077144  1
  Bi2+  Bi101  1  0.09852057  0.48958951  0.69521241  1
  Bi2+  Bi102  1  0.17700094  0.81269637  0.24311196  1
  Bi2+  Bi103  1  0.09763751  0.75425169  0.71024896  1
  Bi2+  Bi104  1  0.37514242  -0.03099133  0.20589647  1
  Bi2+  Bi105  1  0.40472845  0.01451030  0.73328516  1
  Bi2+  Bi106  1  0.39514375  0.22722293  0.17995884  1
  Bi2+  Bi107  1  0.31797124  0.28217917  0.71507547  1
  Bi2+  Bi108  1  0.34178114  0.52961153  0.21014763  1
  Bi2+  Bi109  1  0.35966946  0.47744055  0.70546394  1
  Bi2+  Bi110  1  0.37746257  0.72057826  0.20273962  1
  Bi2+  Bi111  1  0.33160580  0.72236236  0.72120955  1
  Bi2+  Bi112  1  0.69952347  0.01467065  0.18967849  1
  Bi2+  Bi113  1  0.58040627  -0.03054835  0.67866774  1
  Bi2+  Bi114  1  0.63487077  0.20175823  0.21523543  1
  Bi2+  Bi115  1  0.54261818  0.21993315  0.72454907  1
  Bi2+  Bi116  1  0.61408760  0.55212489  0.20790930  1
  Bi2+  Bi117  1  0.61482889  0.49049093  0.69283030  1
  Bi2+  Bi118  1  0.57777321  0.74588344  0.18754047  1
  Bi2+  Bi119  1  0.58981228  0.78131180  0.71246913  1
  Bi2+  Bi120  1  0.89365134  0.05442918  0.17661736  1
  Bi2+  Bi121  1  0.90801747  0.03033915  0.69408865  1
  Bi2+  Bi122  1  0.89912211  0.23672502  0.21689286  1
  Bi2+  Bi123  1  0.92051648  0.29190190  0.75931881  1
  Bi2+  Bi124  1  0.87307672  0.49440620  0.22977977  1
  Bi2+  Bi125  1  0.85277444  0.47003290  0.70534703  1
  Bi2+  Bi126  1  0.86651961  0.77009725  0.21009676  1
  Bi2+  Bi127  1  0.82985795  0.74016718  0.70257921  1
  S2-  S128  1  0.01476313  0.24676438  0.13839016  1
  S2-  S129  1  0.04004923  0.13095021  0.65709044  1
  S2-  S130  1  -0.01151315  0.46246059  0.15606862  1
  S2-  S131  1  -0.02875095  0.41528340  0.64132124  1
  S2-  S132  1  -0.02188931  0.63638227  0.22940511  1
  S2-  S133  1  -0.02394080  0.71814871  0.64548174  1
  S2-  S134  1  -0.00378398  0.80437803  0.15430016  1
  S2-  S135  1  0.03275495  0.91543344  0.66868847  1
  S2-  S136  1  0.26867861  0.11493517  0.15362083  1
  S2-  S137  1  0.30806021  0.07397865  0.64839786  1
  S2-  S138  1  0.30722437  0.37151715  0.15159831  1
  S2-  S139  1  0.23969649  0.40439139  0.64602783  1
  S2-  S140  1  0.16138317  0.61577754  0.15787431  1
  S2-  S141  1  0.35794857  0.61481089  0.63839578  1
  S2-  S142  1  0.25700667  0.85915381  0.16064667  1
  S2-  S143  1  0.23539655  0.84511219  0.66839759  1
  S2-  S144  1  0.52150088  0.11573670  0.15301093  1
  S2-  S145  1  0.58804794  0.14864604  0.63596257  1
  S2-  S146  1  0.53578558  0.33140542  0.17435460  1
  S2-  S147  1  0.48932558  0.41169243  0.64698286  1
  S2-  S148  1  0.47461241  0.53136532  0.14487694  1
  S2-  S149  1  0.57945471  0.63630560  0.65442528  1
  S2-  S150  1  0.50426766  0.89490703  0.15379055  1
  S2-  S151  1  0.46024661  0.86011193  0.64750462  1
  S2-  S152  1  0.75716965  0.24091854  0.14921306  1
  S2-  S153  1  0.80967860  0.14466135  0.66003440  1
  S2-  S154  1  0.74514309  0.45031389  0.17682643  1
  S2-  S155  1  0.73168427  0.37431957  0.65803971  1
  S2-  S156  1  0.82158067  0.65026110  0.14956079  1
  S2-  S157  1  0.79517303  0.60665178  0.64709708  1
  S2-  S158  1  0.75567261  0.86710474  0.15194816  1
  S2-  S159  1  0.82593882  0.88460868  0.64709382  1
  S2-  S160  1  0.11144320  0.01440709  0.35584509  1
  S2-  S161  1  0.13328730  -0.04444344  0.78089993  1
  S2-  S162  1  0.20591312  0.24905700  0.34819327  1
  S2-  S163  1  0.12232525  0.14734529  0.84969823  1
  S2-  S164  1  0.15174857  0.50569627  0.34265535  1
  S2-  S165  1  0.22922799  0.53348773  0.86421377  1
  S2-  S166  1  0.08219605  0.76885868  0.35894083  1
  S2-  S167  1  0.12309242  0.80100158  0.85810666  1
  S2-  S168  1  0.37877947  0.08346175  0.34458502  1
  S2-  S169  1  0.29700909  -0.01041416  0.85562916  1
  S2-  S170  1  0.36928659  0.26305535  0.27038678  1
  S2-  S171  1  0.36215111  0.25225924  0.84619787  1
  S2-  S172  1  0.38494074  0.41835303  0.34216564  1
  S2-  S173  1  0.46304063  0.50596600  0.84932857  1
  S2-  S174  1  0.38039550  0.63449070  0.36103260  1
  S2-  S175  1  0.36627815  0.73237431  0.85405971  1
  S2-  S176  1  0.63642400  0.02678701  0.34449602  1
  S2-  S177  1  0.74396122  0.01601712  0.85860445  1
  S2-  S178  1  0.54322466  0.25813323  0.33931528  1
  S2-  S179  1  0.61908057  0.28540304  0.85836499  1
  S2-  S180  1  0.63778535  0.48527160  0.34300855  1
  S2-  S181  1  0.62671462  0.45488053  0.78913202  1
  S2-  S182  1  0.66400490  0.78961320  0.34523370  1
  S2-  S183  1  0.62662529  0.66127663  0.84709322  1
  S2-  S184  1  0.87397720  -0.11652562  0.36096200  1
  S2-  S185  1  0.95821619  -0.02013954  0.84961623  1
  S2-  S186  1  0.76452362  0.24525135  0.35881345  1
  S2-  S187  1  0.85610771  0.21016706  0.84711211  1
  S2-  S188  1  0.87942518  0.43358511  0.32983554  1
  S2-  S189  1  0.79689379  0.48990185  0.85615081  1
  S2-  S190  1  0.87462639  0.64446468  0.35698345  1
  S2-  S191  1  0.86010977  0.75428232  0.83500733  1
  S2-  S192  1  -0.00251949  0.12596202  0.45698451  1
  S2-  S193  1  -0.00934973  0.13599169  0.95647398  1
  S2-  S194  1  0.00080897  0.37522986  0.44105782  1
  S2-  S195  1  -0.00341403  0.38179035  0.95931532  1
  S2-  S196  1  0.00177503  0.62423187  0.45854139  1
  S2-  S197  1  -0.00085723  0.63009311  0.93967250  1
  S2-  S198  1  -0.00275474  0.87306266  0.46791638  1
  S2-  S199  1  -0.00130967  0.88469540  0.95740526  1
  S2-  S200  1  0.24766661  0.12233779  0.45558639  1
  S2-  S201  1  0.24952954  0.13359383  0.95413533  1
  S2-  S202  1  0.24719427  0.37545388  0.44829603  1
  S2-  S203  1  0.24162374  0.37741880  0.95297305  1
  S2-  S204  1  0.24355562  0.62673812  0.45713134  1
  S2-  S205  1  0.24256940  0.63944484  0.96485420  1
  S2-  S206  1  0.24730689  0.87270940  0.46171840  1
  S2-  S207  1  0.24229743  0.88374326  0.96031402  1
  S2-  S208  1  0.50018273  0.12462554  0.44845240  1
  S2-  S209  1  0.49478703  0.13226107  0.95235401  1
  S2-  S210  1  0.49926834  0.37284646  0.44855113  1
  S2-  S211  1  0.49596122  0.38703480  0.96003203  1
  S2-  S212  1  0.50062727  0.62340979  0.46066271  1
  S2-  S213  1  0.49123683  0.63580010  0.95835555  1
  S2-  S214  1  0.49715458  0.87606401  0.44511430  1
  S2-  S215  1  0.49325298  0.88373055  0.94996225  1
  S2-  S216  1  0.74960306  0.11910526  0.45836620  1
  S2-  S217  1  0.73998770  0.13779603  0.96266350  1
  S2-  S218  1  0.75032355  0.38175027  0.45269632  1
  S2-  S219  1  0.73910161  0.38694861  0.96351478  1
  S2-  S220  1  0.74319894  0.62386242  0.45022199  1
  S2-  S221  1  0.74524971  0.63122045  0.95358546  1
  S2-  S222  1  0.74566991  0.87620599  0.45670371  1
  S2-  S223  1  0.74356365  0.87762601  0.94850086  1
  S2-  S224  1  0.12247051  0.00832828  0.06098631  1
  S2-  S225  1  0.12041295  -0.00406491  0.55585895  1
  S2-  S226  1  0.12543881  0.25375077  0.03865416  1
  S2-  S227  1  0.12357044  0.24881026  0.54472844  1
  S2-  S228  1  0.11934904  0.50969846  0.04435935  1
  S2-  S229  1  0.12635483  0.49978931  0.54361114  1
  S2-  S230  1  0.12291672  0.75880995  0.05498085  1
  S2-  S231  1  0.12764502  0.74502895  0.55648559  1
  S2-  S232  1  0.37088661  0.00623876  0.04826845  1
  S2-  S233  1  0.37572745  -0.00218872  0.53901604  1
  S2-  S234  1  0.37292916  0.25434349  0.04963194  1
  S2-  S235  1  0.37389890  0.25058587  0.55515248  1
  S2-  S236  1  0.36536161  0.50944965  0.04286067  1
  S2-  S237  1  0.37259551  0.49546266  0.53783065  1
  S2-  S238  1  0.36979896  0.75822284  0.05478103  1
  S2-  S239  1  0.37251397  0.74697954  0.54146699  1
  S2-  S240  1  0.62058083  0.00654640  0.04059403  1
  S2-  S241  1  0.62186531  -0.00356704  0.54372495  1
  S2-  S242  1  0.61378847  0.25876011  0.05642915  1
  S2-  S243  1  0.62462547  0.25592665  0.53522666  1
  S2-  S244  1  0.62396919  0.50867744  0.05819605  1
  S2-  S245  1  0.62081720  0.49903494  0.54529281  1
  S2-  S246  1  0.62118299  0.75561389  0.04238812  1
  S2-  S247  1  0.62198773  0.74706819  0.54662779  1
  S2-  S248  1  0.86780306  0.00794629  0.04289193  1
  S2-  S249  1  0.87203804  0.00210520  0.54521959  1
  S2-  S250  1  0.86918082  0.25793260  0.04782381  1
  S2-  S251  1  0.87295528  0.24850728  0.54438484  1
  S2-  S252  1  0.87395656  0.50730129  0.05109430  1
  S2-  S253  1  0.86982257  0.50032767  0.53413661  1
  S2-  S254  1  0.87325972  0.75680619  0.04192576  1
  S2-  S255  1  0.86744692  0.74327399  0.53821025  1
