# generated using pymatgen
data_La6Ce7Pr13Nd19Sm19(BiS2)64
_symmetry_space_group_name_H-M   'P 1'
_cell_length_a   16.09553549
_cell_length_b   16.02405436
_cell_length_c   27.45399105
_cell_angle_alpha   90.00811487
_cell_angle_beta   90.03436222
_cell_angle_gamma   90.13396077
_symmetry_Int_Tables_number   1
_chemical_formula_structural   La6Ce7Pr13Nd19Sm19(BiS2)64
_chemical_formula_sum   'La6 Ce7 Pr13 Nd19 Sm19 Bi64 S128'
_cell_volume   7080.79560191
_cell_formula_units_Z   1
loop_
 _symmetry_equiv_pos_site_id
 _symmetry_equiv_pos_as_xyz
  1  'x, y, z'
loop_
 _atom_type_symbol
 _atom_type_oxidation_number
  La3+  3.0
  Ce3+  3.0
  Pr3+  3.0
  Nd3+  3.0
  Sm3+  3.0
  Bi2+  2.0
  S2-  -2.0
loop_
 _atom_site_type_symbol
 _atom_site_label
 _atom_site_symmetry_multiplicity
 _atom_site_fract_x
 _atom_site_fract_y
 _atom_site_fract_z
 _atom_site_occupancy
  La3+  La0  1  -0.02631672  0.38000306  0.59301032  1
  La3+  La1  1  0.75015532  0.11358121  0.58172481  1
  La3+  La2  1  0.37462243  0.24167389  0.90360987  1
  La3+  La3  1  0.48902110  0.11609535  0.58285050  1
  La3+  La4  1  0.01374762  0.86692815  0.09148467  1
  La3+  La5  1  0.64562581  0.00359994  0.89677925  1
  Ce3+  Ce6  1  0.88504496  0.49246673  0.93090067  1
  Ce3+  Ce7  1  0.50988114  0.35982697  0.05993879  1
  Ce3+  Ce8  1  0.48374577  0.87391623  0.56599397  1
  Ce3+  Ce9  1  0.36342694  0.24729145  0.44698321  1
  Ce3+  Ce10  1  0.75761624  0.61446746  0.05161213  1
  Ce3+  Ce11  1  0.86193354  0.75010584  0.43866864  1
  Ce3+  Ce12  1  0.23893888  0.87342400  0.56783740  1
  Pr3+  Pr13  1  0.75467050  0.11850148  0.06853591  1
  Pr3+  Pr14  1  0.26069044  0.11564041  0.05845674  1
  Pr3+  Pr15  1  0.86059960  0.00789127  0.41242698  1
  Pr3+  Pr16  1  0.23735836  0.13191690  0.57565506  1
  Pr3+  Pr17  1  0.87816063  0.23655294  0.93927473  1
  Pr3+  Pr18  1  0.14621672  0.49286274  0.92486372  1
  Pr3+  Pr19  1  0.51306049  0.60772845  0.07323978  1
  Pr3+  Pr20  1  0.60560987  0.00254346  0.42972023  1
  Pr3+  Pr21  1  0.25532450  0.36516961  0.06167629  1
  Pr3+  Pr22  1  0.25856499  0.61587884  0.05822108  1
  Pr3+  Pr23  1  0.00729473  0.11664595  0.07109813  1
  Pr3+  Pr24  1  0.37038012  0.48491214  0.42141126  1
  Pr3+  Pr25  1  0.61895918  0.50516661  0.42987367  1
  Nd3+  Nd26  1  0.13157693  0.74803528  0.93983648  1
  Nd3+  Nd27  1  0.26098690  0.86892053  0.06200893  1
  Nd3+  Nd28  1  0.13076022  0.23823744  0.93729567  1
  Nd3+  Nd29  1  0.23828430  0.61619809  0.56542697  1
  Nd3+  Nd30  1  0.38887327  0.74954051  0.93799520  1
  Nd3+  Nd31  1  0.86411864  0.49903853  0.44978683  1
  Nd3+  Nd32  1  0.60884557  0.75453911  0.43138865  1
  Nd3+  Nd33  1  0.76097568  0.86143790  0.07927633  1
  Nd3+  Nd34  1  0.88219471  0.74620377  0.94203580  1
  Nd3+  Nd35  1  0.00997631  0.61562866  0.04876997  1
  Nd3+  Nd36  1  0.49173383  0.37433947  0.56069669  1
  Nd3+  Nd37  1  0.36023761  -0.00214823  0.44252900  1
  Nd3+  Nd38  1  0.63302437  0.74867300  0.94081629  1
  Nd3+  Nd39  1  0.51140066  0.86623647  0.06055472  1
  Nd3+  Nd40  1  0.11389388  -0.00196760  0.43812996  1
  Nd3+  Nd41  1  0.38539837  -0.00955510  0.92758556  1
  Nd3+  Nd42  1  0.61771081  0.23857464  0.44990305  1
  Nd3+  Nd43  1  0.11263000  0.49498799  0.44342902  1
  Nd3+  Nd44  1  0.51049560  0.11461249  0.05071097  1
  Sm3+  Sm45  1  0.62656336  0.25314440  0.93149506  1
  Sm3+  Sm46  1  0.73285482  0.63154652  0.56655407  1
  Sm3+  Sm47  1  0.86447014  0.24585712  0.44694489  1
  Sm3+  Sm48  1  0.11140955  0.25006911  0.45579663  1
  Sm3+  Sm49  1  0.73624844  0.37369847  0.55665367  1
  Sm3+  Sm50  1  0.11614759  0.74505277  0.44853896  1
  Sm3+  Sm51  1  -0.01107748  0.87312837  0.55388493  1
  Sm3+  Sm52  1  0.13027970  -0.00701210  0.94503579  1
  Sm3+  Sm53  1  0.73600582  0.87264308  0.55843440  1
  Sm3+  Sm54  1  0.48729825  0.62237955  0.55043586  1
  Sm3+  Sm55  1  0.62677677  0.49473318  0.93123076  1
  Sm3+  Sm56  1  -0.01072210  0.11871363  0.56111518  1
  Sm3+  Sm57  1  -0.01350054  0.62386831  0.56353731  1
  Sm3+  Sm58  1  0.75917536  0.36769891  0.04778879  1
  Sm3+  Sm59  1  0.00832584  0.36888680  0.04905048  1
  Sm3+  Sm60  1  0.23898239  0.37872250  0.56715948  1
  Sm3+  Sm61  1  0.38532126  0.49730120  0.94055405  1
  Sm3+  Sm62  1  0.36079078  0.74481467  0.44043763  1
  Sm3+  Sm63  1  0.87816354  -0.00874242  0.95191887  1
  Bi2+  Bi64  1  0.02805553  0.13192389  0.29175634  1
  Bi2+  Bi65  1  -0.01912612  0.09272500  0.74209823  1
  Bi2+  Bi66  1  0.01190170  0.39844135  0.31768898  1
  Bi2+  Bi67  1  -0.02802688  0.38231553  0.78529738  1
  Bi2+  Bi68  1  0.00267732  0.57471225  0.24727406  1
  Bi2+  Bi69  1  0.00234253  0.67486277  0.78438925  1
  Bi2+  Bi70  1  0.05899747  0.87861417  0.28985754  1
  Bi2+  Bi71  1  0.04110956  0.88247281  0.81110450  1
  Bi2+  Bi72  1  0.26559336  0.13586080  0.30051660  1
  Bi2+  Bi73  1  0.23444707  0.09345886  0.79122810  1
  Bi2+  Bi74  1  0.26303105  0.42075286  0.29298183  1
  Bi2+  Bi75  1  0.24597694  0.37996865  0.79454878  1
  Bi2+  Bi76  1  0.23099679  0.66424588  0.29197348  1
  Bi2+  Bi77  1  0.26039714  0.63308543  0.78836179  1
  Bi2+  Bi78  1  0.23349251  0.95132338  0.32950892  1
  Bi2+  Bi79  1  0.21421876  0.90027411  0.75593206  1
  Bi2+  Bi80  1  0.46065187  0.09659713  0.27050757  1
  Bi2+  Bi81  1  0.51076642  0.15474549  0.78786812  1
  Bi2+  Bi82  1  0.56562201  0.36713429  0.26929841  1
  Bi2+  Bi83  1  0.53448169  0.48772542  0.77871395  1
  Bi2+  Bi84  1  0.51332655  0.62445566  0.30597311  1
  Bi2+  Bi85  1  0.50678351  0.63340990  0.85307198  1
  Bi2+  Bi86  1  0.49565122  0.88608626  0.29007062  1
  Bi2+  Bi87  1  0.49988656  0.81277883  0.79858674  1
  Bi2+  Bi88  1  0.73122076  0.12373027  0.29805572  1
  Bi2+  Bi89  1  0.79810425  0.13206056  0.79857090  1
  Bi2+  Bi90  1  0.75615174  0.34141482  0.29101760  1
  Bi2+  Bi91  1  0.72265904  0.40922037  0.78029373  1
  Bi2+  Bi92  1  0.78884786  0.53622213  0.27142144  1
  Bi2+  Bi93  1  0.69499239  0.61709146  0.80169253  1
  Bi2+  Bi94  1  0.73811166  0.81084590  0.29151199  1
  Bi2+  Bi95  1  0.75679255  0.80331907  0.77895216  1
  Bi2+  Bi96  1  0.14292592  0.03549424  0.21293190  1
  Bi2+  Bi97  1  0.13615209  0.02625415  0.68021552  1
  Bi2+  Bi98  1  0.13443519  0.28703231  0.25269876  1
  Bi2+  Bi99  1  0.13258223  0.21554298  0.72308530  1
  Bi2+  Bi100  1  0.14612514  0.50490064  0.17729156  1
  Bi2+  Bi101  1  0.13059677  0.55752855  0.71359038  1
  Bi2+  Bi102  1  0.12802899  0.75524360  0.21526909  1
  Bi2+  Bi103  1  0.17848094  0.73928055  0.68360533  1
  Bi2+  Bi104  1  0.33552895  0.02453612  0.18775873  1
  Bi2+  Bi105  1  0.39086701  -0.02346759  0.71118410  1
  Bi2+  Bi106  1  0.39068255  0.27862929  0.25897987  1
  Bi2+  Bi107  1  0.37276964  0.25707448  0.70484187  1
  Bi2+  Bi108  1  0.38678790  0.54532857  0.19459326  1
  Bi2+  Bi109  1  0.38104062  0.52477855  0.70712762  1
  Bi2+  Bi110  1  0.31968118  0.84858472  0.24797629  1
  Bi2+  Bi111  1  0.37325324  0.72724734  0.71333327  1
  Bi2+  Bi112  1  0.59102036  0.03955519  0.18597399  1
  Bi2+  Bi113  1  0.65362207  0.00383587  0.71038459  1
  Bi2+  Bi114  1  0.66909013  0.24550084  0.19729990  1
  Bi2+  Bi115  1  0.62485567  0.31953562  0.69283621  1
  Bi2+  Bi116  1  0.64590758  0.52578821  0.19408318  1
  Bi2+  Bi117  1  0.67829207  0.54778570  0.68961594  1
  Bi2+  Bi118  1  0.61515155  0.71899056  0.21554204  1
  Bi2+  Bi119  1  0.61219334  0.74015186  0.70749888  1
  Bi2+  Bi120  1  0.85506054  -0.01513805  0.20800788  1
  Bi2+  Bi121  1  0.89403574  -0.08356766  0.73359204  1
  Bi2+  Bi122  1  0.92577898  0.27438935  0.23907157  1
  Bi2+  Bi123  1  0.85961954  0.25640395  0.70558555  1
  Bi2+  Bi124  1  0.89832742  0.44307567  0.18323138  1
  Bi2+  Bi125  1  0.86512780  0.59071127  0.71511854  1
  Bi2+  Bi126  1  0.88163554  0.72730293  0.23526625  1
  Bi2+  Bi127  1  0.96073995  0.75065206  0.67972313  1
  S2-  S128  1  0.00039761  0.01757261  0.15416274  1
  S2-  S129  1  -0.09235341  0.12811280  0.64583576  1
  S2-  S130  1  0.05246119  0.37231681  0.14256147  1
  S2-  S131  1  0.02229330  0.33148936  0.68709698  1
  S2-  S132  1  0.02523640  0.63194504  0.14628625  1
  S2-  S133  1  -0.00994751  0.53548105  0.64897087  1
  S2-  S134  1  -0.11604116  0.83560913  0.15682855  1
  S2-  S135  1  0.00563718  0.91509292  0.64862702  1
  S2-  S136  1  0.22457920  0.15293475  0.15389824  1
  S2-  S137  1  0.34935454  0.10238152  0.65441452  1
  S2-  S138  1  0.28413643  0.41530708  0.15722050  1
  S2-  S139  1  0.24054628  0.27551322  0.64609586  1
  S2-  S140  1  0.26460973  0.63487823  0.15834092  1
  S2-  S141  1  0.24535651  0.50038227  0.64110115  1
  S2-  S142  1  0.16754150  0.86356203  0.14544390  1
  S2-  S143  1  0.35737668  0.86111992  0.63962390  1
  S2-  S144  1  0.53450174  0.19548317  0.13973110  1
  S2-  S145  1  0.52256389  0.19101355  0.67936663  1
  S2-  S146  1  0.50864314  0.46321475  0.13848100  1
  S2-  S147  1  0.46815309  0.38802891  0.65885074  1
  S2-  S148  1  0.47839846  0.68608471  0.16201953  1
  S2-  S149  1  0.48026492  0.63471738  0.64796856  1
  S2-  S150  1  0.47617622  0.93071168  0.15123634  1
  S2-  S151  1  0.52922403  0.97217058  0.64870876  1
  S2-  S152  1  0.80222724  0.12606191  0.16604046  1
  S2-  S153  1  0.71181035  0.16795891  0.68177036  1
  S2-  S154  1  0.74543776  0.38445415  0.14479180  1
  S2-  S155  1  0.80785368  0.37452448  0.64540966  1
  S2-  S156  1  0.73685814  0.65076445  0.14570782  1
  S2-  S157  1  0.72811715  0.75284273  0.63665496  1
  S2-  S158  1  0.70319841  0.92357961  0.17151077  1
  S2-  S159  1  0.75457680  0.96598043  0.64265106  1
  S2-  S160  1  0.01162007  0.00171303  0.35683834  1
  S2-  S161  1  0.09876173  0.03140024  0.85157980  1
  S2-  S162  1  0.10198198  0.25514156  0.35789400  1
  S2-  S163  1  0.21334726  0.24823007  0.85128759  1
  S2-  S164  1  0.13771732  0.51176852  0.34614559  1
  S2-  S165  1  0.09435262  0.44535907  0.83151518  1
  S2-  S166  1  0.12227508  0.74963614  0.35133365  1
  S2-  S167  1  0.14621829  0.72976151  0.84158766  1
  S2-  S168  1  0.45922644  0.00587979  0.36103089  1
  S2-  S169  1  0.37829410  0.09345023  0.84498095  1
  S2-  S170  1  0.35138780  0.33322133  0.36211422  1
  S2-  S171  1  0.40689390  0.30162403  0.80621044  1
  S2-  S172  1  0.34536549  0.56993021  0.33300566  1
  S2-  S173  1  0.29196664  0.49454887  0.85724072  1
  S2-  S174  1  0.43632092  0.76097027  0.35271948  1
  S2-  S175  1  0.37753013  0.85635922  0.85817821  1
  S2-  S176  1  0.62276960  -0.12511235  0.35692402  1
  S2-  S177  1  0.55648526  0.00178972  0.80111393  1
  S2-  S178  1  0.61813701  0.14867297  0.36462170  1
  S2-  S179  1  0.65247310  0.16580245  0.84826254  1
  S2-  S180  1  0.52220467  0.46803811  0.34886482  1
  S2-  S181  1  0.61745716  0.38086048  0.85657446  1
  S2-  S182  1  0.64889736  0.63834578  0.35782288  1
  S2-  S183  1  0.64988206  0.83964057  0.85577973  1
  S2-  S184  1  0.80919877  -0.03225743  0.31184837  1
  S2-  S185  1  0.81557987  0.00911410  0.86013123  1
  S2-  S186  1  0.85541089  0.16566061  0.36022756  1
  S2-  S187  1  0.91559148  0.24073294  0.84124162  1
  S2-  S188  1  0.88557317  0.50347447  0.35249581  1
  S2-  S189  1  0.86873491  0.48306950  0.83406653  1
  S2-  S190  1  0.87500001  0.75070291  0.34175726  1
  S2-  S191  1  0.89939818  0.77567208  0.84485239  1
  S2-  S192  1  -0.00975707  0.12455832  0.45893271  1
  S2-  S193  1  0.00466621  0.11524733  0.96124577  1
  S2-  S194  1  -0.01445172  0.37226242  0.46124727  1
  S2-  S195  1  0.00875194  0.36529807  0.94595501  1
  S2-  S196  1  -0.00987637  0.62376033  0.45764935  1
  S2-  S197  1  0.01069428  0.61762306  0.94265930  1
  S2-  S198  1  -0.00775019  0.86932747  0.45129069  1
  S2-  S199  1  0.00615489  0.87134547  0.95741890  1
  S2-  S200  1  0.23553914  0.12657308  0.46046475  1
  S2-  S201  1  0.25745316  0.11504645  0.95226836  1
  S2-  S202  1  0.23572665  0.37252436  0.46260145  1
  S2-  S203  1  0.26105889  0.36298713  0.95477999  1
  S2-  S204  1  0.23872962  0.61897402  0.45693944  1
  S2-  S205  1  0.26187525  0.62655100  0.95244877  1
  S2-  S206  1  0.23829781  0.86950284  0.45976779  1
  S2-  S207  1  0.25464341  0.87110553  0.95692483  1
  S2-  S208  1  0.48403178  0.12514360  0.46797492  1
  S2-  S209  1  0.50858644  0.12088727  0.94567015  1
  S2-  S210  1  0.49697905  0.36771444  0.45691525  1
  S2-  S211  1  0.49648230  0.36705298  0.95186639  1
  S2-  S212  1  0.48470955  0.62069313  0.44931766  1
  S2-  S213  1  0.50894194  0.61860299  0.96536721  1
  S2-  S214  1  0.47976909  0.87126157  0.46087118  1
  S2-  S215  1  0.51512813  0.87617175  0.95575068  1
  S2-  S216  1  0.74504503  0.11967929  0.46546567  1
  S2-  S217  1  0.75294980  0.11654282  0.96107948  1
  S2-  S218  1  0.73912747  0.37135422  0.45191491  1
  S2-  S219  1  0.75947870  0.36918677  0.94495329  1
  S2-  S220  1  0.74194991  0.62648694  0.46253230  1
  S2-  S221  1  0.75594949  0.61688395  0.94496245  1
  S2-  S222  1  0.74504159  0.87810018  0.45295434  1
  S2-  S223  1  0.76037585  0.86690871  0.96475605  1
  S2-  S224  1  0.13144293  -0.00681099  0.04789076  1
  S2-  S225  1  0.11503741  -0.00111928  0.54352498  1
  S2-  S226  1  0.12917268  0.24050015  0.04306039  1
  S2-  S227  1  0.10279963  0.25290936  0.55801130  1
  S2-  S228  1  0.13426853  0.49121351  0.03390816  1
  S2-  S229  1  0.10630173  0.49507135  0.54789903  1
  S2-  S230  1  0.13287229  0.74324957  0.04440899  1
  S2-  S231  1  0.11365846  0.74434480  0.55179620  1
  S2-  S232  1  0.38412448  -0.00839612  0.03791046  1
  S2-  S233  1  0.35678452  0.00083348  0.54626363  1
  S2-  S234  1  0.38200222  0.24123276  0.04918473  1
  S2-  S235  1  0.36704035  0.25154915  0.55030265  1
  S2-  S236  1  0.38145059  0.49032005  0.04207572  1
  S2-  S237  1  0.36775416  0.49589763  0.53867597  1
  S2-  S238  1  0.38349219  0.74380865  0.04599665  1
  S2-  S239  1  0.35949590  0.74022581  0.54335978  1
  S2-  S240  1  0.63522601  -0.00926356  0.05526116  1
  S2-  S241  1  0.61370043  -0.00418283  0.54077245  1
  S2-  S242  1  0.63760848  0.24453342  0.03589311  1
  S2-  S243  1  0.61818180  0.24572922  0.55527768  1
  S2-  S244  1  0.63539003  0.48779661  0.03517614  1
  S2-  S245  1  0.61623826  0.50154904  0.54396080  1
  S2-  S246  1  0.63346693  0.74188487  0.04790327  1
  S2-  S247  1  0.60648613  0.74907836  0.53857056  1
  S2-  S248  1  0.88052214  -0.00925371  0.05381558  1
  S2-  S249  1  0.87078019  -0.00711361  0.54094575  1
  S2-  S250  1  0.88467405  0.24414717  0.04794636  1
  S2-  S251  1  0.86388018  0.25092027  0.54823110  1
  S2-  S252  1  0.88442832  0.49105190  0.03820172  1
  S2-  S253  1  0.85528432  0.50656064  0.55233466  1
  S2-  S254  1  0.88634393  0.74007384  0.04661693  1
  S2-  S255  1  0.86705018  0.74814460  0.54419261  1
