# generated using pymatgen
data_La6Ce7Pr13Nd19Sm19(BiS2)64
_symmetry_space_group_name_H-M   'P 1'
_cell_length_a   16.09590967
_cell_length_b   16.07612280
_cell_length_c   27.35869333
_cell_angle_alpha   90.06676640
_cell_angle_beta   90.07246291
_cell_angle_gamma   89.98457803
_symmetry_Int_Tables_number   1
_chemical_formula_structural   La6Ce7Pr13Nd19Sm19(BiS2)64
_chemical_formula_sum   'La6 Ce7 Pr13 Nd19 Sm19 Bi64 S128'
_cell_volume   7079.31984977
_cell_formula_units_Z   1
loop_
 _symmetry_equiv_pos_site_id
 _symmetry_equiv_pos_as_xyz
  1  'x, y, z'
loop_
 _atom_type_symbol
 _atom_type_oxidation_number
  La3+  3.0
  Ce3+  3.0
  Pr3+  3.0
  Nd3+  3.0
  Sm3+  3.0
  Bi2+  2.0
  S2-  -2.0
loop_
 _atom_site_type_symbol
 _atom_site_label
 _atom_site_symmetry_multiplicity
 _atom_site_fract_x
 _atom_site_fract_y
 _atom_site_fract_z
 _atom_site_occupancy
  La3+  La0  1  0.37095183  0.49972970  0.93220486  1
  La3+  La1  1  0.62761870  0.24434853  0.91008950  1
  La3+  La2  1  0.12675868  0.25474297  0.39024426  1
  La3+  La3  1  0.75422058  0.36277677  0.59401164  1
  La3+  La4  1  0.48752359  0.38966517  0.60761932  1
  La3+  La5  1  0.24983580  0.11745125  0.10498491  1
  Ce3+  Ce6  1  0.87254723  0.24513178  0.93942744  1
  Ce3+  Ce7  1  0.37604803  0.49436936  0.44194932  1
  Ce3+  Ce8  1  0.24584239  0.87043607  0.05838203  1
  Ce3+  Ce9  1  0.12488093  0.49449970  0.44128656  1
  Ce3+  Ce10  1  0.00318733  0.12928623  0.55918480  1
  Ce3+  Ce11  1  0.00349823  0.37793295  0.56525211  1
  Ce3+  Ce12  1  0.11905650  0.74834313  0.94264297  1
  Pr3+  Pr13  1  0.49697385  0.62162994  0.06536895  1
  Pr3+  Pr14  1  0.86402732  0.49953737  0.93244420  1
  Pr3+  Pr15  1  0.50215868  0.12861261  0.56728995  1
  Pr3+  Pr16  1  0.62651386  0.49805071  0.45164665  1
  Pr3+  Pr17  1  -0.00223563  0.12569634  0.07150295  1
  Pr3+  Pr18  1  0.74831714  0.62995599  0.08446244  1
  Pr3+  Pr19  1  0.74987417  0.62508406  0.56553675  1
  Pr3+  Pr20  1  0.35827014  0.24558213  0.89676458  1
  Pr3+  Pr21  1  0.74633839  0.37215172  0.06074012  1
  Pr3+  Pr22  1  0.12616509  0.74586617  0.43315362  1
  Pr3+  Pr23  1  0.00118680  0.62723665  0.57434524  1
  Pr3+  Pr24  1  0.88005965  0.74738195  0.43110585  1
  Pr3+  Pr25  1  0.86115242  0.75015900  0.93080700  1
  Nd3+  Nd26  1  0.12236405  0.24357806  0.93727255  1
  Nd3+  Nd27  1  0.87874432  0.00167800  0.44214568  1
  Nd3+  Nd28  1  0.50214967  0.62441806  0.56249816  1
  Nd3+  Nd29  1  0.87722345  0.25215923  0.43827302  1
  Nd3+  Nd30  1  0.75284685  0.87340237  0.55149686  1
  Nd3+  Nd31  1  0.62117617  -0.00014254  0.93246338  1
  Nd3+  Nd32  1  0.75195713  0.12473817  0.55853127  1
  Nd3+  Nd33  1  0.25336859  0.62505497  0.55714346  1
  Nd3+  Nd34  1  -0.00941964  0.62423097  0.05972588  1
  Nd3+  Nd35  1  0.25020698  0.87395776  0.55163165  1
  Nd3+  Nd36  1  0.12578328  0.00226992  0.44293727  1
  Nd3+  Nd37  1  0.37048821  0.00246924  0.93938633  1
  Nd3+  Nd38  1  0.49521904  0.12577272  0.05349999  1
  Nd3+  Nd39  1  0.62387204  -0.00137789  0.43614145  1
  Nd3+  Nd40  1  0.12182078  0.50145690  0.93683379  1
  Nd3+  Nd41  1  0.62415974  0.25184319  0.44131678  1
  Nd3+  Nd42  1  0.38034337  0.24869701  0.43438284  1
  Nd3+  Nd43  1  0.25224770  0.12846966  0.56043952  1
  Nd3+  Nd44  1  0.24572329  0.37045913  0.06207463  1
  Sm3+  Sm45  1  0.62107873  0.74718895  0.94259130  1
  Sm3+  Sm46  1  0.37540201  0.00152746  0.44327119  1
  Sm3+  Sm47  1  0.74352339  0.12358660  0.05515209  1
  Sm3+  Sm48  1  0.74327883  0.87380934  0.06293077  1
  Sm3+  Sm49  1  0.87189442  -0.00109337  0.94847931  1
  Sm3+  Sm50  1  0.87472435  0.49742278  0.45143959  1
  Sm3+  Sm51  1  -0.00388734  0.87291306  0.05606780  1
  Sm3+  Sm52  1  0.12432141  0.00162458  0.94794505  1
  Sm3+  Sm53  1  0.49220892  0.36752056  0.04987818  1
  Sm3+  Sm54  1  0.25213274  0.37367915  0.55807213  1
  Sm3+  Sm55  1  0.62472066  0.74920907  0.44526937  1
  Sm3+  Sm56  1  -0.00443547  0.37345590  0.04541594  1
  Sm3+  Sm57  1  0.25101787  0.61786418  0.06856105  1
  Sm3+  Sm58  1  0.37736195  0.74879510  0.44576275  1
  Sm3+  Sm59  1  0.49438091  0.87354378  0.05341500  1
  Sm3+  Sm60  1  0.36963570  0.74591227  0.93608427  1
  Sm3+  Sm61  1  0.50218866  0.88115203  0.56551669  1
  Sm3+  Sm62  1  0.00164583  0.87104152  0.56124083  1
  Sm3+  Sm63  1  0.62000593  0.49734309  0.94284051  1
  Bi2+  Bi64  1  -0.00430265  0.09667180  0.30034036  1
  Bi2+  Bi65  1  -0.03253319  0.11188673  0.81494517  1
  Bi2+  Bi66  1  -0.02195857  0.41709138  0.24640156  1
  Bi2+  Bi67  1  0.01422163  0.29546227  0.78315801  1
  Bi2+  Bi68  1  0.05566389  0.64224602  0.30638452  1
  Bi2+  Bi69  1  0.03099782  0.61769438  0.80026829  1
  Bi2+  Bi70  1  -0.07011758  0.84630652  0.28353428  1
  Bi2+  Bi71  1  -0.00025590  0.90541145  0.77398237  1
  Bi2+  Bi72  1  0.26376687  0.11084286  0.29307314  1
  Bi2+  Bi73  1  0.22929802  0.10927325  0.78892987  1
  Bi2+  Bi74  1  0.26136555  0.40144952  0.29147236  1
  Bi2+  Bi75  1  0.21507192  0.38409620  0.78070475  1
  Bi2+  Bi76  1  0.24813242  0.64616482  0.28704876  1
  Bi2+  Bi77  1  0.27129997  0.66893963  0.77653889  1
  Bi2+  Bi78  1  0.24387913  0.84804811  0.27654314  1
  Bi2+  Bi79  1  0.27202527  0.86953254  0.79026896  1
  Bi2+  Bi80  1  0.52253621  0.12810198  0.29131148  1
  Bi2+  Bi81  1  0.49940878  0.04085290  0.78330993  1
  Bi2+  Bi82  1  0.51516071  0.38843949  0.29753870  1
  Bi2+  Bi83  1  0.50190180  0.42505208  0.80899315  1
  Bi2+  Bi84  1  0.48132198  0.68950143  0.28373118  1
  Bi2+  Bi85  1  0.50520797  0.66595798  0.79776217  1
  Bi2+  Bi86  1  0.60502597  0.86209067  0.30859282  1
  Bi2+  Bi87  1  0.45836156  0.85494375  0.83252181  1
  Bi2+  Bi88  1  0.76128415  0.15556808  0.29349784  1
  Bi2+  Bi89  1  0.77209073  0.09620170  0.79212687  1
  Bi2+  Bi90  1  0.80873669  0.34441532  0.30994441  1
  Bi2+  Bi91  1  0.76247364  0.40660344  0.79878598  1
  Bi2+  Bi92  1  0.74399359  0.58739045  0.31424863  1
  Bi2+  Bi93  1  0.78622671  0.66216718  0.79223070  1
  Bi2+  Bi94  1  0.74553716  0.90463497  0.22406642  1
  Bi2+  Bi95  1  0.64709800  0.88430715  0.79879530  1
  Bi2+  Bi96  1  0.12385381  -0.04437058  0.20858385  1
  Bi2+  Bi97  1  0.13848822  -0.01603490  0.70907742  1
  Bi2+  Bi98  1  0.10907756  0.27757061  0.19663037  1
  Bi2+  Bi99  1  0.13445507  0.19178641  0.69629931  1
  Bi2+  Bi100  1  0.11177325  0.55078943  0.20776309  1
  Bi2+  Bi101  1  0.09720174  0.38658633  0.69128161  1
  Bi2+  Bi102  1  0.20083166  0.75706532  0.17782458  1
  Bi2+  Bi103  1  0.13203720  0.78519629  0.71174566  1
  Bi2+  Bi104  1  0.43279333  -0.07145677  0.26649850  1
  Bi2+  Bi105  1  0.37053401  -0.02804765  0.70534481  1
  Bi2+  Bi106  1  0.40809665  0.25621785  0.19826937  1
  Bi2+  Bi107  1  0.38384431  0.26085112  0.71969124  1
  Bi2+  Bi108  1  0.34142377  0.51486877  0.21282426  1
  Bi2+  Bi109  1  0.34629521  0.53232881  0.70461167  1
  Bi2+  Bi110  1  0.40307292  0.78238099  0.19223584  1
  Bi2+  Bi111  1  0.41591787  0.77605111  0.71493275  1
  Bi2+  Bi112  1  0.58602445  0.01596075  0.20429342  1
  Bi2+  Bi113  1  0.64639067  0.01131720  0.70621284  1
  Bi2+  Bi114  1  0.66298643  0.29532839  0.23610150  1
  Bi2+  Bi115  1  0.63129177  0.26545164  0.71701540  1
  Bi2+  Bi116  1  0.58786198  0.48089373  0.20838431  1
  Bi2+  Bi117  1  0.63716642  0.62763471  0.71530710  1
  Bi2+  Bi118  1  0.64087539  0.73494264  0.21743157  1
  Bi2+  Bi119  1  0.60821227  0.81403759  0.69178034  1
  Bi2+  Bi120  1  0.87128403  0.05966562  0.21052836  1
  Bi2+  Bi121  1  0.85059280  -0.02886167  0.70919981  1
  Bi2+  Bi122  1  0.87721713  0.25599310  0.20268377  1
  Bi2+  Bi123  1  0.87977887  0.21993932  0.71380495  1
  Bi2+  Bi124  1  0.82242579  0.52485702  0.22064524  1
  Bi2+  Bi125  1  0.88284484  0.49552954  0.70597409  1
  Bi2+  Bi126  1  1.00663182  0.72154995  0.19931776  1
  Bi2+  Bi127  1  0.88576611  0.77411215  0.71887666  1
  S2-  S128  1  0.09385001  0.11923094  0.15589131  1
  S2-  S129  1  -0.01611119  0.12019030  0.65580294  1
  S2-  S130  1  -0.01890653  0.36679022  0.14240230  1
  S2-  S131  1  -0.08857650  0.35392783  0.64707084  1
  S2-  S132  1  -0.10628308  0.61318121  0.14228213  1
  S2-  S133  1  0.02019826  0.54328512  0.66428087  1
  S2-  S134  1  -0.00391011  0.88446276  0.15421091  1
  S2-  S135  1  0.00724977  0.76717225  0.63937078  1
  S2-  S136  1  0.32680431  0.11537725  0.20435120  1
  S2-  S137  1  0.29168660  0.14525893  0.65684176  1
  S2-  S138  1  0.25325744  0.28003004  0.15007647  1
  S2-  S139  1  0.32190373  0.38337801  0.64910958  1
  S2-  S140  1  0.22603272  0.49122540  0.13799826  1
  S2-  S141  1  0.24401460  0.62845641  0.65584557  1
  S2-  S142  1  0.25076556  0.94791016  0.14617009  1
  S2-  S143  1  0.24520397  0.87751127  0.64970319  1
  S2-  S144  1  0.51502569  0.15516024  0.15240857  1
  S2-  S145  1  0.50832557  0.22721515  0.65096863  1
  S2-  S146  1  0.47415682  0.39929511  0.14719793  1
  S2-  S147  1  0.50717133  0.38922265  0.71490179  1
  S2-  S148  1  0.37819546  0.62850719  0.14072980  1
  S2-  S149  1  0.49448996  0.56218123  0.65378905  1
  S2-  S150  1  0.53286186  0.87778660  0.14810943  1
  S2-  S151  1  0.50449724  0.99759978  0.63910372  1
  S2-  S152  1  0.76344246  0.15211120  0.15040196  1
  S2-  S153  1  0.74500399  0.20143113  0.64785408  1
  S2-  S154  1  0.73142152  0.41817159  0.15729024  1
  S2-  S155  1  0.71905501  0.40922847  0.69284378  1
  S2-  S156  1  0.60776805  0.61667463  0.14618607  1
  S2-  S157  1  0.79706476  0.61876776  0.66197181  1
  S2-  S158  1  0.75738540  0.78158576  0.14473631  1
  S2-  S159  1  0.77900616  0.84665583  0.64749257  1
  S2-  S160  1  0.13066359  0.03133455  0.34580409  1
  S2-  S161  1  0.10882174  0.04046234  0.85279145  1
  S2-  S162  1  0.12499370  0.21024011  0.28477763  1
  S2-  S163  1  0.20155853  0.25039481  0.84796341  1
  S2-  S164  1  0.12701902  0.42095227  0.35229038  1
  S2-  S165  1  0.12140627  0.49576614  0.83737789  1
  S2-  S166  1  0.06277267  0.80067791  0.34541405  1
  S2-  S167  1  0.14092336  0.70929256  0.84867607  1
  S2-  S168  1  0.39814288  0.03623887  0.34884063  1
  S2-  S169  1  0.36127907  0.07974341  0.84962629  1
  S2-  S170  1  0.29124132  0.25590431  0.34697614  1
  S2-  S171  1  0.44488985  0.25759697  0.80716924  1
  S2-  S172  1  0.38633053  0.48339363  0.34440271  1
  S2-  S173  1  0.34125588  0.41388304  0.84612419  1
  S2-  S174  1  0.35894995  0.75019535  0.34876700  1
  S2-  S175  1  0.37022762  0.63254308  0.85988914  1
  S2-  S176  1  0.64868824  0.05623399  0.34386674  1
  S2-  S177  1  0.62032197  0.09788463  0.84986336  1
  S2-  S178  1  0.51416793  0.24751917  0.36186057  1
  S2-  S179  1  0.63074250  0.31189737  0.81590477  1
  S2-  S180  1  0.62909154  0.47073200  0.35155256  1
  S2-  S181  1  0.64835505  0.51253188  0.84587713  1
  S2-  S182  1  0.61815481  0.69775400  0.35265323  1
  S2-  S183  1  0.71883448  0.75540837  0.86173290  1
  S2-  S184  1  0.88636188  -0.02249199  0.34454382  1
  S2-  S185  1  0.84830989  -0.01865631  0.85243485  1
  S2-  S186  1  0.96026699  0.24275104  0.35132952  1
  S2-  S187  1  0.80653244  0.26443628  0.85215099  1
  S2-  S188  1  0.87000144  0.49599552  0.35337618  1
  S2-  S189  1  0.89164663  0.51930956  0.83270145  1
  S2-  S190  1  0.84069026  0.73435671  0.33343478  1
  S2-  S191  1  0.92613550  0.74193163  0.83659978  1
  S2-  S192  1  0.00433905  0.12653535  0.45384079  1
  S2-  S193  1  -0.00416177  0.12092942  0.96183635  1
  S2-  S194  1  -0.00028428  0.37449195  0.45805187  1
  S2-  S195  1  -0.00423330  0.37394611  0.94094906  1
  S2-  S196  1  0.00017205  0.62139829  0.45679666  1
  S2-  S197  1  -0.00867040  0.62374046  0.95261794  1
  S2-  S198  1  0.00123060  0.87481948  0.45735268  1
  S2-  S199  1  -0.00352767  0.87665348  0.95099140  1
  S2-  S200  1  0.25068125  0.12469581  0.45353048  1
  S2-  S201  1  0.24587584  0.12339979  0.95353946  1
  S2-  S202  1  0.24910207  0.37041870  0.45507860  1
  S2-  S203  1  0.24144551  0.37224002  0.95466683  1
  S2-  S204  1  0.25276274  0.62384534  0.45024610  1
  S2-  S205  1  0.24398975  0.62526394  0.96133886  1
  S2-  S206  1  0.25204773  0.87443100  0.44618664  1
  S2-  S207  1  0.24698819  0.87344295  0.94950728  1
  S2-  S208  1  0.50200553  0.11955692  0.45995135  1
  S2-  S209  1  0.49577550  0.12777446  0.94846097  1
  S2-  S210  1  0.50116188  0.37609469  0.45790667  1
  S2-  S211  1  0.49878983  0.36710709  0.94364895  1
  S2-  S212  1  0.49961383  0.62599152  0.45616204  1
  S2-  S213  1  0.50074517  0.62594719  0.95692250  1
  S2-  S214  1  0.49951570  0.87428241  0.45671976  1
  S2-  S215  1  0.49709553  0.87311282  0.95054312  1
  S2-  S216  1  0.75133215  0.12472928  0.45240279  1
  S2-  S217  1  0.74729176  0.12087129  0.95272043  1
  S2-  S218  1  0.75195297  0.37310157  0.45687719  1
  S2-  S219  1  0.74268225  0.37208445  0.95361805  1
  S2-  S220  1  0.75176155  0.62673410  0.45850926  1
  S2-  S221  1  0.74129665  0.62142510  0.95893452  1
  S2-  S222  1  0.75106810  0.87326685  0.44596821  1
  S2-  S223  1  0.74330742  0.87941280  0.95929711  1
  S2-  S224  1  0.12017363  -0.00232489  0.04960306  1
  S2-  S225  1  0.12518500  -0.00165600  0.54989240  1
  S2-  S226  1  0.11735886  0.24911040  0.04370207  1
  S2-  S227  1  0.12821901  0.25286976  0.55718739  1
  S2-  S228  1  0.11344702  0.49999006  0.04125080  1
  S2-  S229  1  0.12980127  0.50154190  0.54824869  1
  S2-  S230  1  0.11885720  0.74589928  0.04879701  1
  S2-  S231  1  0.12758174  0.74840127  0.54030346  1
  S2-  S232  1  0.37241261  -0.00099237  0.04610071  1
  S2-  S233  1  0.37321400  -0.00090912  0.54556496  1
  S2-  S234  1  0.37033845  0.24466725  0.05033602  1
  S2-  S235  1  0.37569980  0.25253608  0.54357627  1
  S2-  S236  1  0.37259182  0.49433511  0.03918942  1
  S2-  S237  1  0.37703911  0.49984770  0.54694136  1
  S2-  S238  1  0.37164082  0.75008134  0.03983636  1
  S2-  S239  1  0.38022926  0.75314385  0.55116212  1
  S2-  S240  1  0.62157443  -0.00234819  0.04219185  1
  S2-  S241  1  0.63012812  -0.00212235  0.54247587  1
  S2-  S242  1  0.62262159  0.24792469  0.04359910  1
  S2-  S243  1  0.62996798  0.25075380  0.54538254  1
  S2-  S244  1  0.61835537  0.49288778  0.04528828  1
  S2-  S245  1  0.62725678  0.49390432  0.55943241  1
  S2-  S246  1  0.62070529  0.75196768  0.04438677  1
  S2-  S247  1  0.62314758  0.75279831  0.55006163  1
  S2-  S248  1  0.86983448  -0.00187769  0.05348881  1
  S2-  S249  1  0.87856386  -0.00251421  0.54866489  1
  S2-  S250  1  0.87139480  0.24588034  0.04493212  1
  S2-  S251  1  0.87650224  0.24856869  0.54323234  1
  S2-  S252  1  0.86973339  0.49605811  0.03968847  1
  S2-  S253  1  0.87297130  0.49948204  0.55426229  1
  S2-  S254  1  0.87038006  0.75398312  0.03916926  1
  S2-  S255  1  0.87687790  0.74840156  0.53991081  1
