# generated using pymatgen
data_La6Ce7Pr13Nd19Sm19(BiS2)64
_symmetry_space_group_name_H-M   'P 1'
_cell_length_a   16.08789247
_cell_length_b   16.06341567
_cell_length_c   27.36778124
_cell_angle_alpha   90.06867895
_cell_angle_beta   89.83300370
_cell_angle_gamma   90.08406536
_symmetry_Int_Tables_number   1
_chemical_formula_structural   La6Ce7Pr13Nd19Sm19(BiS2)64
_chemical_formula_sum   'La6 Ce7 Pr13 Nd19 Sm19 Bi64 S128'
_cell_volume   7072.51732578
_cell_formula_units_Z   1
loop_
 _symmetry_equiv_pos_site_id
 _symmetry_equiv_pos_as_xyz
  1  'x, y, z'
loop_
 _atom_type_symbol
 _atom_type_oxidation_number
  La3+  3.0
  Ce3+  3.0
  Pr3+  3.0
  Nd3+  3.0
  Sm3+  3.0
  Bi2+  2.0
  S2-  -2.0
loop_
 _atom_site_type_symbol
 _atom_site_label
 _atom_site_symmetry_multiplicity
 _atom_site_fract_x
 _atom_site_fract_y
 _atom_site_fract_z
 _atom_site_occupancy
  La3+  La0  1  -0.01101369  0.37049833  0.06854476  1
  La3+  La1  1  0.74567717  0.12726068  0.08337175  1
  La3+  La2  1  0.48807691  0.38246565  0.10500121  1
  La3+  La3  1  0.37505750  0.24627823  0.42563585  1
  La3+  La4  1  -0.00299509  0.11546327  0.07809644  1
  La3+  La5  1  0.12682181  0.75291691  0.88489550  1
  Ce3+  Ce6  1  0.49095390  0.87231083  0.55458284  1
  Ce3+  Ce7  1  0.87058922  0.74601036  0.44254631  1
  Ce3+  Ce8  1  -0.00677637  0.62255621  0.05295210  1
  Ce3+  Ce9  1  0.74174842  0.86932626  0.05265309  1
  Ce3+  Ce10  1  -0.00951920  0.37316939  0.57581036  1
  Ce3+  Ce11  1  0.74016094  0.62186568  0.05170362  1
  Ce3+  Ce12  1  0.62032090  0.00128511  0.94685482  1
  Pr3+  Pr13  1  0.11891073  0.74390028  0.43833445  1
  Pr3+  Pr14  1  0.25513365  0.63124113  0.57781259  1
  Pr3+  Pr15  1  0.62715244  0.24217420  0.42519625  1
  Pr3+  Pr16  1  0.87300244  0.48703891  0.93215290  1
  Pr3+  Pr17  1  0.87961319  0.24770251  0.39897251  1
  Pr3+  Pr18  1  0.36788978  0.49402460  0.43468844  1
  Pr3+  Pr19  1  0.24490866  0.11985944  0.56186146  1
  Pr3+  Pr20  1  0.61742605  0.74369965  0.92916862  1
  Pr3+  Pr21  1  0.87420948  0.74678432  0.92934463  1
  Pr3+  Pr22  1  0.36533658  0.74399979  0.93911281  1
  Pr3+  Pr23  1  0.74123759  0.37023961  0.57220116  1
  Pr3+  Pr24  1  0.61611210  0.25264112  0.92867064  1
  Pr3+  Pr25  1  0.23270145  0.62248504  0.06457881  1
  Nd3+  Nd26  1  0.74439467  0.12470235  0.55622562  1
  Nd3+  Nd27  1  0.74312678  0.87226118  0.55690352  1
  Nd3+  Nd28  1  0.48775759  0.36185353  0.57235345  1
  Nd3+  Nd29  1  0.23815138  0.87184410  0.05189171  1
  Nd3+  Nd30  1  0.86815807  0.00280255  0.94480045  1
  Nd3+  Nd31  1  0.12090603  0.49639471  0.93344884  1
  Nd3+  Nd32  1  0.48809940  0.63189386  0.07273079  1
  Nd3+  Nd33  1  0.24522682  0.12143368  0.06697473  1
  Nd3+  Nd34  1  0.49352411  0.12479042  0.06980642  1
  Nd3+  Nd35  1  0.11990036  -0.00140562  0.43376876  1
  Nd3+  Nd36  1  -0.00892591  0.12250890  0.55489993  1
  Nd3+  Nd37  1  0.36959385  0.74363217  0.42543746  1
  Nd3+  Nd38  1  0.24560702  0.37146092  0.06291019  1
  Nd3+  Nd39  1  -0.00862110  0.87206616  0.05590299  1
  Nd3+  Nd40  1  0.61289816  0.50053161  0.93764143  1
  Nd3+  Nd41  1  0.37341887  0.24791352  0.94070824  1
  Nd3+  Nd42  1  0.36699217  -0.00191629  0.94241741  1
  Nd3+  Nd43  1  0.62254526  0.74469606  0.44146628  1
  Nd3+  Nd44  1  0.11533147  0.00340225  0.93109125  1
  Sm3+  Sm45  1  0.87124977  -0.00153651  0.43424781  1
  Sm3+  Sm46  1  0.87095468  0.48769078  0.44721085  1
  Sm3+  Sm47  1  0.24009503  0.37355118  0.57168568  1
  Sm3+  Sm48  1  0.62163626  0.48936871  0.44553393  1
  Sm3+  Sm49  1  0.11774384  0.24603681  0.94344299  1
  Sm3+  Sm50  1  0.11809922  0.24952586  0.44675070  1
  Sm3+  Sm51  1  0.11950826  0.49425862  0.45296544  1
  Sm3+  Sm52  1  0.74447617  0.62204663  0.55342519  1
  Sm3+  Sm53  1  0.36757121  0.49781785  0.94891904  1
  Sm3+  Sm54  1  0.62279257  -0.00088892  0.43932833  1
  Sm3+  Sm55  1  0.86239238  0.24592658  0.94178490  1
  Sm3+  Sm56  1  0.73592463  0.37408367  0.06107933  1
  Sm3+  Sm57  1  0.49154795  0.62101889  0.55361010  1
  Sm3+  Sm58  1  -0.00439055  0.62433563  0.56099541  1
  Sm3+  Sm59  1  0.49225210  0.12336248  0.55244296  1
  Sm3+  Sm60  1  -0.00645789  0.87359129  0.55693059  1
  Sm3+  Sm61  1  0.37002911  -0.00624672  0.43033853  1
  Sm3+  Sm62  1  0.24345319  0.87689901  0.56060167  1
  Sm3+  Sm63  1  0.49389488  0.87023451  0.05612869  1
  Bi2+  Bi64  1  -0.00046500  0.11981475  0.28326802  1
  Bi2+  Bi65  1  0.01062250  0.11703446  0.78979230  1
  Bi2+  Bi66  1  0.01186143  0.37026694  0.29236768  1
  Bi2+  Bi67  1  0.08981127  0.35651364  0.82215490  1
  Bi2+  Bi68  1  0.08442983  0.61759058  0.30548876  1
  Bi2+  Bi69  1  -0.01383069  0.58248695  0.78947766  1
  Bi2+  Bi70  1  0.00886180  0.85737945  0.28709078  1
  Bi2+  Bi71  1  -0.13360631  0.85071684  0.79079676  1
  Bi2+  Bi72  1  0.23458582  0.12247644  0.29005591  1
  Bi2+  Bi73  1  0.28064942  0.15188196  0.80935044  1
  Bi2+  Bi74  1  0.24524336  0.40866733  0.27936839  1
  Bi2+  Bi75  1  0.29018698  0.34962998  0.81617461  1
  Bi2+  Bi76  1  0.26983892  0.68765253  0.29306452  1
  Bi2+  Bi77  1  0.28541614  0.62648108  0.79468979  1
  Bi2+  Bi78  1  0.30970956  0.93571824  0.26887151  1
  Bi2+  Bi79  1  0.26312056  0.89557415  0.79267358  1
  Bi2+  Bi80  1  0.49371280  0.13284802  0.28622046  1
  Bi2+  Bi81  1  0.47920306  0.17107720  0.73629783  1
  Bi2+  Bi82  1  0.49465169  0.41604059  0.30978760  1
  Bi2+  Bi83  1  0.51120995  0.34869665  0.79341339  1
  Bi2+  Bi84  1  0.51722068  0.65436708  0.28852011  1
  Bi2+  Bi85  1  0.51912268  0.61545796  0.72361437  1
  Bi2+  Bi86  1  0.53047385  0.92581957  0.28986519  1
  Bi2+  Bi87  1  0.51294367  0.87937442  0.75582071  1
  Bi2+  Bi88  1  0.73825597  0.12411671  0.28084772  1
  Bi2+  Bi89  1  0.76714544  0.07079085  0.81243236  1
  Bi2+  Bi90  1  0.75510391  0.41558137  0.29020936  1
  Bi2+  Bi91  1  0.78425748  0.36055622  0.80716723  1
  Bi2+  Bi92  1  0.80559331  0.68324847  0.28289176  1
  Bi2+  Bi93  1  0.70956254  0.63165857  0.79415805  1
  Bi2+  Bi94  1  0.71645145  0.86397385  0.27798677  1
  Bi2+  Bi95  1  0.67594879  0.82614622  0.81266561  1
  Bi2+  Bi96  1  0.12725622  -0.01978308  0.20349016  1
  Bi2+  Bi97  1  0.10142884  0.01034887  0.70873355  1
  Bi2+  Bi98  1  0.14847359  0.24379606  0.22083966  1
  Bi2+  Bi99  1  0.14434787  0.23328047  0.73045660  1
  Bi2+  Bi100  1  0.11938862  0.49713672  0.20808815  1
  Bi2+  Bi101  1  0.16957657  0.45328466  0.73038583  1
  Bi2+  Bi102  1  0.16858395  0.72377017  0.20155525  1
  Bi2+  Bi103  1  0.10275401  0.72019109  0.69088971  1
  Bi2+  Bi104  1  0.35294266  0.05864793  0.17973806  1
  Bi2+  Bi105  1  0.33316020  0.04060182  0.71367953  1
  Bi2+  Bi106  1  0.35817764  0.24324939  0.21818130  1
  Bi2+  Bi107  1  0.31484171  0.22594295  0.67371566  1
  Bi2+  Bi108  1  0.35834559  0.52613345  0.21155890  1
  Bi2+  Bi109  1  0.39255547  0.46004689  0.73556489  1
  Bi2+  Bi110  1  0.42496070  0.79127894  0.22867825  1
  Bi2+  Bi111  1  0.39249932  0.77485754  0.69339702  1
  Bi2+  Bi112  1  0.53883788  0.00450140  0.18799811  1
  Bi2+  Bi113  1  0.62420018  0.03775994  0.74382800  1
  Bi2+  Bi114  1  0.64787280  0.26223864  0.20677821  1
  Bi2+  Bi115  1  0.69955445  0.27721097  0.71408935  1
  Bi2+  Bi116  1  0.64437527  0.57038641  0.22024817  1
  Bi2+  Bi117  1  0.66640595  0.48525953  0.71764319  1
  Bi2+  Bi118  1  0.66946183  0.75488925  0.18350343  1
  Bi2+  Bi119  1  0.65493690  0.76775215  0.69636811  1
  Bi2+  Bi120  1  0.87648863  -0.06319981  0.21978772  1
  Bi2+  Bi121  1  0.88634177  -0.03441886  0.69899713  1
  Bi2+  Bi122  1  0.89514819  0.27419280  0.21177717  1
  Bi2+  Bi123  1  0.86934052  0.17728937  0.71919545  1
  Bi2+  Bi124  1  0.92734577  0.55225357  0.23821590  1
  Bi2+  Bi125  1  0.97198915  0.42170011  0.72138187  1
  Bi2+  Bi126  1  0.94274592  0.74302198  0.20179851  1
  Bi2+  Bi127  1  0.84405443  0.70523988  0.70835917  1
  S2-  S128  1  -0.11694002  0.14770684  0.15397826  1
  S2-  S129  1  -0.00570270  0.10664874  0.65404933  1
  S2-  S130  1  0.04069065  0.35082520  0.16313307  1
  S2-  S131  1  0.11206632  0.36584666  0.64606380  1
  S2-  S132  1  0.08772106  0.60926044  0.13551453  1
  S2-  S133  1  -0.03216469  0.61908254  0.65832243  1
  S2-  S134  1  0.00093673  0.95844976  0.14355822  1
  S2-  S135  1  0.01825022  0.86935725  0.65430505  1
  S2-  S136  1  0.13534522  0.12529987  0.14564578  1
  S2-  S137  1  0.23069533  -0.00229898  0.63545765  1
  S2-  S138  1  0.32652429  0.37702421  0.15191646  1
  S2-  S139  1  0.35978201  0.39078270  0.64249128  1
  S2-  S140  1  0.31100230  0.64692667  0.15452865  1
  S2-  S141  1  0.19696365  0.58607975  0.67270855  1
  S2-  S142  1  0.21610292  0.86324933  0.15147189  1
  S2-  S143  1  0.24494208  0.77755975  0.64110373  1
  S2-  S144  1  0.50238853  0.22651869  0.15158076  1
  S2-  S145  1  0.48578464  0.20790729  0.63724797  1
  S2-  S146  1  0.54509828  0.38390616  0.22187674  1
  S2-  S147  1  0.61331621  0.38261009  0.64375287  1
  S2-  S148  1  0.50452442  0.53884903  0.15567924  1
  S2-  S149  1  0.41028515  0.63193297  0.63935979  1
  S2-  S150  1  0.50680370  0.77385031  0.13736318  1
  S2-  S151  1  0.48056493  0.91060568  0.64905857  1
  S2-  S152  1  0.68500294  0.09245779  0.17990449  1
  S2-  S153  1  0.73115717  0.14213177  0.65551766  1
  S2-  S154  1  0.76825686  0.35631830  0.15922682  1
  S2-  S155  1  0.86713033  0.37903670  0.65080601  1
  S2-  S156  1  0.75994873  0.60943970  0.14833816  1
  S2-  S157  1  0.73840335  0.60848729  0.65056964  1
  S2-  S158  1  0.76846372  0.88494654  0.14780602  1
  S2-  S159  1  0.75125078  0.90150397  0.65441195  1
  S2-  S160  1  0.09428227  0.01741779  0.33480860  1
  S2-  S161  1  0.13108165  -0.08400872  0.84441940  1
  S2-  S162  1  0.04228328  0.24513665  0.35629437  1
  S2-  S163  1  0.12648213  0.13894955  0.86530333  1
  S2-  S164  1  0.12506812  0.46995923  0.35505341  1
  S2-  S165  1  0.13543920  0.58269895  0.84645313  1
  S2-  S166  1  0.13446353  0.78509871  0.34084249  1
  S2-  S167  1  0.16053916  0.75524965  0.77730499  1
  S2-  S168  1  0.36421812  0.11039772  0.35460527  1
  S2-  S169  1  0.36279771  0.01316456  0.84402075  1
  S2-  S170  1  0.34062048  0.37670003  0.35866318  1
  S2-  S171  1  0.48133800  0.23200847  0.86106268  1
  S2-  S172  1  0.38070274  0.61385863  0.35568957  1
  S2-  S173  1  0.36739665  0.52144281  0.85026209  1
  S2-  S174  1  0.35933283  0.87478584  0.35792104  1
  S2-  S175  1  0.34766074  0.76168214  0.83981241  1
  S2-  S176  1  0.62899331  0.07739404  0.35076241  1
  S2-  S177  1  0.61246536  0.03494207  0.85165476  1
  S2-  S178  1  0.51096457  0.26675413  0.35044257  1
  S2-  S179  1  0.74876400  0.21868024  0.86173679  1
  S2-  S180  1  0.64668987  0.48957289  0.34684515  1
  S2-  S181  1  0.63555020  0.39706994  0.85703558  1
  S2-  S182  1  0.61849955  0.75618189  0.34351941  1
  S2-  S183  1  0.58752237  0.61797165  0.86047299  1
  S2-  S184  1  0.86870455  0.08377594  0.34734715  1
  S2-  S185  1  0.91958745  0.00036572  0.84916108  1
  S2-  S186  1  0.73678615  0.26453259  0.33974684  1
  S2-  S187  1  0.91620183  0.34031988  0.86136728  1
  S2-  S188  1  0.88187685  0.41609952  0.35778366  1
  S2-  S189  1  0.85109857  0.54130296  0.83584626  1
  S2-  S190  1  0.88289617  0.79367772  0.35023137  1
  S2-  S191  1  0.96538614  0.73526824  0.84300038  1
  S2-  S192  1  -0.00744548  0.12201224  0.45150618  1
  S2-  S193  1  -0.01097174  0.12877240  0.96273663  1
  S2-  S194  1  -0.00402933  0.37017772  0.46559497  1
  S2-  S195  1  -0.00034339  0.37008047  0.96277879  1
  S2-  S196  1  -0.00780381  0.61765542  0.45410667  1
  S2-  S197  1  -0.00551076  0.61744778  0.94949327  1
  S2-  S198  1  -0.00583640  0.87436922  0.45139430  1
  S2-  S199  1  -0.00705373  0.87487165  0.95122966  1
  S2-  S200  1  0.23860079  0.12296038  0.45359181  1
  S2-  S201  1  0.24798788  0.12453561  0.96199830  1
  S2-  S202  1  0.23766647  0.37058678  0.46517310  1
  S2-  S203  1  0.24454275  0.37003095  0.95613227  1
  S2-  S204  1  0.24095358  0.62064146  0.45460894  1
  S2-  S205  1  0.24051521  0.62189497  0.95587686  1
  S2-  S206  1  0.23918819  0.87296910  0.45609859  1
  S2-  S207  1  0.24097840  0.87117659  0.94757082  1
  S2-  S208  1  0.49752290  0.11551408  0.45118716  1
  S2-  S209  1  0.49259186  0.11944287  0.96415386  1
  S2-  S210  1  0.49841352  0.37334445  0.45957745  1
  S2-  S211  1  0.48892644  0.37761940  0.95689751  1
  S2-  S212  1  0.50136238  0.61940969  0.45192989  1
  S2-  S213  1  0.48739160  0.62274951  0.96419091  1
  S2-  S214  1  0.50185726  0.87271915  0.44914773  1
  S2-  S215  1  0.49362375  0.87156984  0.95045791  1
  S2-  S216  1  0.75186171  0.12070672  0.45214667  1
  S2-  S217  1  0.74173688  0.12268169  0.96774378  1
  S2-  S218  1  0.74695336  0.36957192  0.45942342  1
  S2-  S219  1  0.74288740  0.37419129  0.95957430  1
  S2-  S220  1  0.74771991  0.61690149  0.44851641  1
  S2-  S221  1  0.74850575  0.62105490  0.94764554  1
  S2-  S222  1  0.74563105  0.87465609  0.44982424  1
  S2-  S223  1  0.74564681  0.87250384  0.94673611  1
  S2-  S224  1  0.11995955  -0.00219375  0.03832112  1
  S2-  S225  1  0.11334050  -0.00365287  0.53885577  1
  S2-  S226  1  0.12076015  0.24814338  0.04688831  1
  S2-  S227  1  0.11894718  0.24287175  0.54956176  1
  S2-  S228  1  0.11846709  0.48974134  0.04086161  1
  S2-  S229  1  0.12096003  0.50549965  0.55477060  1
  S2-  S230  1  0.11361751  0.75043337  0.04400453  1
  S2-  S231  1  0.11514836  0.74892743  0.54442550  1
  S2-  S232  1  0.36979106  -0.00673612  0.04833081  1
  S2-  S233  1  0.37028782  -0.00175157  0.53538874  1
  S2-  S234  1  0.36860046  0.24715122  0.04868390  1
  S2-  S235  1  0.36507633  0.24441176  0.53602735  1
  S2-  S236  1  0.36679072  0.49988683  0.05144337  1
  S2-  S237  1  0.36789719  0.49921596  0.54084237  1
  S2-  S238  1  0.36398345  0.75086610  0.04443431  1
  S2-  S239  1  0.37109234  0.75048024  0.53265767  1
  S2-  S240  1  0.61702360  -0.00414178  0.05318689  1
  S2-  S241  1  0.61871115  -0.00094263  0.54461665  1
  S2-  S242  1  0.61775201  0.25156517  0.05147479  1
  S2-  S243  1  0.61944266  0.24347070  0.53761229  1
  S2-  S244  1  0.61402711  0.49627043  0.04932131  1
  S2-  S245  1  0.61831036  0.50233368  0.54702563  1
  S2-  S246  1  0.61834571  0.74712180  0.03530184  1
  S2-  S247  1  0.61818797  0.74533958  0.54762243  1
  S2-  S248  1  0.86355084  -0.00242337  0.04875795  1
  S2-  S249  1  0.86861151  -0.00473069  0.54100901  1
  S2-  S250  1  0.86465266  0.25149071  0.04687501  1
  S2-  S251  1  0.86921947  0.24549172  0.55374170  1
  S2-  S252  1  0.86717470  0.49595030  0.04533729  1
  S2-  S253  1  0.86916647  0.50264873  0.54921393  1
  S2-  S254  1  0.86842045  0.74631487  0.04004751  1
  S2-  S255  1  0.86904381  0.74773186  0.54904332  1
