# generated using pymatgen
data_La6Ce7Pr13Nd19Sm19(BiS2)64
_symmetry_space_group_name_H-M   'P 1'
_cell_length_a   15.99408896
_cell_length_b   16.06277057
_cell_length_c   27.28876161
_cell_angle_alpha   89.59832431
_cell_angle_beta   90.14587670
_cell_angle_gamma   89.90987131
_symmetry_Int_Tables_number   1
_chemical_formula_structural   La6Ce7Pr13Nd19Sm19(BiS2)64
_chemical_formula_sum   'La6 Ce7 Pr13 Nd19 Sm19 Bi64 S128'
_cell_volume   7010.53499142
_cell_formula_units_Z   1
loop_
 _symmetry_equiv_pos_site_id
 _symmetry_equiv_pos_as_xyz
  1  'x, y, z'
loop_
 _atom_type_symbol
 _atom_type_oxidation_number
  La3+  3.0
  Ce3+  3.0
  Pr3+  3.0
  Nd3+  3.0
  Sm3+  3.0
  Bi2+  2.0
  S2-  -2.0
loop_
 _atom_site_type_symbol
 _atom_site_label
 _atom_site_symmetry_multiplicity
 _atom_site_fract_x
 _atom_site_fract_y
 _atom_site_fract_z
 _atom_site_occupancy
  La3+  La0  1  0.49660284  0.12200672  0.08012152  1
  La3+  La1  1  -0.01691370  0.37792812  0.58197162  1
  La3+  La2  1  0.75563152  0.37139154  0.10530886  1
  La3+  La3  1  0.85888543  -0.00335723  0.42942693  1
  La3+  La4  1  0.87238092  0.00441327  0.90118227  1
  La3+  La5  1  0.73037220  0.85944370  0.57010488  1
  Ce3+  Ce6  1  0.85345960  0.74437020  0.43304300  1
  Ce3+  Ce7  1  0.62686532  0.00430741  0.94342776  1
  Ce3+  Ce8  1  -0.00086240  0.62719058  0.05436776  1
  Ce3+  Ce9  1  0.25284235  0.37780272  0.06477332  1
  Ce3+  Ce10  1  0.12599682  0.75403527  0.94095296  1
  Ce3+  Ce11  1  0.50279253  0.87563516  0.06853911  1
  Ce3+  Ce12  1  0.23540395  0.62566590  0.56611100  1
  Pr3+  Pr13  1  0.35793056  -0.00628989  0.43539769  1
  Pr3+  Pr14  1  0.61399590  0.49561473  0.42230903  1
  Pr3+  Pr15  1  0.37603231  0.00536912  0.93002902  1
  Pr3+  Pr16  1  0.48506435  0.86785639  0.56463851  1
  Pr3+  Pr17  1  0.60799065  0.74234176  0.42025864  1
  Pr3+  Pr18  1  -0.02338211  0.11638657  0.57460039  1
  Pr3+  Pr19  1  0.87611024  0.75436383  0.93766603  1
  Pr3+  Pr20  1  0.34622744  0.24306669  0.43086637  1
  Pr3+  Pr21  1  0.23582034  0.36556437  0.57765599  1
  Pr3+  Pr22  1  0.87345527  0.49602158  0.92969120  1
  Pr3+  Pr23  1  0.38015663  0.75538967  0.93053961  1
  Pr3+  Pr24  1  0.23312157  0.11684325  0.58031978  1
  Pr3+  Pr25  1  0.76239110  0.62811110  0.07096368  1
  Nd3+  Nd26  1  0.10716061  0.24646609  0.45474827  1
  Nd3+  Nd27  1  0.75702762  0.12375826  0.06515227  1
  Nd3+  Nd28  1  0.22464689  0.87021300  0.57337916  1
  Nd3+  Nd29  1  -0.00111193  0.37634116  0.06364114  1
  Nd3+  Nd30  1  0.13212275  0.00922180  0.92940303  1
  Nd3+  Nd31  1  0.11318073  0.74518184  0.43452707  1
  Nd3+  Nd32  1  0.60722165  0.24819673  0.42483356  1
  Nd3+  Nd33  1  0.13746077  0.26844178  0.90119691  1
  Nd3+  Nd34  1  0.35666438  0.74799313  0.43599696  1
  Nd3+  Nd35  1  0.25514501  0.87823759  0.05716559  1
  Nd3+  Nd36  1  0.63231652  0.50095925  0.94322358  1
  Nd3+  Nd37  1  0.25346533  0.13219303  0.05744204  1
  Nd3+  Nd38  1  0.73393993  0.11864400  0.56377122  1
  Nd3+  Nd39  1  0.87649350  0.25426817  0.93327094  1
  Nd3+  Nd40  1  -0.02192271  0.86824871  0.56072605  1
  Nd3+  Nd41  1  0.48467019  0.36608726  0.55912982  1
  Nd3+  Nd42  1  0.50230924  0.37345595  0.09150024  1
  Nd3+  Nd43  1  0.00312961  0.13016361  0.04544746  1
  Nd3+  Nd44  1  0.25596722  0.62894001  0.05966321  1
  Sm3+  Sm45  1  0.85736998  0.24702316  0.45028427  1
  Sm3+  Sm46  1  0.35922027  0.49204473  0.44698627  1
  Sm3+  Sm47  1  0.11171023  0.49383291  0.44633277  1
  Sm3+  Sm48  1  0.73360130  0.61056513  0.55690510  1
  Sm3+  Sm49  1  0.37929912  0.25682156  0.94174249  1
  Sm3+  Sm50  1  0.75659874  0.88359969  0.06177437  1
  Sm3+  Sm51  1  0.48279896  0.11944465  0.55143180  1
  Sm3+  Sm52  1  0.72392271  0.37026349  0.56461433  1
  Sm3+  Sm53  1  0.63065324  0.75527697  0.94573391  1
  Sm3+  Sm54  1  0.60871702  -0.00574288  0.43429978  1
  Sm3+  Sm55  1  0.12910411  0.50086528  0.94672870  1
  Sm3+  Sm56  1  0.50875975  0.62604332  0.05697191  1
  Sm3+  Sm57  1  -0.01895695  0.61889180  0.54648566  1
  Sm3+  Sm58  1  0.48558616  0.61963665  0.55196119  1
  Sm3+  Sm59  1  0.62892668  0.25374349  0.95141030  1
  Sm3+  Sm60  1  0.38043970  0.50270267  0.94915794  1
  Sm3+  Sm61  1  0.86134204  0.48157070  0.43083243  1
  Sm3+  Sm62  1  0.00408846  0.88374353  0.05094299  1
  Sm3+  Sm63  1  0.11069790  -0.00059610  0.43803873  1
  Bi2+  Bi64  1  0.00051986  0.14573340  0.29752163  1
  Bi2+  Bi65  1  -0.03023345  0.11707143  0.77781631  1
  Bi2+  Bi66  1  -0.01731214  0.48076514  0.28968687  1
  Bi2+  Bi67  1  0.00247022  0.43732044  0.78822222  1
  Bi2+  Bi68  1  -0.01944153  0.68630550  0.30195110  1
  Bi2+  Bi69  1  0.02065406  0.62953599  0.77323899  1
  Bi2+  Bi70  1  0.06961682  0.84467672  0.25301911  1
  Bi2+  Bi71  1  0.01085588  0.84560204  0.80783198  1
  Bi2+  Bi72  1  0.20329436  0.11160312  0.27958015  1
  Bi2+  Bi73  1  0.29517337  0.14543081  0.78062295  1
  Bi2+  Bi74  1  0.23273426  0.34027059  0.30578482  1
  Bi2+  Bi75  1  0.26884668  0.40376155  0.78570739  1
  Bi2+  Bi76  1  0.16663315  0.61443573  0.31525231  1
  Bi2+  Bi77  1  0.38693745  0.66882925  0.79901036  1
  Bi2+  Bi78  1  0.30129908  0.88063200  0.29851243  1
  Bi2+  Bi79  1  0.27412040  0.89183419  0.79367273  1
  Bi2+  Bi80  1  0.52253901  0.10940433  0.29247617  1
  Bi2+  Bi81  1  0.48411419  0.11749682  0.79124527  1
  Bi2+  Bi82  1  0.47146685  0.37361972  0.28540829  1
  Bi2+  Bi83  1  0.51632964  0.31764023  0.78370904  1
  Bi2+  Bi84  1  0.44015698  0.63141898  0.29547061  1
  Bi2+  Bi85  1  0.51503676  0.51838213  0.79900024  1
  Bi2+  Bi86  1  0.51590886  0.85591333  0.27211857  1
  Bi2+  Bi87  1  0.52712911  0.84125590  0.78540541  1
  Bi2+  Bi88  1  0.80868983  0.10007308  0.29714803  1
  Bi2+  Bi89  1  0.70571693  0.12502147  0.79168826  1
  Bi2+  Bi90  1  0.75768300  0.36619579  0.30543576  1
  Bi2+  Bi91  1  0.75143972  0.37387375  0.79277951  1
  Bi2+  Bi92  1  0.69169286  0.68428445  0.27019580  1
  Bi2+  Bi93  1  0.76909355  0.57756557  0.76727615  1
  Bi2+  Bi94  1  0.80098222  0.88758469  0.28325277  1
  Bi2+  Bi95  1  0.74481872  0.83725358  0.80073094  1
  Bi2+  Bi96  1  0.11079861  0.01146242  0.19903328  1
  Bi2+  Bi97  1  0.14511350  -0.01529622  0.71677438  1
  Bi2+  Bi98  1  0.11962984  0.26912421  0.22051181  1
  Bi2+  Bi99  1  0.11244360  0.26732759  0.70540537  1
  Bi2+  Bi100  1  0.09962726  0.46574128  0.19936579  1
  Bi2+  Bi101  1  0.17622006  0.53709328  0.71851398  1
  Bi2+  Bi102  1  0.11114978  0.66808801  0.20598905  1
  Bi2+  Bi103  1  0.18470418  0.73358058  0.73906280  1
  Bi2+  Bi104  1  0.37248951  -0.02223548  0.21206694  1
  Bi2+  Bi105  1  0.40678871  -0.00685853  0.71172240  1
  Bi2+  Bi106  1  0.36517666  0.22783176  0.21180547  1
  Bi2+  Bi107  1  0.38308493  0.34417787  0.69857953  1
  Bi2+  Bi108  1  0.28071014  0.50189465  0.24823396  1
  Bi2+  Bi109  1  0.37964650  0.53975059  0.70408709  1
  Bi2+  Bi110  1  0.36466286  0.73201403  0.20874121  1
  Bi2+  Bi111  1  0.39304022  0.77640465  0.70062327  1
  Bi2+  Bi112  1  0.64502911  -0.01942340  0.21927941  1
  Bi2+  Bi113  1  0.62388467  -0.00340853  0.71591793  1
  Bi2+  Bi114  1  0.64660348  0.20723031  0.22296225  1
  Bi2+  Bi115  1  0.60185559  0.18450557  0.68282501  1
  Bi2+  Bi116  1  0.59273732  0.52671558  0.20978722  1
  Bi2+  Bi117  1  0.63458372  0.46507789  0.70996373  1
  Bi2+  Bi118  1  0.61891805  0.79179211  0.17820698  1
  Bi2+  Bi119  1  0.61230865  0.73032589  0.70631025  1
  Bi2+  Bi120  1  0.90727936  -0.00922085  0.20042972  1
  Bi2+  Bi121  1  0.94019930  -0.02453518  0.69436119  1
  Bi2+  Bi122  1  0.91574132  0.24726081  0.20858727  1
  Bi2+  Bi123  1  0.78924058  0.23567484  0.70775006  1
  Bi2+  Bi124  1  0.84763020  0.57783076  0.22732339  1
  Bi2+  Bi125  1  0.89269337  0.47772375  0.69705700  1
  Bi2+  Bi126  1  0.81496723  0.77169662  0.18689802  1
  Bi2+  Bi127  1  0.87767049  0.71423911  0.70211168  1
  S2-  S128  1  -0.00541539  0.11947845  0.14626437  1
  S2-  S129  1  0.08750041  0.11599096  0.65625920  1
  S2-  S130  1  -0.08476993  0.38297095  0.15181241  1
  S2-  S131  1  -0.05653085  0.29944543  0.67480355  1
  S2-  S132  1  -0.08615255  0.63994747  0.13869232  1
  S2-  S133  1  -0.02633596  0.61415231  0.64517718  1
  S2-  S134  1  0.02232269  0.87801549  0.14914561  1
  S2-  S135  1  0.07309960  0.88030086  0.64772076  1
  S2-  S136  1  0.33238764  0.10780269  0.14553715  1
  S2-  S137  1  0.25782019  0.24305947  0.65388487  1
  S2-  S138  1  0.27746956  0.32657849  0.15650671  1
  S2-  S139  1  0.12050508  0.40778243  0.65334304  1
  S2-  S140  1  0.26798499  0.61605075  0.15865773  1
  S2-  S141  1  0.24522203  0.73624282  0.64243213  1
  S2-  S142  1  0.29336581  0.85913593  0.15410072  1
  S2-  S143  1  0.26369608  0.98345687  0.64787971  1
  S2-  S144  1  0.50974449  0.23509725  0.15715950  1
  S2-  S145  1  0.45035524  0.12335486  0.64860276  1
  S2-  S146  1  0.46479016  0.44107703  0.18319040  1
  S2-  S147  1  0.59656286  0.35150710  0.63670478  1
  S2-  S148  1  0.50548736  0.65707786  0.15411705  1
  S2-  S149  1  0.49619345  0.64018221  0.65052000  1
  S2-  S150  1  0.50986125  0.98302691  0.14649943  1
  S2-  S151  1  0.59989737  0.87892628  0.64425952  1
  S2-  S152  1  0.77034967  0.21083421  0.15255931  1
  S2-  S153  1  0.84060425  0.09607785  0.64635170  1
  S2-  S154  1  0.67600277  0.36727171  0.20810466  1
  S2-  S155  1  0.75398096  0.49126604  0.63482907  1
  S2-  S156  1  0.73282393  0.52985366  0.15201016  1
  S2-  S157  1  0.73368534  0.70628603  0.64101009  1
  S2-  S158  1  0.76790349  0.99311709  0.13911653  1
  S2-  S159  1  0.86101732  0.86475730  0.64282632  1
  S2-  S160  1  0.23110764  -0.00551367  0.36030406  1
  S2-  S161  1  0.03961448  -0.00423510  0.84411349  1
  S2-  S162  1  0.19741812  0.21900334  0.36992418  1
  S2-  S163  1  0.08452778  0.21990027  0.80701731  1
  S2-  S164  1  0.10704802  0.43375154  0.35434649  1
  S2-  S165  1  0.13467707  0.43014617  0.85759022  1
  S2-  S166  1  0.23352100  0.75558186  0.36014411  1
  S2-  S167  1  0.16434221  0.77233513  0.84662548  1
  S2-  S168  1  0.48740909  -0.00117188  0.35887024  1
  S2-  S169  1  0.25449763  0.03204698  0.85309070  1
  S2-  S170  1  0.42173866  0.23967703  0.33596338  1
  S2-  S171  1  0.29716665  0.26480317  0.85343901  1
  S2-  S172  1  0.37324416  0.48624745  0.34789869  1
  S2-  S173  1  0.35737045  0.51264123  0.85182237  1
  S2-  S174  1  0.46411735  0.76844284  0.35515853  1
  S2-  S175  1  0.40693802  0.87918911  0.85881671  1
  S2-  S176  1  0.72819557  -0.01404439  0.35851663  1
  S2-  S177  1  0.69875889  -0.01686788  0.85559048  1
  S2-  S178  1  0.67323662  0.19049241  0.33336434  1
  S2-  S179  1  0.64631336  0.26460341  0.85124939  1
  S2-  S180  1  0.59499447  0.37481676  0.34850693  1
  S2-  S181  1  0.73542082  0.51787273  0.86023402  1
  S2-  S182  1  0.58575971  0.61057836  0.34352412  1
  S2-  S183  1  0.62734900  0.73995407  0.84777060  1
  S2-  S184  1  0.99424872  0.01515121  0.36052080  1
  S2-  S185  1  0.87441669  -0.05480546  0.79639545  1
  S2-  S186  1  0.88177864  0.33176324  0.36476912  1
  S2-  S187  1  0.86095756  0.15494479  0.84841967  1
  S2-  S188  1  0.76756574  0.50631991  0.34884471  1
  S2-  S189  1  0.89641135  0.37175899  0.85554717  1
  S2-  S190  1  0.75064542  0.76143114  0.35368411  1
  S2-  S191  1  0.87248503  0.74189747  0.83770715  1
  S2-  S192  1  -0.01819650  0.12605839  0.46437688  1
  S2-  S193  1  0.01554852  0.14059634  0.94150441  1
  S2-  S194  1  -0.01200565  0.37176239  0.46837512  1
  S2-  S195  1  0.01196137  0.37389330  0.95777401  1
  S2-  S196  1  -0.01500236  0.61602437  0.44192583  1
  S2-  S197  1  0.00246390  0.62376632  0.94619216  1
  S2-  S198  1  -0.01420618  0.86476675  0.45034987  1
  S2-  S199  1  0.00125227  0.88194264  0.94659378  1
  S2-  S200  1  0.23222228  0.11676540  0.46989112  1
  S2-  S201  1  0.24952382  0.14082929  0.95426786  1
  S2-  S202  1  0.23376525  0.37276151  0.46580603  1
  S2-  S203  1  0.25557928  0.38048734  0.95963822  1
  S2-  S204  1  0.23568002  0.61586716  0.45937655  1
  S2-  S205  1  0.25415868  0.62752417  0.95298950  1
  S2-  S206  1  0.22956156  0.87111608  0.46464568  1
  S2-  S207  1  0.25187778  0.87644790  0.95269449  1
  S2-  S208  1  0.48325379  0.12555879  0.44973532  1
  S2-  S209  1  0.50036444  0.13082675  0.95185920  1
  S2-  S210  1  0.47803731  0.36653071  0.45426563  1
  S2-  S211  1  0.50331410  0.37919194  0.94722129  1
  S2-  S212  1  0.47905234  0.61631237  0.45045482  1
  S2-  S213  1  0.50540338  0.62865322  0.95168002  1
  S2-  S214  1  0.48633211  0.86971150  0.45932638  1
  S2-  S215  1  0.50734276  0.87621244  0.96095788  1
  S2-  S216  1  0.73248797  0.12476974  0.45684977  1
  S2-  S217  1  0.75131634  0.12786679  0.95668167  1
  S2-  S218  1  0.73198065  0.36780103  0.45946410  1
  S2-  S219  1  0.74999212  0.37393171  0.95725399  1
  S2-  S220  1  0.73797668  0.61542279  0.45282086  1
  S2-  S221  1  0.75276447  0.63142813  0.96233329  1
  S2-  S222  1  0.73032950  0.86736631  0.45909875  1
  S2-  S223  1  0.75415657  0.87894981  0.95664786  1
  S2-  S224  1  0.13169859  0.00419142  0.04019791  1
  S2-  S225  1  0.10302696  -0.00471842  0.54344353  1
  S2-  S226  1  0.12774558  0.25399136  0.05812891  1
  S2-  S227  1  0.10408529  0.24611519  0.55755237  1
  S2-  S228  1  0.12750404  0.50466334  0.05180342  1
  S2-  S229  1  0.11217236  0.50150363  0.54869242  1
  S2-  S230  1  0.12684277  0.75312065  0.04803758  1
  S2-  S231  1  0.10447992  0.74146636  0.54051396  1
  S2-  S232  1  0.37675171  0.00144704  0.03788730  1
  S2-  S233  1  0.36408138  -0.00716359  0.54338345  1
  S2-  S234  1  0.38308874  0.25771184  0.04569648  1
  S2-  S235  1  0.36001764  0.24423539  0.54266648  1
  S2-  S236  1  0.38349289  0.50221696  0.05393606  1
  S2-  S237  1  0.35937211  0.49414267  0.55308986  1
  S2-  S238  1  0.38156720  0.75011524  0.04194398  1
  S2-  S239  1  0.36209844  0.74428275  0.54237445  1
  S2-  S240  1  0.62637552  0.00246172  0.04603204  1
  S2-  S241  1  0.60869013  -0.00077077  0.54162401  1
  S2-  S242  1  0.62699258  0.25491347  0.05464961  1
  S2-  S243  1  0.60838116  0.24022927  0.53606653  1
  S2-  S244  1  0.62165290  0.49426224  0.04987793  1
  S2-  S245  1  0.60381580  0.49432637  0.53625348  1
  S2-  S246  1  0.63338653  0.75310651  0.04973674  1
  S2-  S247  1  0.60655601  0.73772307  0.53620744  1
  S2-  S248  1  0.88232568  0.00270390  0.03528294  1
  S2-  S249  1  0.85516766  -0.00652719  0.53834213  1
  S2-  S250  1  0.87687985  0.25310565  0.04254134  1
  S2-  S251  1  0.85389180  0.25224328  0.55312869  1
  S2-  S252  1  0.87690957  0.49981951  0.03967361  1
  S2-  S253  1  0.86117967  0.49256767  0.53648779  1
  S2-  S254  1  0.88034565  0.76205150  0.04265979  1
  S2-  S255  1  0.85869609  0.73788954  0.53700698  1
