# generated using pymatgen
data_La6Ce7Pr13Nd19Sm19(BiS2)64
_symmetry_space_group_name_H-M   'P 1'
_cell_length_a   16.15624153
_cell_length_b   16.16358875
_cell_length_c   27.11757288
_cell_angle_alpha   89.96183625
_cell_angle_beta   89.92640911
_cell_angle_gamma   89.99513795
_symmetry_Int_Tables_number   1
_chemical_formula_structural   La6Ce7Pr13Nd19Sm19(BiS2)64
_chemical_formula_sum   'La6 Ce7 Pr13 Nd19 Sm19 Bi64 S128'
_cell_volume   7081.55266078
_cell_formula_units_Z   1
loop_
 _symmetry_equiv_pos_site_id
 _symmetry_equiv_pos_as_xyz
  1  'x, y, z'
loop_
 _atom_type_symbol
 _atom_type_oxidation_number
  La3+  3.0
  Ce3+  3.0
  Pr3+  3.0
  Nd3+  3.0
  Sm3+  3.0
  Bi2+  2.0
  S2-  -2.0
loop_
 _atom_site_type_symbol
 _atom_site_label
 _atom_site_symmetry_multiplicity
 _atom_site_fract_x
 _atom_site_fract_y
 _atom_site_fract_z
 _atom_site_occupancy
  La3+  La0  1  0.88892117  0.48832926  0.91025464  1
  La3+  La1  1  0.51244655  0.61538904  0.10934775  1
  La3+  La2  1  0.48810798  0.63483196  0.57524380  1
  La3+  La3  1  0.73694526  0.62848972  0.57746628  1
  La3+  La4  1  0.87791904  0.75702601  0.90073342  1
  La3+  La5  1  0.74414895  0.12828084  0.56371976  1
  Ce3+  Ce6  1  0.87135082  0.25261115  0.44698482  1
  Ce3+  Ce7  1  0.62926301  0.24894586  0.94203428  1
  Ce3+  Ce8  1  0.75312290  0.37780026  0.05464532  1
  Ce3+  Ce9  1  0.61959546  0.50664270  0.44129985  1
  Ce3+  Ce10  1  0.13006446  0.24845629  0.94595193  1
  Ce3+  Ce11  1  0.62880171  0.50449792  0.94159790  1
  Ce3+  Ce12  1  0.62072374  0.25289854  0.44212625  1
  Pr3+  Pr13  1  0.50329884  0.12389413  0.07112196  1
  Pr3+  Pr14  1  0.25400696  0.37329152  0.06749364  1
  Pr3+  Pr15  1  -0.00565340  0.62680879  0.56852698  1
  Pr3+  Pr16  1  0.00174741  0.87348890  0.07326464  1
  Pr3+  Pr17  1  0.75651391  0.62384416  0.05403569  1
  Pr3+  Pr18  1  0.86929275  0.50673551  0.44157725  1
  Pr3+  Pr19  1  0.50307745  0.36810112  0.06531624  1
  Pr3+  Pr20  1  0.24425278  0.37699672  0.55112903  1
  Pr3+  Pr21  1  -0.00323482  0.87728916  0.56251421  1
  Pr3+  Pr22  1  0.37151716  0.75212089  0.43027818  1
  Pr3+  Pr23  1  0.00218402  0.62408228  0.05617319  1
  Pr3+  Pr24  1  0.10808334  0.25265405  0.42061353  1
  Pr3+  Pr25  1  -0.00040530  0.12781214  0.56254052  1
  Nd3+  Nd26  1  0.11862764  0.50367450  0.43743824  1
  Nd3+  Nd27  1  0.75588219  0.86968971  0.06567550  1
  Nd3+  Nd28  1  -0.00405671  0.37938934  0.56342555  1
  Nd3+  Nd29  1  0.37328287  0.25352219  0.42841555  1
  Nd3+  Nd30  1  0.13153679  0.49988390  0.94081376  1
  Nd3+  Nd31  1  0.49210021  0.37765316  0.55566154  1
  Nd3+  Nd32  1  0.00245479  0.12411845  0.05988907  1
  Nd3+  Nd33  1  0.38255578  0.74716419  0.93921028  1
  Nd3+  Nd34  1  0.86967917  -0.00000155  0.44266401  1
  Nd3+  Nd35  1  0.38123111  -0.00211006  0.94314173  1
  Nd3+  Nd36  1  0.74379600  0.87786685  0.56609008  1
  Nd3+  Nd37  1  0.49250152  0.12863132  0.55692347  1
  Nd3+  Nd38  1  0.51183965  0.87110752  0.07202058  1
  Nd3+  Nd39  1  0.36991429  0.00343180  0.43963970  1
  Nd3+  Nd40  1  0.12486776  -0.00393622  0.94169151  1
  Nd3+  Nd41  1  0.62172184  0.75125131  0.43774539  1
  Nd3+  Nd42  1  0.25711970  0.62702572  0.06395984  1
  Nd3+  Nd43  1  0.11867052  0.00187184  0.43834367  1
  Nd3+  Nd44  1  0.38019161  0.24898445  0.93905617  1
  Sm3+  Sm45  1  0.24475412  0.87771575  0.55168951  1
  Sm3+  Sm46  1  0.12418293  0.74997724  0.94513758  1
  Sm3+  Sm47  1  0.25285265  0.12217436  0.05446277  1
  Sm3+  Sm48  1  0.86987577  0.75137195  0.44943016  1
  Sm3+  Sm49  1  0.87738404  -0.00455565  0.94284379  1
  Sm3+  Sm50  1  0.49083997  0.87590098  0.55614333  1
  Sm3+  Sm51  1  0.37129268  0.50322847  0.43936042  1
  Sm3+  Sm52  1  0.38135063  0.50082368  0.95003049  1
  Sm3+  Sm53  1  0.62053457  0.00099972  0.44718049  1
  Sm3+  Sm54  1  0.00246156  0.37517983  0.05990457  1
  Sm3+  Sm55  1  0.75509202  0.12350322  0.05813014  1
  Sm3+  Sm56  1  0.24478423  0.62738243  0.55026761  1
  Sm3+  Sm57  1  0.74387102  0.38063620  0.55683455  1
  Sm3+  Sm58  1  0.24446813  0.12975447  0.54744724  1
  Sm3+  Sm59  1  0.62900753  -0.00132444  0.94340001  1
  Sm3+  Sm60  1  0.87912663  0.24856835  0.94286874  1
  Sm3+  Sm61  1  0.62408156  0.74761799  0.93979718  1
  Sm3+  Sm62  1  0.25601317  0.87491036  0.05447588  1
  Sm3+  Sm63  1  0.11888652  0.75159885  0.44206098  1
  Bi2+  Bi64  1  -0.01326541  0.13124601  0.29313443  1
  Bi2+  Bi65  1  -0.04848803  0.11644301  0.80132239  1
  Bi2+  Bi66  1  0.00313019  0.39609372  0.29788568  1
  Bi2+  Bi67  1  0.00787375  0.33883698  0.78937930  1
  Bi2+  Bi68  1  -0.00685774  0.64872202  0.29736774  1
  Bi2+  Bi69  1  -0.01441155  0.58378022  0.77851274  1
  Bi2+  Bi70  1  0.01949518  0.91116637  0.29363893  1
  Bi2+  Bi71  1  0.02150978  0.90887074  0.78987800  1
  Bi2+  Bi72  1  0.25462002  0.03817488  0.27431192  1
  Bi2+  Bi73  1  0.29360877  0.07643217  0.79048362  1
  Bi2+  Bi74  1  0.24734092  0.38331973  0.28635419  1
  Bi2+  Bi75  1  0.26496400  0.36485056  0.78817263  1
  Bi2+  Bi76  1  0.21228254  0.64458971  0.21364017  1
  Bi2+  Bi77  1  0.23674957  0.57923297  0.79565264  1
  Bi2+  Bi78  1  0.20469827  0.83909577  0.28873411  1
  Bi2+  Bi79  1  0.28895360  0.85524260  0.80315091  1
  Bi2+  Bi80  1  0.53164699  0.11026789  0.29547934  1
  Bi2+  Bi81  1  0.49223414  0.15385792  0.78871895  1
  Bi2+  Bi82  1  0.48647711  0.36104133  0.29360360  1
  Bi2+  Bi83  1  0.45315009  0.37470287  0.75757386  1
  Bi2+  Bi84  1  0.50707852  0.61367769  0.31449912  1
  Bi2+  Bi85  1  0.48288034  0.62030280  0.79862353  1
  Bi2+  Bi86  1  0.50573400  0.91560226  0.28642519  1
  Bi2+  Bi87  1  0.48547652  0.86831653  0.78367188  1
  Bi2+  Bi88  1  0.77789080  0.14433867  0.26393956  1
  Bi2+  Bi89  1  0.75660805  0.14593241  0.80081737  1
  Bi2+  Bi90  1  0.76315204  0.34560196  0.26164926  1
  Bi2+  Bi91  1  0.72286791  0.32934888  0.75542837  1
  Bi2+  Bi92  1  0.75395429  0.61642160  0.31162225  1
  Bi2+  Bi93  1  0.72591386  0.63206245  0.78969328  1
  Bi2+  Bi94  1  0.75396401  0.94715309  0.27571962  1
  Bi2+  Bi95  1  0.74720625  0.89257473  0.78827354  1
  Bi2+  Bi96  1  0.13424908  -0.05787620  0.19413960  1
  Bi2+  Bi97  1  0.17078548  -0.00131246  0.71113358  1
  Bi2+  Bi98  1  0.12931356  0.19617459  0.22555367  1
  Bi2+  Bi99  1  0.14474775  0.20332221  0.75663713  1
  Bi2+  Bi100  1  0.07561634  0.51158430  0.21217695  1
  Bi2+  Bi101  1  0.16297409  0.46876580  0.70831384  1
  Bi2+  Bi102  1  0.06186563  0.76292036  0.19058940  1
  Bi2+  Bi103  1  0.14126544  0.74403383  0.76944350  1
  Bi2+  Bi104  1  0.39933938  0.00277762  0.19482270  1
  Bi2+  Bi105  1  0.36156322  -0.04369139  0.70414728  1
  Bi2+  Bi106  1  0.36659616  0.20358050  0.21553449  1
  Bi2+  Bi107  1  0.32729101  0.22540665  0.69483489  1
  Bi2+  Bi108  1  0.35776080  0.47736616  0.21403260  1
  Bi2+  Bi109  1  0.37919511  0.54879600  0.70857097  1
  Bi2+  Bi110  1  0.37524135  0.80413366  0.23258481  1
  Bi2+  Bi111  1  0.33616862  0.74442975  0.70666837  1
  Bi2+  Bi112  1  0.58612072  0.03868085  0.18907057  1
  Bi2+  Bi113  1  0.60757894  0.00629619  0.74012198  1
  Bi2+  Bi114  1  0.61300027  0.23293682  0.21446873  1
  Bi2+  Bi115  1  0.61782170  0.19071233  0.69799175  1
  Bi2+  Bi116  1  0.63297419  0.47152523  0.21706688  1
  Bi2+  Bi117  1  0.61036434  0.47196913  0.71183117  1
  Bi2+  Bi118  1  0.63452024  0.76288424  0.20841335  1
  Bi2+  Bi119  1  0.59267917  0.75340467  0.70989889  1
  Bi2+  Bi120  1  0.89694417  0.00657311  0.19774110  1
  Bi2+  Bi121  1  0.88482954  0.01399851  0.70704594  1
  Bi2+  Bi122  1  0.92614784  0.27008657  0.21424139  1
  Bi2+  Bi123  1  0.88273046  0.23608903  0.71660503  1
  Bi2+  Bi124  1  0.83444125  0.53629289  0.20355941  1
  Bi2+  Bi125  1  0.89690726  0.49060751  0.69381548  1
  Bi2+  Bi126  1  0.88444477  0.79095669  0.24389417  1
  Bi2+  Bi127  1  0.88519268  0.75747225  0.69590431  1
  S2-  S128  1  0.02147409  0.12004522  0.15837486  1
  S2-  S129  1  -0.01696912  0.13089447  0.66196542  1
  S2-  S130  1  0.01724069  0.37890299  0.15793595  1
  S2-  S131  1  0.02742272  0.38669354  0.66121719  1
  S2-  S132  1  -0.04466983  0.60410991  0.15415551  1
  S2-  S133  1  0.00750125  0.63808810  0.66917544  1
  S2-  S134  1  -0.12758723  0.86702171  0.14496353  1
  S2-  S135  1  -0.01556558  0.88864977  0.66259950  1
  S2-  S136  1  0.25364578  0.15161841  0.15174019  1
  S2-  S137  1  0.21207832  0.13320360  0.64331207  1
  S2-  S138  1  0.25285291  0.37911615  0.16974889  1
  S2-  S139  1  0.26020855  0.37174969  0.65093219  1
  S2-  S140  1  0.34247553  0.62060004  0.15064711  1
  S2-  S141  1  0.25581529  0.62171587  0.64792756  1
  S2-  S142  1  0.28138373  0.87609428  0.15153807  1
  S2-  S143  1  0.23248142  0.86876429  0.64952113  1
  S2-  S144  1  0.48236429  0.24576431  0.14454748  1
  S2-  S145  1  0.46295655  0.14800423  0.65355197  1
  S2-  S146  1  0.50156257  0.45512281  0.15315639  1
  S2-  S147  1  0.49838310  0.39738222  0.65424628  1
  S2-  S148  1  0.54498828  0.61545604  0.21850762  1
  S2-  S149  1  0.60426578  0.61312211  0.65021930  1
  S2-  S150  1  0.49151001  0.77403998  0.15433471  1
  S2-  S151  1  0.47650678  0.78235386  0.63883174  1
  S2-  S152  1  0.77427987  0.11317697  0.15562482  1
  S2-  S153  1  0.74096234  0.07519729  0.65883960  1
  S2-  S154  1  0.75861919  0.39489032  0.15190755  1
  S2-  S155  1  0.75743888  0.40386527  0.65406049  1
  S2-  S156  1  0.72412517  0.64608736  0.15398433  1
  S2-  S157  1  0.80510330  0.61949673  0.67169559  1
  S2-  S158  1  0.64953583  0.88759357  0.14604165  1
  S2-  S159  1  0.73404933  0.82365830  0.66061016  1
  S2-  S160  1  0.11569460  0.04852103  0.34327390  1
  S2-  S161  1  0.09023958  0.02132321  0.84471895  1
  S2-  S162  1  0.15472459  0.26655302  0.32195752  1
  S2-  S163  1  0.14391787  0.27770406  0.85031330  1
  S2-  S164  1  0.13604413  0.48247376  0.33882302  1
  S2-  S165  1  0.04729741  0.49737706  0.85319335  1
  S2-  S166  1  0.11759514  0.71460978  0.34605670  1
  S2-  S167  1  0.04947485  0.77127171  0.85793554  1
  S2-  S168  1  0.38876715  0.01754590  0.34162396  1
  S2-  S169  1  0.43180536  0.02526188  0.84958394  1
  S2-  S170  1  0.36256988  0.26652474  0.32797028  1
  S2-  S171  1  0.39753448  0.27363743  0.84088012  1
  S2-  S172  1  0.38900100  0.49357248  0.34097767  1
  S2-  S173  1  0.37316974  0.52503705  0.85277479  1
  S2-  S174  1  0.39154714  0.72504879  0.33168782  1
  S2-  S175  1  0.49671732  0.75143745  0.86308743  1
  S2-  S176  1  0.63667217  -0.02150579  0.35070552  1
  S2-  S177  1  0.66311423  0.00299526  0.84593047  1
  S2-  S178  1  0.58276571  0.25759547  0.34673385  1
  S2-  S179  1  0.64589427  0.25671141  0.84435753  1
  S2-  S180  1  0.64129746  0.50150130  0.34379413  1
  S2-  S181  1  0.61377279  0.53447805  0.84380957  1
  S2-  S182  1  0.63719130  0.72681251  0.33843044  1
  S2-  S183  1  0.71086268  0.76740531  0.85369835  1
  S2-  S184  1  0.87762689  -0.02073712  0.34434950  1
  S2-  S185  1  0.87648989  -0.08385965  0.85520768  1
  S2-  S186  1  0.95278792  0.26026376  0.36139086  1
  S2-  S187  1  0.89141948  0.32791487  0.85590200  1
  S2-  S188  1  0.89275204  0.50750854  0.34119674  1
  S2-  S189  1  0.83371289  0.51916800  0.81313190  1
  S2-  S190  1  0.86435526  0.73487328  0.35182154  1
  S2-  S191  1  0.87782895  0.71541519  0.79517678  1
  S2-  S192  1  -0.00619658  0.12400296  0.45572058  1
  S2-  S193  1  0.00090700  0.12338224  0.95323980  1
  S2-  S194  1  -0.00486912  0.38213548  0.45664305  1
  S2-  S195  1  0.00811900  0.37115817  0.95706559  1
  S2-  S196  1  -0.00378162  0.63008534  0.45880805  1
  S2-  S197  1  0.00338830  0.62497062  0.95020601  1
  S2-  S198  1  -0.00431150  0.87437203  0.45378214  1
  S2-  S199  1  0.00233639  0.87531687  0.96354200  1
  S2-  S200  1  0.24399749  0.13048320  0.44213317  1
  S2-  S201  1  0.25402482  0.12112573  0.94849893  1
  S2-  S202  1  0.24602569  0.37759918  0.44392053  1
  S2-  S203  1  0.25652296  0.37593727  0.95698636  1
  S2-  S204  1  0.24552674  0.62685113  0.44505298  1
  S2-  S205  1  0.25257058  0.62767982  0.95575152  1
  S2-  S206  1  0.24385898  0.87689244  0.44551060  1
  S2-  S207  1  0.25265319  0.87283621  0.94889082  1
  S2-  S208  1  0.49634463  0.12551893  0.45030233  1
  S2-  S209  1  0.50508672  0.12450190  0.95943605  1
  S2-  S210  1  0.49397484  0.37915582  0.44951792  1
  S2-  S211  1  0.50280572  0.37560696  0.95455489  1
  S2-  S212  1  0.49306488  0.62851976  0.45725473  1
  S2-  S213  1  0.50211602  0.62214629  0.95870890  1
  S2-  S214  1  0.49577395  0.87816288  0.45069058  1
  S2-  S215  1  0.50693112  0.87825223  0.96117153  1
  S2-  S216  1  0.74497807  0.12530556  0.45350305  1
  S2-  S217  1  0.75644437  0.12300952  0.95223318  1
  S2-  S218  1  0.74621611  0.37813775  0.45075774  1
  S2-  S219  1  0.75405251  0.37499307  0.94909575  1
  S2-  S220  1  0.74506838  0.63053066  0.46227569  1
  S2-  S221  1  0.76123908  0.62338616  0.94593130  1
  S2-  S222  1  0.74518208  0.87595384  0.45700995  1
  S2-  S223  1  0.75134829  0.87660050  0.95902355  1
  S2-  S224  1  0.12977485  -0.00159857  0.04850078  1
  S2-  S225  1  0.12309351  0.00204197  0.54536492  1
  S2-  S226  1  0.12808736  0.24848996  0.05255030  1
  S2-  S227  1  0.11909324  0.25307112  0.53779028  1
  S2-  S228  1  0.13029624  0.49938936  0.04928845  1
  S2-  S229  1  0.12079166  0.50457802  0.54559700  1
  S2-  S230  1  0.13149932  0.75100358  0.05057512  1
  S2-  S231  1  0.12248297  0.75147921  0.54791106  1
  S2-  S232  1  0.37875034  -0.00021531  0.04972750  1
  S2-  S233  1  0.36775567  0.00245286  0.54701333  1
  S2-  S234  1  0.37261443  0.24563867  0.04427781  1
  S2-  S235  1  0.36935225  0.25126549  0.53728326  1
  S2-  S236  1  0.37802911  0.49780278  0.05191911  1
  S2-  S237  1  0.36969279  0.50463451  0.54501646  1
  S2-  S238  1  0.37635008  0.75368648  0.04415426  1
  S2-  S239  1  0.36380251  0.75438915  0.53786595  1
  S2-  S240  1  0.63063858  0.00413210  0.04658595  1
  S2-  S241  1  0.61462832  -0.00032415  0.55297451  1
  S2-  S242  1  0.63309144  0.24634667  0.04955426  1
  S2-  S243  1  0.61958934  0.25508875  0.54963558  1
  S2-  S244  1  0.62651483  0.50078299  0.04920935  1
  S2-  S245  1  0.61686129  0.49973045  0.54673343  1
  S2-  S246  1  0.62787931  0.74512263  0.04497499  1
  S2-  S247  1  0.61814171  0.75748344  0.54438951  1
  S2-  S248  1  0.87801605  0.00132099  0.04654104  1
  S2-  S249  1  0.87096533  0.00186828  0.54934858  1
  S2-  S250  1  0.87891885  0.24979257  0.04907927  1
  S2-  S251  1  0.86988266  0.25602580  0.55402313  1
  S2-  S252  1  0.88173820  0.49571755  0.04122076  1
  S2-  S253  1  0.86910458  0.50257386  0.54957717  1
  S2-  S254  1  0.88074594  0.74758554  0.04618771  1
  S2-  S255  1  0.86935624  0.75291463  0.55402626  1
