# generated using pymatgen
data_La6Ce7Pr13Nd19Sm19(BiS2)64
_symmetry_space_group_name_H-M   'P 1'
_cell_length_a   16.07099646
_cell_length_b   16.07236965
_cell_length_c   27.19823578
_cell_angle_alpha   90.17198821
_cell_angle_beta   90.31936733
_cell_angle_gamma   89.98530139
_symmetry_Int_Tables_number   1
_chemical_formula_structural   La6Ce7Pr13Nd19Sm19(BiS2)64
_chemical_formula_sum   'La6 Ce7 Pr13 Nd19 Sm19 Bi64 S128'
_cell_volume   7025.13599795
_cell_formula_units_Z   1
loop_
 _symmetry_equiv_pos_site_id
 _symmetry_equiv_pos_as_xyz
  1  'x, y, z'
loop_
 _atom_type_symbol
 _atom_type_oxidation_number
  La3+  3.0
  Ce3+  3.0
  Pr3+  3.0
  Nd3+  3.0
  Sm3+  3.0
  Bi2+  2.0
  S2-  -2.0
loop_
 _atom_site_type_symbol
 _atom_site_label
 _atom_site_symmetry_multiplicity
 _atom_site_fract_x
 _atom_site_fract_y
 _atom_site_fract_z
 _atom_site_occupancy
  La3+  La0  1  0.26910119  0.37900979  0.58670799  1
  La3+  La1  1  0.75011449  0.36529008  0.08607168  1
  La3+  La2  1  0.75203346  0.10352501  0.09730253  1
  La3+  La3  1  0.37593980  0.48797425  0.41106115  1
  La3+  La4  1  0.76191740  0.86916375  0.56486769  1
  La3+  La5  1  0.00924693  0.13297413  0.60497217  1
  Ce3+  Ce6  1  0.51393630  0.12210524  0.55746306  1
  Ce3+  Ce7  1  0.63606930  0.49395379  0.43141629  1
  Ce3+  Ce8  1  -0.00865726  0.61674215  0.05248510  1
  Ce3+  Ce9  1  0.51137487  0.61814873  0.54618663  1
  Ce3+  Ce10  1  0.26369022  0.61957534  0.55586784  1
  Ce3+  Ce11  1  0.86385585  0.48968429  0.94228129  1
  Ce3+  Ce12  1  0.88610824  0.74655436  0.44045676  1
  Pr3+  Pr13  1  0.51670480  0.87131205  0.56197364  1
  Pr3+  Pr14  1  0.26020453  0.87378473  0.56342352  1
  Pr3+  Pr15  1  0.48820657  0.36904483  0.08082474  1
  Pr3+  Pr16  1  0.24018410  0.36413124  0.06728577  1
  Pr3+  Pr17  1  -0.00840450  0.86539763  0.06155628  1
  Pr3+  Pr18  1  0.62879055  -0.00072757  0.42553268  1
  Pr3+  Pr19  1  0.61749787  0.24061191  0.95505968  1
  Pr3+  Pr20  1  0.13495588  0.00179298  0.44456793  1
  Pr3+  Pr21  1  0.24070194  0.11144154  0.06262841  1
  Pr3+  Pr22  1  0.60541048  0.72826461  0.90532411  1
  Pr3+  Pr23  1  0.37130910  -0.01095688  0.93514582  1
  Pr3+  Pr24  1  0.49473589  0.11159116  0.07226831  1
  Pr3+  Pr25  1  0.63507427  0.74811565  0.42888223  1
  Nd3+  Nd26  1  0.73734764  0.86640216  0.05427487  1
  Nd3+  Nd27  1  0.73839121  0.61677168  0.06002196  1
  Nd3+  Nd28  1  0.48364513  0.61837806  0.08718178  1
  Nd3+  Nd29  1  0.76197829  0.12863918  0.56530903  1
  Nd3+  Nd30  1  0.86556007  0.23818555  0.94064436  1
  Nd3+  Nd31  1  0.38057442  0.00087922  0.43843096  1
  Nd3+  Nd32  1  0.27266740  0.11257279  0.58849900  1
  Nd3+  Nd33  1  0.61451174  -0.00042555  0.92768674  1
  Nd3+  Nd34  1  -0.00678019  0.36104233  0.05993750  1
  Nd3+  Nd35  1  0.51098912  0.37459341  0.55894059  1
  Nd3+  Nd36  1  0.85639993  -0.00969172  0.93289095  1
  Nd3+  Nd37  1  0.01015034  0.62495449  0.57278852  1
  Nd3+  Nd38  1  0.10689768  -0.01550311  0.92208990  1
  Nd3+  Nd39  1  0.89194039  -0.00220322  0.43330580  1
  Nd3+  Nd40  1  0.01110933  0.87616212  0.56795588  1
  Nd3+  Nd41  1  0.36597540  0.49077624  0.94171038  1
  Nd3+  Nd42  1  0.38411579  0.74810199  0.44006103  1
  Nd3+  Nd43  1  0.36862850  0.73845131  0.94135312  1
  Nd3+  Nd44  1  0.12775342  0.23415599  0.91575119  1
  Sm3+  Sm45  1  0.76042321  0.61990557  0.55566000  1
  Sm3+  Sm46  1  0.88546858  0.24601975  0.43926811  1
  Sm3+  Sm47  1  -0.00134344  0.11466177  0.05481242  1
  Sm3+  Sm48  1  0.76437925  0.37209807  0.55833605  1
  Sm3+  Sm49  1  0.13340958  0.74690823  0.44651189  1
  Sm3+  Sm50  1  0.61289395  0.49136705  0.94918091  1
  Sm3+  Sm51  1  0.24211298  0.86610378  0.05459783  1
  Sm3+  Sm52  1  0.13607624  0.24609451  0.45257389  1
  Sm3+  Sm53  1  0.01255198  0.37130978  0.55908309  1
  Sm3+  Sm54  1  0.13541229  0.49498102  0.44401718  1
  Sm3+  Sm55  1  0.24309016  0.61669011  0.05765857  1
  Sm3+  Sm56  1  0.88661810  0.49651122  0.44158268  1
  Sm3+  Sm57  1  0.36488124  0.24203519  0.94966356  1
  Sm3+  Sm58  1  0.49584692  0.86528810  0.05661424  1
  Sm3+  Sm59  1  0.11545967  0.48795103  0.94428251  1
  Sm3+  Sm60  1  0.38048441  0.24926789  0.44488650  1
  Sm3+  Sm61  1  0.63526299  0.24870660  0.43643514  1
  Sm3+  Sm62  1  0.11464183  0.74229011  0.93494801  1
  Sm3+  Sm63  1  0.86124714  0.74062132  0.94066049  1
  Bi2+  Bi64  1  0.07296701  0.12455563  0.29345511  1
  Bi2+  Bi65  1  -0.01675570  0.11902302  0.80092951  1
  Bi2+  Bi66  1  0.02912733  0.38449916  0.28271702  1
  Bi2+  Bi67  1  0.01578593  0.44729700  0.79381857  1
  Bi2+  Bi68  1  -0.00883200  0.57913026  0.30222533  1
  Bi2+  Bi69  1  0.02783392  0.65814723  0.79639566  1
  Bi2+  Bi70  1  0.03273419  0.86337427  0.29414391  1
  Bi2+  Bi71  1  0.00814268  0.85770038  0.78443253  1
  Bi2+  Bi72  1  0.25202654  0.09168644  0.34407580  1
  Bi2+  Bi73  1  0.27664348  0.13799239  0.78530054  1
  Bi2+  Bi74  1  0.23182623  0.36932289  0.29951591  1
  Bi2+  Bi75  1  0.28407253  0.38645758  0.79033052  1
  Bi2+  Bi76  1  0.18077680  0.62836389  0.27749610  1
  Bi2+  Bi77  1  0.22218491  0.60782653  0.78324809  1
  Bi2+  Bi78  1  0.23589301  0.90557998  0.30409466  1
  Bi2+  Bi79  1  0.28325463  0.79190714  0.80828477  1
  Bi2+  Bi80  1  0.42394465  0.10655030  0.28932895  1
  Bi2+  Bi81  1  0.51389857  0.18483124  0.76808453  1
  Bi2+  Bi82  1  0.51187729  0.35471642  0.29343261  1
  Bi2+  Bi83  1  0.53454866  0.37524815  0.80107045  1
  Bi2+  Bi84  1  0.50683823  0.67282974  0.28494472  1
  Bi2+  Bi85  1  0.55958973  0.56767666  0.76533580  1
  Bi2+  Bi86  1  0.42018544  0.88986908  0.27528422  1
  Bi2+  Bi87  1  0.49228927  0.86238559  0.79412161  1
  Bi2+  Bi88  1  0.74248807  0.14152793  0.30717840  1
  Bi2+  Bi89  1  0.71342481  0.12805431  0.79116923  1
  Bi2+  Bi90  1  0.76671904  0.38430102  0.28452665  1
  Bi2+  Bi91  1  0.73162224  0.36540071  0.79507701  1
  Bi2+  Bi92  1  0.81122676  0.62649136  0.25548341  1
  Bi2+  Bi93  1  0.75990985  0.56033556  0.77087649  1
  Bi2+  Bi94  1  0.76889893  0.87252045  0.30628962  1
  Bi2+  Bi95  1  0.78970590  0.87019372  0.78665522  1
  Bi2+  Bi96  1  0.17600112  0.02514839  0.21408871  1
  Bi2+  Bi97  1  0.14151571  -0.02465330  0.71166362  1
  Bi2+  Bi98  1  0.11216753  0.29321511  0.16704467  1
  Bi2+  Bi99  1  0.10727528  0.25292111  0.72930813  1
  Bi2+  Bi100  1  0.14037750  0.48183304  0.19913519  1
  Bi2+  Bi101  1  0.05372049  0.54951421  0.69780042  1
  Bi2+  Bi102  1  0.09817203  0.75605571  0.20037197  1
  Bi2+  Bi103  1  0.14268889  0.77220858  0.70378093  1
  Bi2+  Bi104  1  0.35907394  0.07962302  0.17847421  1
  Bi2+  Bi105  1  0.33174030  -0.03798783  0.75424292  1
  Bi2+  Bi106  1  0.28999414  0.25138344  0.21518319  1
  Bi2+  Bi107  1  0.36268319  0.24265743  0.70192830  1
  Bi2+  Bi108  1  0.37700236  0.50223216  0.21327583  1
  Bi2+  Bi109  1  0.39528689  0.52043892  0.70840970  1
  Bi2+  Bi110  1  0.29657863  0.76104792  0.21447880  1
  Bi2+  Bi111  1  0.32491259  0.70519736  0.70162127  1
  Bi2+  Bi112  1  0.61077223  -0.01261567  0.21770811  1
  Bi2+  Bi113  1  0.56622271  0.00860737  0.68980455  1
  Bi2+  Bi114  1  0.49323064  0.22845969  0.20501587  1
  Bi2+  Bi115  1  0.62044792  0.31584541  0.69947544  1
  Bi2+  Bi116  1  0.65144926  0.51699364  0.21765026  1
  Bi2+  Bi117  1  0.66453617  0.50215279  0.66801275  1
  Bi2+  Bi118  1  0.64485811  0.79596234  0.18763816  1
  Bi2+  Bi119  1  0.62570857  0.75727676  0.69413617  1
  Bi2+  Bi120  1  0.87562766  0.00888373  0.21417253  1
  Bi2+  Bi121  1  0.83302891  -0.00591044  0.69648117  1
  Bi2+  Bi122  1  0.95145230  0.23181943  0.21998010  1
  Bi2+  Bi123  1  0.86511260  0.30805435  0.71618812  1
  Bi2+  Bi124  1  0.93411423  0.50200333  0.19687256  1
  Bi2+  Bi125  1  0.86579114  0.49611156  0.66975835  1
  Bi2+  Bi126  1  0.89951688  0.78674330  0.21077532  1
  Bi2+  Bi127  1  0.88206618  0.68751298  0.70931813  1
  S2-  S128  1  -0.08611826  0.10765578  0.14148220  1
  S2-  S129  1  -0.08464846  0.13577205  0.70246597  1
  S2-  S130  1  -0.10008780  0.35189320  0.14681438  1
  S2-  S131  1  0.00389484  0.30099609  0.64889346  1
  S2-  S132  1  -0.01209634  0.65435429  0.14732695  1
  S2-  S133  1  -0.00327678  0.75512642  0.64335913  1
  S2-  S134  1  -0.00624038  0.90535533  0.16036611  1
  S2-  S135  1  -0.01000549  0.97277073  0.65158116  1
  S2-  S136  1  0.11919447  0.11611468  0.13435117  1
  S2-  S137  1  0.15446566  0.13284431  0.66440696  1
  S2-  S138  1  0.34881728  0.37719452  0.14860576  1
  S2-  S139  1  0.21589247  0.34871101  0.68848942  1
  S2-  S140  1  0.32355169  0.62111150  0.14527352  1
  S2-  S141  1  0.27008522  0.54058230  0.64138750  1
  S2-  S142  1  0.24882589  0.88761687  0.15216523  1
  S2-  S143  1  0.27584311  0.96269918  0.64968376  1
  S2-  S144  1  0.60071329  0.11290457  0.15374335  1
  S2-  S145  1  0.43403709  0.11419428  0.64436851  1
  S2-  S146  1  0.51516349  0.49062067  0.15680029  1
  S2-  S147  1  0.42515173  0.38303519  0.64632509  1
  S2-  S148  1  0.51953625  0.69856294  0.17918211  1
  S2-  S149  1  0.53787455  0.63060162  0.64277650  1
  S2-  S150  1  0.51585940  0.90568600  0.15325705  1
  S2-  S151  1  0.49216281  0.85729771  0.66267243  1
  S2-  S152  1  0.77410153  0.14753525  0.21277486  1
  S2-  S153  1  0.69431448  0.08989668  0.65701465  1
  S2-  S154  1  0.69388512  0.37067672  0.18518180  1
  S2-  S155  1  0.76504271  0.27367021  0.63894169  1
  S2-  S156  1  0.73322723  0.64582195  0.15922985  1
  S2-  S157  1  0.76061020  0.71851842  0.63726891  1
  S2-  S158  1  0.74831915  0.93681581  0.14777976  1
  S2-  S159  1  0.69393938  0.89602215  0.65956188  1
  S2-  S160  1  0.03385056  -0.00887522  0.36046159  1
  S2-  S161  1  0.14036275  0.09493038  0.84631859  1
  S2-  S162  1  0.11159237  0.26821596  0.35309685  1
  S2-  S163  1  0.04236187  0.28117131  0.82950483  1
  S2-  S164  1  0.21971959  0.50478260  0.35768772  1
  S2-  S165  1  0.16385229  0.47337857  0.85018135  1
  S2-  S166  1  0.14902078  0.76080174  0.34897816  1
  S2-  S167  1  0.12931317  0.84710954  0.85570518  1
  S2-  S168  1  0.47698381  -0.01561860  0.35662300  1
  S2-  S169  1  0.48355030  -0.01207775  0.85726064  1
  S2-  S170  1  0.37880990  0.33062486  0.35618113  1
  S2-  S171  1  0.28601840  0.25888889  0.86046381  1
  S2-  S172  1  0.43086241  0.53642487  0.31192338  1
  S2-  S173  1  0.39430017  0.46687234  0.84343054  1
  S2-  S174  1  0.39813972  0.75095900  0.34048479  1
  S2-  S175  1  0.44836721  0.72810723  0.85286019  1
  S2-  S176  1  0.65838550  -0.01080835  0.32299203  1
  S2-  S177  1  0.73626678  -0.00970308  0.85466845  1
  S2-  S178  1  0.59714944  0.23426619  0.34017188  1
  S2-  S179  1  0.60996287  0.17067887  0.86122676  1
  S2-  S180  1  0.63563576  0.46121260  0.33402117  1
  S2-  S181  1  0.61799530  0.56818861  0.86027235  1
  S2-  S182  1  0.65187531  0.75308845  0.32834487  1
  S2-  S183  1  0.65031007  0.78969919  0.80989945  1
  S2-  S184  1  0.84699513  0.02476336  0.33478303  1
  S2-  S185  1  0.96284989  -0.01810458  0.85259870  1
  S2-  S186  1  0.84472774  0.27350431  0.34340201  1
  S2-  S187  1  0.84371154  0.18657452  0.84443111  1
  S2-  S188  1  0.84772021  0.50264026  0.34595124  1
  S2-  S189  1  0.86137486  0.47026298  0.84443021  1
  S2-  S190  1  0.90264660  0.77942044  0.34601372  1
  S2-  S191  1  0.87082913  0.75474286  0.84236877  1
  S2-  S192  1  0.00911426  0.12853255  0.45381541  1
  S2-  S193  1  -0.00743880  0.11767866  0.95017227  1
  S2-  S194  1  0.00919157  0.37242127  0.45321990  1
  S2-  S195  1  -0.00754550  0.36634388  0.95242849  1
  S2-  S196  1  0.01198171  0.61988813  0.45732566  1
  S2-  S197  1  -0.00803774  0.61670414  0.94564205  1
  S2-  S198  1  0.01173080  0.86929238  0.46054731  1
  S2-  S199  1  -0.01365070  0.85840646  0.95455239  1
  S2-  S200  1  0.26156685  0.12611618  0.46842905  1
  S2-  S201  1  0.24715089  0.11200045  0.95557112  1
  S2-  S202  1  0.25573870  0.37101042  0.46193506  1
  S2-  S203  1  0.24161799  0.36909504  0.96056149  1
  S2-  S204  1  0.25884987  0.62426517  0.45158008  1
  S2-  S205  1  0.23852882  0.61665873  0.95140356  1
  S2-  S206  1  0.25881610  0.87182156  0.45540345  1
  S2-  S207  1  0.24533435  0.86504636  0.95161390  1
  S2-  S208  1  0.50756319  0.12860202  0.45112067  1
  S2-  S209  1  0.48645917  0.11970192  0.96372513  1
  S2-  S210  1  0.51105232  0.37069603  0.45203084  1
  S2-  S211  1  0.48894766  0.36617619  0.96289226  1
  S2-  S212  1  0.50842192  0.61927185  0.43945132  1
  S2-  S213  1  0.49038102  0.61388307  0.96363673  1
  S2-  S214  1  0.51049593  0.87009851  0.45397662  1
  S2-  S215  1  0.49690544  0.85907098  0.95397171  1
  S2-  S216  1  0.75862125  0.12461707  0.45153780  1
  S2-  S217  1  0.74207931  0.11718006  0.96206286  1
  S2-  S218  1  0.76214527  0.37154954  0.45315443  1
  S2-  S219  1  0.73967972  0.36812046  0.95876516  1
  S2-  S220  1  0.76063838  0.62012559  0.44971079  1
  S2-  S221  1  0.73884448  0.61756699  0.95459607  1
  S2-  S222  1  0.76002688  0.87498167  0.45034836  1
  S2-  S223  1  0.73077751  0.85391913  0.94911594  1
  S2-  S224  1  0.11728022  -0.01543830  0.03522458  1
  S2-  S225  1  0.13560801  0.00252832  0.55143843  1
  S2-  S226  1  0.11851294  0.24125898  0.03268923  1
  S2-  S227  1  0.14036273  0.25161473  0.55586454  1
  S2-  S228  1  0.11728342  0.49313952  0.04971551  1
  S2-  S229  1  0.13165712  0.49747983  0.54853396  1
  S2-  S230  1  0.12044389  0.74109950  0.04140949  1
  S2-  S231  1  0.13741622  0.74544014  0.55062440  1
  S2-  S232  1  0.36889375  -0.01390435  0.04338456  1
  S2-  S233  1  0.39059882  -0.00628737  0.54295303  1
  S2-  S234  1  0.36697046  0.23763006  0.05310161  1
  S2-  S235  1  0.38617299  0.24776178  0.54811675  1
  S2-  S236  1  0.36538831  0.49349949  0.04655591  1
  S2-  S237  1  0.38747905  0.49670012  0.53428317  1
  S2-  S238  1  0.36698823  0.74434709  0.04770995  1
  S2-  S239  1  0.38682920  0.74739252  0.54691963  1
  S2-  S240  1  0.61595221  -0.00898754  0.04086026  1
  S2-  S241  1  0.63770463  -0.00153527  0.53772793  1
  S2-  S242  1  0.62001860  0.24689958  0.06084604  1
  S2-  S243  1  0.63494804  0.25078013  0.54179013  1
  S2-  S244  1  0.62005902  0.48836790  0.05321799  1
  S2-  S245  1  0.63953464  0.49442468  0.53832504  1
  S2-  S246  1  0.61281933  0.73907985  0.05550632  1
  S2-  S247  1  0.63642655  0.74370893  0.53628933  1
  S2-  S248  1  0.86755656  -0.01226674  0.03988971  1
  S2-  S249  1  0.88174950  0.00189511  0.54494084  1
  S2-  S250  1  0.86606382  0.23706686  0.04628593  1
  S2-  S251  1  0.89080201  0.24670449  0.54345937  1
  S2-  S252  1  0.86662953  0.49242256  0.04837327  1
  S2-  S253  1  0.88875436  0.49770279  0.54621889  1
  S2-  S254  1  0.86374499  0.74155610  0.04635277  1
  S2-  S255  1  0.88693525  0.74420471  0.54248643  1
