# generated using pymatgen
data_La6Ce7Pr13Nd19Sm19(BiS2)64
_symmetry_space_group_name_H-M   'P 1'
_cell_length_a   16.05901302
_cell_length_b   15.99900917
_cell_length_c   27.48584266
_cell_angle_alpha   90.07354630
_cell_angle_beta   90.10108529
_cell_angle_gamma   90.06541101
_symmetry_Int_Tables_number   1
_chemical_formula_structural   La6Ce7Pr13Nd19Sm19(BiS2)64
_chemical_formula_sum   'La6 Ce7 Pr13 Nd19 Sm19 Bi64 S128'
_cell_volume   7061.86930603
_cell_formula_units_Z   1
loop_
 _symmetry_equiv_pos_site_id
 _symmetry_equiv_pos_as_xyz
  1  'x, y, z'
loop_
 _atom_type_symbol
 _atom_type_oxidation_number
  La3+  3.0
  Ce3+  3.0
  Pr3+  3.0
  Nd3+  3.0
  Sm3+  3.0
  Bi2+  2.0
  S2-  -2.0
loop_
 _atom_site_type_symbol
 _atom_site_label
 _atom_site_symmetry_multiplicity
 _atom_site_fract_x
 _atom_site_fract_y
 _atom_site_fract_z
 _atom_site_occupancy
  La3+  La0  1  0.87799311  0.47852397  0.42431314  1
  La3+  La1  1  0.37269697  -0.01614561  0.42635246  1
  La3+  La2  1  0.62324700  -0.01790545  0.43054336  1
  La3+  La3  1  0.36924017  0.72781915  0.41378264  1
  La3+  La4  1  -0.00974810  0.90019140  0.06256105  1
  La3+  La5  1  0.12839710  0.24515004  0.41722640  1
  Ce3+  Ce6  1  0.73683376  0.64358054  0.06872557  1
  Ce3+  Ce7  1  0.62052425  0.77304872  0.94024039  1
  Ce3+  Ce8  1  0.00207432  0.10687062  0.54748569  1
  Ce3+  Ce9  1  0.86427992  0.50966487  0.94954588  1
  Ce3+  Ce10  1  0.87793361  0.73849288  0.44071957  1
  Ce3+  Ce11  1  0.12719332  0.48393485  0.44733938  1
  Ce3+  Ce12  1  0.36224224  0.27008634  0.94560416  1
  Pr3+  Pr13  1  0.12405310  0.00137759  0.89415534  1
  Pr3+  Pr14  1  0.24638678  0.10683263  0.55635640  1
  Pr3+  Pr15  1  0.37524379  0.23864094  0.43883611  1
  Pr3+  Pr16  1  0.24127114  0.39073970  0.06780830  1
  Pr3+  Pr17  1  0.85678418  0.01066508  0.89268179  1
  Pr3+  Pr18  1  0.62524472  0.48055837  0.43967656  1
  Pr3+  Pr19  1  0.36387988  0.77238618  0.93658599  1
  Pr3+  Pr20  1  0.62726693  0.73484538  0.44098883  1
  Pr3+  Pr21  1  0.87305251  -0.01439339  0.42458266  1
  Pr3+  Pr22  1  0.74204197  0.14659954  0.06292912  1
  Pr3+  Pr23  1  0.24438301  0.65275721  0.07823864  1
  Pr3+  Pr24  1  0.75433271  0.35862303  0.57442869  1
  Pr3+  Pr25  1  0.25347669  0.85549324  0.57509419  1
  Nd3+  Nd26  1  0.86999452  0.23226582  0.42743176  1
  Nd3+  Nd27  1  0.36462519  0.52054073  0.94876962  1
  Nd3+  Nd28  1  0.73633203  0.39956366  0.09720518  1
  Nd3+  Nd29  1  0.48880042  0.64726059  0.06680952  1
  Nd3+  Nd30  1  0.75447537  0.10732232  0.56070273  1
  Nd3+  Nd31  1  0.00261939  0.85265211  0.58429025  1
  Nd3+  Nd32  1  -0.00002967  0.39212426  0.07374942  1
  Nd3+  Nd33  1  0.61877821  0.27234484  0.93925512  1
  Nd3+  Nd34  1  0.86715816  0.77200341  0.94724500  1
  Nd3+  Nd35  1  0.75341995  0.86663055  0.56839151  1
  Nd3+  Nd36  1  0.62446179  0.23677626  0.43969157  1
  Nd3+  Nd37  1  0.11251518  0.26243252  0.93420132  1
  Nd3+  Nd38  1  0.61704520  0.51545088  0.94693682  1
  Nd3+  Nd39  1  0.50058825  0.35006882  0.57903380  1
  Nd3+  Nd40  1  0.25364651  0.61099313  0.56493843  1
  Nd3+  Nd41  1  0.11621587  0.51422924  0.93943124  1
  Nd3+  Nd42  1  0.13023719  -0.01868282  0.43083322  1
  Nd3+  Nd43  1  0.49689258  0.85713924  0.55675805  1
  Nd3+  Nd44  1  0.86460859  0.26941944  0.94131772  1
  Sm3+  Sm45  1  0.73972942  0.89795439  0.05586968  1
  Sm3+  Sm46  1  0.50280817  0.60854505  0.55512331  1
  Sm3+  Sm47  1  0.75367926  0.60881973  0.55069723  1
  Sm3+  Sm48  1  0.49389870  0.14373512  0.05981271  1
  Sm3+  Sm49  1  0.36181315  0.02256461  0.94429664  1
  Sm3+  Sm50  1  0.24753188  0.35765827  0.57013383  1
  Sm3+  Sm51  1  -0.01126846  0.14421433  0.04856712  1
  Sm3+  Sm52  1  0.37644462  0.48374816  0.44440280  1
  Sm3+  Sm53  1  0.23820939  0.14085691  0.06226795  1
  Sm3+  Sm54  1  0.49971610  0.10852528  0.55763254  1
  Sm3+  Sm55  1  0.24218158  0.90237888  0.06774843  1
  Sm3+  Sm56  1  -0.00032103  0.35642182  0.56276854  1
  Sm3+  Sm57  1  -0.00982116  0.64219402  0.05649401  1
  Sm3+  Sm58  1  -0.00018317  0.61058104  0.55369120  1
  Sm3+  Sm59  1  0.12825099  0.73663343  0.44231116  1
  Sm3+  Sm60  1  0.49297887  0.89522932  0.05148848  1
  Sm3+  Sm61  1  0.11507940  0.77057980  0.94993846  1
  Sm3+  Sm62  1  0.49116850  0.39171379  0.06796701  1
  Sm3+  Sm63  1  0.61675314  0.02978008  0.93120962  1
  Bi2+  Bi64  1  0.01444037  0.05619831  0.29299826  1
  Bi2+  Bi65  1  0.02622434  0.22885462  0.77525377  1
  Bi2+  Bi66  1  0.03589030  0.36179122  0.28646899  1
  Bi2+  Bi67  1  -0.03859915  0.41519691  0.78574256  1
  Bi2+  Bi68  1  0.05039337  0.60482647  0.28290339  1
  Bi2+  Bi69  1  -0.03965172  0.61796325  0.79640516  1
  Bi2+  Bi70  1  -0.00315466  0.86207672  0.31908177  1
  Bi2+  Bi71  1  -0.00855333  0.86481664  0.78549006  1
  Bi2+  Bi72  1  0.28415518  0.10837214  0.28194324  1
  Bi2+  Bi73  1  0.27272215  0.13666069  0.79661604  1
  Bi2+  Bi74  1  0.31024036  0.37038495  0.29668247  1
  Bi2+  Bi75  1  0.23247648  0.41832213  0.79875364  1
  Bi2+  Bi76  1  0.24851309  0.59634952  0.29509142  1
  Bi2+  Bi77  1  0.15100854  0.60062901  0.81716286  1
  Bi2+  Bi78  1  0.18376641  0.85976432  0.28516497  1
  Bi2+  Bi79  1  0.24380033  0.86343037  0.79104779  1
  Bi2+  Bi80  1  0.48132726  0.15136449  0.30678397  1
  Bi2+  Bi81  1  0.50166152  0.11216744  0.73894881  1
  Bi2+  Bi82  1  0.48791859  0.34408727  0.34390482  1
  Bi2+  Bi83  1  0.50697968  0.38210474  0.79766222  1
  Bi2+  Bi84  1  0.50642960  0.65142507  0.29634439  1
  Bi2+  Bi85  1  0.42038503  0.57986591  0.77216520  1
  Bi2+  Bi86  1  0.55617510  0.88178055  0.28540178  1
  Bi2+  Bi87  1  0.48380562  0.83959952  0.78941041  1
  Bi2+  Bi88  1  0.73939580  0.10383273  0.29434645  1
  Bi2+  Bi89  1  0.70916759  0.11989186  0.79052570  1
  Bi2+  Bi90  1  0.75412225  0.38964238  0.30610062  1
  Bi2+  Bi91  1  0.75040237  0.31080608  0.81078078  1
  Bi2+  Bi92  1  0.76512849  0.65889721  0.28013320  1
  Bi2+  Bi93  1  0.70247706  0.61862267  0.78773947  1
  Bi2+  Bi94  1  0.81225286  0.89396894  0.26980513  1
  Bi2+  Bi95  1  0.73139663  0.83628365  0.79069184  1
  Bi2+  Bi96  1  0.13504399  -0.00089100  0.20836111  1
  Bi2+  Bi97  1  0.11822260  0.03315585  0.69224570  1
  Bi2+  Bi98  1  0.20128688  0.19971025  0.19241284  1
  Bi2+  Bi99  1  0.18121243  0.24358127  0.70643359  1
  Bi2+  Bi100  1  0.15582895  0.49849489  0.20667408  1
  Bi2+  Bi101  1  0.10149511  0.49141478  0.71189574  1
  Bi2+  Bi102  1  0.16186422  0.70835425  0.20723051  1
  Bi2+  Bi103  1  0.12480704  0.68909131  0.71752437  1
  Bi2+  Bi104  1  0.42792351  0.02279825  0.22152080  1
  Bi2+  Bi105  1  0.36744337  -0.02764492  0.72171944  1
  Bi2+  Bi106  1  0.36310853  0.30430621  0.18954427  1
  Bi2+  Bi107  1  0.37201885  0.29763048  0.73774891  1
  Bi2+  Bi108  1  0.37337446  0.49750911  0.21516845  1
  Bi2+  Bi109  1  0.29766782  0.50161818  0.69645237  1
  Bi2+  Bi110  1  0.42380192  0.76361529  0.19251204  1
  Bi2+  Bi111  1  0.39365766  0.73952292  0.70297118  1
  Bi2+  Bi112  1  0.63889559  0.04669361  0.20421477  1
  Bi2+  Bi113  1  0.59147647  -0.05913566  0.70990303  1
  Bi2+  Bi114  1  0.54979207  0.29284741  0.23715175  1
  Bi2+  Bi115  1  0.63468650  0.25511380  0.70881256  1
  Bi2+  Bi116  1  0.56582146  0.49255079  0.23902787  1
  Bi2+  Bi117  1  0.58244756  0.51014007  0.72052074  1
  Bi2+  Bi118  1  0.67853922  0.77865571  0.20731027  1
  Bi2+  Bi119  1  0.62430116  0.74629738  0.70766010  1
  Bi2+  Bi120  1  0.90904915  0.01728621  0.19771853  1
  Bi2+  Bi121  1  0.85485846  -0.00139391  0.69498458  1
  Bi2+  Bi122  1  0.87427327  0.23787047  0.20945792  1
  Bi2+  Bi123  1  0.89250371  0.24916816  0.69814857  1
  Bi2+  Bi124  1  0.87722092  0.50718034  0.20658411  1
  Bi2+  Bi125  1  0.80822475  0.48771743  0.72360679  1
  Bi2+  Bi126  1  0.95010537  0.74695725  0.22092752  1
  Bi2+  Bi127  1  0.86962927  0.69757163  0.70633050  1
  S2-  S128  1  -0.01332098  0.14337270  0.14879462  1
  S2-  S129  1  -0.02668469  0.10686680  0.64556598  1
  S2-  S130  1  -0.04949364  0.37581454  0.16898852  1
  S2-  S131  1  0.12007503  0.34950827  0.63933620  1
  S2-  S132  1  -0.02015060  0.62084067  0.15263817  1
  S2-  S133  1  0.00710751  0.68791290  0.64226208  1
  S2-  S134  1  0.01014143  0.88428429  0.16211504  1
  S2-  S135  1  -0.13258389  0.85664849  0.64902567  1
  S2-  S136  1  0.25313132  0.03116116  0.13964255  1
  S2-  S137  1  0.26590863  0.10286796  0.65669225  1
  S2-  S138  1  0.14246574  0.36092625  0.14753874  1
  S2-  S139  1  0.36576233  0.36702199  0.64456224  1
  S2-  S140  1  0.37517699  0.62595929  0.14520687  1
  S2-  S141  1  0.25330991  0.71166197  0.64638755  1
  S2-  S142  1  0.26465972  0.79768782  0.14571195  1
  S2-  S143  1  0.13145891  0.89000431  0.64916605  1
  S2-  S144  1  0.50342159  0.13253657  0.15695678  1
  S2-  S145  1  0.50875611  0.18906033  0.64391453  1
  S2-  S146  1  0.58201249  0.39412398  0.15074093  1
  S2-  S147  1  0.62454853  0.38860459  0.64735043  1
  S2-  S148  1  0.57159920  0.68393085  0.15481452  1
  S2-  S149  1  0.51312650  0.63653527  0.65152713  1
  S2-  S150  1  0.48002420  0.89740057  0.14904722  1
  S2-  S151  1  0.39712765  0.87744837  0.63846292  1
  S2-  S152  1  0.73829673  0.16540382  0.16300919  1
  S2-  S153  1  0.76000208  0.21448883  0.64086860  1
  S2-  S154  1  0.76900648  0.36420454  0.20300331  1
  S2-  S155  1  0.89225514  0.38618432  0.64090431  1
  S2-  S156  1  0.75264974  0.55235565  0.15005686  1
  S2-  S157  1  0.77512635  0.60067525  0.64803487  1
  S2-  S158  1  0.72834106  0.92325981  0.15184681  1
  S2-  S159  1  0.71936794  0.99663698  0.64043622  1
  S2-  S160  1  0.24531305  -0.01895854  0.35281099  1
  S2-  S161  1  0.11388106  -0.01821188  0.78625982  1
  S2-  S162  1  0.07314439  0.21241823  0.31977463  1
  S2-  S163  1  0.12400026  0.16292250  0.85074203  1
  S2-  S164  1  0.12778999  0.41254775  0.35936519  1
  S2-  S165  1  0.11103619  0.39358416  0.86562172  1
  S2-  S166  1  0.21421709  0.73581851  0.35776089  1
  S2-  S167  1  0.11443227  0.82767144  0.85829901  1
  S2-  S168  1  0.50221140  -0.00925969  0.35355671  1
  S2-  S169  1  0.29294936  -0.00881326  0.85683434  1
  S2-  S170  1  0.27525966  0.23577003  0.35442547  1
  S2-  S171  1  0.36203099  0.23640845  0.84984457  1
  S2-  S172  1  0.38556701  0.57219580  0.35881787  1
  S2-  S173  1  0.38674887  0.48315761  0.85332135  1
  S2-  S174  1  0.42106208  0.79285307  0.31789521  1
  S2-  S175  1  0.34790045  0.75435922  0.83780003  1
  S2-  S176  1  0.73677627  -0.03680965  0.35366651  1
  S2-  S177  1  0.69782898  -0.02589638  0.84805831  1
  S2-  S178  1  0.70930263  0.24310454  0.35185342  1
  S2-  S179  1  0.59892366  0.15918629  0.86149648  1
  S2-  S180  1  0.63002624  0.49668091  0.33926847  1
  S2-  S181  1  0.62585208  0.40454300  0.86829694  1
  S2-  S182  1  0.63022102  0.74325384  0.34070828  1
  S2-  S183  1  0.60523854  0.73770738  0.84582202  1
  S2-  S184  1  0.87882002  0.11218217  0.35064085  1
  S2-  S185  1  0.90888140  0.00505440  0.79170416  1
  S2-  S186  1  0.90052962  0.34694971  0.35221377  1
  S2-  S187  1  0.84206681  0.18080016  0.85274236  1
  S2-  S188  1  0.84756358  0.53907507  0.32513844  1
  S2-  S189  1  0.85674435  0.40458159  0.87167647  1
  S2-  S190  1  0.85242806  0.75892790  0.34627870  1
  S2-  S191  1  0.86773841  0.83037671  0.85405369  1
  S2-  S192  1  0.00773649  0.10909811  0.44414518  1
  S2-  S193  1  -0.01514047  0.13528699  0.94637417  1
  S2-  S194  1  0.00297619  0.35893500  0.45891483  1
  S2-  S195  1  -0.00607199  0.39226166  0.96705609  1
  S2-  S196  1  0.00290293  0.61135586  0.44751486  1
  S2-  S197  1  -0.00899850  0.64302840  0.95207612  1
  S2-  S198  1  0.00395933  0.86066057  0.44687631  1
  S2-  S199  1  -0.00820106  0.89844622  0.95410846  1
  S2-  S200  1  0.24841547  0.11235511  0.45189631  1
  S2-  S201  1  0.24009564  0.14098394  0.95881155  1
  S2-  S202  1  0.25391894  0.36410089  0.46353150  1
  S2-  S203  1  0.24117743  0.39389291  0.96210640  1
  S2-  S204  1  0.25059305  0.60792411  0.45974929  1
  S2-  S205  1  0.23902466  0.64549076  0.95917975  1
  S2-  S206  1  0.25300973  0.85617651  0.45872582  1
  S2-  S207  1  0.23821293  0.89523567  0.96238869  1
  S2-  S208  1  0.49895062  0.11334117  0.45468435  1
  S2-  S209  1  0.48549518  0.14516915  0.95812018  1
  S2-  S210  1  0.49954955  0.36122548  0.46747054  1
  S2-  S211  1  0.48810692  0.39329119  0.96438132  1
  S2-  S212  1  0.50277263  0.60950381  0.45285545  1
  S2-  S213  1  0.49167528  0.64489474  0.95561020  1
  S2-  S214  1  0.49520012  0.85252361  0.45159917  1
  S2-  S215  1  0.49232483  0.90079895  0.94565815  1
  S2-  S216  1  0.74681132  0.10820467  0.45554449  1
  S2-  S217  1  0.74197865  0.14259240  0.95790593  1
  S2-  S218  1  0.75093601  0.35934910  0.45869776  1
  S2-  S219  1  0.73906991  0.39335233  0.97455471  1
  S2-  S220  1  0.75213056  0.60881586  0.44714726  1
  S2-  S221  1  0.74251411  0.64243384  0.95734443  1
  S2-  S222  1  0.75185052  0.85889846  0.46071611  1
  S2-  S223  1  0.74470719  0.90042181  0.95420424  1
  S2-  S224  1  0.11395466  0.02222708  0.04864299  1
  S2-  S225  1  0.12395458  -0.02143713  0.53821423  1
  S2-  S226  1  0.11644698  0.26228255  0.04146812  1
  S2-  S227  1  0.12493032  0.23420680  0.53854916  1
  S2-  S228  1  0.12014490  0.52485292  0.04909923  1
  S2-  S229  1  0.12443823  0.48980124  0.55111746  1
  S2-  S230  1  0.11392607  0.76909810  0.05207272  1
  S2-  S231  1  0.12449942  0.73474047  0.54352405  1
  S2-  S232  1  0.37183729  0.01979205  0.04530486  1
  S2-  S233  1  0.37669790  -0.01253475  0.53794331  1
  S2-  S234  1  0.36666338  0.26477854  0.05242604  1
  S2-  S235  1  0.37238415  0.23188834  0.54510565  1
  S2-  S236  1  0.36574590  0.51485050  0.05175856  1
  S2-  S237  1  0.37811726  0.48816245  0.54727946  1
  S2-  S238  1  0.36809142  0.77440197  0.04167462  1
  S2-  S239  1  0.37914820  0.72936372  0.54041332  1
  S2-  S240  1  0.61495139  0.02006393  0.04116729  1
  S2-  S241  1  0.61920456  -0.01653951  0.53930982  1
  S2-  S242  1  0.61375788  0.26963353  0.05002769  1
  S2-  S243  1  0.62604800  0.23167101  0.54319919  1
  S2-  S244  1  0.61095482  0.51992285  0.05076906  1
  S2-  S245  1  0.62815953  0.48801738  0.54546552  1
  S2-  S246  1  0.61723436  0.77298733  0.04446442  1
  S2-  S247  1  0.62857757  0.73500266  0.54815980  1
  S2-  S248  1  0.86353601  0.02054105  0.05319386  1
  S2-  S249  1  0.88092918  -0.02045871  0.53785597  1
  S2-  S250  1  0.86715956  0.27334401  0.05304581  1
  S2-  S251  1  0.88000389  0.23307620  0.53603250  1
  S2-  S252  1  0.86898293  0.51542646  0.05213854  1
  S2-  S253  1  0.87808213  0.48891674  0.53552104  1
  S2-  S254  1  0.86377195  0.76842510  0.05347161  1
  S2-  S255  1  0.87623099  0.73500310  0.54373525  1
