# generated using pymatgen
data_La6Ce7Pr13Nd19Sm19(BiS2)64
_symmetry_space_group_name_H-M   'P 1'
_cell_length_a   16.11631663
_cell_length_b   16.09548156
_cell_length_c   27.28109632
_cell_angle_alpha   89.76215482
_cell_angle_beta   89.97476030
_cell_angle_gamma   90.03282301
_symmetry_Int_Tables_number   1
_chemical_formula_structural   La6Ce7Pr13Nd19Sm19(BiS2)64
_chemical_formula_sum   'La6 Ce7 Pr13 Nd19 Sm19 Bi64 S128'
_cell_volume   7076.65019954
_cell_formula_units_Z   1
loop_
 _symmetry_equiv_pos_site_id
 _symmetry_equiv_pos_as_xyz
  1  'x, y, z'
loop_
 _atom_type_symbol
 _atom_type_oxidation_number
  La3+  3.0
  Ce3+  3.0
  Pr3+  3.0
  Nd3+  3.0
  Sm3+  3.0
  Bi2+  2.0
  S2-  -2.0
loop_
 _atom_site_type_symbol
 _atom_site_label
 _atom_site_symmetry_multiplicity
 _atom_site_fract_x
 _atom_site_fract_y
 _atom_site_fract_z
 _atom_site_occupancy
  La3+  La0  1  0.37177676  0.24378885  0.93236393  1
  La3+  La1  1  0.74177880  0.14208230  0.61211250  1
  La3+  La2  1  0.86293131  0.48581200  0.93095971  1
  La3+  La3  1  0.38076928  0.50482220  0.38717671  1
  La3+  La4  1  0.38046142  -0.00370971  0.88748695  1
  La3+  La5  1  0.76361765  0.87451525  0.59609007  1
  Ce3+  Ce6  1  0.49797148  0.35905122  0.06010636  1
  Ce3+  Ce7  1  -0.00235623  0.36604202  0.06096071  1
  Ce3+  Ce8  1  0.12828731  0.25513520  0.44477541  1
  Ce3+  Ce9  1  0.87102036  -0.01334916  0.94483701  1
  Ce3+  Ce10  1  0.50410446  0.88237397  0.56090476  1
  Ce3+  Ce11  1  0.74683868  0.37925218  0.56378817  1
  Ce3+  Ce12  1  0.49718119  0.10855839  0.05384519  1
  Pr3+  Pr13  1  0.24970153  0.62862392  0.55660986  1
  Pr3+  Pr14  1  0.12664361  -0.01325883  0.93238135  1
  Pr3+  Pr15  1  0.00074710  0.86047794  0.06598301  1
  Pr3+  Pr16  1  0.00113959  0.37928607  0.55865201  1
  Pr3+  Pr17  1  0.49776641  0.60819901  0.07109595  1
  Pr3+  Pr18  1  0.63010196  -0.02048105  0.92746168  1
  Pr3+  Pr19  1  0.00014713  0.11196808  0.05810755  1
  Pr3+  Pr20  1  0.24707263  0.12132710  0.57667938  1
  Pr3+  Pr21  1  0.12326500  0.73744137  0.93866720  1
  Pr3+  Pr22  1  0.63099811  0.26610449  0.42675667  1
  Pr3+  Pr23  1  0.49919810  0.62866112  0.55695470  1
  Pr3+  Pr24  1  0.62819358  0.00937396  0.45386113  1
  Pr3+  Pr25  1  0.50046105  0.37955051  0.55266619  1
  Nd3+  Nd26  1  0.74694042  0.61282634  0.06044753  1
  Nd3+  Nd27  1  0.74950329  0.62613994  0.56925600  1
  Nd3+  Nd28  1  0.37431056  0.74076642  0.93577755  1
  Nd3+  Nd29  1  0.74570949  0.86475843  0.07226250  1
  Nd3+  Nd30  1  0.37882735  0.00796571  0.43885351  1
  Nd3+  Nd31  1  0.24897160  0.11234751  0.05793077  1
  Nd3+  Nd32  1  0.49752845  0.13228323  0.57026202  1
  Nd3+  Nd33  1  0.12892609  0.50530713  0.42784217  1
  Nd3+  Nd34  1  0.37561085  0.48963034  0.93374888  1
  Nd3+  Nd35  1  0.12780250  0.01070709  0.43389750  1
  Nd3+  Nd36  1  0.24541328  0.86220569  0.06421839  1
  Nd3+  Nd37  1  0.48895160  0.86274357  0.06230268  1
  Nd3+  Nd38  1  0.11904489  0.48774942  0.93733299  1
  Nd3+  Nd39  1  0.74411455  0.10825775  0.06713735  1
  Nd3+  Nd40  1  0.62179498  0.23374850  0.93801310  1
  Nd3+  Nd41  1  0.74788659  0.35298092  0.07684372  1
  Nd3+  Nd42  1  0.63667286  0.51722536  0.42511573  1
  Nd3+  Nd43  1  -0.00153579  0.88207244  0.55374195  1
  Nd3+  Nd44  1  0.86911572  0.23793865  0.94473045  1
  Sm3+  Sm45  1  0.12159329  0.23907225  0.94649485  1
  Sm3+  Sm46  1  0.24819900  0.36565881  0.05884922  1
  Sm3+  Sm47  1  0.37559769  0.75136528  0.43999515  1
  Sm3+  Sm48  1  0.00204282  0.62963650  0.55096945  1
  Sm3+  Sm49  1  0.87702756  0.50648429  0.44460902  1
  Sm3+  Sm50  1  0.24971390  0.37914944  0.55583682  1
  Sm3+  Sm51  1  0.37796096  0.25862319  0.44061560  1
  Sm3+  Sm52  1  0.87524029  0.75746315  0.44215339  1
  Sm3+  Sm53  1  0.86949825  0.74097008  0.94423381  1
  Sm3+  Sm54  1  0.61820045  0.74343665  0.94582776  1
  Sm3+  Sm55  1  0.87275765  0.25591630  0.44218199  1
  Sm3+  Sm56  1  0.62186578  0.49087570  0.94598613  1
  Sm3+  Sm57  1  0.24971059  0.88230982  0.55187220  1
  Sm3+  Sm58  1  0.86915335  0.00669488  0.44158809  1
  Sm3+  Sm59  1  0.12621175  0.75688791  0.44054642  1
  Sm3+  Sm60  1  -0.00880211  0.12812392  0.55601942  1
  Sm3+  Sm61  1  0.62814462  0.75372827  0.44597947  1
  Sm3+  Sm62  1  -0.00453653  0.61010521  0.05216576  1
  Sm3+  Sm63  1  0.24919907  0.61054235  0.05453997  1
  Bi2+  Bi64  1  -0.02782986  0.11955393  0.26923697  1
  Bi2+  Bi65  1  0.00912386  0.07443037  0.79557220  1
  Bi2+  Bi66  1  -0.00797938  0.45818709  0.30711033  1
  Bi2+  Bi67  1  0.03138582  0.34591709  0.80535486  1
  Bi2+  Bi68  1  0.01471691  0.65510176  0.30238252  1
  Bi2+  Bi69  1  0.10742900  0.62961265  0.78388814  1
  Bi2+  Bi70  1  -0.04115473  0.84619199  0.27552061  1
  Bi2+  Bi71  1  0.02719769  0.88742652  0.76493553  1
  Bi2+  Bi72  1  0.23000865  0.09787466  0.30713324  1
  Bi2+  Bi73  1  0.21404648  0.13048525  0.78090876  1
  Bi2+  Bi74  1  0.16255936  0.35799145  0.28807177  1
  Bi2+  Bi75  1  0.27978732  0.41702557  0.78098664  1
  Bi2+  Bi76  1  0.20378938  0.62657232  0.26827809  1
  Bi2+  Bi77  1  0.30255115  0.62201646  0.80928817  1
  Bi2+  Bi78  1  0.19933766  0.88061032  0.27863831  1
  Bi2+  Bi79  1  0.23700544  0.84827304  0.78793406  1
  Bi2+  Bi80  1  0.46357193  0.08549500  0.28139312  1
  Bi2+  Bi81  1  0.50008968  0.17302942  0.79225988  1
  Bi2+  Bi82  1  0.50830752  0.32815055  0.28580828  1
  Bi2+  Bi83  1  0.50883993  0.44153464  0.79168499  1
  Bi2+  Bi84  1  0.50566908  0.65314311  0.28231988  1
  Bi2+  Bi85  1  0.49665265  0.61024111  0.84939758  1
  Bi2+  Bi86  1  0.53564622  0.85877613  0.25891002  1
  Bi2+  Bi87  1  0.50876421  0.77410678  0.78584988  1
  Bi2+  Bi88  1  0.73135275  0.12347363  0.31346820  1
  Bi2+  Bi89  1  0.74764807  0.13630914  0.81515465  1
  Bi2+  Bi90  1  0.74938090  0.39941362  0.29112388  1
  Bi2+  Bi91  1  0.78969347  0.38379942  0.79960166  1
  Bi2+  Bi92  1  0.75373874  0.64732792  0.29153514  1
  Bi2+  Bi93  1  0.75027641  0.61977287  0.79575632  1
  Bi2+  Bi94  1  0.72623825  0.88659842  0.29311864  1
  Bi2+  Bi95  1  0.75222188  0.84937799  0.79596389  1
  Bi2+  Bi96  1  0.13126650  0.01757714  0.20282688  1
  Bi2+  Bi97  1  0.10830235  0.04891093  0.69288751  1
  Bi2+  Bi98  1  0.07939197  0.24694130  0.20355192  1
  Bi2+  Bi99  1  0.16371121  0.24136626  0.68835257  1
  Bi2+  Bi100  1  0.12094253  0.46587795  0.19418780  1
  Bi2+  Bi101  1  0.09167868  0.50059559  0.69656255  1
  Bi2+  Bi102  1  0.08767340  0.74843369  0.20342000  1
  Bi2+  Bi103  1  0.14003819  0.76554370  0.70050882  1
  Bi2+  Bi104  1  0.37681177  -0.02111335  0.18557281  1
  Bi2+  Bi105  1  0.36545241  -0.00535825  0.69952989  1
  Bi2+  Bi106  1  0.34060430  0.23427736  0.26055925  1
  Bi2+  Bi107  1  0.35112574  0.28274643  0.70830329  1
  Bi2+  Bi108  1  0.36637358  0.50377461  0.19138942  1
  Bi2+  Bi109  1  0.39217515  0.53711556  0.71726014  1
  Bi2+  Bi110  1  0.35389659  0.77618750  0.25114645  1
  Bi2+  Bi111  1  0.35612753  0.74532063  0.71293400  1
  Bi2+  Bi112  1  0.60813118  0.04856374  0.20514396  1
  Bi2+  Bi113  1  0.59833519  0.01133936  0.72014105  1
  Bi2+  Bi114  1  0.62650767  0.26201624  0.19700139  1
  Bi2+  Bi115  1  0.60431087  0.33589485  0.71376084  1
  Bi2+  Bi116  1  0.60992738  0.51453693  0.19890873  1
  Bi2+  Bi117  1  0.69634218  0.49468119  0.67475081  1
  Bi2+  Bi118  1  0.69480478  0.77463449  0.20261971  1
  Bi2+  Bi119  1  0.62964432  0.66988855  0.71566214  1
  Bi2+  Bi120  1  0.86638011  -0.01572572  0.21169637  1
  Bi2+  Bi121  1  0.87770401  -0.01229505  0.71119578  1
  Bi2+  Bi122  1  0.90870919  0.30215419  0.25418493  1
  Bi2+  Bi123  1  0.97276207  0.22543533  0.72135081  1
  Bi2+  Bi124  1  0.89485154  0.57465508  0.22368640  1
  Bi2+  Bi125  1  0.87682423  0.49143664  0.71805506  1
  Bi2+  Bi126  1  0.88800655  0.79530308  0.17310380  1
  Bi2+  Bi127  1  0.88841240  0.68513885  0.72221189  1
  S2-  S128  1  -0.01582017  0.09075277  0.15717466  1
  S2-  S129  1  -0.08687418  0.12970201  0.64415844  1
  S2-  S130  1  -0.03610094  0.34950559  0.15542973  1
  S2-  S131  1  -0.02391291  0.38357448  0.65828000  1
  S2-  S132  1  0.00959608  0.58214210  0.14958832  1
  S2-  S133  1  0.00484084  0.63404561  0.64836547  1
  S2-  S134  1  0.12081263  0.87774112  0.13971854  1
  S2-  S135  1  -0.07366081  0.88259465  0.64420626  1
  S2-  S136  1  0.25504938  0.10057689  0.15787262  1
  S2-  S137  1  0.37296577  0.14128253  0.64712393  1
  S2-  S138  1  0.25875122  0.37892096  0.15654846  1
  S2-  S139  1  0.20514398  0.41267308  0.64930834  1
  S2-  S140  1  0.25367475  0.60153148  0.15247833  1
  S2-  S141  1  0.24392536  0.65141203  0.65618449  1
  S2-  S142  1  0.33970061  0.83467965  0.14892238  1
  S2-  S143  1  0.22790321  0.96496910  0.63617326  1
  S2-  S144  1  0.50620042  0.15390853  0.14891804  1
  S2-  S145  1  0.58222843  0.13867851  0.65739000  1
  S2-  S146  1  0.49428601  0.39802458  0.15570559  1
  S2-  S147  1  0.47016542  0.36302532  0.65253995  1
  S2-  S148  1  0.48287949  0.63343963  0.17008435  1
  S2-  S149  1  0.48801324  0.64153269  0.65718530  1
  S2-  S150  1  0.53109469  0.91347118  0.15495876  1
  S2-  S151  1  0.49322812  0.91074236  0.65742572  1
  S2-  S152  1  0.75443966  0.21538110  0.14608459  1
  S2-  S153  1  0.74374205  0.11146296  0.72126923  1
  S2-  S154  1  0.72263605  0.40536158  0.17430386  1
  S2-  S155  1  0.74340067  0.30561796  0.65269526  1
  S2-  S156  1  0.72073744  0.61277200  0.15877801  1
  S2-  S157  1  0.76994288  0.71897272  0.65218955  1
  S2-  S158  1  0.73850628  0.98966385  0.14271572  1
  S2-  S159  1  0.71536512  0.90639355  0.69506900  1
  S2-  S160  1  0.10663173  -0.01119744  0.33657227  1
  S2-  S161  1  0.21824636  -0.01110504  0.84688597  1
  S2-  S162  1  0.12471517  0.22328436  0.34976154  1
  S2-  S163  1  0.14019157  0.24432388  0.84907741  1
  S2-  S164  1  0.22250701  0.50722176  0.34310278  1
  S2-  S165  1  0.13700207  0.47271434  0.83918919  1
  S2-  S166  1  0.15347948  0.74642145  0.34464122  1
  S2-  S167  1  0.09384478  0.77551049  0.84231775  1
  S2-  S168  1  0.36129115  -0.01007264  0.34061341  1
  S2-  S169  1  0.44063254  0.00728848  0.78320843  1
  S2-  S170  1  0.37062404  0.32684834  0.35011998  1
  S2-  S171  1  0.36241380  0.15977848  0.84415840  1
  S2-  S172  1  0.44219233  0.50101011  0.28853856  1
  S2-  S173  1  0.38254823  0.37587322  0.85732266  1
  S2-  S174  1  0.38140052  0.68178359  0.35081443  1
  S2-  S175  1  0.37975891  0.83132928  0.84991652  1
  S2-  S176  1  0.64352635  -0.01094488  0.35347850  1
  S2-  S177  1  0.60247845  0.06170511  0.83890636  1
  S2-  S178  1  0.57513155  0.19181302  0.33970803  1
  S2-  S179  1  0.63069245  0.26481563  0.83950447  1
  S2-  S180  1  0.61646486  0.40088184  0.35142537  1
  S2-  S181  1  0.71870803  0.48289415  0.86390983  1
  S2-  S182  1  0.62741359  0.66257550  0.36134594  1
  S2-  S183  1  0.62850683  0.83357186  0.85892103  1
  S2-  S184  1  0.87012497  0.05038659  0.34540126  1
  S2-  S185  1  0.79788608  -0.01826491  0.85641776  1
  S2-  S186  1  0.78503919  0.26850607  0.35729783  1
  S2-  S187  1  0.87485544  0.25230912  0.84528151  1
  S2-  S188  1  0.79150192  0.51985257  0.36017971  1
  S2-  S189  1  0.92778683  0.47345791  0.83631851  1
  S2-  S190  1  0.84148651  0.77487732  0.34618842  1
  S2-  S191  1  0.85122629  0.73907719  0.84653314  1
  S2-  S192  1  -0.00380755  0.13016323  0.45103487  1
  S2-  S193  1  -0.00151576  0.11339940  0.95010588  1
  S2-  S194  1  -0.00027575  0.38031615  0.44961191  1
  S2-  S195  1  -0.00412922  0.36243327  0.95376141  1
  S2-  S196  1  0.00144899  0.63191142  0.44615932  1
  S2-  S197  1  -0.00722767  0.61435606  0.94690272  1
  S2-  S198  1  0.00015368  0.88236529  0.44637253  1
  S2-  S199  1  -0.00310351  0.86238611  0.95465642  1
  S2-  S200  1  0.25460604  0.13098742  0.45565424  1
  S2-  S201  1  0.24535209  0.11620012  0.95252587  1
  S2-  S202  1  0.25130626  0.38184375  0.45219738  1
  S2-  S203  1  0.24251177  0.36647211  0.95411683  1
  S2-  S204  1  0.24890917  0.63190833  0.45103331  1
  S2-  S205  1  0.24811236  0.61078914  0.94903811  1
  S2-  S206  1  0.25152264  0.88005767  0.44728597  1
  S2-  S207  1  0.24736594  0.86014233  0.95644506  1
  S2-  S208  1  0.49860888  0.13310684  0.45820009  1
  S2-  S209  1  0.49437061  0.10892993  0.94751419  1
  S2-  S210  1  0.49403334  0.38921752  0.44817953  1
  S2-  S211  1  0.50437371  0.36644121  0.95439001  1
  S2-  S212  1  0.49678352  0.62721069  0.45250214  1
  S2-  S213  1  0.49935189  0.61470022  0.96396313  1
  S2-  S214  1  0.50115773  0.87602940  0.45168403  1
  S2-  S215  1  0.49320912  0.86743276  0.95454356  1
  S2-  S216  1  0.75161994  0.13255078  0.45293610  1
  S2-  S217  1  0.74707296  0.11218763  0.95874144  1
  S2-  S218  1  0.75500924  0.38584902  0.45951773  1
  S2-  S219  1  0.74420464  0.35946004  0.96505499  1
  S2-  S220  1  0.75675424  0.63536275  0.46355887  1
  S2-  S221  1  0.74289781  0.62103323  0.95566669  1
  S2-  S222  1  0.75101674  0.87726966  0.45534849  1
  S2-  S223  1  0.74916921  0.85889396  0.96569866  1
  S2-  S224  1  0.12347507  -0.01058481  0.03894796  1
  S2-  S225  1  0.11941584  0.00800551  0.53866724  1
  S2-  S226  1  0.12493185  0.24046679  0.05160146  1
  S2-  S227  1  0.12315968  0.24941939  0.54993114  1
  S2-  S228  1  0.12344073  0.48936404  0.04370469  1
  S2-  S229  1  0.12395880  0.50483750  0.53678354  1
  S2-  S230  1  0.12198364  0.72956328  0.04528995  1
  S2-  S231  1  0.12472085  0.75829218  0.54512864  1
  S2-  S232  1  0.36887119  -0.01231112  0.04985085  1
  S2-  S233  1  0.37632912  0.00337664  0.54375933  1
  S2-  S234  1  0.36960222  0.24015802  0.04440749  1
  S2-  S235  1  0.36941093  0.25618450  0.54440017  1
  S2-  S236  1  0.37250828  0.48650803  0.04225663  1
  S2-  S237  1  0.37126376  0.50315600  0.55442388  1
  S2-  S238  1  0.37266090  0.73134511  0.04316518  1
  S2-  S239  1  0.37346936  0.75891166  0.54609543  1
  S2-  S240  1  0.61978861  -0.01545109  0.03924434  1
  S2-  S241  1  0.63538028  0.00402183  0.55995463  1
  S2-  S242  1  0.62074904  0.23567824  0.04489819  1
  S2-  S243  1  0.62476347  0.25361147  0.54443954  1
  S2-  S244  1  0.62530258  0.48564849  0.05019347  1
  S2-  S245  1  0.62506732  0.50678736  0.54082505  1
  S2-  S246  1  0.62024881  0.73975425  0.05173061  1
  S2-  S247  1  0.62799827  0.75620776  0.55115494  1
  S2-  S248  1  0.87663202  -0.01521315  0.04882793  1
  S2-  S249  1  0.87100089  0.00343984  0.54449808  1
  S2-  S250  1  0.87626590  0.23585455  0.04874893  1
  S2-  S251  1  0.87324022  0.25570100  0.54525917  1
  S2-  S252  1  0.86908684  0.48809730  0.04585441  1
  S2-  S253  1  0.87747307  0.50677435  0.54938337  1
  S2-  S254  1  0.87330652  0.73598695  0.04863043  1
  S2-  S255  1  0.87898320  0.75189951  0.54512072  1
