# generated using pymatgen
data_La6Ce7Pr13Nd19Sm19(BiS2)64
_symmetry_space_group_name_H-M   'P 1'
_cell_length_a   15.95427114
_cell_length_b   16.08138371
_cell_length_c   27.36789517
_cell_angle_alpha   90.25185903
_cell_angle_beta   90.93878783
_cell_angle_gamma   89.95444637
_symmetry_Int_Tables_number   1
_chemical_formula_structural   La6Ce7Pr13Nd19Sm19(BiS2)64
_chemical_formula_sum   'La6 Ce7 Pr13 Nd19 Sm19 Bi64 S128'
_cell_volume   7020.67989256
_cell_formula_units_Z   1
loop_
 _symmetry_equiv_pos_site_id
 _symmetry_equiv_pos_as_xyz
  1  'x, y, z'
loop_
 _atom_type_symbol
 _atom_type_oxidation_number
  La3+  3.0
  Ce3+  3.0
  Pr3+  3.0
  Nd3+  3.0
  Sm3+  3.0
  Bi2+  2.0
  S2-  -2.0
loop_
 _atom_site_type_symbol
 _atom_site_label
 _atom_site_symmetry_multiplicity
 _atom_site_fract_x
 _atom_site_fract_y
 _atom_site_fract_z
 _atom_site_occupancy
  La3+  La0  1  0.00790138  0.64052468  0.12230956  1
  La3+  La1  1  0.47664415  0.12072511  0.09910099  1
  La3+  La2  1  0.09455847  0.75830840  0.93730233  1
  La3+  La3  1  0.10029003  0.26023779  0.92381903  1
  La3+  La4  1  0.75134354  0.61650530  0.56726162  1
  La3+  La5  1  0.50623186  0.62196768  0.60385373  1
  Ce3+  Ce6  1  0.11649948  -0.01241850  0.44010053  1
  Ce3+  Ce7  1  0.50001346  0.86228404  0.55860236  1
  Ce3+  Ce8  1  0.37175637  0.23963468  0.44455083  1
  Ce3+  Ce9  1  0.50500667  0.36596808  0.56846091  1
  Ce3+  Ce10  1  0.37148745  0.73433352  0.44803913  1
  Ce3+  Ce11  1  0.11943069  0.73960940  0.44360949  1
  Ce3+  Ce12  1  0.00052798  0.10191159  0.57899472  1
  Pr3+  Pr13  1  0.37092338  -0.01247766  0.43523546  1
  Pr3+  Pr14  1  -0.00752954  0.85896898  0.56242045  1
  Pr3+  Pr15  1  0.09707400  0.00835278  0.93507858  1
  Pr3+  Pr16  1  0.60326554  0.75595961  0.93849071  1
  Pr3+  Pr17  1  0.87378196  -0.00730512  0.40789347  1
  Pr3+  Pr18  1  0.34585712  0.01005371  0.92582644  1
  Pr3+  Pr19  1  0.25107082  0.61359161  0.60401764  1
  Pr3+  Pr20  1  0.72531284  0.13915370  0.05957785  1
  Pr3+  Pr21  1  0.73169532  0.63558072  0.07082768  1
  Pr3+  Pr22  1  -0.02291213  0.88703102  0.07152109  1
  Pr3+  Pr23  1  0.34590023  0.51269278  0.91938033  1
  Pr3+  Pr24  1  0.34554076  0.76140851  0.91559184  1
  Pr3+  Pr25  1  0.84808922  0.00817467  0.93024086  1
  Nd3+  Nd26  1  0.72540259  0.89540878  0.07100103  1
  Nd3+  Nd27  1  0.09465845  0.51258021  0.93587853  1
  Nd3+  Nd28  1  0.48068866  0.63505867  0.06113111  1
  Nd3+  Nd29  1  -0.02174653  0.13283186  0.06165716  1
  Nd3+  Nd30  1  0.62122176  0.22596724  0.43067239  1
  Nd3+  Nd31  1  0.49621970  0.11887089  0.57333347  1
  Nd3+  Nd32  1  0.86245760  0.73410788  0.41859698  1
  Nd3+  Nd33  1  0.25403158  0.37223438  0.56784189  1
  Nd3+  Nd34  1  0.00105402  0.36599991  0.55672089  1
  Nd3+  Nd35  1  0.72302077  0.37712547  0.06088193  1
  Nd3+  Nd36  1  0.85219346  0.75728489  0.94762110  1
  Nd3+  Nd37  1  0.87022046  0.48877127  0.43568753  1
  Nd3+  Nd38  1  0.25053122  0.86205315  0.56204065  1
  Nd3+  Nd39  1  0.84932369  0.25979153  0.93026782  1
  Nd3+  Nd40  1  -0.01892503  0.38508879  0.06480829  1
  Nd3+  Nd41  1  0.35403654  0.25907980  0.92462380  1
  Nd3+  Nd42  1  0.75566139  0.11462167  0.56527317  1
  Nd3+  Nd43  1  0.24935655  0.11451897  0.56504511  1
  Nd3+  Nd44  1  0.60005922  0.00842144  0.93204572  1
  Sm3+  Sm45  1  0.37311565  0.49113348  0.45086129  1
  Sm3+  Sm46  1  0.23062767  0.63533175  0.05642629  1
  Sm3+  Sm47  1  0.74981601  0.36325653  0.55065111  1
  Sm3+  Sm48  1  0.75158214  0.86565942  0.54732115  1
  Sm3+  Sm49  1  0.12381385  0.49089661  0.44732512  1
  Sm3+  Sm50  1  0.47585996  0.88664740  0.04702928  1
  Sm3+  Sm51  1  0.61902838  0.48726817  0.44304796  1
  Sm3+  Sm52  1  0.59853215  0.25850043  0.92967551  1
  Sm3+  Sm53  1  0.62166026  0.73747595  0.43733252  1
  Sm3+  Sm54  1  0.12164475  0.23757409  0.44480805  1
  Sm3+  Sm55  1  0.23065061  0.88689172  0.05588606  1
  Sm3+  Sm56  1  0.59909248  0.50922608  0.94383561  1
  Sm3+  Sm57  1  0.85366442  0.50867808  0.94764834  1
  Sm3+  Sm58  1  0.22988258  0.38567598  0.04830238  1
  Sm3+  Sm59  1  0.46993970  0.37836993  0.05634894  1
  Sm3+  Sm60  1  0.62220774  -0.00902708  0.44780061  1
  Sm3+  Sm61  1  -0.00081333  0.61750416  0.56070367  1
  Sm3+  Sm62  1  0.87432249  0.23584096  0.43969673  1
  Sm3+  Sm63  1  0.23076634  0.13768526  0.05418239  1
  Bi2+  Bi64  1  -0.01751312  0.12720559  0.28831332  1
  Bi2+  Bi65  1  -0.03850321  0.12769567  0.78126105  1
  Bi2+  Bi66  1  0.03407652  0.37275141  0.29145710  1
  Bi2+  Bi67  1  0.01317980  0.39611751  0.79578071  1
  Bi2+  Bi68  1  0.02732126  0.63409537  0.32274993  1
  Bi2+  Bi69  1  -0.01715053  0.65690096  0.78353199  1
  Bi2+  Bi70  1  0.05099864  0.87045636  0.28608104  1
  Bi2+  Bi71  1  0.02098867  0.87471807  0.79304892  1
  Bi2+  Bi72  1  0.22848433  0.17580433  0.28424920  1
  Bi2+  Bi73  1  0.26331241  0.13042765  0.78049852  1
  Bi2+  Bi74  1  0.30671413  0.36926241  0.29187742  1
  Bi2+  Bi75  1  0.21010249  0.39100120  0.78225843  1
  Bi2+  Bi76  1  0.28646590  0.62445293  0.23127080  1
  Bi2+  Bi77  1  0.23395465  0.65078341  0.78854355  1
  Bi2+  Bi78  1  0.24884522  0.98320933  0.30928825  1
  Bi2+  Bi79  1  0.28129332  0.90366259  0.78989760  1
  Bi2+  Bi80  1  0.50519497  0.13980754  0.29577886  1
  Bi2+  Bi81  1  0.54665498  0.13556705  0.78815367  1
  Bi2+  Bi82  1  0.50175318  0.43374883  0.27018389  1
  Bi2+  Bi83  1  0.47300537  0.30895381  0.75395952  1
  Bi2+  Bi84  1  0.46616268  0.61105074  0.32038083  1
  Bi2+  Bi85  1  0.52788505  0.60073329  0.79987247  1
  Bi2+  Bi86  1  0.43405309  0.85316644  0.27683121  1
  Bi2+  Bi87  1  0.57748625  0.93261002  0.79296144  1
  Bi2+  Bi88  1  0.74120728  0.21674910  0.28099123  1
  Bi2+  Bi89  1  0.76250006  0.12648179  0.79158925  1
  Bi2+  Bi90  1  0.84923281  0.36112169  0.32714770  1
  Bi2+  Bi91  1  0.79411174  0.35984747  0.78463796  1
  Bi2+  Bi92  1  0.75652681  0.51817224  0.28172665  1
  Bi2+  Bi93  1  0.79834542  0.55714063  0.81349025  1
  Bi2+  Bi94  1  0.65747585  0.91443409  0.31256696  1
  Bi2+  Bi95  1  0.77520547  0.75588670  0.81208773  1
  Bi2+  Bi96  1  0.10299356  0.06223968  0.20984803  1
  Bi2+  Bi97  1  0.11009071  0.03447185  0.72476072  1
  Bi2+  Bi98  1  0.07501680  0.23846276  0.16239110  1
  Bi2+  Bi99  1  0.11439985  0.25600708  0.71844599  1
  Bi2+  Bi100  1  0.15873055  0.40011094  0.20380064  1
  Bi2+  Bi101  1  -0.00449064  0.51434875  0.70453484  1
  Bi2+  Bi102  1  0.20989240  0.80275060  0.23619761  1
  Bi2+  Bi103  1  0.11096459  0.81740748  0.69152987  1
  Bi2+  Bi104  1  0.33859858  -0.00622656  0.20648843  1
  Bi2+  Bi105  1  0.48468662  0.01926875  0.70133453  1
  Bi2+  Bi106  1  0.35923255  0.26527002  0.20180005  1
  Bi2+  Bi107  1  0.31204160  0.24859565  0.69576148  1
  Bi2+  Bi108  1  0.42764849  0.52245407  0.17507164  1
  Bi2+  Bi109  1  0.37262911  0.48438243  0.71853764  1
  Bi2+  Bi110  1  0.44562747  0.72007995  0.18813745  1
  Bi2+  Bi111  1  0.38913151  0.79479858  0.72145259  1
  Bi2+  Bi112  1  0.60721113  -0.04520401  0.20159186  1
  Bi2+  Bi113  1  0.68278202  -0.05164862  0.68919187  1
  Bi2+  Bi114  1  0.62778698  0.32193538  0.20752704  1
  Bi2+  Bi115  1  0.65006647  0.14399037  0.68631825  1
  Bi2+  Bi116  1  0.63884642  0.51206029  0.18764448  1
  Bi2+  Bi117  1  0.63419955  0.41033263  0.72261701  1
  Bi2+  Bi118  1  0.59680738  0.73301982  0.27190675  1
  Bi2+  Bi119  1  0.63073774  0.75199356  0.72568510  1
  Bi2+  Bi120  1  0.84435898  -0.03366185  0.20666513  1
  Bi2+  Bi121  1  0.84543955  -0.07689353  0.75522087  1
  Bi2+  Bi122  1  0.88472954  0.22261741  0.19797695  1
  Bi2+  Bi123  1  0.87145622  0.25592849  0.69777679  1
  Bi2+  Bi124  1  0.88001603  0.41743788  0.21308592  1
  Bi2+  Bi125  1  0.79882546  0.52544769  0.69591366  1
  Bi2+  Bi126  1  0.86805016  0.73324325  0.22300510  1
  Bi2+  Bi127  1  0.85815152  0.73364150  0.70301368  1
  S2-  S128  1  -0.02711522  0.02056873  0.14227318  1
  S2-  S129  1  0.13532808  0.13472584  0.64226248  1
  S2-  S130  1  0.01306049  0.46632120  0.15186935  1
  S2-  S131  1  0.00343748  0.35689266  0.65534953  1
  S2-  S132  1  0.00434087  0.63404299  0.23078023  1
  S2-  S133  1  -0.01412418  0.72847053  0.63560800  1
  S2-  S134  1  -0.02108963  0.80309012  0.16228926  1
  S2-  S135  1  0.02284819  0.95871672  0.64564172  1
  S2-  S136  1  0.31547279  0.13112638  0.14213004  1
  S2-  S137  1  0.36406297  0.10147387  0.64341536  1
  S2-  S138  1  0.29755366  0.39735916  0.13975660  1
  S2-  S139  1  0.24767681  0.45766568  0.65549960  1
  S2-  S140  1  0.18513238  0.64438233  0.15103126  1
  S2-  S141  1  0.17229195  0.66723698  0.69203359  1
  S2-  S142  1  0.22399138  0.89946355  0.15527321  1
  S2-  S143  1  0.27178290  0.87406097  0.66217642  1
  S2-  S144  1  0.54349343  0.10599871  0.20201953  1
  S2-  S145  1  0.52961760  0.24665648  0.63938971  1
  S2-  S146  1  0.49120018  0.28492693  0.13911686  1
  S2-  S147  1  0.51029744  0.46550558  0.65330026  1
  S2-  S148  1  0.59808208  0.65681605  0.13880993  1
  S2-  S149  1  0.38033206  0.64081217  0.67481592  1
  S2-  S150  1  0.46943460  0.94692973  0.13906773  1
  S2-  S151  1  0.51462649  0.79776475  0.64961225  1
  S2-  S152  1  0.73035599  0.03248580  0.14190487  1
  S2-  S153  1  0.86856177  0.11934470  0.64456613  1
  S2-  S154  1  0.73414427  0.26168819  0.13713605  1
  S2-  S155  1  0.74649998  0.35749733  0.64824898  1
  S2-  S156  1  0.83637525  0.62714486  0.15375234  1
  S2-  S157  1  0.66373640  0.63291553  0.65461586  1
  S2-  S158  1  0.74328945  0.84050653  0.16985077  1
  S2-  S159  1  0.81130662  0.86302081  0.63917835  1
  S2-  S160  1  0.02737663  -0.00458126  0.35486154  1
  S2-  S161  1  0.20926608  0.01468609  0.85326556  1
  S2-  S162  1  0.10001626  0.22773537  0.34620739  1
  S2-  S163  1  0.22964723  0.26083076  0.84873374  1
  S2-  S164  1  0.11134355  0.49003422  0.34922878  1
  S2-  S165  1  0.19873815  0.52670138  0.85228087  1
  S2-  S166  1  0.14764808  0.75858681  0.34661640  1
  S2-  S167  1  0.19875466  0.77115694  0.85080807  1
  S2-  S168  1  0.41777861  0.00333387  0.33869312  1
  S2-  S169  1  0.42013435  -0.05168540  0.83797694  1
  S2-  S170  1  0.37497603  0.22576435  0.34690701  1
  S2-  S171  1  0.48107847  0.26863656  0.85143124  1
  S2-  S172  1  0.34471375  0.50178072  0.35325439  1
  S2-  S173  1  0.41584120  0.49415446  0.82512577  1
  S2-  S174  1  0.38295805  0.75216740  0.35160712  1
  S2-  S175  1  0.39077197  0.71001930  0.82086434  1
  S2-  S176  1  0.62175818  0.07088382  0.36157593  1
  S2-  S177  1  0.71635110  -0.00237028  0.85565950  1
  S2-  S178  1  0.60168803  0.27119879  0.33433751  1
  S2-  S179  1  0.72159530  0.26015354  0.85606610  1
  S2-  S180  1  0.61413743  0.50755829  0.34517042  1
  S2-  S181  1  0.63495053  0.50747655  0.84760606  1
  S2-  S182  1  0.70495529  0.74817047  0.35205299  1
  S2-  S183  1  0.60255765  0.75359816  0.83793648  1
  S2-  S184  1  0.81427514  -0.04083384  0.30598938  1
  S2-  S185  1  0.97570105  0.00402368  0.85742473  1
  S2-  S186  1  0.85678927  0.14658446  0.35584184  1
  S2-  S187  1  0.96940501  0.25403033  0.85318320  1
  S2-  S188  1  0.86655729  0.58877179  0.35496031  1
  S2-  S189  1  0.95831042  0.51024545  0.86521356  1
  S2-  S190  1  0.92987676  0.78640456  0.32939099  1
  S2-  S191  1  0.96119849  0.75833536  0.86429889  1
  S2-  S192  1  -0.00092376  0.11721125  0.46027008  1
  S2-  S193  1  -0.02531948  0.13515628  0.95698863  1
  S2-  S194  1  -0.00153201  0.36407879  0.45139951  1
  S2-  S195  1  -0.02408641  0.38292561  0.95921056  1
  S2-  S196  1  -0.00303106  0.61236914  0.45702580  1
  S2-  S197  1  -0.02684183  0.63271550  0.96440384  1
  S2-  S198  1  -0.00783667  0.86149237  0.45273957  1
  S2-  S199  1  -0.02617537  0.88616097  0.96377632  1
  S2-  S200  1  0.24551879  0.11392822  0.45392937  1
  S2-  S201  1  0.22500598  0.13701878  0.95211864  1
  S2-  S202  1  0.24625861  0.36614651  0.45770567  1
  S2-  S203  1  0.22669498  0.38751333  0.94727757  1
  S2-  S204  1  0.24611243  0.61226758  0.45277045  1
  S2-  S205  1  0.22879472  0.63848830  0.95361857  1
  S2-  S206  1  0.24713867  0.86316521  0.45514052  1
  S2-  S207  1  0.22715851  0.88197760  0.95409533  1
  S2-  S208  1  0.49408198  0.11240703  0.46253538  1
  S2-  S209  1  0.47585527  0.12959239  0.93833769  1
  S2-  S210  1  0.49750743  0.36366831  0.45567489  1
  S2-  S211  1  0.47424305  0.38986087  0.95103306  1
  S2-  S212  1  0.50008325  0.61326919  0.45170254  1
  S2-  S213  1  0.47320431  0.63487215  0.95068395  1
  S2-  S214  1  0.50067636  0.86383064  0.45114547  1
  S2-  S215  1  0.47490890  0.87913026  0.94557286  1
  S2-  S216  1  0.75165245  0.11103875  0.45917406  1
  S2-  S217  1  0.72325138  0.13550656  0.95357305  1
  S2-  S218  1  0.74429015  0.36030440  0.44705261  1
  S2-  S219  1  0.72448825  0.38701835  0.95556483  1
  S2-  S220  1  0.74185295  0.61015589  0.45661421  1
  S2-  S221  1  0.72718809  0.63050924  0.95946197  1
  S2-  S222  1  0.74893101  0.87167720  0.44527625  1
  S2-  S223  1  0.72523789  0.88219130  0.95840046  1
  S2-  S224  1  0.10928134  0.01194836  0.04394710  1
  S2-  S225  1  0.12814567  -0.01424386  0.54318102  1
  S2-  S226  1  0.10642791  0.26098172  0.03702477  1
  S2-  S227  1  0.12944375  0.24824704  0.54684407  1
  S2-  S228  1  0.10927646  0.51042039  0.04403167  1
  S2-  S229  1  0.12458258  0.49659216  0.55233904  1
  S2-  S230  1  0.10720390  0.76182283  0.04970467  1
  S2-  S231  1  0.13269561  0.73152770  0.54952419  1
  S2-  S232  1  0.35261186  0.01221460  0.03591228  1
  S2-  S233  1  0.37527064  -0.01445435  0.54289727  1
  S2-  S234  1  0.35081622  0.25863851  0.03294376  1
  S2-  S235  1  0.37187934  0.24542839  0.54778381  1
  S2-  S236  1  0.35429403  0.51215617  0.03501314  1
  S2-  S237  1  0.37606164  0.50031923  0.55393531  1
  S2-  S238  1  0.35398826  0.76072561  0.04653482  1
  S2-  S239  1  0.37364957  0.73348861  0.55391466  1
  S2-  S240  1  0.59417813  0.01459621  0.03877039  1
  S2-  S241  1  0.62449427  -0.00967946  0.55171652  1
  S2-  S242  1  0.59335501  0.25720243  0.03406170  1
  S2-  S243  1  0.63076637  0.23750782  0.53821137  1
  S2-  S244  1  0.59852900  0.50278905  0.04689880  1
  S2-  S245  1  0.62732550  0.49006104  0.54736761  1
  S2-  S246  1  0.60192248  0.76758078  0.04323010  1
  S2-  S247  1  0.62575713  0.74118746  0.54171587  1
  S2-  S248  1  0.85095915  0.01318536  0.03850376  1
  S2-  S249  1  0.87328042  -0.01171343  0.53894686  1
  S2-  S250  1  0.85841244  0.26027521  0.03968527  1
  S2-  S251  1  0.87691254  0.24275748  0.54302913  1
  S2-  S252  1  0.84684089  0.49902300  0.04997139  1
  S2-  S253  1  0.87532282  0.49006991  0.54510102  1
  S2-  S254  1  0.84532845  0.76860224  0.05060620  1
  S2-  S255  1  0.86879185  0.73606796  0.53121342  1
