# generated using pymatgen
data_La6Ce7Pr13Nd19Sm19(BiS2)64
_symmetry_space_group_name_H-M   'P 1'
_cell_length_a   16.07123297
_cell_length_b   16.05555714
_cell_length_c   27.35878604
_cell_angle_alpha   90.22796889
_cell_angle_beta   89.81932535
_cell_angle_gamma   90.14855354
_symmetry_Int_Tables_number   1
_chemical_formula_structural   La6Ce7Pr13Nd19Sm19(BiS2)64
_chemical_formula_sum   'La6 Ce7 Pr13 Nd19 Sm19 Bi64 S128'
_cell_volume   7059.34420049
_cell_formula_units_Z   1
loop_
 _symmetry_equiv_pos_site_id
 _symmetry_equiv_pos_as_xyz
  1  'x, y, z'
loop_
 _atom_type_symbol
 _atom_type_oxidation_number
  La3+  3.0
  Ce3+  3.0
  Pr3+  3.0
  Nd3+  3.0
  Sm3+  3.0
  Bi2+  2.0
  S2-  -2.0
loop_
 _atom_site_type_symbol
 _atom_site_label
 _atom_site_symmetry_multiplicity
 _atom_site_fract_x
 _atom_site_fract_y
 _atom_site_fract_z
 _atom_site_occupancy
  La3+  La0  1  0.87695031  0.26085642  0.93439791  1
  La3+  La1  1  0.86924475  0.49612273  0.39361944  1
  La3+  La2  1  0.86915321  0.76166762  0.40893958  1
  La3+  La3  1  0.76505618  0.64098839  0.56560990  1
  La3+  La4  1  0.86151543  0.00006054  0.88629306  1
  La3+  La5  1  0.49133897  0.88672466  0.58029366  1
  Ce3+  Ce6  1  0.38308277  0.75680562  0.92738455  1
  Ce3+  Ce7  1  0.12454148  0.75587091  0.93943731  1
  Ce3+  Ce8  1  -0.00125568  0.38696490  0.06458342  1
  Ce3+  Ce9  1  0.50176602  0.13427480  0.56639666  1
  Ce3+  Ce10  1  0.75047689  0.38916830  0.06122292  1
  Ce3+  Ce11  1  0.88205627  0.25406487  0.44595850  1
  Ce3+  Ce12  1  0.36835428  0.25829553  0.94708638  1
  Pr3+  Pr13  1  0.62233730  0.25865295  0.94006391  1
  Pr3+  Pr14  1  0.50269973  0.38098874  0.57055300  1
  Pr3+  Pr15  1  0.25690911  0.63075522  0.55864496  1
  Pr3+  Pr16  1  0.00551996  0.38338700  0.56373381  1
  Pr3+  Pr17  1  0.38413289  0.75370051  0.42807437  1
  Pr3+  Pr18  1  0.24657842  0.13171099  0.09242323  1
  Pr3+  Pr19  1  0.24584396  0.63737125  0.06943359  1
  Pr3+  Pr20  1  0.25485368  0.38498438  0.08366703  1
  Pr3+  Pr21  1  0.49778150  0.38620799  0.06198540  1
  Pr3+  Pr22  1  0.37692351  0.50184004  0.42181487  1
  Pr3+  Pr23  1  0.87441682  0.75514167  0.93114974  1
  Pr3+  Pr24  1  0.12732704  0.50392684  0.42949582  1
  Pr3+  Pr25  1  -0.00904561  0.64438899  0.09415120  1
  Nd3+  Nd26  1  0.11670567  0.00812066  0.93767365  1
  Nd3+  Nd27  1  0.49414141  0.88314342  0.05706556  1
  Nd3+  Nd28  1  0.37036926  0.00853748  0.93950078  1
  Nd3+  Nd29  1  0.25732575  0.12541043  0.56016856  1
  Nd3+  Nd30  1  -0.00519730  0.13302456  0.06654376  1
  Nd3+  Nd31  1  0.01161034  0.11887035  0.57554071  1
  Nd3+  Nd32  1  0.74686482  0.64334619  0.07461532  1
  Nd3+  Nd33  1  -0.00180363  0.86779435  0.55707710  1
  Nd3+  Nd34  1  0.24408049  0.87878906  0.06016869  1
  Nd3+  Nd35  1  0.12989256  0.00612418  0.43872475  1
  Nd3+  Nd36  1  0.49792272  0.64316092  0.07151738  1
  Nd3+  Nd37  1  0.75948557  0.38166084  0.56498519  1
  Nd3+  Nd38  1  0.25186003  0.38284414  0.55954046  1
  Nd3+  Nd39  1  0.63349083  0.50321767  0.44956229  1
  Nd3+  Nd40  1  0.50224965  0.13516036  0.07032109  1
  Nd3+  Nd41  1  0.12755740  0.75343919  0.42797591  1
  Nd3+  Nd42  1  0.39092582  0.00873042  0.42335758  1
  Nd3+  Nd43  1  0.12694318  0.25450256  0.44474740  1
  Nd3+  Nd44  1  0.75577766  0.12910158  0.56129465  1
  Sm3+  Sm45  1  0.62676610  0.01072876  0.94470200  1
  Sm3+  Sm46  1  0.88126955  0.00788425  0.43948443  1
  Sm3+  Sm47  1  0.87458271  0.50694486  0.93987132  1
  Sm3+  Sm48  1  0.62543197  0.75850998  0.93712908  1
  Sm3+  Sm49  1  -0.00634939  0.88199770  0.05567059  1
  Sm3+  Sm50  1  0.62470576  0.00806412  0.44693774  1
  Sm3+  Sm51  1  0.00074254  0.63288622  0.54156126  1
  Sm3+  Sm52  1  0.63236183  0.25851981  0.44881995  1
  Sm3+  Sm53  1  0.75120516  0.13458207  0.06322283  1
  Sm3+  Sm54  1  0.38005490  0.25476725  0.43544817  1
  Sm3+  Sm55  1  0.74973220  0.88217332  0.05262966  1
  Sm3+  Sm56  1  0.75308516  0.88114709  0.55273211  1
  Sm3+  Sm57  1  0.12418542  0.25699594  0.94933002  1
  Sm3+  Sm58  1  0.62230736  0.51053186  0.94707251  1
  Sm3+  Sm59  1  0.12537132  0.50960544  0.95194217  1
  Sm3+  Sm60  1  0.63103439  0.75397064  0.44454636  1
  Sm3+  Sm61  1  0.37088155  0.50980862  0.94691881  1
  Sm3+  Sm62  1  0.50435038  0.63225050  0.55651543  1
  Sm3+  Sm63  1  0.25659633  0.87696096  0.54396759  1
  Bi2+  Bi64  1  -0.06823936  0.14112161  0.33667217  1
  Bi2+  Bi65  1  -0.00282722  0.13666786  0.78597843  1
  Bi2+  Bi66  1  0.02218174  0.31423375  0.29979477  1
  Bi2+  Bi67  1  -0.01783743  0.43948389  0.78990414  1
  Bi2+  Bi68  1  0.02895839  0.61364182  0.28648393  1
  Bi2+  Bi69  1  -0.07746226  0.62313799  0.81693785  1
  Bi2+  Bi70  1  0.01395042  0.96654811  0.29129970  1
  Bi2+  Bi71  1  -0.00524801  0.87635678  0.78107284  1
  Bi2+  Bi72  1  0.27827676  0.07005682  0.27903882  1
  Bi2+  Bi73  1  0.22447902  0.20056181  0.79523775  1
  Bi2+  Bi74  1  0.27598512  0.36376830  0.28792737  1
  Bi2+  Bi75  1  0.25831315  0.39052674  0.82601345  1
  Bi2+  Bi76  1  0.28304932  0.60638867  0.27848451  1
  Bi2+  Bi77  1  0.21585706  0.60921958  0.78797909  1
  Bi2+  Bi78  1  0.35353588  0.87051615  0.31516966  1
  Bi2+  Bi79  1  0.24034418  0.86339342  0.78948441  1
  Bi2+  Bi80  1  0.49558664  0.10874213  0.28428806  1
  Bi2+  Bi81  1  0.49285357  0.08872901  0.74923476  1
  Bi2+  Bi82  1  0.50344547  0.39248012  0.27766229  1
  Bi2+  Bi83  1  0.45028463  0.35573913  0.79319252  1
  Bi2+  Bi84  1  0.51666985  0.65655966  0.27786943  1
  Bi2+  Bi85  1  0.43808659  0.54282801  0.74755208  1
  Bi2+  Bi86  1  0.55388914  0.84078803  0.31692921  1
  Bi2+  Bi87  1  0.44482761  0.87224594  0.80039762  1
  Bi2+  Bi88  1  0.73544722  0.13039974  0.29918001  1
  Bi2+  Bi89  1  0.73298678  0.13036469  0.78856648  1
  Bi2+  Bi90  1  0.72394108  0.35162233  0.29553208  1
  Bi2+  Bi91  1  0.71946014  0.38324794  0.79877688  1
  Bi2+  Bi92  1  0.71631136  0.62786785  0.28788925  1
  Bi2+  Bi93  1  0.73035184  0.59444011  0.80174110  1
  Bi2+  Bi94  1  0.76844768  0.93719928  0.27552430  1
  Bi2+  Bi95  1  0.68616052  0.78596031  0.80561569  1
  Bi2+  Bi96  1  0.20373958  -0.02512220  0.18871236  1
  Bi2+  Bi97  1  0.13665979  -0.02357202  0.71827653  1
  Bi2+  Bi98  1  0.13653513  0.17583938  0.23037668  1
  Bi2+  Bi99  1  0.13881104  0.34981937  0.73394441  1
  Bi2+  Bi100  1  0.13915379  0.43966216  0.20951450  1
  Bi2+  Bi101  1  0.04483700  0.52547393  0.68213017  1
  Bi2+  Bi102  1  0.16994190  0.84783408  0.27142143  1
  Bi2+  Bi103  1  0.05845761  0.69811962  0.74465129  1
  Bi2+  Bi104  1  0.46368317  -0.06220838  0.22263276  1
  Bi2+  Bi105  1  0.32925552  0.02473053  0.69847152  1
  Bi2+  Bi106  1  0.38358447  0.23427736  0.21367356  1
  Bi2+  Bi107  1  0.36256468  0.23921327  0.71473652  1
  Bi2+  Bi108  1  0.40806774  0.51934010  0.20464225  1
  Bi2+  Bi109  1  0.24498375  0.52432755  0.68684032  1
  Bi2+  Bi110  1  0.35197821  0.76099542  0.21239938  1
  Bi2+  Bi111  1  0.36075406  0.75122918  0.69022795  1
  Bi2+  Bi112  1  0.63838010  0.02252359  0.20889141  1
  Bi2+  Bi113  1  0.60200806  -0.07368358  0.74202307  1
  Bi2+  Bi114  1  0.62102144  0.29158287  0.20329908  1
  Bi2+  Bi115  1  0.61757260  0.23089621  0.70901952  1
  Bi2+  Bi116  1  0.63005702  0.49479635  0.21147406  1
  Bi2+  Bi117  1  0.57701897  0.42078054  0.70979451  1
  Bi2+  Bi118  1  0.62168507  0.77169506  0.20187921  1
  Bi2+  Bi119  1  0.58528290  0.68094482  0.72709350  1
  Bi2+  Bi120  1  0.90677958  -0.00580396  0.20153010  1
  Bi2+  Bi121  1  0.86900029  0.00753596  0.67751270  1
  Bi2+  Bi122  1  0.88549224  0.19784134  0.23255337  1
  Bi2+  Bi123  1  0.86931252  0.27088119  0.70003390  1
  Bi2+  Bi124  1  0.89297753  0.47144147  0.20043731  1
  Bi2+  Bi125  1  0.85191704  0.53339589  0.71305431  1
  Bi2+  Bi126  1  0.87978362  0.76704522  0.21107951  1
  Bi2+  Bi127  1  0.83979160  0.74582061  0.69681568  1
  S2-  S128  1  0.09539980  0.10012554  0.14843103  1
  S2-  S129  1  -0.02513611  0.14394473  0.67304535  1
  S2-  S130  1  0.00859080  0.35489462  0.16087332  1
  S2-  S131  1  0.00808634  0.34321198  0.66188022  1
  S2-  S132  1  0.05134405  0.57451997  0.18383150  1
  S2-  S133  1  -0.05239685  0.72358638  0.61978396  1
  S2-  S134  1  -0.00737822  0.80248253  0.14531160  1
  S2-  S135  1  0.01993656  0.94364942  0.64614573  1
  S2-  S136  1  0.39536970  0.11404612  0.14900835  1
  S2-  S137  1  0.20047327  0.10935617  0.65382577  1
  S2-  S138  1  0.23078291  0.26687431  0.16113973  1
  S2-  S139  1  0.27125091  0.35723293  0.65744310  1
  S2-  S140  1  0.25228322  0.52184100  0.15066409  1
  S2-  S141  1  0.22436364  0.69622026  0.65102396  1
  S2-  S142  1  0.23986666  0.76908185  0.13916399  1
  S2-  S143  1  0.32616402  0.88184799  0.63364930  1
  S2-  S144  1  0.63257371  0.14881627  0.14069028  1
  S2-  S145  1  0.48665458  0.03146782  0.64365618  1
  S2-  S146  1  0.41383627  0.37375011  0.14896261  1
  S2-  S147  1  0.48683031  0.25532999  0.64046943  1
  S2-  S148  1  0.62011711  0.62381469  0.14539313  1
  S2-  S149  1  0.45112115  0.61539135  0.64909127  1
  S2-  S150  1  0.48115311  0.78180749  0.13791838  1
  S2-  S151  1  0.52825247  0.81580857  0.67159765  1
  S2-  S152  1  0.86644392  0.13336022  0.14118753  1
  S2-  S153  1  0.74432261  0.13380297  0.66086433  1
  S2-  S154  1  0.76062258  0.37696247  0.15870973  1
  S2-  S155  1  0.78185060  0.39027290  0.66362923  1
  S2-  S156  1  0.84896803  0.62186067  0.15583085  1
  S2-  S157  1  0.71530443  0.63784223  0.66244205  1
  S2-  S158  1  0.75235028  0.81240035  0.14308999  1
  S2-  S159  1  0.76273830  0.87040222  0.65068088  1
  S2-  S160  1  0.13879224  0.04485745  0.34278426  1
  S2-  S161  1  0.03457394  0.01657442  0.84906995  1
  S2-  S162  1  0.16307080  0.27439223  0.34730126  1
  S2-  S163  1  0.08487414  0.24196289  0.85268287  1
  S2-  S164  1  0.02859110  0.47716592  0.34682674  1
  S2-  S165  1  0.13184646  0.50455678  0.85242947  1
  S2-  S166  1  0.15647870  0.70462731  0.33394202  1
  S2-  S167  1  0.10552384  0.79870345  0.84577959  1
  S2-  S168  1  0.37755586  0.14080364  0.35700779  1
  S2-  S169  1  0.32994551  -0.02215346  0.84379675  1
  S2-  S170  1  0.40600447  0.36240946  0.35862760  1
  S2-  S171  1  0.37924207  0.22359433  0.85156765  1
  S2-  S172  1  0.24263576  0.49370820  0.34994100  1
  S2-  S173  1  0.38748437  0.50808076  0.84923389  1
  S2-  S174  1  0.39904460  0.63416332  0.35248706  1
  S2-  S175  1  0.31353173  0.72928544  0.83848720  1
  S2-  S176  1  0.54040277  0.00006526  0.36122054  1
  S2-  S177  1  0.68789609  0.01678269  0.85307423  1
  S2-  S178  1  0.63014675  0.24667595  0.35100508  1
  S2-  S179  1  0.64251190  0.25216827  0.84024737  1
  S2-  S180  1  0.69537367  0.49603251  0.35649894  1
  S2-  S181  1  0.61923193  0.48910789  0.84932697  1
  S2-  S182  1  0.71020741  0.74657196  0.35526396  1
  S2-  S183  1  0.52580703  0.74693808  0.85811493  1
  S2-  S184  1  0.87311455  -0.07986581  0.35508421  1
  S2-  S185  1  0.86380625  0.01444614  0.77285885  1
  S2-  S186  1  0.86661559  0.32902480  0.35703874  1
  S2-  S187  1  0.86800586  0.16767993  0.84881142  1
  S2-  S188  1  0.87034760  0.53564027  0.28749657  1
  S2-  S189  1  0.86942882  0.39545044  0.86065352  1
  S2-  S190  1  0.93337561  0.73338413  0.31145807  1
  S2-  S191  1  0.86303512  0.83850696  0.84241558  1
  S2-  S192  1  0.00634111  0.12676855  0.46562998  1
  S2-  S193  1  0.00069202  0.13528599  0.96131080  1
  S2-  S194  1  0.00278911  0.38034156  0.45789016  1
  S2-  S195  1  0.00390318  0.38672980  0.95855002  1
  S2-  S196  1  -0.00261303  0.63067902  0.43907207  1
  S2-  S197  1  -0.00106223  0.62901001  0.94672385  1
  S2-  S198  1  0.00712042  0.88073359  0.44806362  1
  S2-  S199  1  -0.00533062  0.88210687  0.95265261  1
  S2-  S200  1  0.25289038  0.13113352  0.45406355  1
  S2-  S201  1  0.24397903  0.13085219  0.95017431  1
  S2-  S202  1  0.25328077  0.37749890  0.45546025  1
  S2-  S203  1  0.24792983  0.38529244  0.96709341  1
  S2-  S204  1  0.25381313  0.63230466  0.45152650  1
  S2-  S205  1  0.24949769  0.63268499  0.95693428  1
  S2-  S206  1  0.25554796  0.88024841  0.44064524  1
  S2-  S207  1  0.24717828  0.88216508  0.95359703  1
  S2-  S208  1  0.50804512  0.13799785  0.45985176  1
  S2-  S209  1  0.49902605  0.13033691  0.95823085  1
  S2-  S210  1  0.50861495  0.37910832  0.46323660  1
  S2-  S211  1  0.49594645  0.38561663  0.95498417  1
  S2-  S212  1  0.51077168  0.62800422  0.45293674  1
  S2-  S213  1  0.49940394  0.63026842  0.96062343  1
  S2-  S214  1  0.50671337  0.87625943  0.45909057  1
  S2-  S215  1  0.50206294  0.88823266  0.95241600  1
  S2-  S216  1  0.75301116  0.12884612  0.45466962  1
  S2-  S217  1  0.74731473  0.13428408  0.95807463  1
  S2-  S218  1  0.75885664  0.38060419  0.46069888  1
  S2-  S219  1  0.74416624  0.38735196  0.95712012  1
  S2-  S220  1  0.75636492  0.62606458  0.45551375  1
  S2-  S221  1  0.74719859  0.63172080  0.95184501  1
  S2-  S222  1  0.74610769  0.88895421  0.45025822  1
  S2-  S223  1  0.74792266  0.88421142  0.95006440  1
  S2-  S224  1  0.12174164  0.00264661  0.04364085  1
  S2-  S225  1  0.13279988  -0.00275732  0.54345934  1
  S2-  S226  1  0.12427542  0.25831455  0.05267588  1
  S2-  S227  1  0.12965385  0.25181474  0.55223123  1
  S2-  S228  1  0.11644201  0.51569885  0.05460507  1
  S2-  S229  1  0.12709819  0.51002460  0.54085233  1
  S2-  S230  1  0.11322720  0.75386702  0.04296671  1
  S2-  S231  1  0.13015684  0.75449853  0.53512353  1
  S2-  S232  1  0.36760179  0.00537666  0.04591872  1
  S2-  S233  1  0.37699419  0.00577400  0.53148910  1
  S2-  S234  1  0.37221768  0.25379610  0.05010344  1
  S2-  S235  1  0.37299151  0.25795025  0.54126147  1
  S2-  S236  1  0.37657387  0.51602834  0.04978753  1
  S2-  S237  1  0.38126785  0.50399162  0.54289322  1
  S2-  S238  1  0.37129607  0.75893574  0.03482445  1
  S2-  S239  1  0.38231011  0.75274179  0.53607818  1
  S2-  S240  1  0.62471901  0.00396704  0.04855954  1
  S2-  S241  1  0.62994558  0.00467087  0.54989730  1
  S2-  S242  1  0.62490837  0.26377688  0.04549048  1
  S2-  S243  1  0.63469186  0.25795882  0.55223354  1
  S2-  S244  1  0.62316459  0.51153227  0.04948718  1
  S2-  S245  1  0.63073143  0.50751094  0.55608329  1
  S2-  S246  1  0.62300949  0.76124587  0.03923431  1
  S2-  S247  1  0.62695405  0.75771535  0.54895987  1
  S2-  S248  1  0.87058605  0.00231491  0.04910780  1
  S2-  S249  1  0.88004297  0.00307328  0.54435024  1
  S2-  S250  1  0.87142371  0.26339843  0.04439473  1
  S2-  S251  1  0.88302737  0.25145157  0.55291997  1
  S2-  S252  1  0.87495526  0.51506771  0.04512028  1
  S2-  S253  1  0.88242548  0.50946708  0.55563576  1
  S2-  S254  1  0.87215506  0.75637450  0.03844637  1
  S2-  S255  1  0.87225312  0.76200705  0.51932643  1
