# generated using pymatgen
data_La6Ce7Pr13Nd19Sm19(BiS2)64
_symmetry_space_group_name_H-M   'P 1'
_cell_length_a   16.02959944
_cell_length_b   16.06951841
_cell_length_c   27.15261983
_cell_angle_alpha   89.98128660
_cell_angle_beta   90.04742449
_cell_angle_gamma   89.98816178
_symmetry_Int_Tables_number   1
_chemical_formula_structural   La6Ce7Pr13Nd19Sm19(BiS2)64
_chemical_formula_sum   'La6 Ce7 Pr13 Nd19 Sm19 Bi64 S128'
_cell_volume   6994.18457758
_cell_formula_units_Z   1
loop_
 _symmetry_equiv_pos_site_id
 _symmetry_equiv_pos_as_xyz
  1  'x, y, z'
loop_
 _atom_type_symbol
 _atom_type_oxidation_number
  La3+  3.0
  Ce3+  3.0
  Pr3+  3.0
  Nd3+  3.0
  Sm3+  3.0
  Bi2+  2.0
  S2-  -2.0
loop_
 _atom_site_type_symbol
 _atom_site_label
 _atom_site_symmetry_multiplicity
 _atom_site_fract_x
 _atom_site_fract_y
 _atom_site_fract_z
 _atom_site_occupancy
  La3+  La0  1  0.00448946  0.87914300  0.07044165  1
  La3+  La1  1  0.62361971  0.25066443  0.91567830  1
  La3+  La2  1  0.50333000  0.87382300  0.07414957  1
  La3+  La3  1  0.50635306  0.38043448  0.10658663  1
  La3+  La4  1  0.52014107  0.87768594  0.58536900  1
  La3+  La5  1  0.75329365  0.36670811  0.58918883  1
  Ce3+  Ce6  1  0.01573060  0.62978995  0.57138016  1
  Ce3+  Ce7  1  0.01108827  0.87660358  0.56312262  1
  Ce3+  Ce8  1  0.39397904  -0.00218604  0.43871079  1
  Ce3+  Ce9  1  0.38466822  -0.00428307  0.94487783  1
  Ce3+  Ce10  1  0.13920940  0.75112646  0.43800495  1
  Ce3+  Ce11  1  0.51120043  0.62119498  0.05605885  1
  Ce3+  Ce12  1  0.26276851  0.88025544  0.55691467  1
  Pr3+  Pr13  1  0.76563421  0.62927383  0.56617070  1
  Pr3+  Pr14  1  0.88952240  0.24663026  0.92190037  1
  Pr3+  Pr15  1  0.61398922  0.76765192  0.89296844  1
  Pr3+  Pr16  1  0.75079176  0.13038084  0.05126475  1
  Pr3+  Pr17  1  0.88759423  0.50187557  0.44568557  1
  Pr3+  Pr18  1  0.51943227  0.12827935  0.55977942  1
  Pr3+  Pr19  1  0.64603940  0.25724460  0.42741706  1
  Pr3+  Pr20  1  0.62833416  0.50148695  0.93065847  1
  Pr3+  Pr21  1  0.75650957  0.62188381  0.05514822  1
  Pr3+  Pr22  1  0.14102234  0.50356565  0.44492492  1
  Pr3+  Pr23  1  0.89391961  0.75182577  0.42825284  1
  Pr3+  Pr24  1  0.64061872  0.50544456  0.43362939  1
  Pr3+  Pr25  1  0.88684333  0.49938758  0.92989461  1
  Nd3+  Nd26  1  0.01750942  0.12495256  0.56445416  1
  Nd3+  Nd27  1  0.39419039  0.24717781  0.43677826  1
  Nd3+  Nd28  1  0.13016973  -0.00006013  0.94471067  1
  Nd3+  Nd29  1  0.14036325  0.25109442  0.43849062  1
  Nd3+  Nd30  1  0.87772386  -0.00325873  0.94010223  1
  Nd3+  Nd31  1  0.39039496  0.50541883  0.44470565  1
  Nd3+  Nd32  1  0.00324412  0.37448110  0.06582108  1
  Nd3+  Nd33  1  0.63454557  -0.00424524  0.40884958  1
  Nd3+  Nd34  1  0.50528680  0.13439585  0.06243920  1
  Nd3+  Nd35  1  0.88818385  0.00187031  0.43177033  1
  Nd3+  Nd36  1  0.63455833  0.75084437  0.42941799  1
  Nd3+  Nd37  1  0.25777348  0.62177828  0.06130120  1
  Nd3+  Nd38  1  0.87912529  0.74964187  0.93637790  1
  Nd3+  Nd39  1  0.26604571  0.12529806  0.55389213  1
  Nd3+  Nd40  1  0.01154373  0.63189288  0.07346776  1
  Nd3+  Nd41  1  0.13037331  0.50042428  0.94062674  1
  Nd3+  Nd42  1  0.01382915  0.37682066  0.56168448  1
  Nd3+  Nd43  1  0.38100591  0.25226642  0.93798271  1
  Nd3+  Nd44  1  0.76681479  0.87589870  0.55836856  1
  Sm3+  Sm45  1  0.38161528  0.49918491  0.94374903  1
  Sm3+  Sm46  1  0.39192654  0.75455390  0.44858665  1
  Sm3+  Sm47  1  0.25503531  0.37563553  0.06294030  1
  Sm3+  Sm48  1  0.75738741  0.37325167  0.05140405  1
  Sm3+  Sm49  1  0.12431802  0.74984616  0.93885919  1
  Sm3+  Sm50  1  0.26788232  0.63351285  0.57205763  1
  Sm3+  Sm51  1  0.26573569  0.37717892  0.55587228  1
  Sm3+  Sm52  1  0.52253448  0.62539294  0.56828818  1
  Sm3+  Sm53  1  0.25808937  0.12984413  0.05937564  1
  Sm3+  Sm54  1  0.25636183  0.87445961  0.05698113  1
  Sm3+  Sm55  1  0.62950468  -0.00326094  0.94390715  1
  Sm3+  Sm56  1  0.00294540  0.12428062  0.06496530  1
  Sm3+  Sm57  1  0.51557460  0.37877018  0.55638867  1
  Sm3+  Sm58  1  0.75367129  0.87331604  0.06299032  1
  Sm3+  Sm59  1  0.88839496  0.25088332  0.44642344  1
  Sm3+  Sm60  1  0.13260522  0.24944902  0.94012096  1
  Sm3+  Sm61  1  0.76343816  0.12594006  0.55713973  1
  Sm3+  Sm62  1  0.13369727  0.00067457  0.43109625  1
  Sm3+  Sm63  1  0.38136163  0.74873825  0.94719427  1
  Bi2+  Bi64  1  -0.03693461  0.13881914  0.29347475  1
  Bi2+  Bi65  1  0.05008637  0.10582718  0.78082187  1
  Bi2+  Bi66  1  0.05701345  0.36270383  0.28841591  1
  Bi2+  Bi67  1  0.08267987  0.37377911  0.80176173  1
  Bi2+  Bi68  1  0.10303931  0.64657489  0.28328791  1
  Bi2+  Bi69  1  -0.00122508  0.64935776  0.79001051  1
  Bi2+  Bi70  1  0.06634731  0.88597097  0.28922282  1
  Bi2+  Bi71  1  -0.00430045  0.91123496  0.79716474  1
  Bi2+  Bi72  1  0.22956655  0.11386232  0.30095962  1
  Bi2+  Bi73  1  0.25810420  0.26015416  0.82491685  1
  Bi2+  Bi74  1  0.24613952  0.41807726  0.28085483  1
  Bi2+  Bi75  1  0.25765443  0.46152083  0.82837827  1
  Bi2+  Bi76  1  0.26879482  0.71978936  0.32414476  1
  Bi2+  Bi77  1  0.19888114  0.66719995  0.82442849  1
  Bi2+  Bi78  1  0.25158409  0.92133558  0.32711618  1
  Bi2+  Bi79  1  0.20624865  0.85630844  0.78355305  1
  Bi2+  Bi80  1  0.44610266  0.12214441  0.27975755  1
  Bi2+  Bi81  1  0.40125858  0.13615390  0.78042594  1
  Bi2+  Bi82  1  0.49908224  0.35663624  0.30785414  1
  Bi2+  Bi83  1  0.48469699  0.38237888  0.78417260  1
  Bi2+  Bi84  1  0.49972400  0.62091747  0.28980267  1
  Bi2+  Bi85  1  0.38432511  0.64515884  0.79130659  1
  Bi2+  Bi86  1  0.50367507  0.86914685  0.28401903  1
  Bi2+  Bi87  1  0.47107153  0.90151312  0.79275002  1
  Bi2+  Bi88  1  0.71426765  0.12767288  0.28986521  1
  Bi2+  Bi89  1  0.78520240  0.11752525  0.77566954  1
  Bi2+  Bi90  1  0.79047628  0.37517321  0.29812532  1
  Bi2+  Bi91  1  0.73476909  0.36892258  0.78445909  1
  Bi2+  Bi92  1  0.77389675  0.62290053  0.29003707  1
  Bi2+  Bi93  1  0.74442281  0.60931725  0.79501277  1
  Bi2+  Bi94  1  0.75718796  0.88315139  0.27404245  1
  Bi2+  Bi95  1  0.74721932  0.87503277  0.78139417  1
  Bi2+  Bi96  1  0.11126744  0.03847990  0.21617238  1
  Bi2+  Bi97  1  0.09852113  -0.02013983  0.67216095  1
  Bi2+  Bi98  1  0.08339204  0.22276886  0.17257956  1
  Bi2+  Bi99  1  0.16722357  0.24587445  0.72293591  1
  Bi2+  Bi100  1  0.12698223  0.41515185  0.18101240  1
  Bi2+  Bi101  1  0.13939151  0.54132142  0.73289053  1
  Bi2+  Bi102  1  0.15771580  0.78051551  0.20525861  1
  Bi2+  Bi103  1  0.07953102  0.78899489  0.69547215  1
  Bi2+  Bi104  1  0.32066513  -0.00539209  0.22069943  1
  Bi2+  Bi105  1  0.27611472  0.01274886  0.72337812  1
  Bi2+  Bi106  1  0.27089997  0.25861749  0.20832677  1
  Bi2+  Bi107  1  0.37375943  0.28163829  0.70599585  1
  Bi2+  Bi108  1  0.29324553  0.54346082  0.19693794  1
  Bi2+  Bi109  1  0.33392133  0.47886415  0.71258069  1
  Bi2+  Bi110  1  0.36841421  0.71993844  0.22567946  1
  Bi2+  Bi111  1  0.30034178  0.74586168  0.70430164  1
  Bi2+  Bi112  1  0.58903799  0.03905400  0.21654630  1
  Bi2+  Bi113  1  0.64771966  -0.01864590  0.70624125  1
  Bi2+  Bi114  1  0.65403168  0.23791305  0.20280263  1
  Bi2+  Bi115  1  0.61449216  0.21696525  0.70591681  1
  Bi2+  Bi116  1  0.64745930  0.49964442  0.21022816  1
  Bi2+  Bi117  1  0.52817851  0.50155717  0.69572087  1
  Bi2+  Bi118  1  0.63629497  0.73403663  0.18741942  1
  Bi2+  Bi119  1  0.58079558  0.73230362  0.70336885  1
  Bi2+  Bi120  1  0.86176631  0.03938578  0.21301713  1
  Bi2+  Bi121  1  0.91164407  0.02360268  0.70215009  1
  Bi2+  Bi122  1  0.88854061  0.23261393  0.19929295  1
  Bi2+  Bi123  1  0.91051571  0.28974167  0.71107019  1
  Bi2+  Bi124  1  0.91328218  0.44641793  0.22395148  1
  Bi2+  Bi125  1  0.91922175  0.52054816  0.71370317  1
  Bi2+  Bi126  1  0.88498192  0.70406474  0.20551471  1
  Bi2+  Bi127  1  0.88313701  0.77385683  0.71761642  1
  S2-  S128  1  -0.01206843  0.00871595  0.14235856  1
  S2-  S129  1  -0.02598969  0.17592346  0.65767537  1
  S2-  S130  1  -0.12666648  0.36393126  0.13264521  1
  S2-  S131  1  0.00788403  0.39854306  0.66104816  1
  S2-  S132  1  -0.03604636  0.57004140  0.16380848  1
  S2-  S133  1  -0.10960576  0.64274614  0.64265176  1
  S2-  S134  1  -0.00027406  0.77451966  0.15116983  1
  S2-  S135  1  -0.11163936  0.88451368  0.63602785  1
  S2-  S136  1  0.32046628  0.12338938  0.15160917  1
  S2-  S137  1  0.21257911  0.11958595  0.64852287  1
  S2-  S138  1  0.34056492  0.38420610  0.14820475  1
  S2-  S139  1  0.23861298  0.36293743  0.65217398  1
  S2-  S140  1  0.17078726  0.63379248  0.14683081  1
  S2-  S141  1  0.14541023  0.63038269  0.64514075  1
  S2-  S142  1  0.29302334  0.85795276  0.15264388  1
  S2-  S143  1  0.31237128  0.89018297  0.65069173  1
  S2-  S144  1  0.51586461  0.22013076  0.14854207  1
  S2-  S145  1  0.53012053  0.09565500  0.66000977  1
  S2-  S146  1  0.50993518  0.41137896  0.21876931  1
  S2-  S147  1  0.58861451  0.36298060  0.64555628  1
  S2-  S148  1  0.53497729  0.59305118  0.15114612  1
  S2-  S149  1  0.42646334  0.65492181  0.65221883  1
  S2-  S150  1  0.53722052  0.86105628  0.17387656  1
  S2-  S151  1  0.50189161  0.88625355  0.69338656  1
  S2-  S152  1  0.71995244  0.09033927  0.14989545  1
  S2-  S153  1  0.74231895  0.20749302  0.64569884  1
  S2-  S154  1  0.67332304  0.37635496  0.14107605  1
  S2-  S155  1  0.79213452  0.42069887  0.68574294  1
  S2-  S156  1  0.75646970  0.60978940  0.15710856  1
  S2-  S157  1  0.64525614  0.60811708  0.64235010  1
  S2-  S158  1  0.76812502  0.83842046  0.16231140  1
  S2-  S159  1  0.67412796  0.84697613  0.64469300  1
  S2-  S160  1  0.01106251  0.00432916  0.35739041  1
  S2-  S161  1  0.13133245  -0.00001478  0.84448268  1
  S2-  S162  1  0.10400534  0.22448198  0.34214189  1
  S2-  S163  1  0.03791075  0.22411870  0.85939988  1
  S2-  S164  1  0.13140339  0.50456789  0.34417848  1
  S2-  S165  1  0.02642919  0.50247173  0.86089297  1
  S2-  S166  1  0.03501057  0.74418683  0.35843476  1
  S2-  S167  1  0.00451196  0.76612400  0.86393934  1
  S2-  S168  1  0.48048280  -0.00107632  0.35168748  1
  S2-  S169  1  0.37105737  0.00867430  0.84749535  1
  S2-  S170  1  0.36362464  0.25025158  0.33837752  1
  S2-  S171  1  0.47329065  0.25383203  0.85130324  1
  S2-  S172  1  0.42467535  0.50475758  0.34571056  1
  S2-  S173  1  0.43586475  0.51685106  0.85016058  1
  S2-  S174  1  0.45284148  0.74912970  0.35586249  1
  S2-  S175  1  0.43930856  0.78176583  0.85610459  1
  S2-  S176  1  0.63525286  -0.14683088  0.34393843  1
  S2-  S177  1  0.61377780  -0.06677578  0.85211103  1
  S2-  S178  1  0.57808792  0.20325263  0.33773556  1
  S2-  S179  1  0.65873239  0.19485564  0.81443128  1
  S2-  S180  1  0.65006705  0.39721318  0.35221829  1
  S2-  S181  1  0.63946460  0.47810813  0.82849718  1
  S2-  S182  1  0.63622610  0.62349242  0.35454637  1
  S2-  S183  1  0.59781693  0.69200627  0.79734250  1
  S2-  S184  1  0.78026212  0.00099918  0.34941590  1
  S2-  S185  1  0.85280342  -0.01140695  0.84108235  1
  S2-  S186  1  0.84691162  0.24503970  0.34995347  1
  S2-  S187  1  0.85421034  0.25777544  0.81874817  1
  S2-  S188  1  0.87503970  0.51997867  0.34425128  1
  S2-  S189  1  0.83334941  0.48212123  0.82857228  1
  S2-  S190  1  0.83322998  0.76943565  0.32842494  1
  S2-  S191  1  0.77892240  0.75554017  0.85068279  1
  S2-  S192  1  0.01518218  0.12993511  0.45689671  1
  S2-  S193  1  0.00497596  0.11924398  0.96014237  1
  S2-  S194  1  0.01510074  0.37466789  0.45336906  1
  S2-  S195  1  0.00850977  0.36981911  0.95871228  1
  S2-  S196  1  0.01551453  0.62395118  0.46117170  1
  S2-  S197  1  0.00687009  0.62762321  0.96343022  1
  S2-  S198  1  0.01614168  0.87830190  0.45735356  1
  S2-  S199  1  0.00555971  0.87860483  0.96172062  1
  S2-  S200  1  0.26378666  0.12321080  0.44707689  1
  S2-  S201  1  0.25673224  0.12393282  0.95348883  1
  S2-  S202  1  0.26773603  0.37497702  0.44974626  1
  S2-  S203  1  0.25493326  0.37545100  0.95735258  1
  S2-  S204  1  0.26726132  0.62966417  0.46324670  1
  S2-  S205  1  0.25662118  0.62616982  0.95552418  1
  S2-  S206  1  0.26349466  0.87807436  0.45200659  1
  S2-  S207  1  0.25415203  0.87118125  0.95083080  1
  S2-  S208  1  0.51937207  0.12393638  0.45263281  1
  S2-  S209  1  0.50714798  0.12177978  0.95362500  1
  S2-  S210  1  0.51141713  0.37637166  0.45261631  1
  S2-  S211  1  0.50369837  0.37818939  0.94733911  1
  S2-  S212  1  0.51162406  0.62760702  0.46289100  1
  S2-  S213  1  0.51076932  0.63352225  0.95004022  1
  S2-  S214  1  0.51718337  0.87758292  0.45979442  1
  S2-  S215  1  0.50762172  0.87180446  0.96377302  1
  S2-  S216  1  0.76217274  0.12669122  0.45326158  1
  S2-  S217  1  0.75288837  0.12400283  0.94252239  1
  S2-  S218  1  0.76863922  0.37528283  0.45797217  1
  S2-  S219  1  0.75761834  0.36983731  0.94278135  1
  S2-  S220  1  0.76675766  0.63079297  0.45596185  1
  S2-  S221  1  0.75630664  0.62212290  0.94801431  1
  S2-  S222  1  0.76382209  0.87699305  0.45157064  1
  S2-  S223  1  0.75069777  0.87420361  0.95700286  1
  S2-  S224  1  0.13748739  0.00366175  0.05083580  1
  S2-  S225  1  0.13888105  0.00316705  0.53729279  1
  S2-  S226  1  0.13054274  0.24867877  0.04574742  1
  S2-  S227  1  0.14150750  0.25283893  0.54580713  1
  S2-  S228  1  0.12948893  0.49810708  0.04690954  1
  S2-  S229  1  0.14346916  0.50050008  0.55064268  1
  S2-  S230  1  0.13447132  0.75317631  0.04259767  1
  S2-  S231  1  0.14118788  0.75500346  0.54582380  1
  S2-  S232  1  0.38043234  0.00133974  0.05108473  1
  S2-  S233  1  0.39339248  0.00231543  0.54757037  1
  S2-  S234  1  0.37971820  0.25503960  0.04407511  1
  S2-  S235  1  0.39018075  0.25329688  0.54574316  1
  S2-  S236  1  0.38473019  0.49786490  0.04756425  1
  S2-  S237  1  0.38875884  0.50239130  0.55242357  1
  S2-  S238  1  0.38082672  0.74660105  0.05209647  1
  S2-  S239  1  0.39192727  0.75650218  0.55097642  1
  S2-  S240  1  0.62746739  -0.00151145  0.04875891  1
  S2-  S241  1  0.64255051  0.00279050  0.55153691  1
  S2-  S242  1  0.62878946  0.25312203  0.03364698  1
  S2-  S243  1  0.63834085  0.25335882  0.53721035  1
  S2-  S244  1  0.63117666  0.49541442  0.03862068  1
  S2-  S245  1  0.64105094  0.49658660  0.54141387  1
  S2-  S246  1  0.63217769  0.75140174  0.05610357  1
  S2-  S247  1  0.63706362  0.75174555  0.53979616  1
  S2-  S248  1  0.87227227  0.00113123  0.04507966  1
  S2-  S249  1  0.88998650  0.00904714  0.53959916  1
  S2-  S250  1  0.88350885  0.24370414  0.03463802  1
  S2-  S251  1  0.88849388  0.25217762  0.54941427  1
  S2-  S252  1  0.88312482  0.50029702  0.03832446  1
  S2-  S253  1  0.88480335  0.49404189  0.55223140  1
  S2-  S254  1  0.87762201  0.75177210  0.04490144  1
  S2-  S255  1  0.89266040  0.75240849  0.53665658  1
