# generated using pymatgen
data_La6Ce7Pr13Nd19Sm19(BiS2)64
_symmetry_space_group_name_H-M   'P 1'
_cell_length_a   16.16397743
_cell_length_b   16.13731733
_cell_length_c   27.19180337
_cell_angle_alpha   89.92181558
_cell_angle_beta   90.01388135
_cell_angle_gamma   90.07275425
_symmetry_Int_Tables_number   1
_chemical_formula_structural   La6Ce7Pr13Nd19Sm19(BiS2)64
_chemical_formula_sum   'La6 Ce7 Pr13 Nd19 Sm19 Bi64 S128'
_cell_volume   7092.78537966
_cell_formula_units_Z   1
loop_
 _symmetry_equiv_pos_site_id
 _symmetry_equiv_pos_as_xyz
  1  'x, y, z'
loop_
 _atom_type_symbol
 _atom_type_oxidation_number
  La3+  3.0
  Ce3+  3.0
  Pr3+  3.0
  Nd3+  3.0
  Sm3+  3.0
  Bi2+  2.0
  S2-  -2.0
loop_
 _atom_site_type_symbol
 _atom_site_label
 _atom_site_symmetry_multiplicity
 _atom_site_fract_x
 _atom_site_fract_y
 _atom_site_fract_z
 _atom_site_occupancy
  La3+  La0  1  0.12404439  -0.02305322  0.39986746  1
  La3+  La1  1  0.37547300  0.73317481  0.43454242  1
  La3+  La2  1  0.51365110  0.88859411  0.08395060  1
  La3+  La3  1  0.00274604  0.14962347  0.08494323  1
  La3+  La4  1  0.49765235  0.60875561  0.59103970  1
  La3+  La5  1  0.38124250  0.24060830  0.42341006  1
  Ce3+  Ce6  1  0.87957195  -0.01206613  0.43177006  1
  Ce3+  Ce7  1  0.13120870  0.76817942  0.94471132  1
  Ce3+  Ce8  1  0.25710842  0.64189958  0.05549141  1
  Ce3+  Ce9  1  0.75110944  0.86591396  0.55541198  1
  Ce3+  Ce10  1  0.62366142  0.49078638  0.45286351  1
  Ce3+  Ce11  1  0.88086172  0.76354603  0.94090553  1
  Ce3+  Ce12  1  0.00450558  0.36265360  0.56014407  1
  Pr3+  Pr13  1  0.38065700  0.26567697  0.93903464  1
  Pr3+  Pr14  1  0.87583043  0.48816574  0.44461333  1
  Pr3+  Pr15  1  0.75284962  0.61482696  0.57031818  1
  Pr3+  Pr16  1  0.24999532  0.62146172  0.57519643  1
  Pr3+  Pr17  1  0.88386674  0.51405198  0.92502620  1
  Pr3+  Pr18  1  0.25021842  0.86863247  0.56533015  1
  Pr3+  Pr19  1  0.38682740  0.49247213  0.43874172  1
  Pr3+  Pr20  1  0.62488300  -0.01366232  0.43560458  1
  Pr3+  Pr21  1  0.00089806  0.61423843  0.57104203  1
  Pr3+  Pr22  1  0.38205311  0.77376711  0.93372729  1
  Pr3+  Pr23  1  0.75211421  0.11321140  0.55261773  1
  Pr3+  Pr24  1  0.49538253  0.35492016  0.57184915  1
  Pr3+  Pr25  1  0.12932552  0.01796775  0.95135956  1
  Nd3+  Nd26  1  0.87649185  0.73626387  0.44385241  1
  Nd3+  Nd27  1  0.62804047  0.01920293  0.93429410  1
  Nd3+  Nd28  1  0.00705444  0.88922650  0.06676230  1
  Nd3+  Nd29  1  0.26072419  0.89033770  0.07752197  1
  Nd3+  Nd30  1  0.13080079  0.26508744  0.94960028  1
  Nd3+  Nd31  1  0.00398862  0.10990169  0.55574283  1
  Nd3+  Nd32  1  0.12740187  0.73105004  0.43431887  1
  Nd3+  Nd33  1  0.88508679  0.25107142  0.92908453  1
  Nd3+  Nd34  1  0.50836986  0.38665786  0.05924262  1
  Nd3+  Nd35  1  0.62921983  0.77365132  0.93049570  1
  Nd3+  Nd36  1  0.62637816  0.23882551  0.43547136  1
  Nd3+  Nd37  1  0.12756275  0.23651601  0.43751067  1
  Nd3+  Nd38  1  0.00345930  0.63793817  0.06056863  1
  Nd3+  Nd39  1  0.75544073  0.63790021  0.05238893  1
  Nd3+  Nd40  1  0.13003714  0.51641062  0.94266410  1
  Nd3+  Nd41  1  0.49999443  0.86345821  0.55941801  1
  Nd3+  Nd42  1  0.50713368  0.14142466  0.06471931  1
  Nd3+  Nd43  1  0.50730377  0.64336011  0.05838468  1
  Nd3+  Nd44  1  0.75328077  0.14376440  0.05883127  1
  Sm3+  Sm45  1  0.88306264  0.01724101  0.95555109  1
  Sm3+  Sm46  1  0.87902364  0.23900206  0.44475515  1
  Sm3+  Sm47  1  0.63020077  0.51798060  0.93276985  1
  Sm3+  Sm48  1  0.37421702  -0.01379969  0.43570339  1
  Sm3+  Sm49  1  0.25762709  0.39302810  0.05512951  1
  Sm3+  Sm50  1  0.75482058  0.38980540  0.04375458  1
  Sm3+  Sm51  1  0.50013901  0.11664419  0.55478242  1
  Sm3+  Sm52  1  0.00343841  0.86590913  0.55043902  1
  Sm3+  Sm53  1  0.25297003  0.36411633  0.54869209  1
  Sm3+  Sm54  1  0.12783881  0.49341948  0.44555345  1
  Sm3+  Sm55  1  0.38280375  0.51913567  0.93793475  1
  Sm3+  Sm56  1  0.00223027  0.39026205  0.05852786  1
  Sm3+  Sm57  1  0.62323662  0.73707652  0.45083468  1
  Sm3+  Sm58  1  0.75377453  0.88977937  0.05888512  1
  Sm3+  Sm59  1  0.25722945  0.14238091  0.06672834  1
  Sm3+  Sm60  1  0.37967130  0.01217722  0.94869492  1
  Sm3+  Sm61  1  0.75158345  0.36226574  0.56032705  1
  Sm3+  Sm62  1  0.63019231  0.26298445  0.92999129  1
  Sm3+  Sm63  1  0.25007647  0.10890400  0.54914671  1
  Bi2+  Bi64  1  -0.01529903  0.14192711  0.28912799  1
  Bi2+  Bi65  1  0.03515905  0.11356166  0.80817629  1
  Bi2+  Bi66  1  -0.00204267  0.42209759  0.28298968  1
  Bi2+  Bi67  1  0.02090184  0.35624234  0.75449853  1
  Bi2+  Bi68  1  -0.02135914  0.61940972  0.30913132  1
  Bi2+  Bi69  1  -0.00560742  0.62657033  0.80629244  1
  Bi2+  Bi70  1  -0.05514780  0.86591452  0.27004182  1
  Bi2+  Bi71  1  -0.02081273  0.88288761  0.75625658  1
  Bi2+  Bi72  1  0.21796475  0.16756787  0.26355336  1
  Bi2+  Bi73  1  0.29470114  0.11458213  0.79688102  1
  Bi2+  Bi74  1  0.27874116  0.39043345  0.29235198  1
  Bi2+  Bi75  1  0.21269994  0.34410483  0.79038132  1
  Bi2+  Bi76  1  0.23839626  0.58059829  0.28284918  1
  Bi2+  Bi77  1  0.25873170  0.60494540  0.80322514  1
  Bi2+  Bi78  1  0.25398654  0.86480272  0.28445035  1
  Bi2+  Bi79  1  0.24898455  0.91905613  0.78738244  1
  Bi2+  Bi80  1  0.48337800  0.13641082  0.29163365  1
  Bi2+  Bi81  1  0.49402710  0.09843554  0.78708875  1
  Bi2+  Bi82  1  0.48563311  0.40154202  0.29143789  1
  Bi2+  Bi83  1  0.49044322  0.32436952  0.77561674  1
  Bi2+  Bi84  1  0.49229424  0.64485744  0.31035291  1
  Bi2+  Bi85  1  0.50317514  0.60872611  0.79396523  1
  Bi2+  Bi86  1  0.51814781  0.88994977  0.30669104  1
  Bi2+  Bi87  1  0.49834459  0.90388028  0.79565650  1
  Bi2+  Bi88  1  0.75771694  0.17410714  0.29054932  1
  Bi2+  Bi89  1  0.76367227  0.07630932  0.79449217  1
  Bi2+  Bi90  1  0.71151767  0.36498102  0.29151392  1
  Bi2+  Bi91  1  0.68914872  0.28934156  0.80168805  1
  Bi2+  Bi92  1  0.74710865  0.55974137  0.26964725  1
  Bi2+  Bi93  1  0.74537265  0.61792474  0.79563148  1
  Bi2+  Bi94  1  0.74729616  0.87778107  0.28009768  1
  Bi2+  Bi95  1  0.77563801  0.88644842  0.76184451  1
  Bi2+  Bi96  1  0.10900447  -0.02287712  0.20006941  1
  Bi2+  Bi97  1  0.11369997  -0.01179976  0.69437196  1
  Bi2+  Bi98  1  0.13139214  0.32999302  0.21439106  1
  Bi2+  Bi99  1  0.14393612  0.18241258  0.71663999  1
  Bi2+  Bi100  1  0.09761315  0.51937614  0.19595811  1
  Bi2+  Bi101  1  0.17307775  0.49161380  0.72352652  1
  Bi2+  Bi102  1  0.10831880  0.70888609  0.23670283  1
  Bi2+  Bi103  1  0.16274509  0.75536852  0.75113689  1
  Bi2+  Bi104  1  0.38650625  0.02828809  0.21539310  1
  Bi2+  Bi105  1  0.36818503  0.00995438  0.70926678  1
  Bi2+  Bi106  1  0.39526704  0.28636790  0.21276936  1
  Bi2+  Bi107  1  0.32807372  0.24500041  0.69925814  1
  Bi2+  Bi108  1  0.37868589  0.49128553  0.20722417  1
  Bi2+  Bi109  1  0.37295212  0.45524117  0.71273729  1
  Bi2+  Bi110  1  0.35151320  0.74616464  0.19993603  1
  Bi2+  Bi111  1  0.36633877  0.74613299  0.70122098  1
  Bi2+  Bi112  1  0.64211346  0.01036951  0.21128320  1
  Bi2+  Bi113  1  0.63014176  0.03274844  0.70861259  1
  Bi2+  Bi114  1  0.64227654  0.25746512  0.20177755  1
  Bi2+  Bi115  1  0.60658168  0.23081967  0.69677426  1
  Bi2+  Bi116  1  0.61200649  0.46675757  0.20554649  1
  Bi2+  Bi117  1  0.63964521  0.42415568  0.71926169  1
  Bi2+  Bi118  1  0.62793242  0.75447583  0.21206924  1
  Bi2+  Bi119  1  0.60119395  0.82322269  0.71074547  1
  Bi2+  Bi120  1  0.83884875  0.02970828  0.22557455  1
  Bi2+  Bi121  1  0.89291848  0.03282205  0.69869040  1
  Bi2+  Bi122  1  0.86453758  0.32965321  0.21111481  1
  Bi2+  Bi123  1  0.85877510  0.23811538  0.75294638  1
  Bi2+  Bi124  1  0.89770763  0.52247783  0.19399719  1
  Bi2+  Bi125  1  0.88163934  0.49687275  0.69681762  1
  Bi2+  Bi126  1  0.82327666  0.72637010  0.21659865  1
  Bi2+  Bi127  1  0.87242377  0.74337463  0.69874238  1
  S2-  S128  1  0.00864997  0.09944185  0.18397765  1
  S2-  S129  1  0.00505856  0.13814401  0.65422073  1
  S2-  S130  1  -0.01122747  0.29900950  0.14160851  1
  S2-  S131  1  0.00254752  0.39902983  0.65494955  1
  S2-  S132  1  0.00917485  0.66687899  0.15846181  1
  S2-  S133  1  -0.01242055  0.63088609  0.67186838  1
  S2-  S134  1  -0.01687140  0.88960272  0.16578483  1
  S2-  S135  1  0.00577968  0.87113301  0.64886231  1
  S2-  S136  1  0.25281693  0.09787128  0.16272500  1
  S2-  S137  1  0.24712908  0.00808658  0.63167602  1
  S2-  S138  1  0.26801310  0.35704557  0.15051561  1
  S2-  S139  1  0.25326790  0.37343150  0.64698121  1
  S2-  S140  1  0.29130877  0.61936917  0.15008205  1
  S2-  S141  1  0.35572512  0.59783961  0.65473976  1
  S2-  S142  1  0.20141513  0.83045326  0.17002638  1
  S2-  S143  1  0.23066722  0.76025712  0.64723500  1
  S2-  S144  1  0.51536419  0.04569630  0.14988986  1
  S2-  S145  1  0.47060717  0.21147929  0.63491975  1
  S2-  S146  1  0.51042413  0.27064321  0.13498063  1
  S2-  S147  1  0.51328856  0.45856584  0.65379070  1
  S2-  S148  1  0.49960700  0.72523299  0.14627677  1
  S2-  S149  1  0.53396521  0.67678374  0.68974290  1
  S2-  S150  1  0.38402273  0.89395859  0.15285782  1
  S2-  S151  1  0.44889025  0.87826395  0.65401612  1
  S2-  S152  1  0.74835029  0.13123211  0.15750600  1
  S2-  S153  1  0.75514893  0.11587760  0.65271056  1
  S2-  S154  1  0.73151806  0.37939161  0.14104282  1
  S2-  S155  1  0.77736753  0.37928323  0.65727644  1
  S2-  S156  1  0.71356065  0.64813347  0.14822494  1
  S2-  S157  1  0.76099778  0.61319602  0.67211237  1
  S2-  S158  1  0.66349836  0.88488741  0.14218211  1
  S2-  S159  1  0.75180963  0.85344787  0.65240052  1
  S2-  S160  1  0.17688160  0.00830109  0.30090307  1
  S2-  S161  1  0.12613938  -0.00192852  0.85123003  1
  S2-  S162  1  0.10442382  0.21506846  0.33911624  1
  S2-  S163  1  0.12532803  0.24163015  0.85239419  1
  S2-  S164  1  0.12575636  0.59567866  0.36659684  1
  S2-  S165  1  0.08947798  0.51620893  0.84677613  1
  S2-  S166  1  0.14069629  0.82095957  0.34703981  1
  S2-  S167  1  0.10125192  0.75090689  0.84859417  1
  S2-  S168  1  0.39776992  -0.01216677  0.33667557  1
  S2-  S169  1  0.36910682  -0.08615335  0.86753581  1
  S2-  S170  1  0.33194756  0.18387645  0.33055749  1
  S2-  S171  1  0.36898055  0.26287580  0.83938388  1
  S2-  S172  1  0.35528845  0.60144438  0.36201561  1
  S2-  S173  1  0.38252497  0.50263321  0.84007494  1
  S2-  S174  1  0.39360303  0.78690585  0.33343925  1
  S2-  S175  1  0.38907610  0.70329077  0.83595214  1
  S2-  S176  1  0.60874094  0.03131561  0.33871926  1
  S2-  S177  1  0.62302619  -0.09612413  0.86055111  1
  S2-  S178  1  0.52118863  0.25914477  0.35760502  1
  S2-  S179  1  0.62424285  0.14351223  0.85909434  1
  S2-  S180  1  0.54262075  0.51118212  0.36846353  1
  S2-  S181  1  0.62763077  0.50315471  0.83466136  1
  S2-  S182  1  0.60635194  0.74431849  0.35261942  1
  S2-  S183  1  0.62180612  0.69788356  0.83841256  1
  S2-  S184  1  0.96802960  -0.00399545  0.34735508  1
  S2-  S185  1  0.89780592  0.08600642  0.86597596  1
  S2-  S186  1  0.88520537  0.24116329  0.34697235  1
  S2-  S187  1  0.91602146  0.30761588  0.83700641  1
  S2-  S188  1  0.86280404  0.49839255  0.34519945  1
  S2-  S189  1  0.86644790  0.51334082  0.82342091  1
  S2-  S190  1  0.88868191  0.74814057  0.34515669  1
  S2-  S191  1  0.86135255  0.71921868  0.84646384  1
  S2-  S192  1  0.00157081  0.11479491  0.45019792  1
  S2-  S193  1  0.00678164  0.14214392  0.97138186  1
  S2-  S194  1  0.00452872  0.36426626  0.45165070  1
  S2-  S195  1  0.00496201  0.38864311  0.95373329  1
  S2-  S196  1  -0.00206102  0.61085122  0.46339456  1
  S2-  S197  1  0.00478673  0.63932315  0.95503411  1
  S2-  S198  1  0.00148468  0.86005593  0.44690768  1
  S2-  S199  1  0.00319797  0.89192117  0.95882960  1
  S2-  S200  1  0.24791534  0.10744268  0.44422225  1
  S2-  S201  1  0.25728648  0.13979083  0.95867067  1
  S2-  S202  1  0.25088825  0.36793194  0.44318813  1
  S2-  S203  1  0.25644788  0.39372459  0.94960577  1
  S2-  S204  1  0.25135694  0.61087319  0.46801751  1
  S2-  S205  1  0.25688375  0.64027574  0.94937619  1
  S2-  S206  1  0.25266267  0.86507097  0.45130589  1
  S2-  S207  1  0.25142522  0.89215908  0.96764525  1
  S2-  S208  1  0.50027182  0.11056978  0.45138896  1
  S2-  S209  1  0.50006385  0.13980292  0.95712533  1
  S2-  S210  1  0.50341574  0.36288566  0.46392125  1
  S2-  S211  1  0.50871000  0.38985685  0.94886236  1
  S2-  S212  1  0.50390644  0.61795813  0.47264537  1
  S2-  S213  1  0.50711496  0.63946728  0.95095917  1
  S2-  S214  1  0.50000678  0.86391534  0.45231584  1
  S2-  S215  1  0.50491079  0.89377884  0.96656440  1
  S2-  S216  1  0.75300541  0.11521023  0.44546875  1
  S2-  S217  1  0.75639484  0.13998203  0.95469047  1
  S2-  S218  1  0.75117290  0.36096010  0.45362064  1
  S2-  S219  1  0.75550512  0.38773798  0.93908215  1
  S2-  S220  1  0.74930052  0.61541431  0.45895716  1
  S2-  S221  1  0.75517860  0.63639850  0.94729261  1
  S2-  S222  1  0.75083346  0.86137044  0.44795781  1
  S2-  S223  1  0.76220333  0.89358233  0.95503163  1
  S2-  S224  1  0.13001065  0.01843848  0.05924532  1
  S2-  S225  1  0.12301329  -0.01185825  0.53570950  1
  S2-  S226  1  0.13520508  0.26829601  0.05376195  1
  S2-  S227  1  0.12991054  0.23654031  0.54493970  1
  S2-  S228  1  0.12924726  0.51232469  0.05009147  1
  S2-  S229  1  0.12843318  0.48974601  0.55067824  1
  S2-  S230  1  0.12816684  0.76359600  0.05161046  1
  S2-  S231  1  0.12040066  0.73984164  0.54242657  1
  S2-  S232  1  0.37718877  0.01995479  0.05092917  1
  S2-  S233  1  0.38109539  -0.00736668  0.53967859  1
  S2-  S234  1  0.37601006  0.26636236  0.04464073  1
  S2-  S235  1  0.36774763  0.23450309  0.53316173  1
  S2-  S236  1  0.38522574  0.51288506  0.04401964  1
  S2-  S237  1  0.37497851  0.48417656  0.54666751  1
  S2-  S238  1  0.37979339  0.76437470  0.04251002  1
  S2-  S239  1  0.37673362  0.74234980  0.54734919  1
  S2-  S240  1  0.63500640  0.01768022  0.04186300  1
  S2-  S241  1  0.62283506  -0.00836936  0.54480901  1
  S2-  S242  1  0.63300119  0.26620877  0.03390970  1
  S2-  S243  1  0.62792045  0.23905680  0.54241261  1
  S2-  S244  1  0.62901943  0.51328226  0.04015635  1
  S2-  S245  1  0.63142301  0.48715097  0.55652554  1
  S2-  S246  1  0.63488281  0.76283858  0.03795165  1
  S2-  S247  1  0.62563109  0.73871032  0.55658351  1
  S2-  S248  1  0.87867768  0.01536652  0.06002386  1
  S2-  S249  1  0.87795961  -0.01175367  0.54054189  1
  S2-  S250  1  0.87646204  0.26812338  0.03894055  1
  S2-  S251  1  0.87787838  0.23956200  0.54966293  1
  S2-  S252  1  0.88024038  0.51219826  0.03933957  1
  S2-  S253  1  0.87565224  0.48773080  0.55119195  1
  S2-  S254  1  0.87887666  0.76545275  0.05052750  1
  S2-  S255  1  0.87771139  0.74104990  0.55024992  1
