# generated using pymatgen
data_La6Ce7Pr13Nd19Sm19(BiS2)64
_symmetry_space_group_name_H-M   'P 1'
_cell_length_a   16.12502139
_cell_length_b   16.10085565
_cell_length_c   27.30179213
_cell_angle_alpha   90.08369192
_cell_angle_beta   89.86365139
_cell_angle_gamma   89.93791780
_symmetry_Int_Tables_number   1
_chemical_formula_structural   La6Ce7Pr13Nd19Sm19(BiS2)64
_chemical_formula_sum   'La6 Ce7 Pr13 Nd19 Sm19 Bi64 S128'
_cell_volume   7088.24078205
_cell_formula_units_Z   1
loop_
 _symmetry_equiv_pos_site_id
 _symmetry_equiv_pos_as_xyz
  1  'x, y, z'
loop_
 _atom_type_symbol
 _atom_type_oxidation_number
  La3+  3.0
  Ce3+  3.0
  Pr3+  3.0
  Nd3+  3.0
  Sm3+  3.0
  Bi2+  2.0
  S2-  -2.0
loop_
 _atom_site_type_symbol
 _atom_site_label
 _atom_site_symmetry_multiplicity
 _atom_site_fract_x
 _atom_site_fract_y
 _atom_site_fract_z
 _atom_site_occupancy
  La3+  La0  1  0.10101370  0.26098098  0.42983397  1
  La3+  La1  1  0.62587203  0.48389034  0.93124385  1
  La3+  La2  1  -0.00746926  0.38496979  0.58025711  1
  La3+  La3  1  0.72757355  0.12121699  0.60250274  1
  La3+  La4  1  0.62665708  -0.02472256  0.92774464  1
  La3+  La5  1  0.87203660  0.25239559  0.88784593  1
  Ce3+  Ce6  1  0.23711472  0.62960522  0.55441695  1
  Ce3+  Ce7  1  0.23135957  0.12585033  0.57066856  1
  Ce3+  Ce8  1  0.49959084  0.86240895  0.06507456  1
  Ce3+  Ce9  1  0.49291788  0.37767607  0.56043688  1
  Ce3+  Ce10  1  0.62882696  0.23339755  0.93872634  1
  Ce3+  Ce11  1  -0.00114742  0.35781734  0.05555349  1
  Ce3+  Ce12  1  0.75044346  0.61319436  0.06826063  1
  Pr3+  Pr13  1  0.12287780  -0.01581812  0.93947318  1
  Pr3+  Pr14  1  0.37491638  0.22570398  0.91602791  1
  Pr3+  Pr15  1  0.49814538  0.11203429  0.05778373  1
  Pr3+  Pr16  1  0.61401310  0.00694830  0.43043630  1
  Pr3+  Pr17  1  0.74738782  0.36181694  0.06215398  1
  Pr3+  Pr18  1  0.73004064  0.38460299  0.58744978  1
  Pr3+  Pr19  1  0.37215913  0.48425231  0.93874831  1
  Pr3+  Pr20  1  0.11097604  0.00868875  0.43053745  1
  Pr3+  Pr21  1  0.87708930  -0.01188033  0.93990016  1
  Pr3+  Pr22  1  0.11983195  0.48419184  0.93652453  1
  Pr3+  Pr23  1  0.85508318  0.74003207  0.41152521  1
  Pr3+  Pr24  1  0.85807816  0.00292993  0.43321843  1
  Pr3+  Pr25  1  0.23736114  0.37564295  0.55717523  1
  Nd3+  Nd26  1  0.00193275  0.85990002  0.07574606  1
  Nd3+  Nd27  1  0.74364585  0.87584521  0.08299072  1
  Nd3+  Nd28  1  0.36321741  0.75460296  0.44369312  1
  Nd3+  Nd29  1  0.12091955  0.73997476  0.93565372  1
  Nd3+  Nd30  1  0.50320880  0.60754353  0.07106073  1
  Nd3+  Nd31  1  0.25016641  0.85845469  0.06438243  1
  Nd3+  Nd32  1  0.36207158  0.00744108  0.44550400  1
  Nd3+  Nd33  1  0.61388388  0.75252557  0.44198769  1
  Nd3+  Nd34  1  -0.00113708  0.11064866  0.06256510  1
  Nd3+  Nd35  1  -0.01850346  0.88074173  0.55751756  1
  Nd3+  Nd36  1  -0.00599829  0.61529382  0.06936196  1
  Nd3+  Nd37  1  0.37290859  -0.01513615  0.94265324  1
  Nd3+  Nd38  1  0.24615402  0.11468129  0.06201987  1
  Nd3+  Nd39  1  0.62497329  0.73519854  0.94938821  1
  Nd3+  Nd40  1  0.87154076  0.74315806  0.94504862  1
  Nd3+  Nd41  1  0.49730940  0.36013667  0.04977972  1
  Nd3+  Nd42  1  0.61523761  0.50139519  0.44159407  1
  Nd3+  Nd43  1  0.12496832  0.22837861  0.92251433  1
  Nd3+  Nd44  1  0.11054585  0.50619525  0.43508066  1
  Sm3+  Sm45  1  0.36147746  0.25204240  0.44502331  1
  Sm3+  Sm46  1  0.24684087  0.61006501  0.05094352  1
  Sm3+  Sm47  1  0.49339090  0.88290606  0.55535825  1
  Sm3+  Sm48  1  0.36401315  0.50317546  0.44604537  1
  Sm3+  Sm49  1  -0.01504391  0.63185908  0.56017802  1
  Sm3+  Sm50  1  -0.01208344  0.12092446  0.56555176  1
  Sm3+  Sm51  1  0.37547551  0.73484350  0.94662723  1
  Sm3+  Sm52  1  0.10958939  0.75562016  0.44547481  1
  Sm3+  Sm53  1  0.74029886  0.87813674  0.55383685  1
  Sm3+  Sm54  1  0.87503791  0.48656823  0.94258797  1
  Sm3+  Sm55  1  0.86081295  0.50315477  0.44825112  1
  Sm3+  Sm56  1  0.73945390  0.62956853  0.56757784  1
  Sm3+  Sm57  1  0.75039089  0.11240858  0.05374379  1
  Sm3+  Sm58  1  0.61619625  0.25471470  0.44470792  1
  Sm3+  Sm59  1  0.24547227  0.36291305  0.05426033  1
  Sm3+  Sm60  1  0.23828187  0.88069488  0.55565780  1
  Sm3+  Sm61  1  0.49070843  0.12950290  0.55952368  1
  Sm3+  Sm62  1  0.86233735  0.25372957  0.45641344  1
  Sm3+  Sm63  1  0.48896554  0.63029539  0.55562505  1
  Bi2+  Bi64  1  0.02116008  0.10845867  0.30250248  1
  Bi2+  Bi65  1  0.01797498  0.10608860  0.78683523  1
  Bi2+  Bi66  1  0.00910808  0.34552659  0.28599984  1
  Bi2+  Bi67  1  0.01059462  0.39486362  0.78422606  1
  Bi2+  Bi68  1  0.07664048  0.59682792  0.29322607  1
  Bi2+  Bi69  1  -0.00808061  0.65873579  0.80622414  1
  Bi2+  Bi70  1  0.02256289  0.87028982  0.29336766  1
  Bi2+  Bi71  1  -0.01553670  0.86606626  0.79304316  1
  Bi2+  Bi72  1  0.27718519  0.12597088  0.29105099  1
  Bi2+  Bi73  1  0.26798629  0.11871344  0.78837878  1
  Bi2+  Bi74  1  0.27608139  0.41462568  0.27773424  1
  Bi2+  Bi75  1  0.27629761  0.39855803  0.79073389  1
  Bi2+  Bi76  1  0.27479250  0.61120076  0.29015430  1
  Bi2+  Bi77  1  0.18656382  0.67733182  0.78637801  1
  Bi2+  Bi78  1  0.28225620  0.83160171  0.26822307  1
  Bi2+  Bi79  1  0.24621640  0.87446090  0.79383410  1
  Bi2+  Bi80  1  0.49126408  0.10958576  0.30346901  1
  Bi2+  Bi81  1  0.47149624  0.19531894  0.79182421  1
  Bi2+  Bi82  1  0.48028931  0.44538886  0.24549679  1
  Bi2+  Bi83  1  0.48848526  0.39005257  0.79951265  1
  Bi2+  Bi84  1  0.47803448  0.62715951  0.29738259  1
  Bi2+  Bi85  1  0.53672891  0.68975096  0.78785250  1
  Bi2+  Bi86  1  0.50321225  0.84414783  0.28510464  1
  Bi2+  Bi87  1  0.46317839  0.86843000  0.79382482  1
  Bi2+  Bi88  1  0.68638126  0.13530780  0.29209819  1
  Bi2+  Bi89  1  0.74555653  0.11713984  0.79091758  1
  Bi2+  Bi90  1  0.73920875  0.37439760  0.29869159  1
  Bi2+  Bi91  1  0.74323628  0.38825010  0.78568751  1
  Bi2+  Bi92  1  0.72900640  0.60387143  0.28965622  1
  Bi2+  Bi93  1  0.79740526  0.67115187  0.80066876  1
  Bi2+  Bi94  1  0.73813253  0.85695076  0.28369689  1
  Bi2+  Bi95  1  0.73267389  0.86811650  0.79705066  1
  Bi2+  Bi96  1  0.12395617  0.01083742  0.19650299  1
  Bi2+  Bi97  1  0.10010451  -0.04868322  0.71092700  1
  Bi2+  Bi98  1  0.13280089  0.24788023  0.18853931  1
  Bi2+  Bi99  1  0.16896328  0.25510631  0.69771273  1
  Bi2+  Bi100  1  0.14060236  0.46784303  0.19733225  1
  Bi2+  Bi101  1  0.14935122  0.54300229  0.70432499  1
  Bi2+  Bi102  1  0.15000804  0.72304044  0.21304633  1
  Bi2+  Bi103  1  0.05512203  0.75349651  0.70350998  1
  Bi2+  Bi104  1  0.39403923  -0.02089548  0.22573586  1
  Bi2+  Bi105  1  0.36302452  -0.02569639  0.71561281  1
  Bi2+  Bi106  1  0.39316546  0.26537989  0.24555400  1
  Bi2+  Bi107  1  0.38431128  0.30231213  0.70953342  1
  Bi2+  Bi108  1  0.39508342  0.59942490  0.18884294  1
  Bi2+  Bi109  1  0.41860520  0.56740675  0.73024652  1
  Bi2+  Bi110  1  0.40814869  0.79732756  0.17870418  1
  Bi2+  Bi111  1  0.33659456  0.74760043  0.71942759  1
  Bi2+  Bi112  1  0.60570661  0.01739490  0.20368118  1
  Bi2+  Bi113  1  0.58153788  -0.02285829  0.70540444  1
  Bi2+  Bi114  1  0.61014435  0.26379398  0.19932043  1
  Bi2+  Bi115  1  0.60613964  0.26253605  0.71308117  1
  Bi2+  Bi116  1  0.67734921  0.45291523  0.19631858  1
  Bi2+  Bi117  1  0.61212224  0.52707364  0.70874114  1
  Bi2+  Bi118  1  0.58804144  0.71224558  0.21637977  1
  Bi2+  Bi119  1  0.68085993  0.73606621  0.71569894  1
  Bi2+  Bi120  1  0.85043841  -0.01007859  0.21621613  1
  Bi2+  Bi121  1  0.86304011  -0.07326735  0.70772678  1
  Bi2+  Bi122  1  0.86005587  0.22322389  0.26861544  1
  Bi2+  Bi123  1  0.92045837  0.20349102  0.69442872  1
  Bi2+  Bi124  1  0.89956073  0.50329660  0.26857251  1
  Bi2+  Bi125  1  0.88636745  0.57729927  0.71429922  1
  Bi2+  Bi126  1  0.89542975  0.70417751  0.21199295  1
  Bi2+  Bi127  1  0.86848320  0.75325437  0.64969191  1
  S2-  S128  1  0.01967790  0.14373983  0.16216640  1
  S2-  S129  1  0.10194248  0.14635753  0.63965677  1
  S2-  S130  1  0.02008239  0.37565864  0.15305895  1
  S2-  S131  1  0.00362871  0.34242100  0.68128424  1
  S2-  S132  1  0.01812739  0.72922086  0.14536903  1
  S2-  S133  1  0.00236269  0.53894439  0.64269382  1
  S2-  S134  1  -0.01849234  0.94044503  0.16698226  1
  S2-  S135  1  -0.02461076  0.98589913  0.63729639  1
  S2-  S136  1  0.24493735  0.12466264  0.16170636  1
  S2-  S137  1  0.30677494  0.17392798  0.65682459  1
  S2-  S138  1  0.25514059  0.36185173  0.15176565  1
  S2-  S139  1  0.20609689  0.41193705  0.65433654  1
  S2-  S140  1  0.22548706  0.60501595  0.14790109  1
  S2-  S141  1  0.24814921  0.64861968  0.65017530  1
  S2-  S142  1  0.18444679  0.87658847  0.15537394  1
  S2-  S143  1  0.23205153  0.93652581  0.64804110  1
  S2-  S144  1  0.50910404  0.13620728  0.15669863  1
  S2-  S145  1  0.56609441  0.12376937  0.64807370  1
  S2-  S146  1  0.51544355  0.38458023  0.14672655  1
  S2-  S147  1  0.57371592  0.39024159  0.64612508  1
  S2-  S148  1  0.62996870  0.60205913  0.14222930  1
  S2-  S149  1  0.51236580  0.63430729  0.65185712  1
  S2-  S150  1  0.59766887  0.88867380  0.14326294  1
  S2-  S151  1  0.47854521  0.88195962  0.65300662  1
  S2-  S152  1  0.75471392  0.04909472  0.14620204  1
  S2-  S153  1  0.79672903  0.08146131  0.69596568  1
  S2-  S154  1  0.75745617  0.31466214  0.15972336  1
  S2-  S155  1  0.75504168  0.27168766  0.66225553  1
  S2-  S156  1  0.86444249  0.59459675  0.14384755  1
  S2-  S157  1  0.74881035  0.52770745  0.64986088  1
  S2-  S158  1  0.79547917  0.83281875  0.17928735  1
  S2-  S159  1  0.69561025  0.94293528  0.64072611  1
  S2-  S160  1  0.13271223  -0.02132972  0.33097231  1
  S2-  S161  1  0.13478959  0.08087956  0.85315570  1
  S2-  S162  1  0.15885684  0.18131963  0.34610040  1
  S2-  S163  1  0.03121275  0.26246016  0.83882067  1
  S2-  S164  1  0.10610510  0.39940893  0.35814938  1
  S2-  S165  1  0.12958814  0.46479589  0.83591847  1
  S2-  S166  1  0.09727130  0.74439209  0.34840155  1
  S2-  S167  1  0.11733507  0.86107329  0.86428078  1
  S2-  S168  1  0.37575836  0.00762778  0.34735313  1
  S2-  S169  1  0.37971612  0.07388588  0.85563968  1
  S2-  S170  1  0.38502018  0.24012817  0.34812006  1
  S2-  S171  1  0.25085263  0.26108598  0.84765473  1
  S2-  S172  1  0.38170306  0.49068729  0.34932789  1
  S2-  S173  1  0.38331213  0.51308220  0.84040851  1
  S2-  S174  1  0.37717064  0.76366240  0.34549760  1
  S2-  S175  1  0.36094238  0.77176215  0.85207093  1
  S2-  S176  1  0.70480389  -0.02188511  0.34539526  1
  S2-  S177  1  0.63236841  0.02620690  0.83010207  1
  S2-  S178  1  0.62429092  0.27267988  0.34638293  1
  S2-  S179  1  0.69725851  0.25627857  0.85021964  1
  S2-  S180  1  0.63792498  0.50056850  0.34314338  1
  S2-  S181  1  0.64656325  0.49110931  0.83141727  1
  S2-  S182  1  0.69801995  0.74183662  0.35549829  1
  S2-  S183  1  0.61232319  0.81753178  0.86235608  1
  S2-  S184  1  0.92201092  -0.00484350  0.33866988  1
  S2-  S185  1  0.88571626  0.08226902  0.85015799  1
  S2-  S186  1  0.93454257  0.24808280  0.36585847  1
  S2-  S187  1  0.86079159  0.25827121  0.77842446  1
  S2-  S188  1  0.86511989  0.58072965  0.36059842  1
  S2-  S189  1  0.87403412  0.42912777  0.84908199  1
  S2-  S190  1  0.88928434  0.78220855  0.31240974  1
  S2-  S191  1  0.86085468  0.85887543  0.86889926  1
  S2-  S192  1  -0.01556713  0.12471622  0.46067565  1
  S2-  S193  1  0.00135160  0.11318909  0.95701117  1
  S2-  S194  1  -0.01842364  0.38513232  0.46637946  1
  S2-  S195  1  -0.00416133  0.35918251  0.94998900  1
  S2-  S196  1  -0.01160916  0.63027389  0.45570850  1
  S2-  S197  1  -0.00381065  0.61414636  0.95513703  1
  S2-  S198  1  -0.01481085  0.87549794  0.45016667  1
  S2-  S199  1  -0.00069223  0.85961388  0.96760369  1
  S2-  S200  1  0.23874359  0.13013981  0.45898698  1
  S2-  S201  1  0.25199395  0.11181310  0.95720074  1
  S2-  S202  1  0.24283842  0.37984068  0.45154627  1
  S2-  S203  1  0.24786142  0.36082924  0.95075109  1
  S2-  S204  1  0.23807279  0.62915938  0.44743559  1
  S2-  S205  1  0.24696200  0.61352054  0.94577062  1
  S2-  S206  1  0.23729629  0.87850478  0.44973592  1
  S2-  S207  1  0.25317482  0.85868053  0.95901740  1
  S2-  S208  1  0.49009184  0.13180068  0.45440933  1
  S2-  S209  1  0.50215162  0.10964577  0.95149083  1
  S2-  S210  1  0.48777177  0.37694119  0.45354652  1
  S2-  S211  1  0.49644448  0.35570516  0.94365562  1
  S2-  S212  1  0.48835585  0.62787424  0.45077209  1
  S2-  S213  1  0.49891688  0.61087889  0.95469348  1
  S2-  S214  1  0.48946177  0.87963821  0.44980206  1
  S2-  S215  1  0.49393863  0.85981834  0.95980929  1
  S2-  S216  1  0.73945755  0.13454272  0.44405787  1
  S2-  S217  1  0.74812930  0.10904860  0.95120503  1
  S2-  S218  1  0.74014865  0.37848579  0.45715793  1
  S2-  S219  1  0.75350930  0.36091118  0.95451808  1
  S2-  S220  1  0.73549698  0.62598231  0.46186556  1
  S2-  S221  1  0.75125211  0.61153708  0.95411837  1
  S2-  S222  1  0.73850948  0.87473137  0.45171410  1
  S2-  S223  1  0.74521424  0.86092407  0.96915624  1
  S2-  S224  1  0.12597278  -0.01430842  0.04792649  1
  S2-  S225  1  0.11296167  -0.00233034  0.53792507  1
  S2-  S226  1  0.12541346  0.23764459  0.04200824  1
  S2-  S227  1  0.10897660  0.25755029  0.54131304  1
  S2-  S228  1  0.12156579  0.48914235  0.04326895  1
  S2-  S229  1  0.11510067  0.50684240  0.54030613  1
  S2-  S230  1  0.12727512  0.73406451  0.04154196  1
  S2-  S231  1  0.11120986  0.75715347  0.55028551  1
  S2-  S232  1  0.37122128  -0.01328733  0.05079329  1
  S2-  S233  1  0.36698038  0.00436688  0.55029754  1
  S2-  S234  1  0.37062314  0.23905355  0.04577738  1
  S2-  S235  1  0.36799690  0.25417998  0.54835617  1
  S2-  S236  1  0.37293698  0.48720221  0.04578600  1
  S2-  S237  1  0.36627533  0.50456700  0.55112843  1
  S2-  S238  1  0.37470420  0.72983984  0.05007413  1
  S2-  S239  1  0.36651900  0.75821016  0.54926183  1
  S2-  S240  1  0.62298518  -0.00798462  0.03894448  1
  S2-  S241  1  0.61244920  0.00642275  0.53659427  1
  S2-  S242  1  0.62437542  0.23592888  0.04516077  1
  S2-  S243  1  0.61873499  0.25105199  0.54809610  1
  S2-  S244  1  0.62221465  0.48510240  0.03866053  1
  S2-  S245  1  0.61346106  0.50912882  0.54576639  1
  S2-  S246  1  0.62207341  0.73831349  0.05208862  1
  S2-  S247  1  0.61441214  0.75433488  0.54829505  1
  S2-  S248  1  0.87524126  -0.01252138  0.04819554  1
  S2-  S249  1  0.85225324  0.00818494  0.54185753  1
  S2-  S250  1  0.87274073  0.23377910  0.05574674  1
  S2-  S251  1  0.86641001  0.25041649  0.55884245  1
  S2-  S252  1  0.87532562  0.48442209  0.04459065  1
  S2-  S253  1  0.86147353  0.50517778  0.54998379  1
  S2-  S254  1  0.86911547  0.74335028  0.05001118  1
  S2-  S255  1  0.86056394  0.75153055  0.53504120  1
