# generated using pymatgen
data_La6Ce7Pr13Nd19Sm19(BiS2)64
_symmetry_space_group_name_H-M   'P 1'
_cell_length_a   16.08456427
_cell_length_b   16.10217287
_cell_length_c   27.38694359
_cell_angle_alpha   90.03028083
_cell_angle_beta   90.06335984
_cell_angle_gamma   89.99896550
_symmetry_Int_Tables_number   1
_chemical_formula_structural   La6Ce7Pr13Nd19Sm19(BiS2)64
_chemical_formula_sum   'La6 Ce7 Pr13 Nd19 Sm19 Bi64 S128'
_cell_volume   7093.11540624
_cell_formula_units_Z   1
loop_
 _symmetry_equiv_pos_site_id
 _symmetry_equiv_pos_as_xyz
  1  'x, y, z'
loop_
 _atom_type_symbol
 _atom_type_oxidation_number
  La3+  3.0
  Ce3+  3.0
  Pr3+  3.0
  Nd3+  3.0
  Sm3+  3.0
  Bi2+  2.0
  S2-  -2.0
loop_
 _atom_site_type_symbol
 _atom_site_label
 _atom_site_symmetry_multiplicity
 _atom_site_fract_x
 _atom_site_fract_y
 _atom_site_fract_z
 _atom_site_occupancy
  La3+  La0  1  0.87977574  0.74733932  0.41895587  1
  La3+  La1  1  0.37779944  0.49910227  0.39001644  1
  La3+  La2  1  0.24711313  0.86126594  0.61457838  1
  La3+  La3  1  0.75026802  0.61913893  0.60097450  1
  La3+  La4  1  0.87213814  0.24612252  0.42928585  1
  La3+  La5  1  0.75763143  0.87853554  0.10879503  1
  Ce3+  Ce6  1  0.25184664  0.12373689  0.06301760  1
  Ce3+  Ce7  1  0.37660776  0.49425547  0.94518618  1
  Ce3+  Ce8  1  0.12777616  0.49372750  0.43979452  1
  Ce3+  Ce9  1  0.74723182  0.86138596  0.55076291  1
  Ce3+  Ce10  1  0.50113920  0.37311502  0.55624980  1
  Ce3+  Ce11  1  0.12638930  0.49237654  0.93993337  1
  Ce3+  Ce12  1  0.25186589  0.36482317  0.06815420  1
  Pr3+  Pr13  1  0.62752850  -0.00705891  0.94599143  1
  Pr3+  Pr14  1  0.75382716  0.36408754  0.57320260  1
  Pr3+  Pr15  1  0.49328345  0.63065160  0.07412114  1
  Pr3+  Pr16  1  0.74859730  0.62131560  0.06509893  1
  Pr3+  Pr17  1  0.74733559  0.11643838  0.56521764  1
  Pr3+  Pr18  1  0.62677919  0.73291786  0.42145583  1
  Pr3+  Pr19  1  0.63070200  0.49219772  0.43620344  1
  Pr3+  Pr20  1  0.50606716  0.12169426  0.06148783  1
  Pr3+  Pr21  1  0.37076903  0.24897042  0.43872835  1
  Pr3+  Pr22  1  0.00095123  0.87240199  0.06399058  1
  Pr3+  Pr23  1  0.86489842  0.23710004  0.91828203  1
  Pr3+  Pr24  1  0.62204422  0.24750684  0.43664908  1
  Pr3+  Pr25  1  0.24938146  0.36964462  0.56728769  1
  Nd3+  Nd26  1  0.87086684  -0.00163450  0.43211953  1
  Nd3+  Nd27  1  0.50114097  0.87086638  0.05929139  1
  Nd3+  Nd28  1  -0.00126097  0.62052313  0.05779199  1
  Nd3+  Nd29  1  0.62624915  0.74523427  0.94538000  1
  Nd3+  Nd30  1  0.37326636  0.74677215  0.43488200  1
  Nd3+  Nd31  1  0.37627917  0.24384617  0.93954565  1
  Nd3+  Nd32  1  0.76059838  0.37726476  0.06994083  1
  Nd3+  Nd33  1  0.12520161  0.24590736  0.44609809  1
  Nd3+  Nd34  1  0.61802580  0.49929228  0.93203688  1
  Nd3+  Nd35  1  0.25199496  0.87233294  0.06252171  1
  Nd3+  Nd36  1  0.87606803  -0.00757527  0.93925823  1
  Nd3+  Nd37  1  0.24930118  0.11570808  0.56523972  1
  Nd3+  Nd38  1  -0.00254487  0.11439042  0.55837694  1
  Nd3+  Nd39  1  0.25043386  0.61346935  0.56121869  1
  Nd3+  Nd40  1  0.37467598  0.74393092  0.93364890  1
  Nd3+  Nd41  1  0.12654777  0.74372825  0.94335194  1
  Nd3+  Nd42  1  0.12463991  0.24562331  0.94359886  1
  Nd3+  Nd43  1  0.37103416  -0.00592207  0.43704036  1
  Nd3+  Nd44  1  0.12452736  -0.00566354  0.44041164  1
  Sm3+  Sm45  1  0.12598765  -0.00439003  0.94442080  1
  Sm3+  Sm46  1  0.25064007  0.61650250  0.05891035  1
  Sm3+  Sm47  1  -0.00390611  0.62168950  0.55993457  1
  Sm3+  Sm48  1  0.87145341  0.49718676  0.44923560  1
  Sm3+  Sm49  1  0.87281562  0.49474059  0.93310197  1
  Sm3+  Sm50  1  -0.00372378  0.12153150  0.05576115  1
  Sm3+  Sm51  1  0.62968429  0.24717724  0.94693163  1
  Sm3+  Sm52  1  0.87445652  0.74386645  0.94301806  1
  Sm3+  Sm53  1  0.12362384  0.74267985  0.44312978  1
  Sm3+  Sm54  1  -0.00440514  0.36857507  0.55450043  1
  Sm3+  Sm55  1  -0.00051513  0.86773915  0.55682223  1
  Sm3+  Sm56  1  0.62216710  -0.00868089  0.44108293  1
  Sm3+  Sm57  1  0.49357814  0.86464109  0.55414739  1
  Sm3+  Sm58  1  0.75503897  0.12262482  0.06144051  1
  Sm3+  Sm59  1  -0.00228718  0.37035641  0.04976650  1
  Sm3+  Sm60  1  0.49610043  0.11675928  0.55200261  1
  Sm3+  Sm61  1  0.50540188  0.37460280  0.06121915  1
  Sm3+  Sm62  1  0.49895560  0.61947911  0.55224198  1
  Sm3+  Sm63  1  0.37608084  -0.00317972  0.94251944  1
  Bi2+  Bi64  1  0.00912725  0.16210568  0.30130430  1
  Bi2+  Bi65  1  -0.00138730  0.15364768  0.79593404  1
  Bi2+  Bi66  1  -0.00357234  0.38198919  0.28427305  1
  Bi2+  Bi67  1  0.03703648  0.36823026  0.73524447  1
  Bi2+  Bi68  1  0.01481991  0.58231564  0.30261635  1
  Bi2+  Bi69  1  -0.01607542  0.64097389  0.74007363  1
  Bi2+  Bi70  1  -0.01688110  0.91074749  0.27810388  1
  Bi2+  Bi71  1  0.01700253  0.93652465  0.78421896  1
  Bi2+  Bi72  1  0.32369322  0.14316091  0.32219580  1
  Bi2+  Bi73  1  0.26612350  0.22001676  0.78464310  1
  Bi2+  Bi74  1  0.24851207  0.34312220  0.28950651  1
  Bi2+  Bi75  1  0.20734984  0.41222084  0.81760859  1
  Bi2+  Bi76  1  0.21985199  0.60349159  0.28014815  1
  Bi2+  Bi77  1  0.22006404  0.61306040  0.80447957  1
  Bi2+  Bi78  1  0.25333750  0.87214457  0.28957799  1
  Bi2+  Bi79  1  0.26694939  0.89423121  0.81819457  1
  Bi2+  Bi80  1  0.51587217  0.11368740  0.30432814  1
  Bi2+  Bi81  1  0.49977614  0.11248484  0.79855545  1
  Bi2+  Bi82  1  0.59320973  0.28908954  0.27413461  1
  Bi2+  Bi83  1  0.49696686  0.33425680  0.75927594  1
  Bi2+  Bi84  1  0.49383328  0.66632725  0.29204621  1
  Bi2+  Bi85  1  0.49008555  0.65535979  0.79848899  1
  Bi2+  Bi86  1  0.44270504  0.93029818  0.24817940  1
  Bi2+  Bi87  1  0.52703842  0.93281872  0.72332307  1
  Bi2+  Bi88  1  0.74503603  0.13725731  0.28344283  1
  Bi2+  Bi89  1  0.74173662  0.10426665  0.78912711  1
  Bi2+  Bi90  1  0.79878964  0.33114963  0.30430143  1
  Bi2+  Bi91  1  0.76417938  0.36120978  0.79644750  1
  Bi2+  Bi92  1  0.74577798  0.58215915  0.28686664  1
  Bi2+  Bi93  1  0.75207945  0.60975618  0.80854291  1
  Bi2+  Bi94  1  0.72020231  0.87460170  0.30241092  1
  Bi2+  Bi95  1  0.68130841  0.87826198  0.78449650  1
  Bi2+  Bi96  1  0.18095924  0.05347506  0.25655124  1
  Bi2+  Bi97  1  0.13331577  0.07556501  0.72361712  1
  Bi2+  Bi98  1  0.13695303  0.24198635  0.21514036  1
  Bi2+  Bi99  1  0.15452193  0.25135347  0.67635372  1
  Bi2+  Bi100  1  0.11330937  0.48550927  0.20978582  1
  Bi2+  Bi101  1  0.13645323  0.52633444  0.70722149  1
  Bi2+  Bi102  1  0.10090769  0.75411012  0.25945920  1
  Bi2+  Bi103  1  0.10866247  0.78382517  0.72740154  1
  Bi2+  Bi104  1  0.31495252  0.01096911  0.17531192  1
  Bi2+  Bi105  1  0.37041390  0.10243521  0.71209934  1
  Bi2+  Bi106  1  0.37414302  0.19308885  0.21598745  1
  Bi2+  Bi107  1  0.34072377  0.30420463  0.68522866  1
  Bi2+  Bi108  1  0.39825274  0.50141721  0.20017054  1
  Bi2+  Bi109  1  0.37410490  0.49422569  0.77714802  1
  Bi2+  Bi110  1  0.33447374  0.78298486  0.19722351  1
  Bi2+  Bi111  1  0.37139661  0.71880296  0.71166392  1
  Bi2+  Bi112  1  0.59016099  0.03974518  0.20669015  1
  Bi2+  Bi113  1  0.70899312  0.00163891  0.68876883  1
  Bi2+  Bi114  1  0.74162084  0.26892485  0.19451974  1
  Bi2+  Bi115  1  0.61580580  0.19439165  0.71540320  1
  Bi2+  Bi116  1  0.64028962  0.45074516  0.20701162  1
  Bi2+  Bi117  1  0.59198189  0.50154942  0.70677410  1
  Bi2+  Bi118  1  0.61133931  0.72704404  0.20824279  1
  Bi2+  Bi119  1  0.59768903  0.75912587  0.68400534  1
  Bi2+  Bi120  1  0.88758223  0.03061095  0.21411214  1
  Bi2+  Bi121  1  0.90255633  -0.04121022  0.69186159  1
  Bi2+  Bi122  1  0.94438800  0.23538819  0.18990139  1
  Bi2+  Bi123  1  0.86909698  0.22560114  0.70790466  1
  Bi2+  Bi124  1  0.91113056  0.51228524  0.20711877  1
  Bi2+  Bi125  1  0.87887607  0.48248591  0.70831338  1
  Bi2+  Bi126  1  0.88976756  0.74535737  0.21526164  1
  Bi2+  Bi127  1  0.86277016  0.81136983  0.76438934  1
  S2-  S128  1  0.01468065  0.08427481  0.15064949  1
  S2-  S129  1  -0.03961282  0.10841718  0.65534953  1
  S2-  S130  1  -0.08344720  0.37833276  0.13485800  1
  S2-  S131  1  -0.07344777  0.35671029  0.64360032  1
  S2-  S132  1  -0.00818837  0.64387574  0.15563243  1
  S2-  S133  1  -0.08886180  0.62737856  0.64602849  1
  S2-  S134  1  -0.07986475  0.86973806  0.15315301  1
  S2-  S135  1  0.07311929  0.86510002  0.64603056  1
  S2-  S136  1  0.25701500  0.22958354  0.14043590  1
  S2-  S137  1  0.24366757  0.02764878  0.65045403  1
  S2-  S138  1  0.25028683  0.44120236  0.15561987  1
  S2-  S139  1  0.26227416  0.46432097  0.65229015  1
  S2-  S140  1  0.32496231  0.64030667  0.14575022  1
  S2-  S141  1  0.25099246  0.69362418  0.64940197  1
  S2-  S142  1  0.19832557  0.88053817  0.15596716  1
  S2-  S143  1  0.27008067  0.85574285  0.72325947  1
  S2-  S144  1  0.51470329  0.16076331  0.15859068  1
  S2-  S145  1  0.50404717  0.11220551  0.64941947  1
  S2-  S146  1  0.49120579  0.38165877  0.15863506  1
  S2-  S147  1  0.51284841  0.37353804  0.65397440  1
  S2-  S148  1  0.54558904  0.58453843  0.16658085  1
  S2-  S149  1  0.49580591  0.61976762  0.65275947  1
  S2-  S150  1  0.48884348  0.78517600  0.14421924  1
  S2-  S151  1  0.43321740  0.85599276  0.64610864  1
  S2-  S152  1  0.75966349  0.04682187  0.14874416  1
  S2-  S153  1  0.74408694  0.22969024  0.64280088  1
  S2-  S154  1  0.74938482  0.50028013  0.14155883  1
  S2-  S155  1  0.73212244  0.46241702  0.65635014  1
  S2-  S156  1  0.75888764  0.71721781  0.15209225  1
  S2-  S157  1  0.69888470  0.63313956  0.70911099  1
  S2-  S158  1  0.67634173  0.88293097  0.20350677  1
  S2-  S159  1  0.74445945  0.78696262  0.63750921  1
  S2-  S160  1  0.08315519  0.01163593  0.34392206  1
  S2-  S161  1  0.14163440  0.00157762  0.84761229  1
  S2-  S162  1  0.11871965  0.26917243  0.34826475  1
  S2-  S163  1  0.13150059  0.23872257  0.84526847  1
  S2-  S164  1  0.21141111  0.48491871  0.35278353  1
  S2-  S165  1  0.08479865  0.52217431  0.84760675  1
  S2-  S166  1  0.03329503  0.73057319  0.35827598  1
  S2-  S167  1  0.15871780  0.75788162  0.84691223  1
  S2-  S168  1  0.38139878  -0.08004847  0.34676764  1
  S2-  S169  1  0.37084063  0.01456073  0.84609023  1
  S2-  S170  1  0.37516574  0.33168432  0.34995754  1
  S2-  S171  1  0.42365052  0.25379492  0.84430312  1
  S2-  S172  1  0.45150813  0.50488619  0.29150902  1
  S2-  S173  1  0.46889321  0.51626889  0.86523386  1
  S2-  S174  1  0.35194655  0.66713404  0.34677353  1
  S2-  S175  1  0.40070492  0.78127396  0.83760709  1
  S2-  S176  1  0.65427366  0.01767356  0.34562278  1
  S2-  S177  1  0.62110978  0.00538923  0.84646696  1
  S2-  S178  1  0.63886325  0.36033226  0.36025748  1
  S2-  S179  1  0.70684399  0.24138300  0.85970190  1
  S2-  S180  1  0.61576015  0.59177202  0.35205930  1
  S2-  S181  1  0.66036864  0.46901956  0.83458803  1
  S2-  S182  1  0.58074365  0.81113207  0.33320134  1
  S2-  S183  1  0.62814583  0.71641654  0.84685471  1
  S2-  S184  1  0.87597475  -0.10535874  0.35248809  1
  S2-  S185  1  0.86969177  0.07508520  0.85228289  1
  S2-  S186  1  0.86800441  0.12391857  0.35640674  1
  S2-  S187  1  0.91990935  0.28877925  0.82747731  1
  S2-  S188  1  0.83469378  0.47852437  0.35326584  1
  S2-  S189  1  0.86106386  0.49095975  0.83512385  1
  S2-  S190  1  0.77993004  0.71821949  0.33423541  1
  S2-  S191  1  0.87907171  0.71079168  0.84719816  1
  S2-  S192  1  0.00060563  0.12029401  0.45436816  1
  S2-  S193  1  0.00142942  0.11930255  0.95142015  1
  S2-  S194  1  -0.00206862  0.37086357  0.45009128  1
  S2-  S195  1  -0.00403319  0.36891504  0.94633241  1
  S2-  S196  1  -0.00023489  0.61465885  0.45688697  1
  S2-  S197  1  -0.00048473  0.62019652  0.95224245  1
  S2-  S198  1  0.00236969  0.87217627  0.45439891  1
  S2-  S199  1  0.00183536  0.86911264  0.95342844  1
  S2-  S200  1  0.24768759  0.11945098  0.45768379  1
  S2-  S201  1  0.25097668  0.11977657  0.95516568  1
  S2-  S202  1  0.24719649  0.36982730  0.46046352  1
  S2-  S203  1  0.25254774  0.36734282  0.95781583  1
  S2-  S204  1  0.24733231  0.62031873  0.45472642  1
  S2-  S205  1  0.25125999  0.61884103  0.95364855  1
  S2-  S206  1  0.24389001  0.86697369  0.44340891  1
  S2-  S207  1  0.25183654  0.87275869  0.95521194  1
  S2-  S208  1  0.49808024  0.11842138  0.44791579  1
  S2-  S209  1  0.50395529  0.12159148  0.95475239  1
  S2-  S210  1  0.49473481  0.37550961  0.45207780  1
  S2-  S211  1  0.50373107  0.36609834  0.95558291  1
  S2-  S212  1  0.49067145  0.61454462  0.44886141  1
  S2-  S213  1  0.49869664  0.62704883  0.96420644  1
  S2-  S214  1  0.49865806  0.86979444  0.45107797  1
  S2-  S215  1  0.49776813  0.87068466  0.95323827  1
  S2-  S216  1  0.74239227  0.11897861  0.45779477  1
  S2-  S217  1  0.74938434  0.11724651  0.95897550  1
  S2-  S218  1  0.75346282  0.36709701  0.46394796  1
  S2-  S219  1  0.75013779  0.37493487  0.95728263  1
  S2-  S220  1  0.75550639  0.61979180  0.45206000  1
  S2-  S221  1  0.75092295  0.61949588  0.95373400  1
  S2-  S222  1  0.74370437  0.86820664  0.44739695  1
  S2-  S223  1  0.75374341  0.86815081  0.94179064  1
  S2-  S224  1  0.12496421  -0.00097732  0.04775730  1
  S2-  S225  1  0.12383963  -0.00725258  0.54566367  1
  S2-  S226  1  0.11807651  0.24546142  0.04820273  1
  S2-  S227  1  0.12020285  0.24260329  0.55091909  1
  S2-  S228  1  0.12293603  0.49420431  0.04750080  1
  S2-  S229  1  0.11726282  0.49367659  0.54826994  1
  S2-  S230  1  0.12786371  0.74444514  0.05006175  1
  S2-  S231  1  0.12256378  0.74233288  0.54544221  1
  S2-  S232  1  0.37798351  -0.00227914  0.04702415  1
  S2-  S233  1  0.37363254  -0.00743943  0.54349215  1
  S2-  S234  1  0.38421920  0.24779240  0.04528631  1
  S2-  S235  1  0.37396667  0.24169143  0.54695724  1
  S2-  S236  1  0.37761403  0.49443524  0.04874776  1
  S2-  S237  1  0.37688506  0.49530721  0.55062354  1
  S2-  S238  1  0.36938470  0.74792943  0.04003942  1
  S2-  S239  1  0.37181823  0.74211956  0.54078509  1
  S2-  S240  1  0.63081316  -0.00848816  0.05212198  1
  S2-  S241  1  0.61896731  -0.00960655  0.54620698  1
  S2-  S242  1  0.63254153  0.25012304  0.05114600  1
  S2-  S243  1  0.61942804  0.24114615  0.54285246  1
  S2-  S244  1  0.62162992  0.49763864  0.04106204  1
  S2-  S245  1  0.62691915  0.49990583  0.54658722  1
  S2-  S246  1  0.63126290  0.75442321  0.04950204  1
  S2-  S247  1  0.61856847  0.74249607  0.53772222  1
  S2-  S248  1  0.87442391  -0.00549701  0.04415180  1
  S2-  S249  1  0.87208600  -0.00937940  0.54251292  1
  S2-  S250  1  0.87429362  0.24419034  0.03756696  1
  S2-  S251  1  0.87645429  0.23960726  0.53852905  1
  S2-  S252  1  0.87789354  0.49940925  0.03708984  1
  S2-  S253  1  0.87364971  0.49628834  0.55024895  1
  S2-  S254  1  0.87671301  0.74829370  0.04557214  1
  S2-  S255  1  0.87950185  0.74575219  0.53771011  1
