# generated using pymatgen
data_La6Ce7Pr13Nd19Sm19(BiS2)64
_symmetry_space_group_name_H-M   'P 1'
_cell_length_a   16.00450809
_cell_length_b   16.06657429
_cell_length_c   27.41084272
_cell_angle_alpha   89.91088842
_cell_angle_beta   90.11462193
_cell_angle_gamma   89.93167376
_symmetry_Int_Tables_number   1
_chemical_formula_structural   La6Ce7Pr13Nd19Sm19(BiS2)64
_chemical_formula_sum   'La6 Ce7 Pr13 Nd19 Sm19 Bi64 S128'
_cell_volume   7048.33114344
_cell_formula_units_Z   1
loop_
 _symmetry_equiv_pos_site_id
 _symmetry_equiv_pos_as_xyz
  1  'x, y, z'
loop_
 _atom_type_symbol
 _atom_type_oxidation_number
  La3+  3.0
  Ce3+  3.0
  Pr3+  3.0
  Nd3+  3.0
  Sm3+  3.0
  Bi2+  2.0
  S2-  -2.0
loop_
 _atom_site_type_symbol
 _atom_site_label
 _atom_site_symmetry_multiplicity
 _atom_site_fract_x
 _atom_site_fract_y
 _atom_site_fract_z
 _atom_site_occupancy
  La3+  La0  1  0.88994415  0.49877248  0.40411232  1
  La3+  La1  1  0.38271599  -0.01250686  0.88085776  1
  La3+  La2  1  0.77553742  0.13643876  0.59601192  1
  La3+  La3  1  0.13236944  0.74594689  0.92888030  1
  La3+  La4  1  0.76903059  0.63096281  0.54796169  1
  La3+  La5  1  0.89609289  0.76724296  0.40680577  1
  Ce3+  Ce6  1  0.14257785  0.50757620  0.42747281  1
  Ce3+  Ce7  1  0.25912555  0.37935929  0.05666215  1
  Ce3+  Ce8  1  0.89870509  0.25174442  0.42770156  1
  Ce3+  Ce9  1  0.26780562  0.37809306  0.55320904  1
  Ce3+  Ce10  1  0.51682677  0.37215018  0.56075938  1
  Ce3+  Ce11  1  0.12892790  0.50278330  0.94579759  1
  Ce3+  Ce12  1  0.63157635  0.25004432  0.94523920  1
  Pr3+  Pr13  1  0.39122433  0.50586573  0.42772757  1
  Pr3+  Pr14  1  0.51731182  0.62905247  0.56197951  1
  Pr3+  Pr15  1  0.63063902  0.01242523  0.91640212  1
  Pr3+  Pr16  1  0.63633049  0.76127779  0.42840428  1
  Pr3+  Pr17  1  0.26943526  0.86425644  0.58508315  1
  Pr3+  Pr18  1  0.50552102  0.62698783  0.06758415  1
  Pr3+  Pr19  1  0.88044763  0.00891490  0.92622955  1
  Pr3+  Pr20  1  0.13302230  0.01373269  0.93022675  1
  Pr3+  Pr21  1  0.14677822  0.25117760  0.42820739  1
  Pr3+  Pr22  1  0.25916195  0.12686240  0.06741898  1
  Pr3+  Pr23  1  0.26810173  0.13073452  0.56548809  1
  Pr3+  Pr24  1  0.01851333  0.13009621  0.56164457  1
  Pr3+  Pr25  1  0.50674846  0.87906195  0.05040097  1
  Nd3+  Nd26  1  0.26577061  0.62193795  0.56286659  1
  Nd3+  Nd27  1  0.88598621  0.25243240  0.93855092  1
  Nd3+  Nd28  1  0.14594844  0.75726390  0.43248060  1
  Nd3+  Nd29  1  0.75888406  0.37750248  0.05721684  1
  Nd3+  Nd30  1  0.01645922  0.62781536  0.54866545  1
  Nd3+  Nd31  1  0.00855436  0.37924334  0.07641992  1
  Nd3+  Nd32  1  0.52176071  0.13284615  0.56502003  1
  Nd3+  Nd33  1  0.89226748  0.00524320  0.44342405  1
  Nd3+  Nd34  1  0.76833949  0.87851700  0.56385465  1
  Nd3+  Nd35  1  0.38138454  0.50274445  0.93396155  1
  Nd3+  Nd36  1  0.38241030  0.24521045  0.93866677  1
  Nd3+  Nd37  1  0.25836053  0.63082996  0.06862396  1
  Nd3+  Nd38  1  0.25697128  0.87857024  0.05075300  1
  Nd3+  Nd39  1  0.63031376  0.75344878  0.93967205  1
  Nd3+  Nd40  1  0.39089862  0.75945807  0.43921529  1
  Nd3+  Nd41  1  0.01213285  0.62990297  0.08485811  1
  Nd3+  Nd42  1  0.88087453  0.75136336  0.94434163  1
  Nd3+  Nd43  1  0.52499575  0.88377235  0.58372708  1
  Nd3+  Nd44  1  0.00806510  0.12656551  0.07972558  1
  Sm3+  Sm45  1  0.39405708  0.25109112  0.43211980  1
  Sm3+  Sm46  1  0.76048445  0.12555024  0.06149540  1
  Sm3+  Sm47  1  0.01786656  0.87641556  0.55996836  1
  Sm3+  Sm48  1  0.76971969  0.37477707  0.55214239  1
  Sm3+  Sm49  1  0.63199425  0.50357906  0.94363294  1
  Sm3+  Sm50  1  0.64068760  0.50602893  0.44546742  1
  Sm3+  Sm51  1  0.00757107  0.88067275  0.04892253  1
  Sm3+  Sm52  1  0.64459758  0.00226315  0.44602827  1
  Sm3+  Sm53  1  0.88470443  0.50339658  0.94770215  1
  Sm3+  Sm54  1  0.12955492  0.25315623  0.94550074  1
  Sm3+  Sm55  1  0.50493930  0.12437624  0.06335673  1
  Sm3+  Sm56  1  0.39435956  0.00125433  0.45309719  1
  Sm3+  Sm57  1  0.38163463  0.74805890  0.93101762  1
  Sm3+  Sm58  1  0.01454955  0.37737144  0.55144688  1
  Sm3+  Sm59  1  0.50918044  0.37902214  0.05790216  1
  Sm3+  Sm60  1  0.14698800  -0.00023879  0.45220171  1
  Sm3+  Sm61  1  0.63995836  0.25374315  0.43387450  1
  Sm3+  Sm62  1  0.75839286  0.87867029  0.05567326  1
  Sm3+  Sm63  1  0.76066024  0.62890257  0.06243786  1
  Bi2+  Bi64  1  -0.00337284  0.10593319  0.27935842  1
  Bi2+  Bi65  1  -0.02931460  0.00760859  0.80218970  1
  Bi2+  Bi66  1  -0.00114538  0.36021236  0.29198711  1
  Bi2+  Bi67  1  0.01716695  0.37696709  0.85504511  1
  Bi2+  Bi68  1  -0.03407260  0.63919234  0.28695302  1
  Bi2+  Bi69  1  0.00581101  0.53939269  0.78549457  1
  Bi2+  Bi70  1  0.01897126  0.89910395  0.29484954  1
  Bi2+  Bi71  1  -0.01181859  0.81110394  0.78331363  1
  Bi2+  Bi72  1  0.36604672  0.10653190  0.28310492  1
  Bi2+  Bi73  1  0.23733280  0.12634981  0.78918068  1
  Bi2+  Bi74  1  0.21706582  0.33894386  0.29475319  1
  Bi2+  Bi75  1  0.21538195  0.38853657  0.81459451  1
  Bi2+  Bi76  1  0.22893524  0.61600384  0.25867921  1
  Bi2+  Bi77  1  0.23428112  0.60550098  0.78865944  1
  Bi2+  Bi78  1  0.26706559  0.89095100  0.29889233  1
  Bi2+  Bi79  1  0.25130683  0.86788122  0.77160284  1
  Bi2+  Bi80  1  0.58953403  0.13742275  0.30092362  1
  Bi2+  Bi81  1  0.50435959  0.23231289  0.78863322  1
  Bi2+  Bi82  1  0.41993115  0.37984304  0.30569111  1
  Bi2+  Bi83  1  0.41335350  0.40047188  0.81286522  1
  Bi2+  Bi84  1  0.40708668  0.57976830  0.29485310  1
  Bi2+  Bi85  1  0.50275003  0.58158356  0.79873835  1
  Bi2+  Bi86  1  0.50767353  0.87251759  0.29972414  1
  Bi2+  Bi87  1  0.51082611  0.83021323  0.77665689  1
  Bi2+  Bi88  1  0.78930723  0.10803506  0.28821212  1
  Bi2+  Bi89  1  0.76413989  0.12800624  0.79590727  1
  Bi2+  Bi90  1  0.71667896  0.30068801  0.28462221  1
  Bi2+  Bi91  1  0.78885861  0.34924954  0.78575514  1
  Bi2+  Bi92  1  0.67997499  0.64031080  0.29764471  1
  Bi2+  Bi93  1  0.74465278  0.62327743  0.81233766  1
  Bi2+  Bi94  1  0.68616806  0.92908666  0.26498149  1
  Bi2+  Bi95  1  0.77528786  0.85712853  0.77569917  1
  Bi2+  Bi96  1  0.18553278  0.04997683  0.24392452  1
  Bi2+  Bi97  1  0.06263273  0.00746434  0.70588858  1
  Bi2+  Bi98  1  0.14863903  0.23482880  0.20630915  1
  Bi2+  Bi99  1  0.08443010  0.25938339  0.77155542  1
  Bi2+  Bi100  1  0.11496526  0.46953229  0.22384837  1
  Bi2+  Bi101  1  0.15856192  0.47599924  0.71645328  1
  Bi2+  Bi102  1  0.11766787  0.79373493  0.19163577  1
  Bi2+  Bi103  1  0.09879989  0.74086577  0.69442205  1
  Bi2+  Bi104  1  0.45390151  0.00168840  0.19871038  1
  Bi2+  Bi105  1  0.36259552  0.02584367  0.67648838  1
  Bi2+  Bi106  1  0.37894358  0.25931395  0.21253152  1
  Bi2+  Bi107  1  0.37270703  0.27175977  0.70345573  1
  Bi2+  Bi108  1  0.36657761  0.48024507  0.19656379  1
  Bi2+  Bi109  1  0.43828466  0.45792185  0.69885522  1
  Bi2+  Bi110  1  0.36808896  0.76556700  0.20275489  1
  Bi2+  Bi111  1  0.37583746  0.64264736  0.71280522  1
  Bi2+  Bi112  1  0.63392616  0.07694076  0.18983798  1
  Bi2+  Bi113  1  0.60577914  -0.01940768  0.73193857  1
  Bi2+  Bi114  1  0.57844032  0.26738481  0.20032421  1
  Bi2+  Bi115  1  0.63835972  0.29803818  0.71317946  1
  Bi2+  Bi116  1  0.58513508  0.44868662  0.25062133  1
  Bi2+  Bi117  1  0.65853927  0.48749012  0.73945920  1
  Bi2+  Bi118  1  0.59233054  0.74972605  0.22111200  1
  Bi2+  Bi119  1  0.65731600  0.73598570  0.70800503  1
  Bi2+  Bi120  1  0.90496781  -0.02194186  0.20474961  1
  Bi2+  Bi121  1  0.86467695  -0.02735476  0.70121606  1
  Bi2+  Bi122  1  0.86424943  0.23829872  0.20887380  1
  Bi2+  Bi123  1  0.91357299  0.25284862  0.71596154  1
  Bi2+  Bi124  1  0.84185187  0.49059669  0.20828073  1
  Bi2+  Bi125  1  0.88552952  0.44828500  0.70126380  1
  Bi2+  Bi126  1  0.81342882  0.74460474  0.20676731  1
  Bi2+  Bi127  1  0.89623381  0.64694185  0.71039053  1
  S2-  S128  1  0.00582642  0.26237783  0.15065551  1
  S2-  S129  1  -0.06602650  0.12428629  0.64857853  1
  S2-  S130  1  -0.00986015  0.49375713  0.15322659  1
  S2-  S131  1  0.00908786  0.35997673  0.64906396  1
  S2-  S132  1  -0.03561396  0.71232901  0.17527729  1
  S2-  S133  1  0.03999643  0.61209120  0.64780159  1
  S2-  S134  1  0.02422638  0.91790317  0.14461869  1
  S2-  S135  1  -0.02820707  0.85618662  0.65422242  1
  S2-  S136  1  0.14670374  0.10035458  0.14494252  1
  S2-  S137  1  0.25296681  0.17289403  0.66323945  1
  S2-  S138  1  0.23011529  0.39867169  0.15190424  1
  S2-  S139  1  0.27423830  0.42786239  0.64794012  1
  S2-  S140  1  0.15473089  0.65096128  0.14900201  1
  S2-  S141  1  0.24824627  0.71243568  0.64759688  1
  S2-  S142  1  0.26421043  0.86418521  0.15247276  1
  S2-  S143  1  0.19769964  0.93093572  0.67534898  1
  S2-  S144  1  0.39075799  0.12714614  0.14174150  1
  S2-  S145  1  0.52758965  0.03564188  0.64953669  1
  S2-  S146  1  0.52204024  0.44167348  0.14903901  1
  S2-  S147  1  0.51548958  0.26081457  0.63721973  1
  S2-  S148  1  0.38615765  0.63326566  0.14115166  1
  S2-  S149  1  0.52346398  0.67401075  0.65913059  1
  S2-  S150  1  0.50675375  0.84014996  0.14984810  1
  S2-  S151  1  0.40303224  0.86993669  0.65533546  1
  S2-  S152  1  0.86324494  0.10779372  0.13986998  1
  S2-  S153  1  0.72270202  0.08499800  0.69365674  1
  S2-  S154  1  0.77949067  0.36973351  0.15546909  1
  S2-  S155  1  0.76135108  0.29592448  0.63943142  1
  S2-  S156  1  0.74611695  0.60063628  0.15884643  1
  S2-  S157  1  0.76369676  0.63840613  0.64836572  1
  S2-  S158  1  0.77933498  0.88054236  0.15284776  1
  S2-  S159  1  0.66752008  0.86650918  0.64605807  1
  S2-  S160  1  0.14850040  -0.02388041  0.35532959  1
  S2-  S161  1  0.21517836  -0.01595093  0.84223708  1
  S2-  S162  1  0.02549746  0.22304548  0.35353802  1
  S2-  S163  1  0.12438345  0.16231309  0.86115977  1
  S2-  S164  1  0.03631710  0.51200317  0.34567569  1
  S2-  S165  1  0.11825338  0.59984528  0.86430526  1
  S2-  S166  1  0.04376473  0.74845368  0.34618287  1
  S2-  S167  1  0.13790277  0.79697173  0.82897393  1
  S2-  S168  1  0.39344553  -0.02131810  0.35559783  1
  S2-  S169  1  0.36223604  0.00772333  0.76997513  1
  S2-  S170  1  0.27570681  0.22046103  0.35820913  1
  S2-  S171  1  0.37446719  0.16301755  0.85141942  1
  S2-  S172  1  0.26492054  0.53085184  0.35400709  1
  S2-  S173  1  0.36445435  0.61897106  0.86043400  1
  S2-  S174  1  0.27205432  0.77112864  0.36206593  1
  S2-  S175  1  0.37633823  0.82348164  0.83922882  1
  S2-  S176  1  0.64893475  -0.09414256  0.36283170  1
  S2-  S177  1  0.54095264  -0.02744706  0.83128816  1
  S2-  S178  1  0.51978856  0.25634284  0.36137194  1
  S2-  S179  1  0.63128905  0.17299931  0.85792054  1
  S2-  S180  1  0.60604648  0.51499561  0.34970861  1
  S2-  S181  1  0.63144681  0.48634991  0.84668046  1
  S2-  S182  1  0.50235478  0.74290057  0.36052998  1
  S2-  S183  1  0.60280134  0.72954366  0.84255610  1
  S2-  S184  1  0.89541651  -0.07017808  0.35450597  1
  S2-  S185  1  0.76032489  -0.01997028  0.84902437  1
  S2-  S186  1  0.85645396  0.34666826  0.34792845  1
  S2-  S187  1  0.88969631  0.14770224  0.85771369  1
  S2-  S188  1  0.82343397  0.54239608  0.30989231  1
  S2-  S189  1  0.86596981  0.53995978  0.85208037  1
  S2-  S190  1  0.82555190  0.73922545  0.31360069  1
  S2-  S191  1  0.85104618  0.75410715  0.84678310  1
  S2-  S192  1  0.02298999  0.12253408  0.45655263  1
  S2-  S193  1  0.00583660  0.13090741  0.96452559  1
  S2-  S194  1  0.01935429  0.37966926  0.44775299  1
  S2-  S195  1  0.00511291  0.37821355  0.96918163  1
  S2-  S196  1  0.01011846  0.63126713  0.44609629  1
  S2-  S197  1  0.00169932  0.62731981  0.96493909  1
  S2-  S198  1  0.01925189  0.87991167  0.45727878  1
  S2-  S199  1  0.00580237  0.87882060  0.94345329  1
  S2-  S200  1  0.26937109  0.12285192  0.46004397  1
  S2-  S201  1  0.25492481  0.13331891  0.96111686  1
  S2-  S202  1  0.27037074  0.37855355  0.44938746  1
  S2-  S203  1  0.25820006  0.37607459  0.95118150  1
  S2-  S204  1  0.26801107  0.62978741  0.45903600  1
  S2-  S205  1  0.25762441  0.62529843  0.96279437  1
  S2-  S206  1  0.26946312  0.88161323  0.46974687  1
  S2-  S207  1  0.26032777  0.87548598  0.94643944  1
  S2-  S208  1  0.51912272  0.12438748  0.45778007  1
  S2-  S209  1  0.50817780  0.12542912  0.95974307  1
  S2-  S210  1  0.51711279  0.38229434  0.45611968  1
  S2-  S211  1  0.50805878  0.37730307  0.95234999  1
  S2-  S212  1  0.51587742  0.62601588  0.45700259  1
  S2-  S213  1  0.50938866  0.62551617  0.95850517  1
  S2-  S214  1  0.51892028  0.88411344  0.46867645  1
  S2-  S215  1  0.50592717  0.87844285  0.94504038  1
  S2-  S216  1  0.76514208  0.12931360  0.43580747  1
  S2-  S217  1  0.75708528  0.12903326  0.95931581  1
  S2-  S218  1  0.76131710  0.38092016  0.44958454  1
  S2-  S219  1  0.75782618  0.37890725  0.95110347  1
  S2-  S220  1  0.76683367  0.63111722  0.44047680  1
  S2-  S221  1  0.75560984  0.62615575  0.95788523  1
  S2-  S222  1  0.77115693  0.87631629  0.45949300  1
  S2-  S223  1  0.75354365  0.87717971  0.95273315  1
  S2-  S224  1  0.13119836  0.00065982  0.03736959  1
  S2-  S225  1  0.14249492  0.00139358  0.55608950  1
  S2-  S226  1  0.13385466  0.25539937  0.04856468  1
  S2-  S227  1  0.14154894  0.25494219  0.54203376  1
  S2-  S228  1  0.13333737  0.50424140  0.05004410  1
  S2-  S229  1  0.13973914  0.50047769  0.53884775  1
  S2-  S230  1  0.12939897  0.75611787  0.04051176  1
  S2-  S231  1  0.13931638  0.75301506  0.54206128  1
  S2-  S232  1  0.38326613  0.00075645  0.04655170  1
  S2-  S233  1  0.39221189  0.00418733  0.55480956  1
  S2-  S234  1  0.38784795  0.25713627  0.04534728  1
  S2-  S235  1  0.39057315  0.25314254  0.53748003  1
  S2-  S236  1  0.38580130  0.50082387  0.04030262  1
  S2-  S237  1  0.39420958  0.50212242  0.54206044  1
  S2-  S238  1  0.38360259  0.75315568  0.03753605  1
  S2-  S239  1  0.39178372  0.74888851  0.54680559  1
  S2-  S240  1  0.63433358  0.00394433  0.05044529  1
  S2-  S241  1  0.65831763  0.01673798  0.54831675  1
  S2-  S242  1  0.63215278  0.25088136  0.05211172  1
  S2-  S243  1  0.64863829  0.24998746  0.53657288  1
  S2-  S244  1  0.63483238  0.50508458  0.04752427  1
  S2-  S245  1  0.64317141  0.49846938  0.55102329  1
  S2-  S246  1  0.63503992  0.75041817  0.04724716  1
  S2-  S247  1  0.64041346  0.75469218  0.54019929  1
  S2-  S248  1  0.87992467  -0.00100463  0.03696529  1
  S2-  S249  1  0.89139910  0.00344411  0.54880255  1
  S2-  S250  1  0.88024786  0.25298778  0.04474814  1
  S2-  S251  1  0.89182228  0.25067665  0.53696461  1
  S2-  S252  1  0.88015062  0.50527650  0.05051488  1
  S2-  S253  1  0.89157986  0.49989974  0.54428999  1
  S2-  S254  1  0.88266295  0.75357748  0.04990768  1
  S2-  S255  1  0.89407958  0.75559407  0.54622411  1
