# generated using pymatgen
data_La6Ce7Pr13Nd19Sm19(BiS2)64
_symmetry_space_group_name_H-M   'P 1'
_cell_length_a   16.08597823
_cell_length_b   16.07357837
_cell_length_c   27.43342799
_cell_angle_alpha   89.61314170
_cell_angle_beta   90.05314971
_cell_angle_gamma   89.91979699
_symmetry_Int_Tables_number   1
_chemical_formula_structural   La6Ce7Pr13Nd19Sm19(BiS2)64
_chemical_formula_sum   'La6 Ce7 Pr13 Nd19 Sm19 Bi64 S128'
_cell_volume   7092.99431987
_cell_formula_units_Z   1
loop_
 _symmetry_equiv_pos_site_id
 _symmetry_equiv_pos_as_xyz
  1  'x, y, z'
loop_
 _atom_type_symbol
 _atom_type_oxidation_number
  La3+  3.0
  Ce3+  3.0
  Pr3+  3.0
  Nd3+  3.0
  Sm3+  3.0
  Bi2+  2.0
  S2-  -2.0
loop_
 _atom_site_type_symbol
 _atom_site_label
 _atom_site_symmetry_multiplicity
 _atom_site_fract_x
 _atom_site_fract_y
 _atom_site_fract_z
 _atom_site_occupancy
  La3+  La0  1  0.63569294  0.27904258  0.92769105  1
  La3+  La1  1  0.62766823  0.02755829  0.92788889  1
  La3+  La2  1  0.38001402  0.51770085  0.43501282  1
  La3+  La3  1  0.25187787  0.37923455  0.57302411  1
  La3+  La4  1  0.86618705  0.74052594  0.88349151  1
  La3+  La5  1  0.75625548  0.38015749  0.55907557  1
  Ce3+  Ce6  1  0.51135850  0.38866328  0.06747500  1
  Ce3+  Ce7  1  0.50887598  0.63218013  0.07197878  1
  Ce3+  Ce8  1  0.26104870  0.14223818  0.06387283  1
  Ce3+  Ce9  1  0.01030116  0.64969726  0.06683363  1
  Ce3+  Ce10  1  0.63387547  0.76946569  0.94911082  1
  Ce3+  Ce11  1  0.00672482  0.88184691  0.55964173  1
  Ce3+  Ce12  1  0.38097630  0.76730102  0.94321001  1
  Pr3+  Pr13  1  0.00761491  0.63287677  0.57017237  1
  Pr3+  Pr14  1  0.25968166  0.13402876  0.56876445  1
  Pr3+  Pr15  1  0.88158353  0.22754656  0.37567763  1
  Pr3+  Pr16  1  0.13421736  0.26268013  0.42914972  1
  Pr3+  Pr17  1  0.76107728  0.64384304  0.06583540  1
  Pr3+  Pr18  1  0.51136132  0.88946690  0.56247695  1
  Pr3+  Pr19  1  0.88571096  0.00183063  0.43436349  1
  Pr3+  Pr20  1  0.13766948  0.01592279  0.94856802  1
  Pr3+  Pr21  1  0.38078727  0.00791107  0.42819160  1
  Pr3+  Pr22  1  0.50850101  0.63381913  0.57010708  1
  Pr3+  Pr23  1  0.13500868  0.51663858  0.43555725  1
  Pr3+  Pr24  1  0.26920913  0.89346551  0.07526196  1
  Pr3+  Pr25  1  0.13558507  0.26862514  0.94250181  1
  Nd3+  Nd26  1  0.13463658  0.52498588  0.95059406  1
  Nd3+  Nd27  1  0.88403235  0.00573901  0.93940993  1
  Nd3+  Nd28  1  0.88612667  0.26890660  0.93825457  1
  Nd3+  Nd29  1  0.01027717  0.89362864  0.06840635  1
  Nd3+  Nd30  1  0.38224311  0.27562023  0.94317875  1
  Nd3+  Nd31  1  0.51475267  0.89478085  0.06881038  1
  Nd3+  Nd32  1  0.75958081  0.14317735  0.05565322  1
  Nd3+  Nd33  1  0.76102621  0.39305337  0.06139443  1
  Nd3+  Nd34  1  0.00569918  0.13630328  0.55296916  1
  Nd3+  Nd35  1  0.88258242  0.50477605  0.43269689  1
  Nd3+  Nd36  1  0.00170493  0.38263974  0.55479095  1
  Nd3+  Nd37  1  0.75789268  0.63252354  0.56653519  1
  Nd3+  Nd38  1  0.63643359  0.52413836  0.93822118  1
  Nd3+  Nd39  1  0.63520619  0.26900142  0.42125330  1
  Nd3+  Nd40  1  0.26467801  0.65108285  0.08674888  1
  Nd3+  Nd41  1  0.63200471  0.51434500  0.43121219  1
  Nd3+  Nd42  1  0.01159632  0.39470914  0.06648018  1
  Nd3+  Nd43  1  0.25747876  0.62411013  0.58083051  1
  Nd3+  Nd44  1  0.13386548  0.77012076  0.94038099  1
  Sm3+  Sm45  1  0.63493839  0.01139423  0.43565826  1
  Sm3+  Sm46  1  0.88426002  0.75097792  0.43618863  1
  Sm3+  Sm47  1  0.38220745  0.52294050  0.95133265  1
  Sm3+  Sm48  1  0.75816476  0.88405005  0.55015495  1
  Sm3+  Sm49  1  0.51377451  0.14899255  0.06352858  1
  Sm3+  Sm50  1  0.38478659  0.01939161  0.94737660  1
  Sm3+  Sm51  1  0.38271420  0.76238120  0.44059963  1
  Sm3+  Sm52  1  0.25705639  0.39169292  0.06671255  1
  Sm3+  Sm53  1  0.51216671  0.38248829  0.55354268  1
  Sm3+  Sm54  1  0.88854758  0.52188857  0.94969856  1
  Sm3+  Sm55  1  0.00978610  0.14070496  0.05636859  1
  Sm3+  Sm56  1  0.37803836  0.26383223  0.43714760  1
  Sm3+  Sm57  1  0.13575091  0.75562127  0.44787515  1
  Sm3+  Sm58  1  0.13371946  0.01054976  0.44867562  1
  Sm3+  Sm59  1  0.75863852  0.13609624  0.54826691  1
  Sm3+  Sm60  1  0.26073517  0.88291836  0.56022371  1
  Sm3+  Sm61  1  0.75402703  0.89525176  0.06424421  1
  Sm3+  Sm62  1  0.50910693  0.13371826  0.54302760  1
  Sm3+  Sm63  1  0.63117420  0.75597965  0.44064496  1
  Bi2+  Bi64  1  0.01457620  0.01508038  0.27987497  1
  Bi2+  Bi65  1  0.00210774  0.12243023  0.75713270  1
  Bi2+  Bi66  1  0.00673717  0.36519481  0.28634483  1
  Bi2+  Bi67  1  0.00015715  0.39952654  0.75633461  1
  Bi2+  Bi68  1  -0.05373687  0.61666850  0.25989054  1
  Bi2+  Bi69  1  -0.00985078  0.60994526  0.79309406  1
  Bi2+  Bi70  1  -0.05614680  0.84708540  0.32288596  1
  Bi2+  Bi71  1  0.03417700  0.87667256  0.79114467  1
  Bi2+  Bi72  1  0.27867548  0.09157841  0.29803216  1
  Bi2+  Bi73  1  0.19863998  0.12387909  0.80113594  1
  Bi2+  Bi74  1  0.25900094  0.35082851  0.28847617  1
  Bi2+  Bi75  1  0.25936122  0.35402130  0.80561880  1
  Bi2+  Bi76  1  0.26410853  0.57675415  0.30873368  1
  Bi2+  Bi77  1  0.23928947  0.60505266  0.81928631  1
  Bi2+  Bi78  1  0.23823832  0.87535714  0.29695073  1
  Bi2+  Bi79  1  0.29398444  0.90376155  0.80681871  1
  Bi2+  Bi80  1  0.47504774  0.09245460  0.30247027  1
  Bi2+  Bi81  1  0.48281077  0.06845479  0.76591740  1
  Bi2+  Bi82  1  0.51322661  0.28705054  0.29276807  1
  Bi2+  Bi83  1  0.49806559  0.36590571  0.73828269  1
  Bi2+  Bi84  1  0.50565577  0.66949979  0.28405337  1
  Bi2+  Bi85  1  0.44999035  0.61969635  0.83087900  1
  Bi2+  Bi86  1  0.49614230  0.88918985  0.28405436  1
  Bi2+  Bi87  1  0.46694851  0.80639548  0.79336428  1
  Bi2+  Bi88  1  0.74790309  0.00416256  0.27315121  1
  Bi2+  Bi89  1  0.74222691  0.11746338  0.79793125  1
  Bi2+  Bi90  1  0.74181204  0.35532689  0.28859283  1
  Bi2+  Bi91  1  0.73909167  0.31545516  0.79364428  1
  Bi2+  Bi92  1  0.75592896  0.60107965  0.29825925  1
  Bi2+  Bi93  1  0.63597913  0.57837872  0.80716135  1
  Bi2+  Bi94  1  0.75202109  0.81270002  0.30137431  1
  Bi2+  Bi95  1  0.66912958  0.84654341  0.77580120  1
  Bi2+  Bi96  1  0.14345262  -0.07127967  0.19757500  1
  Bi2+  Bi97  1  0.15730099  0.05155916  0.69725713  1
  Bi2+  Bi98  1  0.11988101  0.14479431  0.22361678  1
  Bi2+  Bi99  1  0.13104012  0.25191558  0.69535686  1
  Bi2+  Bi100  1  0.12191700  0.47001857  0.19952743  1
  Bi2+  Bi101  1  0.14723684  0.49835424  0.71213408  1
  Bi2+  Bi102  1  0.09362960  0.74638684  0.28158738  1
  Bi2+  Bi103  1  0.12624516  0.77176811  0.71330250  1
  Bi2+  Bi104  1  0.31323311  0.04059963  0.18561073  1
  Bi2+  Bi105  1  0.34103867  -0.00836316  0.70231773  1
  Bi2+  Bi106  1  0.37879146  0.23643821  0.21837490  1
  Bi2+  Bi107  1  0.36418539  0.22085626  0.73843859  1
  Bi2+  Bi108  1  0.37555939  0.52027943  0.20365505  1
  Bi2+  Bi109  1  0.41329405  0.53437926  0.71584216  1
  Bi2+  Bi110  1  0.35018918  0.77773707  0.21969195  1
  Bi2+  Bi111  1  0.31282389  0.71401970  0.73415207  1
  Bi2+  Bi112  1  0.51719465  0.02657954  0.18866680  1
  Bi2+  Bi113  1  0.61077429  -0.02031334  0.69303936  1
  Bi2+  Bi114  1  0.61588970  0.18812377  0.21233854  1
  Bi2+  Bi115  1  0.61555812  0.22397149  0.69054429  1
  Bi2+  Bi116  1  0.61173809  0.53575195  0.23109644  1
  Bi2+  Bi117  1  0.66277399  0.47135697  0.71246675  1
  Bi2+  Bi118  1  0.61541614  0.78418136  0.21298398  1
  Bi2+  Bi119  1  0.58380856  0.70983564  0.71592889  1
  Bi2+  Bi120  1  0.87187102  -0.08064912  0.20512692  1
  Bi2+  Bi121  1  0.87348494  -0.01952293  0.76079237  1
  Bi2+  Bi122  1  0.88105620  0.22936917  0.17470380  1
  Bi2+  Bi123  1  0.86398737  0.26520686  0.70215405  1
  Bi2+  Bi124  1  0.86251979  0.47928103  0.19203625  1
  Bi2+  Bi125  1  0.85664099  0.49905648  0.71470337  1
  Bi2+  Bi126  1  0.80693036  0.73173103  0.19707444  1
  Bi2+  Bi127  1  0.85949877  0.77897503  0.68840659  1
  S2-  S128  1  0.00068744  0.10677416  0.15231575  1
  S2-  S129  1  -0.00867506  0.15924535  0.65182282  1
  S2-  S130  1  0.01971125  0.34434036  0.16149131  1
  S2-  S131  1  0.10072048  0.38384143  0.63847693  1
  S2-  S132  1  0.00154041  0.58241828  0.15763249  1
  S2-  S133  1  -0.12027035  0.63171049  0.64273078  1
  S2-  S134  1  0.00637566  0.83839954  0.16345137  1
  S2-  S135  1  0.00140290  0.85757618  0.65615265  1
  S2-  S136  1  0.23581672  0.19808148  0.15459729  1
  S2-  S137  1  0.28261467  0.24616615  0.64448212  1
  S2-  S138  1  0.27360312  0.40339952  0.16462669  1
  S2-  S139  1  0.28364332  0.47988661  0.65564067  1
  S2-  S140  1  0.22250585  0.59289422  0.18404894  1
  S2-  S141  1  0.12237038  0.63597008  0.65040951  1
  S2-  S142  1  0.22487758  0.78805307  0.15285804  1
  S2-  S143  1  0.25369199  0.86037102  0.65743476  1
  S2-  S144  1  0.52175522  0.26113961  0.13947526  1
  S2-  S145  1  0.51836682  0.11152876  0.63980235  1
  S2-  S146  1  0.52114541  0.49107707  0.14689343  1
  S2-  S147  1  0.62429649  0.36581478  0.63096168  1
  S2-  S148  1  0.40994007  0.66461993  0.15010144  1
  S2-  S149  1  0.38893973  0.65786272  0.64541141  1
  S2-  S150  1  0.40577905  0.89576288  0.14838561  1
  S2-  S151  1  0.51684797  0.85470552  0.66061683  1
  S2-  S152  1  0.75316762  0.12488492  0.15465988  1
  S2-  S153  1  0.75170201  0.16491117  0.64639919  1
  S2-  S154  1  0.76233761  0.36055483  0.15974673  1
  S2-  S155  1  0.87844198  0.38512114  0.63562928  1
  S2-  S156  1  0.73135724  0.57828567  0.15773639  1
  S2-  S157  1  0.63825890  0.61768652  0.64138544  1
  S2-  S158  1  0.64134538  0.91049228  0.14106283  1
  S2-  S159  1  0.74562431  0.90035464  0.64699904  1
  S2-  S160  1  0.15090765  0.00644730  0.35189713  1
  S2-  S161  1  0.14542915  -0.02630444  0.85165710  1
  S2-  S162  1  0.04799098  0.24016125  0.34073017  1
  S2-  S163  1  0.12663475  0.26434535  0.84295585  1
  S2-  S164  1  0.13697589  0.44953600  0.33745727  1
  S2-  S165  1  0.11272274  0.51398919  0.85174940  1
  S2-  S166  1  0.14324171  0.65869567  0.36670464  1
  S2-  S167  1  0.03998407  0.74709936  0.85440354  1
  S2-  S168  1  0.38065849  -0.12302082  0.36076919  1
  S2-  S169  1  0.41482715  0.00780589  0.85087797  1
  S2-  S170  1  0.27035193  0.24105334  0.36085486  1
  S2-  S171  1  0.37101163  0.25172771  0.84514719  1
  S2-  S172  1  0.36598719  0.44588544  0.33804835  1
  S2-  S173  1  0.35544124  0.47521486  0.85717879  1
  S2-  S174  1  0.37546708  0.65310066  0.36120311  1
  S2-  S175  1  0.26252433  0.76234726  0.86931892  1
  S2-  S176  1  0.61955038  -0.00927030  0.33925399  1
  S2-  S177  1  0.67567152  -0.02995005  0.83713105  1
  S2-  S178  1  0.71431705  0.21699476  0.33696377  1
  S2-  S179  1  0.61332399  0.16642874  0.85358043  1
  S2-  S180  1  0.61568911  0.40489759  0.35003876  1
  S2-  S181  1  0.63490318  0.41717580  0.85843455  1
  S2-  S182  1  0.62127623  0.64856232  0.36274073  1
  S2-  S183  1  0.68952235  0.73396279  0.85867947  1
  S2-  S184  1  0.87606575  0.06016599  0.34007950  1
  S2-  S185  1  0.89309825  -0.08543352  0.85483727  1
  S2-  S186  1  0.87926531  0.24983010  0.26814636  1
  S2-  S187  1  0.86374054  0.23228333  0.84259779  1
  S2-  S188  1  0.87702397  0.40184313  0.34811204  1
  S2-  S189  1  0.87068407  0.56415777  0.85621096  1
  S2-  S190  1  0.88899301  0.63340963  0.36204972  1
  S2-  S191  1  0.86688115  0.72246318  0.77603139  1
  S2-  S192  1  0.00774610  0.12989031  0.44756158  1
  S2-  S193  1  0.00783305  0.13967438  0.95076991  1
  S2-  S194  1  0.01388553  0.38917477  0.45083561  1
  S2-  S195  1  0.01000662  0.39479660  0.95751455  1
  S2-  S196  1  0.00828364  0.63813693  0.46327289  1
  S2-  S197  1  0.00659155  0.64618176  0.96186060  1
  S2-  S198  1  0.01260692  0.88018825  0.45383993  1
  S2-  S199  1  0.01372569  0.89466372  0.96283887  1
  S2-  S200  1  0.26024598  0.12854800  0.46093510  1
  S2-  S201  1  0.26221464  0.14419869  0.95601917  1
  S2-  S202  1  0.25938907  0.38657952  0.45830112  1
  S2-  S203  1  0.25575199  0.39665117  0.96206974  1
  S2-  S204  1  0.26152084  0.64045696  0.47049646  1
  S2-  S205  1  0.25986856  0.64282717  0.97029013  1
  S2-  S206  1  0.25425734  0.88465854  0.45719883  1
  S2-  S207  1  0.26484015  0.89678000  0.96705440  1
  S2-  S208  1  0.50683149  0.13607443  0.43930047  1
  S2-  S209  1  0.50224443  0.15010761  0.95939385  1
  S2-  S210  1  0.50218961  0.38399792  0.45137263  1
  S2-  S211  1  0.50546418  0.39902142  0.95929645  1
  S2-  S212  1  0.50626768  0.63996008  0.46315365  1
  S2-  S213  1  0.50976003  0.64220839  0.96236267  1
  S2-  S214  1  0.51345731  0.88700557  0.45444457  1
  S2-  S215  1  0.50860425  0.89444187  0.95661599  1
  S2-  S216  1  0.76067647  0.13006116  0.44512353  1
  S2-  S217  1  0.76549498  0.14222626  0.95095924  1
  S2-  S218  1  0.75244026  0.38942733  0.45164061  1
  S2-  S219  1  0.76782648  0.39763794  0.95501312  1
  S2-  S220  1  0.75708604  0.63794991  0.46006849  1
  S2-  S221  1  0.76371165  0.64436991  0.96043044  1
  S2-  S222  1  0.75568005  0.88053562  0.44515371  1
  S2-  S223  1  0.75356445  0.89506969  0.96092982  1
  S2-  S224  1  0.13631260  0.01827522  0.05518312  1
  S2-  S225  1  0.13354228  0.00757727  0.55287680  1
  S2-  S226  1  0.13205571  0.26629248  0.04831446  1
  S2-  S227  1  0.13280029  0.25227596  0.53827952  1
  S2-  S228  1  0.13656834  0.51988013  0.05662010  1
  S2-  S229  1  0.13172288  0.51038463  0.54280094  1
  S2-  S230  1  0.13445139  0.76937673  0.04801955  1
  S2-  S231  1  0.13640788  0.76213195  0.55034670  1
  S2-  S232  1  0.39160584  0.02534565  0.04951149  1
  S2-  S233  1  0.38263288  0.00963946  0.54146464  1
  S2-  S234  1  0.37988612  0.26997292  0.04880260  1
  S2-  S235  1  0.38924827  0.25782643  0.54031832  1
  S2-  S236  1  0.37770325  0.51399232  0.05356467  1
  S2-  S237  1  0.38868311  0.50288139  0.54656622  1
  S2-  S238  1  0.39032271  0.76772747  0.04686283  1
  S2-  S239  1  0.38559143  0.76789045  0.54457470  1
  S2-  S240  1  0.63262722  0.02572627  0.03933862  1
  S2-  S241  1  0.63660298  0.01123769  0.53895699  1
  S2-  S242  1  0.64025495  0.26923481  0.03741185  1
  S2-  S243  1  0.63091135  0.25241917  0.52847752  1
  S2-  S244  1  0.63858936  0.51483192  0.04283920  1
  S2-  S245  1  0.63046314  0.50907912  0.53686566  1
  S2-  S246  1  0.63279965  0.76342444  0.05356680  1
  S2-  S247  1  0.63450443  0.76316886  0.54392522  1
  S2-  S248  1  0.88286754  0.01569423  0.04721226  1
  S2-  S249  1  0.88123891  0.00849358  0.54273652  1
  S2-  S250  1  0.88846323  0.26727256  0.04496350  1
  S2-  S251  1  0.88140742  0.25397814  0.53869934  1
  S2-  S252  1  0.88689620  0.51828385  0.05307899  1
  S2-  S253  1  0.88150203  0.51160495  0.53788758  1
  S2-  S254  1  0.87998979  0.77381456  0.06023663  1
  S2-  S255  1  0.88065991  0.76245640  0.54031238  1
