# generated using pymatgen
data_La6Ce7Pr13Nd19Sm19(BiS2)64
_symmetry_space_group_name_H-M   'P 1'
_cell_length_a   16.12200077
_cell_length_b   16.06782609
_cell_length_c   27.43569969
_cell_angle_alpha   90.30643201
_cell_angle_beta   90.46265958
_cell_angle_gamma   89.98974569
_symmetry_Int_Tables_number   1
_chemical_formula_structural   La6Ce7Pr13Nd19Sm19(BiS2)64
_chemical_formula_sum   'La6 Ce7 Pr13 Nd19 Sm19 Bi64 S128'
_cell_volume   7106.76125851
_cell_formula_units_Z   1
loop_
 _symmetry_equiv_pos_site_id
 _symmetry_equiv_pos_as_xyz
  1  'x, y, z'
loop_
 _atom_type_symbol
 _atom_type_oxidation_number
  La3+  3.0
  Ce3+  3.0
  Pr3+  3.0
  Nd3+  3.0
  Sm3+  3.0
  Bi2+  2.0
  S2-  -2.0
loop_
 _atom_site_type_symbol
 _atom_site_label
 _atom_site_symmetry_multiplicity
 _atom_site_fract_x
 _atom_site_fract_y
 _atom_site_fract_z
 _atom_site_occupancy
  La3+  La0  1  0.12357885  0.75363558  0.92562074  1
  La3+  La1  1  0.51028576  0.63679564  0.08138198  1
  La3+  La2  1  0.62637791  0.75432370  0.91089488  1
  La3+  La3  1  0.87139850  0.00075194  0.38765789  1
  La3+  La4  1  0.75468683  0.14867049  0.56330753  1
  La3+  La5  1  0.24938695  0.15593140  0.56222484  1
  Ce3+  Ce6  1  0.50625719  0.88221528  0.05830686  1
  Ce3+  Ce7  1  0.25361085  0.38114652  0.05307426  1
  Ce3+  Ce8  1  0.50368994  0.37955932  0.05448297  1
  Ce3+  Ce9  1  0.75308402  0.65579730  0.56837157  1
  Ce3+  Ce10  1  0.12273333  0.03196913  0.42687459  1
  Ce3+  Ce11  1  0.00364075  0.65091641  0.55730487  1
  Ce3+  Ce12  1  0.75173615  0.37790059  0.05761939  1
  Pr3+  Pr13  1  0.37338414  0.25506601  0.94250672  1
  Pr3+  Pr14  1  0.62626143  0.27615685  0.43943103  1
  Pr3+  Pr15  1  0.12502694  0.28000112  0.42934200  1
  Pr3+  Pr16  1  0.50258980  0.40599821  0.56678193  1
  Pr3+  Pr17  1  0.50480051  0.14974965  0.56437448  1
  Pr3+  Pr18  1  0.00182157  0.15464676  0.55371335  1
  Pr3+  Pr19  1  0.37359483  0.75400715  0.93561482  1
  Pr3+  Pr20  1  0.37846381  0.50731202  0.94331330  1
  Pr3+  Pr21  1  0.00086390  0.40511596  0.56300343  1
  Pr3+  Pr22  1  0.74858794  0.40269950  0.58076572  1
  Pr3+  Pr23  1  0.75808805  0.63425565  0.06942489  1
  Pr3+  Pr24  1  0.75962621  0.88131884  0.06589030  1
  Pr3+  Pr25  1  0.37537407  0.00548601  0.93871396  1
  Nd3+  Nd26  1  0.62654014  0.51018470  0.94425944  1
  Nd3+  Nd27  1  0.01293170  0.13696644  0.07752398  1
  Nd3+  Nd28  1  0.50175612  0.90686629  0.56941602  1
  Nd3+  Nd29  1  0.37630194  0.27931036  0.44371637  1
  Nd3+  Nd30  1  0.00252983  0.63504015  0.06959526  1
  Nd3+  Nd31  1  0.75261229  0.90312161  0.56562068  1
  Nd3+  Nd32  1  0.00531455  0.37913408  0.06143781  1
  Nd3+  Nd33  1  0.37660227  0.02539887  0.43521800  1
  Nd3+  Nd34  1  0.01246042  0.88136623  0.06842324  1
  Nd3+  Nd35  1  0.62699179  0.52735911  0.44433075  1
  Nd3+  Nd36  1  0.87252545  0.27274994  0.43353585  1
  Nd3+  Nd37  1  0.12142586  0.00736639  0.93735122  1
  Nd3+  Nd38  1  0.87593460  0.75872901  0.93423829  1
  Nd3+  Nd39  1  0.00347531  0.90550901  0.55812649  1
  Nd3+  Nd40  1  0.62170555  0.02565496  0.43213861  1
  Nd3+  Nd41  1  0.87758674  0.25448188  0.94380898  1
  Nd3+  Nd42  1  0.62893173  0.00511939  0.93414755  1
  Nd3+  Nd43  1  0.11670297  0.25420571  0.93001606  1
  Nd3+  Nd44  1  0.87378283  0.50835357  0.94775681  1
  Sm3+  Sm45  1  0.12554061  0.52582200  0.43869822  1
  Sm3+  Sm46  1  0.25147439  0.65690300  0.56177636  1
  Sm3+  Sm47  1  0.87815925  0.00438753  0.95195681  1
  Sm3+  Sm48  1  0.87506652  0.77373635  0.44464040  1
  Sm3+  Sm49  1  0.50143681  0.65720980  0.56242420  1
  Sm3+  Sm50  1  0.75386623  0.13071937  0.06266629  1
  Sm3+  Sm51  1  0.50339630  0.12842857  0.05724553  1
  Sm3+  Sm52  1  0.62724936  0.77688493  0.44372382  1
  Sm3+  Sm53  1  0.24819771  0.90956823  0.56005576  1
  Sm3+  Sm54  1  0.25100199  0.87996283  0.05666641  1
  Sm3+  Sm55  1  0.12252708  0.50697744  0.94919793  1
  Sm3+  Sm56  1  0.25172502  0.13186807  0.05736634  1
  Sm3+  Sm57  1  0.25327570  0.40300016  0.56509638  1
  Sm3+  Sm58  1  0.25483405  0.63175766  0.05745082  1
  Sm3+  Sm59  1  0.87234756  0.51997615  0.43814398  1
  Sm3+  Sm60  1  0.12480917  0.77676982  0.44134232  1
  Sm3+  Sm61  1  0.37705447  0.52984529  0.44446160  1
  Sm3+  Sm62  1  0.62728411  0.25017574  0.93531047  1
  Sm3+  Sm63  1  0.37465333  0.77438523  0.44612267  1
  Bi2+  Bi64  1  0.00533730  0.11908006  0.28927772  1
  Bi2+  Bi65  1  0.04252478  0.10504781  0.80896571  1
  Bi2+  Bi66  1  -0.02825535  0.40939160  0.29283942  1
  Bi2+  Bi67  1  -0.06320192  0.37056202  0.79783403  1
  Bi2+  Bi68  1  -0.05462609  0.60916494  0.30815647  1
  Bi2+  Bi69  1  0.01462020  0.60422991  0.79494958  1
  Bi2+  Bi70  1  0.08670512  0.83965021  0.28335677  1
  Bi2+  Bi71  1  0.07700438  0.82659623  0.78072421  1
  Bi2+  Bi72  1  0.26924519  0.11759103  0.29298017  1
  Bi2+  Bi73  1  0.29118498  0.13428875  0.78850686  1
  Bi2+  Bi74  1  0.22238442  0.39346098  0.28095538  1
  Bi2+  Bi75  1  0.24464868  0.41563556  0.75429211  1
  Bi2+  Bi76  1  0.24244045  0.63226301  0.29741560  1
  Bi2+  Bi77  1  0.23992689  0.60586397  0.79796479  1
  Bi2+  Bi78  1  0.26410365  0.91838559  0.31020400  1
  Bi2+  Bi79  1  0.29357285  0.83455890  0.74430019  1
  Bi2+  Bi80  1  0.49455953  0.12803022  0.29756915  1
  Bi2+  Bi81  1  0.55118604  0.12946376  0.77197613  1
  Bi2+  Bi82  1  0.42610576  0.36441071  0.28150972  1
  Bi2+  Bi83  1  0.51303937  0.33016126  0.79604941  1
  Bi2+  Bi84  1  0.48708357  0.61859335  0.31542197  1
  Bi2+  Bi85  1  0.47741124  0.61126214  0.79145536  1
  Bi2+  Bi86  1  0.43514054  0.87799271  0.25272558  1
  Bi2+  Bi87  1  0.49502307  0.87618660  0.78846139  1
  Bi2+  Bi88  1  0.73802750  0.13697610  0.29004916  1
  Bi2+  Bi89  1  0.75180234  0.17766801  0.78369667  1
  Bi2+  Bi90  1  0.70674695  0.38146319  0.25051059  1
  Bi2+  Bi91  1  0.70771986  0.37095082  0.80265507  1
  Bi2+  Bi92  1  0.75181930  0.57885526  0.31661411  1
  Bi2+  Bi93  1  0.74554128  0.58696453  0.79567332  1
  Bi2+  Bi94  1  0.73117935  0.84774650  0.29524793  1
  Bi2+  Bi95  1  0.76522365  0.87918440  0.79131969  1
  Bi2+  Bi96  1  0.17999738  -0.00128337  0.21124500  1
  Bi2+  Bi97  1  0.12810656  -0.04470115  0.70158097  1
  Bi2+  Bi98  1  0.13800235  0.26632361  0.20656825  1
  Bi2+  Bi99  1  0.12733165  0.19095995  0.68671996  1
  Bi2+  Bi100  1  0.09289953  0.53854617  0.23860772  1
  Bi2+  Bi101  1  0.06181956  0.45026533  0.72095258  1
  Bi2+  Bi102  1  0.08933852  0.72343525  0.18818619  1
  Bi2+  Bi103  1  0.10982914  0.72073652  0.68694200  1
  Bi2+  Bi104  1  0.37273447  0.04519896  0.19549477  1
  Bi2+  Bi105  1  0.39597376  0.00651293  0.72776324  1
  Bi2+  Bi106  1  0.33626694  0.24420748  0.20452028  1
  Bi2+  Bi107  1  0.37449045  0.26845089  0.71372006  1
  Bi2+  Bi108  1  0.32643197  0.51194683  0.20628756  1
  Bi2+  Bi109  1  0.37922094  0.45238952  0.67808103  1
  Bi2+  Bi110  1  0.27735274  0.77451911  0.22234433  1
  Bi2+  Bi111  1  0.36881092  0.66332862  0.70204049  1
  Bi2+  Bi112  1  0.58596240  -0.03776951  0.20280015  1
  Bi2+  Bi113  1  0.62783087  -0.02594025  0.69700296  1
  Bi2+  Bi114  1  0.55792952  0.25793318  0.21596906  1
  Bi2+  Bi115  1  0.63408696  0.22136256  0.68890579  1
  Bi2+  Bi116  1  0.57764678  0.51362599  0.20809560  1
  Bi2+  Bi117  1  0.56547830  0.47557598  0.72609713  1
  Bi2+  Bi118  1  0.64859556  0.69838999  0.24749897  1
  Bi2+  Bi119  1  0.63763891  0.73346482  0.70434397  1
  Bi2+  Bi120  1  0.82700868  0.00233703  0.18674393  1
  Bi2+  Bi121  1  0.88040758  0.02710248  0.75887892  1
  Bi2+  Bi122  1  0.86742079  0.25224978  0.19712596  1
  Bi2+  Bi123  1  0.90634003  0.22169778  0.71087535  1
  Bi2+  Bi124  1  0.84630770  0.51250435  0.21861324  1
  Bi2+  Bi125  1  0.83206242  0.44376817  0.71456032  1
  Bi2+  Bi126  1  0.90587583  0.74862489  0.22354445  1
  Bi2+  Bi127  1  0.86994668  0.64190068  0.71562133  1
  S2-  S128  1  -0.04534253  0.12020323  0.17299339  1
  S2-  S129  1  -0.00272654  0.10640929  0.65160161  1
  S2-  S130  1  0.00709830  0.33032197  0.15561382  1
  S2-  S131  1  0.02555815  0.32508864  0.65142691  1
  S2-  S132  1  -0.11526954  0.63779009  0.14499324  1
  S2-  S133  1  -0.00273864  0.59598736  0.64954635  1
  S2-  S134  1  -0.07771513  0.87399177  0.15402085  1
  S2-  S135  1  0.00926482  0.86346575  0.65570764  1
  S2-  S136  1  0.15751561  0.13685889  0.13934213  1
  S2-  S137  1  0.22519573  0.05718326  0.64478953  1
  S2-  S138  1  0.24979227  0.37609006  0.14937280  1
  S2-  S139  1  0.24444184  0.28440529  0.63741901  1
  S2-  S140  1  0.23350556  0.63433530  0.15396045  1
  S2-  S141  1  0.22395724  0.60708118  0.65382747  1
  S2-  S142  1  0.15062078  0.88591001  0.13615194  1
  S2-  S143  1  0.24427363  0.83521687  0.64846582  1
  S2-  S144  1  0.52506791  0.11098480  0.15355150  1
  S2-  S145  1  0.49080828  0.03958749  0.64147993  1
  S2-  S146  1  0.50836871  0.37944612  0.15080168  1
  S2-  S147  1  0.60626958  0.37826400  0.64667590  1
  S2-  S148  1  0.44468475  0.61021265  0.17618133  1
  S2-  S149  1  0.53183540  0.62046161  0.65646999  1
  S2-  S150  1  0.48949721  0.84248907  0.15210178  1
  S2-  S151  1  0.53107595  0.83258626  0.66061468  1
  S2-  S152  1  0.74390356  0.15213062  0.15991865  1
  S2-  S153  1  0.74517539  0.02457125  0.64185919  1
  S2-  S154  1  0.76758523  0.38598319  0.15420586  1
  S2-  S155  1  0.78251887  0.26105919  0.64381862  1
  S2-  S156  1  0.65035388  0.63081997  0.14997071  1
  S2-  S157  1  0.76330215  0.54433165  0.64403227  1
  S2-  S158  1  0.70998124  0.87785283  0.16328220  1
  S2-  S159  1  0.75356918  0.78147041  0.64254619  1
  S2-  S160  1  0.03669265  -0.01811807  0.34527001  1
  S2-  S161  1  0.12549830  -0.02807249  0.83934893  1
  S2-  S162  1  0.13029672  0.16515718  0.35092033  1
  S2-  S163  1  0.17237399  0.21537212  0.83745800  1
  S2-  S164  1  0.12299271  0.41625458  0.36162341  1
  S2-  S165  1  0.12168444  0.50977335  0.85169897  1
  S2-  S166  1  0.12146170  0.71110381  0.35041369  1
  S2-  S167  1  0.25183815  0.73911000  0.85597666  1
  S2-  S168  1  0.48977506  0.00841465  0.36054478  1
  S2-  S169  1  0.38127304  -0.01174878  0.83912231  1
  S2-  S170  1  0.37865022  0.23607211  0.34788993  1
  S2-  S171  1  0.39590144  0.23111677  0.84541452  1
  S2-  S172  1  0.38547602  0.49528970  0.34910037  1
  S2-  S173  1  0.37217286  0.51250456  0.84343687  1
  S2-  S174  1  0.37386130  0.71752726  0.35308926  1
  S2-  S175  1  0.47504248  0.75217148  0.85340429  1
  S2-  S176  1  0.70746174  -0.00102925  0.34620851  1
  S2-  S177  1  0.62933083  -0.09409719  0.85038400  1
  S2-  S178  1  0.63155243  0.21897082  0.34322077  1
  S2-  S179  1  0.63513789  0.13224627  0.86269309  1
  S2-  S180  1  0.60836935  0.49884852  0.34667744  1
  S2-  S181  1  0.61713100  0.59309482  0.85794341  1
  S2-  S182  1  0.60129067  0.76264513  0.34602767  1
  S2-  S183  1  0.77358157  0.74787725  0.85123953  1
  S2-  S184  1  0.87259127  0.00957814  0.27780660  1
  S2-  S185  1  0.87097738  -0.02302645  0.85532565  1
  S2-  S186  1  0.87701250  0.17367313  0.34718180  1
  S2-  S187  1  0.97280557  0.23959526  0.86249789  1
  S2-  S188  1  0.85908882  0.40126540  0.36313077  1
  S2-  S189  1  0.88586057  0.52177483  0.84988838  1
  S2-  S190  1  0.86219607  0.82625786  0.35162117  1
  S2-  S191  1  0.99456777  0.75268417  0.85793219  1
  S2-  S192  1  0.00030185  0.15345337  0.44944960  1
  S2-  S193  1  0.00041402  0.12843861  0.96500418  1
  S2-  S194  1  0.00002195  0.40565751  0.45756430  1
  S2-  S195  1  -0.00020152  0.38380264  0.95622226  1
  S2-  S196  1  -0.00010340  0.64755110  0.45202005  1
  S2-  S197  1  0.00032673  0.62791662  0.96263541  1
  S2-  S198  1  0.00039917  0.89494338  0.45208804  1
  S2-  S199  1  0.00231048  0.88348599  0.96035211  1
  S2-  S200  1  0.25570919  0.15190767  0.45384182  1
  S2-  S201  1  0.24843224  0.13042750  0.95292983  1
  S2-  S202  1  0.25571098  0.40618173  0.46004602  1
  S2-  S203  1  0.24692428  0.38131267  0.94654745  1
  S2-  S204  1  0.24972751  0.64959585  0.45660890  1
  S2-  S205  1  0.24903361  0.62510666  0.95604735  1
  S2-  S206  1  0.25022931  0.89861749  0.45285926  1
  S2-  S207  1  0.24800520  0.88395521  0.95359769  1
  S2-  S208  1  0.49842430  0.15301984  0.45801894  1
  S2-  S209  1  0.49998091  0.13077590  0.95450217  1
  S2-  S210  1  0.50005279  0.40416772  0.45739799  1
  S2-  S211  1  0.50545554  0.37770840  0.94797279  1
  S2-  S212  1  0.50062912  0.65301230  0.45795507  1
  S2-  S213  1  0.50088427  0.63174473  0.96415751  1
  S2-  S214  1  0.49836612  0.89302094  0.46000364  1
  S2-  S215  1  0.50075092  0.88202071  0.95416600  1
  S2-  S216  1  0.74759898  0.14953800  0.45402397  1
  S2-  S217  1  0.75652988  0.13034243  0.95867494  1
  S2-  S218  1  0.74622548  0.40302892  0.46307602  1
  S2-  S219  1  0.74978049  0.37760068  0.95068633  1
  S2-  S220  1  0.75179555  0.65170168  0.45610186  1
  S2-  S221  1  0.75175300  0.63277554  0.96156833  1
  S2-  S222  1  0.75044144  0.89649784  0.45702107  1
  S2-  S223  1  0.75316090  0.88302888  0.95902897  1
  S2-  S224  1  0.13027616  0.00951772  0.04153671  1
  S2-  S225  1  0.12598706  0.02606434  0.53556061  1
  S2-  S226  1  0.13016651  0.25782877  0.03801566  1
  S2-  S227  1  0.12689632  0.28351439  0.53607838  1
  S2-  S228  1  0.12708824  0.50791663  0.05396663  1
  S2-  S229  1  0.13198721  0.52543975  0.54351194  1
  S2-  S230  1  0.13024868  0.75133514  0.03954551  1
  S2-  S231  1  0.12861883  0.77619345  0.54357141  1
  S2-  S232  1  0.37438636  0.00668965  0.04674185  1
  S2-  S233  1  0.37370961  0.02556556  0.54085527  1
  S2-  S234  1  0.37844370  0.25222695  0.04934537  1
  S2-  S235  1  0.38242902  0.27886464  0.54829037  1
  S2-  S236  1  0.37931826  0.50739818  0.05036130  1
  S2-  S237  1  0.37509275  0.53171001  0.54872945  1
  S2-  S238  1  0.37393346  0.75695492  0.04777490  1
  S2-  S239  1  0.37523493  0.77881698  0.55012883  1
  S2-  S240  1  0.63049861  0.00891856  0.04513977  1
  S2-  S241  1  0.62399374  0.02394140  0.53865780  1
  S2-  S242  1  0.62752533  0.25078816  0.04237056  1
  S2-  S243  1  0.62463107  0.27581259  0.54384597  1
  S2-  S244  1  0.62907104  0.50369784  0.04877594  1
  S2-  S245  1  0.62261308  0.53300483  0.54798865  1
  S2-  S246  1  0.63109363  0.76015868  0.05056942  1
  S2-  S247  1  0.62231750  0.77756611  0.54570395  1
  S2-  S248  1  0.88386133  0.01259000  0.05522338  1
  S2-  S249  1  0.88112848  0.02421012  0.54631277  1
  S2-  S250  1  0.87940293  0.25342192  0.04884065  1
  S2-  S251  1  0.87840409  0.28095351  0.54008921  1
  S2-  S252  1  0.87999937  0.50144087  0.05169726  1
  S2-  S253  1  0.87718082  0.52787968  0.54135208  1
  S2-  S254  1  0.88412342  0.75975944  0.04301396  1
  S2-  S255  1  0.88255891  0.77653608  0.54660417  1
