# generated using pymatgen
data_La6Ce7Pr13Nd19Sm19(BiS2)64
_symmetry_space_group_name_H-M   'P 1'
_cell_length_a   16.08562631
_cell_length_b   16.08689621
_cell_length_c   27.31657756
_cell_angle_alpha   89.95467338
_cell_angle_beta   89.90158103
_cell_angle_gamma   90.07063458
_symmetry_Int_Tables_number   1
_chemical_formula_structural   La6Ce7Pr13Nd19Sm19(BiS2)64
_chemical_formula_sum   'La6 Ce7 Pr13 Nd19 Sm19 Bi64 S128'
_cell_volume   7068.63268266
_cell_formula_units_Z   1
loop_
 _symmetry_equiv_pos_site_id
 _symmetry_equiv_pos_as_xyz
  1  'x, y, z'
loop_
 _atom_type_symbol
 _atom_type_oxidation_number
  La3+  3.0
  Ce3+  3.0
  Pr3+  3.0
  Nd3+  3.0
  Sm3+  3.0
  Bi2+  2.0
  S2-  -2.0
loop_
 _atom_site_type_symbol
 _atom_site_label
 _atom_site_symmetry_multiplicity
 _atom_site_fract_x
 _atom_site_fract_y
 _atom_site_fract_z
 _atom_site_occupancy
  La3+  La0  1  0.73538083  0.12459981  0.57596414  1
  La3+  La1  1  0.60631980  0.49319747  0.39752624  1
  La3+  La2  1  0.26624837  0.11147623  0.09613998  1
  La3+  La3  1  0.86923353  0.75894926  0.39343982  1
  La3+  La4  1  0.72437463  0.38781702  0.58275695  1
  La3+  La5  1  0.00624738  0.12105887  0.61188138  1
  Ce3+  Ce6  1  0.48088661  0.37619898  0.55883401  1
  Ce3+  Ce7  1  0.13765873  0.73826204  0.94766045  1
  Ce3+  Ce8  1  0.88729511  0.73638491  0.94847116  1
  Ce3+  Ce9  1  0.75933404  0.86211864  0.06207199  1
  Ce3+  Ce10  1  0.60813517  0.75198044  0.42882515  1
  Ce3+  Ce11  1  0.51152017  0.11304315  0.06203703  1
  Ce3+  Ce12  1  0.76476108  0.11767912  0.07139647  1
  Pr3+  Pr13  1  0.36230561  0.75035286  0.42990002  1
  Pr3+  Pr14  1  0.35532309  0.49864791  0.43774244  1
  Pr3+  Pr15  1  0.10303073  0.49961540  0.42944511  1
  Pr3+  Pr16  1  0.48259440  0.62325008  0.55434523  1
  Pr3+  Pr17  1  0.64139644  0.48785023  0.93450020  1
  Pr3+  Pr18  1  0.73070298  0.62388612  0.54578556  1
  Pr3+  Pr19  1  0.38705985  -0.00957625  0.93391052  1
  Pr3+  Pr20  1  0.76642755  0.36107670  0.07085063  1
  Pr3+  Pr21  1  0.47076048  0.87405367  0.56624009  1
  Pr3+  Pr22  1  0.00821169  0.61072378  0.06526434  1
  Pr3+  Pr23  1  0.85574967  0.49179538  0.42363721  1
  Pr3+  Pr24  1  0.01177959  0.36195850  0.06300584  1
  Pr3+  Pr25  1  0.74654325  0.60583487  0.08359253  1
  Nd3+  Nd26  1  0.63865747  0.73433218  0.94350378  1
  Nd3+  Nd27  1  -0.02071245  0.87589024  0.56371394  1
  Nd3+  Nd28  1  0.64008215  -0.00862553  0.94125857  1
  Nd3+  Nd29  1  0.89221909  0.49030918  0.93150422  1
  Nd3+  Nd30  1  -0.02212576  0.62404280  0.55158999  1
  Nd3+  Nd31  1  0.23017190  0.87778122  0.55532579  1
  Nd3+  Nd32  1  0.85316894  0.00004736  0.44327226  1
  Nd3+  Nd33  1  0.72782930  0.87396216  0.56247957  1
  Nd3+  Nd34  1  0.35681146  0.25035989  0.43660903  1
  Nd3+  Nd35  1  0.60872100  0.25127973  0.44227728  1
  Nd3+  Nd36  1  0.13800322  -0.01091837  0.94950065  1
  Nd3+  Nd37  1  0.89589105  0.23741986  0.92829919  1
  Nd3+  Nd38  1  0.38597238  0.48777255  0.93581675  1
  Nd3+  Nd39  1  0.35498717  0.00198498  0.43225326  1
  Nd3+  Nd40  1  0.13769137  0.48784707  0.93753314  1
  Nd3+  Nd41  1  0.51092903  0.86514879  0.05646975  1
  Nd3+  Nd42  1  0.00631433  0.86265125  0.06743937  1
  Nd3+  Nd43  1  0.09969746  -0.00355793  0.43386241  1
  Nd3+  Nd44  1  0.50198259  0.60794976  0.06999894  1
  Sm3+  Sm45  1  0.13726268  0.23535367  0.94718468  1
  Sm3+  Sm46  1  0.38701655  0.23705221  0.93977334  1
  Sm3+  Sm47  1  0.26409658  0.61210065  0.06160945  1
  Sm3+  Sm48  1  0.64258643  0.23888933  0.93895821  1
  Sm3+  Sm49  1  0.22847791  0.62186903  0.55667753  1
  Sm3+  Sm50  1  0.88589826  -0.01081728  0.94366370  1
  Sm3+  Sm51  1  0.38967442  0.73690134  0.94272655  1
  Sm3+  Sm52  1  0.22699397  0.37240168  0.55388479  1
  Sm3+  Sm53  1  -0.02195200  0.37817162  0.56254174  1
  Sm3+  Sm54  1  0.26180127  0.86672073  0.05838806  1
  Sm3+  Sm55  1  0.51057791  0.36146953  0.05071431  1
  Sm3+  Sm56  1  0.26162588  0.35853345  0.05980070  1
  Sm3+  Sm57  1  0.00864691  0.11207731  0.06354558  1
  Sm3+  Sm58  1  0.85292000  0.25183799  0.45168197  1
  Sm3+  Sm59  1  0.23142792  0.12386354  0.55166448  1
  Sm3+  Sm60  1  0.60580407  -0.00097514  0.44837048  1
  Sm3+  Sm61  1  0.10747401  0.74990359  0.44299844  1
  Sm3+  Sm62  1  0.48386702  0.12845263  0.56631976  1
  Sm3+  Sm63  1  0.10077901  0.24591569  0.44584040  1
  Bi2+  Bi64  1  0.00479402  0.12999409  0.29975911  1
  Bi2+  Bi65  1  0.03011382  0.10961797  0.80487468  1
  Bi2+  Bi66  1  0.03697507  0.38925566  0.28510484  1
  Bi2+  Bi67  1  0.08713673  0.37818029  0.78778818  1
  Bi2+  Bi68  1  0.05159716  0.64049756  0.29343377  1
  Bi2+  Bi69  1  -0.00260133  0.63179436  0.79972263  1
  Bi2+  Bi70  1  0.03811987  0.93215334  0.29866101  1
  Bi2+  Bi71  1  0.06229790  0.85894752  0.77576530  1
  Bi2+  Bi72  1  0.26281399  0.26124598  0.28971559  1
  Bi2+  Bi73  1  0.29050129  0.14172563  0.78370361  1
  Bi2+  Bi74  1  0.23422905  0.45366067  0.31299658  1
  Bi2+  Bi75  1  0.25750157  0.44142769  0.82735421  1
  Bi2+  Bi76  1  0.24622513  0.65765590  0.33424795  1
  Bi2+  Bi77  1  0.22908758  0.63046204  0.80002553  1
  Bi2+  Bi78  1  0.26350128  0.87152779  0.29276998  1
  Bi2+  Bi79  1  0.25769690  0.91904708  0.79333807  1
  Bi2+  Bi80  1  0.55164086  0.09807553  0.28571003  1
  Bi2+  Bi81  1  0.48423441  0.07490710  0.78497039  1
  Bi2+  Bi82  1  0.48020676  0.34110730  0.29537348  1
  Bi2+  Bi83  1  0.44374587  0.36496109  0.77036093  1
  Bi2+  Bi84  1  0.42555845  0.64684400  0.28475764  1
  Bi2+  Bi85  1  0.48778707  0.64333945  0.79336694  1
  Bi2+  Bi86  1  0.52075130  0.89827871  0.29051736  1
  Bi2+  Bi87  1  0.48319925  0.85311905  0.75100664  1
  Bi2+  Bi88  1  0.81425115  0.17622248  0.31772409  1
  Bi2+  Bi89  1  0.75380384  0.10611020  0.81669031  1
  Bi2+  Bi90  1  0.76015472  0.37116932  0.28541135  1
  Bi2+  Bi91  1  0.72229361  0.36555358  0.79563109  1
  Bi2+  Bi92  1  0.72471194  0.64631269  0.27223434  1
  Bi2+  Bi93  1  0.74502882  0.61530906  0.80741569  1
  Bi2+  Bi94  1  0.75505550  0.90297191  0.28764277  1
  Bi2+  Bi95  1  0.74739686  0.86044414  0.75962352  1
  Bi2+  Bi96  1  0.00777807  0.01577903  0.19985693  1
  Bi2+  Bi97  1  0.17631406  -0.05337655  0.68945748  1
  Bi2+  Bi98  1  0.12249151  0.26534727  0.20402112  1
  Bi2+  Bi99  1  0.22321839  0.29443173  0.72164862  1
  Bi2+  Bi100  1  0.15502068  0.46034636  0.20134514  1
  Bi2+  Bi101  1  0.11912168  0.54112309  0.70957442  1
  Bi2+  Bi102  1  0.18949904  0.72573398  0.22762481  1
  Bi2+  Bi103  1  0.09524658  0.74175111  0.68799964  1
  Bi2+  Bi104  1  0.31151503  0.02352585  0.22236700  1
  Bi2+  Bi105  1  0.37575235  0.07948987  0.68617417  1
  Bi2+  Bi106  1  0.41652425  0.25810373  0.20037140  1
  Bi2+  Bi107  1  0.40467090  0.26870415  0.66979132  1
  Bi2+  Bi108  1  0.34322027  0.50367393  0.21687036  1
  Bi2+  Bi109  1  0.31845712  0.49687457  0.72013055  1
  Bi2+  Bi110  1  0.37138091  0.77577337  0.20297784  1
  Bi2+  Bi111  1  0.31196356  0.77486283  0.71863058  1
  Bi2+  Bi112  1  0.61654038  0.05092837  0.18069994  1
  Bi2+  Bi113  1  0.63022616  0.00572792  0.71338093  1
  Bi2+  Bi114  1  0.62612452  0.24154964  0.21942633  1
  Bi2+  Bi115  1  0.57064444  0.22537635  0.73054134  1
  Bi2+  Bi116  1  0.59355187  0.49307161  0.20581496  1
  Bi2+  Bi117  1  0.60799827  0.52510718  0.70023052  1
  Bi2+  Bi118  1  0.66018844  0.85826070  0.19476423  1
  Bi2+  Bi119  1  0.62142024  0.73300675  0.70637659  1
  Bi2+  Bi120  1  0.80154708  0.05934208  0.22363867  1
  Bi2+  Bi121  1  0.88054997  -0.00718186  0.71811245  1
  Bi2+  Bi122  1  0.91710995  0.26128916  0.22588256  1
  Bi2+  Bi123  1  0.88587860  0.24936168  0.72582084  1
  Bi2+  Bi124  1  0.88854716  0.51559221  0.19450038  1
  Bi2+  Bi125  1  0.87562913  0.47850808  0.69768272  1
  Bi2+  Bi126  1  0.92329935  0.77313014  0.20425056  1
  Bi2+  Bi127  1  0.90440915  0.75223763  0.72970453  1
  S2-  S128  1  -0.09993305  0.11248896  0.13940696  1
  S2-  S129  1  0.02795245  0.16218520  0.71589248  1
  S2-  S130  1  -0.08819264  0.36736569  0.14423455  1
  S2-  S131  1  -0.02928525  0.35170462  0.65974613  1
  S2-  S132  1  0.00785462  0.61723470  0.16599362  1
  S2-  S133  1  -0.02134096  0.56465052  0.64608646  1
  S2-  S134  1  0.05404102  0.85838111  0.16318329  1
  S2-  S135  1  -0.00354701  0.95640502  0.65252172  1
  S2-  S136  1  0.17089653  0.09103128  0.18164124  1
  S2-  S137  1  0.18066855  0.09875629  0.64317813  1
  S2-  S138  1  0.27281492  0.27545229  0.14533235  1
  S2-  S139  1  0.20926322  0.41708060  0.64798145  1
  S2-  S140  1  0.36775319  0.61153598  0.13997387  1
  S2-  S141  1  0.24037694  0.65823871  0.65112147  1
  S2-  S142  1  0.28315359  0.91634232  0.15132788  1
  S2-  S143  1  0.33146929  0.87647252  0.63568699  1
  S2-  S144  1  0.41979866  0.10321689  0.14789354  1
  S2-  S145  1  0.60060979  0.13388578  0.64502395  1
  S2-  S146  1  0.49206092  0.39504158  0.14679420  1
  S2-  S147  1  0.56536297  0.40483725  0.64204601  1
  S2-  S148  1  0.59809020  0.62326413  0.15147923  1
  S2-  S149  1  0.49929300  0.63238939  0.65564328  1
  S2-  S150  1  0.50147838  0.85380376  0.15572957  1
  S2-  S151  1  0.55108260  0.87450230  0.65636564  1
  S2-  S152  1  0.72791573  0.23700592  0.14130337  1
  S2-  S153  1  0.84760247  0.13126129  0.65613197  1
  S2-  S154  1  0.73551966  0.46780973  0.15131545  1
  S2-  S155  1  0.75888053  0.34464900  0.68573685  1
  S2-  S156  1  0.80245595  0.66181844  0.17557341  1
  S2-  S157  1  0.74498011  0.54885733  0.63974626  1
  S2-  S158  1  0.83167299  0.87502665  0.15044060  1
  S2-  S159  1  0.76081583  0.92918364  0.65667959  1
  S2-  S160  1  0.17754683  -0.00032771  0.34408271  1
  S2-  S161  1  0.14912439  0.01086692  0.85212266  1
  S2-  S162  1  0.10826212  0.24607426  0.34746894  1
  S2-  S163  1  0.06068788  0.24505869  0.85994767  1
  S2-  S164  1  -0.00894312  0.50793464  0.35244012  1
  S2-  S165  1  0.02840957  0.49152963  0.85937797  1
  S2-  S166  1  0.04434154  0.78192429  0.35448118  1
  S2-  S167  1  0.11737378  0.73711654  0.85002117  1
  S2-  S168  1  0.39750131  -0.03031100  0.33750833  1
  S2-  S169  1  0.42191939  -0.06004744  0.83982284  1
  S2-  S170  1  0.39454796  0.20301871  0.34406731  1
  S2-  S171  1  0.38468922  0.24471743  0.84179438  1
  S2-  S172  1  0.43835840  0.46682060  0.35158023  1
  S2-  S173  1  0.43627390  0.49879875  0.84166135  1
  S2-  S174  1  0.48535500  0.76671212  0.35486043  1
  S2-  S175  1  0.37100649  0.71227007  0.84648491  1
  S2-  S176  1  0.63939776  -0.00060331  0.35070448  1
  S2-  S177  1  0.66938215  -0.02315305  0.84348818  1
  S2-  S178  1  0.62141425  0.33192288  0.35270310  1
  S2-  S179  1  0.63403558  0.23488783  0.84033638  1
  S2-  S180  1  0.58331928  0.57845943  0.30126309  1
  S2-  S181  1  0.63483039  0.48590440  0.83233870  1
  S2-  S182  1  0.70899081  0.76204434  0.34674133  1
  S2-  S183  1  0.61613885  0.71814390  0.84545893  1
  S2-  S184  1  0.87973986  -0.07393485  0.35302520  1
  S2-  S185  1  0.89224823  0.02116100  0.84679310  1
  S2-  S186  1  0.86145729  0.33003413  0.36295399  1
  S2-  S187  1  0.85141911  0.25684759  0.83122314  1
  S2-  S188  1  0.75971688  0.51288911  0.33660272  1
  S2-  S189  1  0.82672136  0.48308066  0.83656436  1
  S2-  S190  1  0.89153710  0.69162967  0.29660451  1
  S2-  S191  1  0.86790914  0.71552310  0.85256779  1
  S2-  S192  1  -0.02241621  0.12542792  0.44619621  1
  S2-  S193  1  0.01196804  0.11060448  0.95965591  1
  S2-  S194  1  -0.01507519  0.37140785  0.45808653  1
  S2-  S195  1  0.01499323  0.36315639  0.95863957  1
  S2-  S196  1  -0.02173235  0.63241223  0.44822816  1
  S2-  S197  1  0.01499329  0.61450724  0.95940132  1
  S2-  S198  1  -0.02101680  0.87096224  0.45965227  1
  S2-  S199  1  0.01094168  0.86529296  0.95840231  1
  S2-  S200  1  0.22853161  0.12544996  0.44782952  1
  S2-  S201  1  0.26229502  0.11599432  0.94933901  1
  S2-  S202  1  0.22744966  0.37033310  0.44937843  1
  S2-  S203  1  0.26029628  0.35885441  0.95534407  1
  S2-  S204  1  0.22897551  0.62401087  0.45329031  1
  S2-  S205  1  0.26345544  0.61353827  0.95700074  1
  S2-  S206  1  0.23228363  0.87358041  0.44946807  1
  S2-  S207  1  0.26462274  0.86219528  0.95249132  1
  S2-  S208  1  0.48251849  0.12368589  0.45772888  1
  S2-  S209  1  0.51369939  0.11625805  0.95027665  1
  S2-  S210  1  0.48081611  0.37108028  0.45508343  1
  S2-  S211  1  0.51271368  0.36017681  0.94556969  1
  S2-  S212  1  0.48438847  0.61975952  0.44722825  1
  S2-  S213  1  0.50980863  0.61146121  0.95731599  1
  S2-  S214  1  0.48000037  0.88085693  0.45781644  1
  S2-  S215  1  0.51399740  0.86192295  0.95041920  1
  S2-  S216  1  0.73031171  0.12469613  0.46128910  1
  S2-  S217  1  0.76539839  0.11567164  0.95678619  1
  S2-  S218  1  0.72881945  0.37553308  0.45904807  1
  S2-  S219  1  0.76643021  0.36093754  0.95148878  1
  S2-  S220  1  0.73444438  0.62606544  0.44214908  1
  S2-  S221  1  0.76316692  0.61118898  0.95680114  1
  S2-  S222  1  0.73082174  0.87607723  0.45726899  1
  S2-  S223  1  0.76200445  0.86381203  0.95368296  1
  S2-  S224  1  0.13559025  -0.00977576  0.05447637  1
  S2-  S225  1  0.10482928  0.00111817  0.53960471  1
  S2-  S226  1  0.13611272  0.23258091  0.05073533  1
  S2-  S227  1  0.10222017  0.24733062  0.55147802  1
  S2-  S228  1  0.14052193  0.48736054  0.04876333  1
  S2-  S229  1  0.10622278  0.49891210  0.53850714  1
  S2-  S230  1  0.14015709  0.73758317  0.05501759  1
  S2-  S231  1  0.10678394  0.74973841  0.54729919  1
  S2-  S232  1  0.38485411  -0.01048296  0.04106600  1
  S2-  S233  1  0.35634524  0.00756410  0.53947566  1
  S2-  S234  1  0.38642893  0.23720471  0.04294066  1
  S2-  S235  1  0.35248590  0.24888804  0.54331999  1
  S2-  S236  1  0.38104193  0.48151418  0.04191549  1
  S2-  S237  1  0.35040906  0.49781610  0.54593365  1
  S2-  S238  1  0.38347187  0.74284492  0.04606879  1
  S2-  S239  1  0.35191835  0.74461877  0.53739532  1
  S2-  S240  1  0.63818069  -0.01006707  0.04757079  1
  S2-  S241  1  0.60215926  -0.00016413  0.55019213  1
  S2-  S242  1  0.63173436  0.23884834  0.04131611  1
  S2-  S243  1  0.60542028  0.25223199  0.54707770  1
  S2-  S244  1  0.62999082  0.48506441  0.04099698  1
  S2-  S245  1  0.60412531  0.50183129  0.53746174  1
  S2-  S246  1  0.63316654  0.73761239  0.04871776  1
  S2-  S247  1  0.60496612  0.75105042  0.54159626  1
  S2-  S248  1  0.88593352  -0.01343908  0.04537500  1
  S2-  S249  1  0.85760929  -0.00117360  0.54715683  1
  S2-  S250  1  0.89122767  0.23751757  0.03745448  1
  S2-  S251  1  0.85198913  0.25972085  0.55343764  1
  S2-  S252  1  0.88421135  0.49066418  0.04165483  1
  S2-  S253  1  0.85894940  0.49765098  0.53739014  1
  S2-  S254  1  0.88283455  0.73479545  0.05301299  1
  S2-  S255  1  0.85572394  0.75025117  0.56328900  1
