# generated using pymatgen
data_La6Ce7Pr13Nd19Sm19(BiS2)64
_symmetry_space_group_name_H-M   'P 1'
_cell_length_a   16.13863008
_cell_length_b   16.13435816
_cell_length_c   27.27239801
_cell_angle_alpha   90.03330293
_cell_angle_beta   89.76562193
_cell_angle_gamma   90.02333359
_symmetry_Int_Tables_number   1
_chemical_formula_structural   La6Ce7Pr13Nd19Sm19(BiS2)64
_chemical_formula_sum   'La6 Ce7 Pr13 Nd19 Sm19 Bi64 S128'
_cell_volume   7101.30137558
_cell_formula_units_Z   1
loop_
 _symmetry_equiv_pos_site_id
 _symmetry_equiv_pos_as_xyz
  1  'x, y, z'
loop_
 _atom_type_symbol
 _atom_type_oxidation_number
  La3+  3.0
  Ce3+  3.0
  Pr3+  3.0
  Nd3+  3.0
  Sm3+  3.0
  Bi2+  2.0
  S2-  -2.0
loop_
 _atom_site_type_symbol
 _atom_site_label
 _atom_site_symmetry_multiplicity
 _atom_site_fract_x
 _atom_site_fract_y
 _atom_site_fract_z
 _atom_site_occupancy
  La3+  La0  1  0.24038242  0.38530906  0.57277823  1
  La3+  La1  1  0.48784005  0.38394356  0.58842548  1
  La3+  La2  1  0.64840663  0.75217258  0.92987641  1
  La3+  La3  1  0.64776438  0.23476096  0.90780899  1
  La3+  La4  1  0.64334059  0.50066186  0.91133200  1
  La3+  La5  1  0.12878814  0.49524872  0.41446277  1
  Ce3+  Ce6  1  0.61919972  0.74936773  0.43879760  1
  Ce3+  Ce7  1  0.38867496  0.24768591  0.93226880  1
  Ce3+  Ce8  1  0.11970991  0.75056361  0.43709646  1
  Ce3+  Ce9  1  0.88837628  0.74855179  0.94475212  1
  Ce3+  Ce10  1  -0.00496813  0.12876993  0.56086293  1
  Ce3+  Ce11  1  0.62207633  0.25445656  0.45012330  1
  Ce3+  Ce12  1  0.24347217  0.62403866  0.55259108  1
  Pr3+  Pr13  1  0.51500623  0.36945263  0.05071383  1
  Pr3+  Pr14  1  0.26638345  0.62058579  0.06435861  1
  Pr3+  Pr15  1  0.49376967  0.63278375  0.56914512  1
  Pr3+  Pr16  1  0.76201593  0.61870952  0.06364359  1
  Pr3+  Pr17  1  0.73559742  0.87420483  0.11000100  1
  Pr3+  Pr18  1  0.76166348  0.37201739  0.05921860  1
  Pr3+  Pr19  1  0.01479072  0.61644524  0.06178559  1
  Pr3+  Pr20  1  0.89193520  0.24540916  0.93681175  1
  Pr3+  Pr21  1  0.51540124  0.62063378  0.05280729  1
  Pr3+  Pr22  1  0.74633176  0.12772754  0.56543145  1
  Pr3+  Pr23  1  0.24623854  0.12829362  0.55951785  1
  Pr3+  Pr24  1  0.87245961  -0.00040351  0.43928139  1
  Pr3+  Pr25  1  0.74772071  0.63618571  0.57129149  1
  Nd3+  Nd26  1  0.88833897  0.49591611  0.93402426  1
  Nd3+  Nd27  1  -0.00223964  0.39019622  0.56739646  1
  Nd3+  Nd28  1  0.39007149  0.49461853  0.93260944  1
  Nd3+  Nd29  1  0.51331568  0.12309874  0.05301591  1
  Nd3+  Nd30  1  0.26562591  0.12277431  0.06073692  1
  Nd3+  Nd31  1  0.37202521  0.00259021  0.44030610  1
  Nd3+  Nd32  1  0.38899922  -0.00230560  0.93780651  1
  Nd3+  Nd33  1  0.13961846  -0.00349303  0.94227976  1
  Nd3+  Nd34  1  0.37274762  0.25398893  0.44299672  1
  Nd3+  Nd35  1  0.00959377  0.87154260  0.06316286  1
  Nd3+  Nd36  1  0.24376110  0.87771065  0.55808509  1
  Nd3+  Nd37  1  0.13905980  0.74572630  0.94861839  1
  Nd3+  Nd38  1  0.37037504  0.75117462  0.43992435  1
  Nd3+  Nd39  1  0.27429482  0.36817660  0.08825020  1
  Nd3+  Nd40  1  0.37664951  0.49308571  0.43356009  1
  Nd3+  Nd41  1  0.62287546  0.00040611  0.44574462  1
  Nd3+  Nd42  1  0.14218998  0.49536174  0.94387854  1
  Nd3+  Nd43  1  0.85783989  0.73509822  0.41978842  1
  Nd3+  Nd44  1  0.01550532  0.12269741  0.05992819  1
  Sm3+  Sm45  1  0.51461055  0.87073260  0.05157502  1
  Sm3+  Sm46  1  0.01447268  0.37140428  0.05691051  1
  Sm3+  Sm47  1  -0.00525312  0.62969343  0.54836591  1
  Sm3+  Sm48  1  0.38985578  0.74626956  0.94165075  1
  Sm3+  Sm49  1  0.64307105  -0.00399322  0.94226722  1
  Sm3+  Sm50  1  -0.00464582  0.87629075  0.55216435  1
  Sm3+  Sm51  1  0.88990861  -0.00258332  0.94895787  1
  Sm3+  Sm52  1  0.76365855  0.12182100  0.06178912  1
  Sm3+  Sm53  1  0.87127180  0.25330752  0.45150528  1
  Sm3+  Sm54  1  0.14192689  0.24756064  0.94427963  1
  Sm3+  Sm55  1  0.74401144  0.38197637  0.56794612  1
  Sm3+  Sm56  1  0.26452217  0.87252095  0.05449423  1
  Sm3+  Sm57  1  0.12130625  0.25436171  0.44152782  1
  Sm3+  Sm58  1  0.12139214  0.00351645  0.44356773  1
  Sm3+  Sm59  1  0.49402210  0.87494269  0.56256900  1
  Sm3+  Sm60  1  0.74658944  0.87533469  0.55901631  1
  Sm3+  Sm61  1  0.61951283  0.50093770  0.45251184  1
  Sm3+  Sm62  1  0.49671123  0.12775609  0.55744318  1
  Sm3+  Sm63  1  0.86983164  0.49845525  0.44370443  1
  Bi2+  Bi64  1  -0.04795324  0.15809173  0.30300739  1
  Bi2+  Bi65  1  0.02037656  0.09317334  0.78668489  1
  Bi2+  Bi66  1  -0.03601806  0.36030876  0.25334589  1
  Bi2+  Bi67  1  -0.01245772  0.35361192  0.78473882  1
  Bi2+  Bi68  1  -0.03418985  0.66049976  0.29227235  1
  Bi2+  Bi69  1  -0.05056276  0.62616405  0.79389148  1
  Bi2+  Bi70  1  0.00464444  0.96550360  0.28895349  1
  Bi2+  Bi71  1  0.00938990  0.81311416  0.80392318  1
  Bi2+  Bi72  1  0.25322258  0.12094728  0.30036349  1
  Bi2+  Bi73  1  0.28367492  0.05770597  0.77421575  1
  Bi2+  Bi74  1  0.26390559  0.37890328  0.29687131  1
  Bi2+  Bi75  1  0.20872826  0.35074085  0.79856199  1
  Bi2+  Bi76  1  0.23244177  0.66232120  0.29906553  1
  Bi2+  Bi77  1  0.19390336  0.61667807  0.77779059  1
  Bi2+  Bi78  1  0.24718215  0.91427500  0.24732199  1
  Bi2+  Bi79  1  0.20060238  0.88416602  0.79521524  1
  Bi2+  Bi80  1  0.44430601  0.11227554  0.30490639  1
  Bi2+  Bi81  1  0.52746537  0.03424361  0.72870693  1
  Bi2+  Bi82  1  0.51130331  0.30705092  0.28821058  1
  Bi2+  Bi83  1  0.46379586  0.36311897  0.79174402  1
  Bi2+  Bi84  1  0.46820023  0.62806023  0.27790106  1
  Bi2+  Bi85  1  0.48887687  0.61640782  0.79308484  1
  Bi2+  Bi86  1  0.50458293  0.90523030  0.27972869  1
  Bi2+  Bi87  1  0.47922380  0.87497300  0.79557275  1
  Bi2+  Bi88  1  0.71065350  0.17712006  0.26934974  1
  Bi2+  Bi89  1  0.77313569  0.10528444  0.79433784  1
  Bi2+  Bi90  1  0.77060942  0.36917310  0.28612880  1
  Bi2+  Bi91  1  0.79130245  0.37506443  0.78214691  1
  Bi2+  Bi92  1  0.71225129  0.59748250  0.29811627  1
  Bi2+  Bi93  1  0.75497970  0.66796311  0.78632084  1
  Bi2+  Bi94  1  0.75738104  0.89488591  0.31355215  1
  Bi2+  Bi95  1  0.67509233  0.87854925  0.81238250  1
  Bi2+  Bi96  1  0.12927764  0.05748965  0.19777734  1
  Bi2+  Bi97  1  0.07738616  -0.03885154  0.70447102  1
  Bi2+  Bi98  1  0.11731369  0.23290146  0.25786944  1
  Bi2+  Bi99  1  0.11326323  0.23801656  0.71768615  1
  Bi2+  Bi100  1  0.11058781  0.52794413  0.20659053  1
  Bi2+  Bi101  1  0.11016729  0.49871797  0.70425689  1
  Bi2+  Bi102  1  0.08653418  0.80029727  0.24186018  1
  Bi2+  Bi103  1  0.15041943  0.76840557  0.70184692  1
  Bi2+  Bi104  1  0.32551603  0.06537487  0.18652307  1
  Bi2+  Bi105  1  0.40162530  -0.09496968  0.68519466  1
  Bi2+  Bi106  1  0.39873783  0.25245265  0.20273786  1
  Bi2+  Bi107  1  0.34992871  0.20393030  0.71217807  1
  Bi2+  Bi108  1  0.36365141  0.52627167  0.19392521  1
  Bi2+  Bi109  1  0.35513330  0.49093124  0.70783742  1
  Bi2+  Bi110  1  0.39173990  0.78927445  0.21278283  1
  Bi2+  Bi111  1  0.33623444  0.73438374  0.73458241  1
  Bi2+  Bi112  1  0.57491233  0.06069220  0.22388845  1
  Bi2+  Bi113  1  0.69849825  -0.03477317  0.68983606  1
  Bi2+  Bi114  1  0.67197422  0.32562570  0.18444387  1
  Bi2+  Bi115  1  0.64365588  0.23384942  0.71848522  1
  Bi2+  Bi116  1  0.58861985  0.47393381  0.24586327  1
  Bi2+  Bi117  1  0.63931327  0.48120700  0.70665368  1
  Bi2+  Bi118  1  0.58338430  0.73821406  0.20819828  1
  Bi2+  Bi119  1  0.62318208  0.78583202  0.71357478  1
  Bi2+  Bi120  1  0.88934674  0.00727445  0.19700594  1
  Bi2+  Bi121  1  0.85448800  -0.07256592  0.76065840  1
  Bi2+  Bi122  1  0.84220432  0.23535604  0.18982134  1
  Bi2+  Bi123  1  0.91550352  0.20558840  0.71486133  1
  Bi2+  Bi124  1  0.86813512  0.50311644  0.20349850  1
  Bi2+  Bi125  1  0.90079375  0.48716723  0.71254797  1
  Bi2+  Bi126  1  0.87215778  0.74498824  0.20860728  1
  Bi2+  Bi127  1  0.88347819  0.74801647  0.71037311  1
  S2-  S128  1  -0.00803432  0.13939266  0.15772569  1
  S2-  S129  1  -0.01553506  0.08124805  0.65402270  1
  S2-  S130  1  0.00871242  0.41123473  0.15220048  1
  S2-  S131  1  0.10691330  0.36259475  0.64251965  1
  S2-  S132  1  -0.01480980  0.62576077  0.16074402  1
  S2-  S133  1  0.00255184  0.56225353  0.63835296  1
  S2-  S134  1  -0.01228996  0.86514933  0.16154284  1
  S2-  S135  1  -0.00202637  0.83759971  0.64750902  1
  S2-  S136  1  0.26028497  0.22106305  0.14285742  1
  S2-  S137  1  0.22906980  0.14346757  0.65952205  1
  S2-  S138  1  0.22648357  0.42142300  0.18440816  1
  S2-  S139  1  0.34300814  0.35431873  0.65414840  1
  S2-  S140  1  0.23550588  0.62241530  0.16449829  1
  S2-  S141  1  0.24538440  0.54511863  0.63827022  1
  S2-  S142  1  0.26896990  0.84988635  0.15048645  1
  S2-  S143  1  0.23345415  0.91973962  0.65398229  1
  S2-  S144  1  0.52531485  0.16267622  0.14968317  1
  S2-  S145  1  0.48068931  0.13702709  0.65441453  1
  S2-  S146  1  0.42733580  0.38706010  0.13898280  1
  S2-  S147  1  0.53824986  0.33917077  0.68512088  1
  S2-  S148  1  0.50877271  0.60663715  0.15245181  1
  S2-  S149  1  0.49016782  0.53560034  0.65523787  1
  S2-  S150  1  0.56750995  0.87243316  0.14419006  1
  S2-  S151  1  0.50435472  0.76791966  0.64020925  1
  S2-  S152  1  0.74972716  0.03982821  0.14763115  1
  S2-  S153  1  0.75628204  0.12880746  0.66505415  1
  S2-  S154  1  0.75409117  0.48869497  0.13650946  1
  S2-  S155  1  0.73811845  0.35339695  0.66498339  1
  S2-  S156  1  0.74294229  0.71049044  0.15008898  1
  S2-  S157  1  0.75532773  0.55928259  0.66344505  1
  S2-  S158  1  0.77447676  0.88058391  0.21580184  1
  S2-  S159  1  0.75419151  0.77363200  0.63751819  1
  S2-  S160  1  0.12396415  0.03151675  0.34744905  1
  S2-  S161  1  0.15143083  0.03806955  0.84630090  1
  S2-  S162  1  0.13395631  0.34336678  0.35742268  1
  S2-  S163  1  0.09550198  0.25780105  0.85056300  1
  S2-  S164  1  0.08455976  0.55618808  0.31642283  1
  S2-  S165  1  0.14449286  0.48806122  0.84468670  1
  S2-  S166  1  0.14988431  0.78089621  0.34196515  1
  S2-  S167  1  0.14980860  0.73835351  0.85064531  1
  S2-  S168  1  0.37520394  -0.03777655  0.34461050  1
  S2-  S169  1  0.40138286  0.02095446  0.83961364  1
  S2-  S170  1  0.39352046  0.35446835  0.36246634  1
  S2-  S171  1  0.34149975  0.25585762  0.83776480  1
  S2-  S172  1  0.27846353  0.51412107  0.34965477  1
  S2-  S173  1  0.37749138  0.50580268  0.83293094  1
  S2-  S174  1  0.37559019  0.72496820  0.34137317  1
  S2-  S175  1  0.39615146  0.73994880  0.84382402  1
  S2-  S176  1  0.62136703  -0.02672328  0.34823099  1
  S2-  S177  1  0.65053674  0.07063228  0.85359881  1
  S2-  S178  1  0.63084782  0.24084016  0.35299095  1
  S2-  S179  1  0.57820655  0.25771134  0.81374929  1
  S2-  S180  1  0.60120090  0.50958831  0.35476282  1
  S2-  S181  1  0.58253420  0.46920782  0.81075582  1
  S2-  S182  1  0.70424736  0.74061178  0.35385270  1
  S2-  S183  1  0.61851811  0.64870144  0.84927158  1
  S2-  S184  1  0.83933112  0.03675822  0.34314354  1
  S2-  S185  1  0.89967560  0.02178105  0.85140529  1
  S2-  S186  1  0.88189094  0.28671968  0.35605855  1
  S2-  S187  1  0.80050075  0.24578400  0.85154256  1
  S2-  S188  1  0.85014073  0.57996662  0.35779021  1
  S2-  S189  1  0.79119267  0.49390472  0.85183144  1
  S2-  S190  1  0.90836361  0.81503810  0.33642106  1
  S2-  S191  1  0.79386263  0.76956671  0.86309103  1
  S2-  S192  1  -0.00335378  0.12956343  0.45375365  1
  S2-  S193  1  0.01714514  0.12231366  0.95443611  1
  S2-  S194  1  -0.00620064  0.37749681  0.45854828  1
  S2-  S195  1  0.01554318  0.37200670  0.95188807  1
  S2-  S196  1  -0.00376749  0.62320598  0.44532364  1
  S2-  S197  1  0.01485955  0.61983882  0.95302580  1
  S2-  S198  1  -0.00019168  0.87880522  0.44802974  1
  S2-  S199  1  0.01480522  0.87310994  0.95595068  1
  S2-  S200  1  0.24597867  0.12924200  0.45211378  1
  S2-  S201  1  0.26311165  0.12214315  0.95354091  1
  S2-  S202  1  0.24804838  0.37338162  0.46196542  1
  S2-  S203  1  0.26329253  0.37097800  0.94925738  1
  S2-  S204  1  0.24710696  0.62681931  0.44932955  1
  S2-  S205  1  0.26610802  0.62265603  0.95456281  1
  S2-  S206  1  0.24545485  0.87937166  0.45128470  1
  S2-  S207  1  0.26522268  0.87086110  0.94947521  1
  S2-  S208  1  0.49782829  0.12632490  0.45256226  1
  S2-  S209  1  0.51436377  0.12201583  0.94763125  1
  S2-  S210  1  0.50081961  0.37639914  0.46796082  1
  S2-  S211  1  0.51821179  0.36991752  0.94137570  1
  S2-  S212  1  0.49479554  0.62532241  0.45626086  1
  S2-  S213  1  0.51016837  0.62207372  0.94780230  1
  S2-  S214  1  0.49553451  0.87680110  0.45610344  1
  S2-  S215  1  0.51389052  0.87326254  0.94654706  1
  S2-  S216  1  0.74788272  0.12757883  0.45813391  1
  S2-  S217  1  0.76742327  0.11937665  0.95836261  1
  S2-  S218  1  0.74708197  0.37884719  0.46024150  1
  S2-  S219  1  0.76323495  0.36881668  0.95253289  1
  S2-  S220  1  0.74109898  0.62086953  0.46334082  1
  S2-  S221  1  0.76798905  0.62002517  0.95628180  1
  S2-  S222  1  0.74708146  0.87440828  0.45465831  1
  S2-  S223  1  0.76765174  0.88138127  0.96004277  1
  S2-  S224  1  0.13997630  -0.00432363  0.04969122  1
  S2-  S225  1  0.11884460  0.00191349  0.54733129  1
  S2-  S226  1  0.13790583  0.25075314  0.04839401  1
  S2-  S227  1  0.11851894  0.25064975  0.54417260  1
  S2-  S228  1  0.14417852  0.49065322  0.05051309  1
  S2-  S229  1  0.11693830  0.50623015  0.53198674  1
  S2-  S230  1  0.13868610  0.74756147  0.05391423  1
  S2-  S231  1  0.11938948  0.75184496  0.54421415  1
  S2-  S232  1  0.38942788  -0.00496525  0.04520191  1
  S2-  S233  1  0.37320820  0.00244500  0.54712867  1
  S2-  S234  1  0.38769610  0.24670818  0.03894816  1
  S2-  S235  1  0.37346913  0.24912984  0.54770972  1
  S2-  S236  1  0.38635109  0.49566002  0.03951047  1
  S2-  S237  1  0.37367025  0.50586518  0.54095115  1
  S2-  S238  1  0.38907155  0.74908224  0.04702471  1
  S2-  S239  1  0.36573848  0.75373760  0.54606807  1
  S2-  S240  1  0.63707707  -0.00228337  0.04554654  1
  S2-  S241  1  0.61933473  -0.00107902  0.55228636  1
  S2-  S242  1  0.64089849  0.24328843  0.04164498  1
  S2-  S243  1  0.62067212  0.25416784  0.55676150  1
  S2-  S244  1  0.63500556  0.49494715  0.03371729  1
  S2-  S245  1  0.62270441  0.50439592  0.55614715  1
  S2-  S246  1  0.63674829  0.74967096  0.03990816  1
  S2-  S247  1  0.62020173  0.75513908  0.54134248  1
  S2-  S248  1  0.89035881  -0.00006059  0.05249830  1
  S2-  S249  1  0.87019855  -0.00159387  0.54776203  1
  S2-  S250  1  0.88999428  0.24687885  0.04501913  1
  S2-  S251  1  0.87171201  0.25910920  0.55669141  1
  S2-  S252  1  0.89269468  0.49294210  0.04002615  1
  S2-  S253  1  0.86733071  0.50461724  0.54673438  1
  S2-  S254  1  0.89148027  0.74426492  0.04996556  1
  S2-  S255  1  0.87476845  0.75341537  0.53416656  1
