# generated using pymatgen
data_La6Ce7Pr13Nd19Sm19(BiS2)64
_symmetry_space_group_name_H-M   'P 1'
_cell_length_a   16.07264659
_cell_length_b   16.03867153
_cell_length_c   27.30862931
_cell_angle_alpha   89.99210185
_cell_angle_beta   90.14227461
_cell_angle_gamma   89.97882663
_symmetry_Int_Tables_number   1
_chemical_formula_structural   La6Ce7Pr13Nd19Sm19(BiS2)64
_chemical_formula_sum   'La6 Ce7 Pr13 Nd19 Sm19 Bi64 S128'
_cell_volume   7039.70269150
_cell_formula_units_Z   1
loop_
 _symmetry_equiv_pos_site_id
 _symmetry_equiv_pos_as_xyz
  1  'x, y, z'
loop_
 _atom_type_symbol
 _atom_type_oxidation_number
  La3+  3.0
  Ce3+  3.0
  Pr3+  3.0
  Nd3+  3.0
  Sm3+  3.0
  Bi2+  2.0
  S2-  -2.0
loop_
 _atom_site_type_symbol
 _atom_site_label
 _atom_site_symmetry_multiplicity
 _atom_site_fract_x
 _atom_site_fract_y
 _atom_site_fract_z
 _atom_site_occupancy
  La3+  La0  1  0.73526701  0.62320073  0.60523370  1
  La3+  La1  1  0.86624012  0.47952620  0.42969257  1
  La3+  La2  1  0.24532673  0.60929104  0.57894532  1
  La3+  La3  1  -0.00870278  0.60078865  0.57151368  1
  La3+  La4  1  0.25186496  0.61079137  0.11164355  1
  La3+  La5  1  0.36613133  0.47403007  0.42972373  1
  Ce3+  Ce6  1  0.62602871  0.72909045  0.43562055  1
  Ce3+  Ce7  1  0.50638885  0.84484384  0.05577001  1
  Ce3+  Ce8  1  0.00651016  0.10403194  0.07096066  1
  Ce3+  Ce9  1  0.00564250  0.59362729  0.05891621  1
  Ce3+  Ce10  1  0.12201374  -0.01877934  0.44692938  1
  Ce3+  Ce11  1  -0.00770605  0.35308944  0.56620961  1
  Ce3+  Ce12  1  0.88551574  -0.03426761  0.95424663  1
  Pr3+  Pr13  1  0.62246415  -0.01689858  0.43755629  1
  Pr3+  Pr14  1  0.26083604  0.34791175  0.06808722  1
  Pr3+  Pr15  1  0.12055398  0.23229083  0.43714136  1
  Pr3+  Pr16  1  0.50409691  0.58975645  0.07358259  1
  Pr3+  Pr17  1  0.63184668  0.20988522  0.92749280  1
  Pr3+  Pr18  1  0.76307087  0.59434714  0.05366731  1
  Pr3+  Pr19  1  0.51406827  0.10216135  0.07552307  1
  Pr3+  Pr20  1  0.88661007  0.73040458  0.92526266  1
  Pr3+  Pr21  1  0.63289482  0.71665823  0.94274861  1
  Pr3+  Pr22  1  0.00810068  0.35039401  0.06580281  1
  Pr3+  Pr23  1  -0.00444698  0.10843393  0.57240622  1
  Pr3+  Pr24  1  0.38026802  0.71417837  0.93937328  1
  Pr3+  Pr25  1  0.49268371  0.10653497  0.56267506  1
  Nd3+  Nd26  1  0.01005162  0.83699393  0.07149603  1
  Nd3+  Nd27  1  0.26125114  0.84812937  0.05970116  1
  Nd3+  Nd28  1  0.63632040  -0.03772778  0.93777565  1
  Nd3+  Nd29  1  0.62467479  0.47600892  0.43393129  1
  Nd3+  Nd30  1  0.88323239  0.21752665  0.93739137  1
  Nd3+  Nd31  1  0.74506243  0.36022560  0.56792965  1
  Nd3+  Nd32  1  0.74710621  0.85850155  0.55633606  1
  Nd3+  Nd33  1  0.36785280  -0.01969173  0.43572044  1
  Nd3+  Nd34  1  0.38480618  -0.02832360  0.94066876  1
  Nd3+  Nd35  1  0.87210947  0.72815759  0.43654725  1
  Nd3+  Nd36  1  0.75812343  0.35237436  0.05784103  1
  Nd3+  Nd37  1  0.62217388  0.23196181  0.43373701  1
  Nd3+  Nd38  1  0.11948462  0.48130185  0.44112717  1
  Nd3+  Nd39  1  0.13240984  0.21559306  0.93897891  1
  Nd3+  Nd40  1  0.63569587  0.46541890  0.92786477  1
  Nd3+  Nd41  1  0.75665591  0.09625576  0.06321345  1
  Nd3+  Nd42  1  0.12316527  0.72398000  0.43248529  1
  Nd3+  Nd43  1  0.75866787  0.83771525  0.07383782  1
  Nd3+  Nd44  1  0.89529223  0.46560065  0.91663065  1
  Sm3+  Sm45  1  0.49965073  0.35742567  0.55850229  1
  Sm3+  Sm46  1  0.51095464  0.34709548  0.05569106  1
  Sm3+  Sm47  1  0.24619669  0.85311619  0.55887528  1
  Sm3+  Sm48  1  -0.00613217  0.85531519  0.55622062  1
  Sm3+  Sm49  1  0.87248288  0.23184051  0.44224199  1
  Sm3+  Sm50  1  0.24640193  0.35886264  0.56838484  1
  Sm3+  Sm51  1  0.50084988  0.60423138  0.55032133  1
  Sm3+  Sm52  1  0.36932172  0.23036705  0.44378480  1
  Sm3+  Sm53  1  0.13542638  0.71750747  0.94556523  1
  Sm3+  Sm54  1  0.38393693  0.21761591  0.94007320  1
  Sm3+  Sm55  1  0.13396426  -0.02836306  0.95614268  1
  Sm3+  Sm56  1  0.24858163  0.10494665  0.56770296  1
  Sm3+  Sm57  1  0.87269283  -0.01487249  0.44356096  1
  Sm3+  Sm58  1  0.26044950  0.10372110  0.06417911  1
  Sm3+  Sm59  1  0.13410198  0.46676655  0.94198394  1
  Sm3+  Sm60  1  0.38065400  0.46648601  0.94059409  1
  Sm3+  Sm61  1  0.49954427  0.85654453  0.55078888  1
  Sm3+  Sm62  1  0.36980166  0.72771914  0.44170722  1
  Sm3+  Sm63  1  0.73604675  0.11441716  0.58560748  1
  Bi2+  Bi64  1  -0.00879874  0.18560359  0.32219176  1
  Bi2+  Bi65  1  -0.06342453  0.10404356  0.80703283  1
  Bi2+  Bi66  1  -0.00681077  0.37214336  0.28496031  1
  Bi2+  Bi67  1  0.01108075  0.35959972  0.79104950  1
  Bi2+  Bi68  1  0.01926591  0.66534367  0.29922439  1
  Bi2+  Bi69  1  0.04436536  0.62398405  0.78685317  1
  Bi2+  Bi70  1  -0.00548437  1.00284021  0.27669510  1
  Bi2+  Bi71  1  -0.00356922  0.93959528  0.74367924  1
  Bi2+  Bi72  1  0.27527013  0.13249546  0.29796516  1
  Bi2+  Bi73  1  0.13720631  0.12656798  0.79921528  1
  Bi2+  Bi74  1  0.25205802  0.39877258  0.30150741  1
  Bi2+  Bi75  1  0.27172750  0.37103258  0.79498835  1
  Bi2+  Bi76  1  0.26548840  0.65022787  0.29684445  1
  Bi2+  Bi77  1  0.26322480  0.64233280  0.80032148  1
  Bi2+  Bi78  1  0.24268426  0.90116019  0.31005199  1
  Bi2+  Bi79  1  0.18918802  0.90431073  0.78099330  1
  Bi2+  Bi80  1  0.59949583  0.18273435  0.29997723  1
  Bi2+  Bi81  1  0.38921026  0.13455418  0.77309282  1
  Bi2+  Bi82  1  0.49108805  0.34305820  0.28094514  1
  Bi2+  Bi83  1  0.43826455  0.40125864  0.73551240  1
  Bi2+  Bi84  1  0.54197927  0.63357803  0.23310548  1
  Bi2+  Bi85  1  0.48038927  0.67170768  0.78436213  1
  Bi2+  Bi86  1  0.50065977  0.91105849  0.29016602  1
  Bi2+  Bi87  1  0.50730163  0.97820509  0.78521237  1
  Bi2+  Bi88  1  0.79586011  0.16886716  0.27936915  1
  Bi2+  Bi89  1  0.74065100  0.12414487  0.80902938  1
  Bi2+  Bi90  1  0.75185697  0.38093755  0.29071154  1
  Bi2+  Bi91  1  0.73643219  0.37027068  0.80216932  1
  Bi2+  Bi92  1  0.78164276  0.64245229  0.29885249  1
  Bi2+  Bi93  1  0.72824234  0.64034844  0.82154511  1
  Bi2+  Bi94  1  0.74629122  0.89491848  0.29292257  1
  Bi2+  Bi95  1  0.75177759  0.90447361  0.80644220  1
  Bi2+  Bi96  1  0.15972284  0.04245536  0.21806202  1
  Bi2+  Bi97  1  0.12293313  0.05822677  0.68182370  1
  Bi2+  Bi98  1  0.13084920  0.24082672  0.24539070  1
  Bi2+  Bi99  1  0.12717119  0.25353796  0.70842917  1
  Bi2+  Bi100  1  0.12762735  0.45877866  0.21758435  1
  Bi2+  Bi101  1  0.12955076  0.49550953  0.71252314  1
  Bi2+  Bi102  1  0.10836310  0.78796486  0.20851250  1
  Bi2+  Bi103  1  0.12845218  0.76859939  0.70595781  1
  Bi2+  Bi104  1  0.34456416  0.03242325  0.17894707  1
  Bi2+  Bi105  1  0.29876330  -0.01964329  0.69760354  1
  Bi2+  Bi106  1  0.37659699  0.23095742  0.21243028  1
  Bi2+  Bi107  1  0.31827731  0.25900642  0.69126988  1
  Bi2+  Bi108  1  0.41052244  0.48450946  0.21106735  1
  Bi2+  Bi109  1  0.36230747  0.57846592  0.70812803  1
  Bi2+  Bi110  1  0.36178627  0.84718695  0.22148152  1
  Bi2+  Bi111  1  0.39184995  0.80189093  0.71258349  1
  Bi2+  Bi112  1  0.53025710  0.06100139  0.21764706  1
  Bi2+  Bi113  1  0.67627343  0.00182799  0.71977514  1
  Bi2+  Bi114  1  0.65699708  0.25449706  0.18618647  1
  Bi2+  Bi115  1  0.62159393  0.22444865  0.71418968  1
  Bi2+  Bi116  1  0.65023962  0.47924914  0.21135267  1
  Bi2+  Bi117  1  0.60911738  0.49345454  0.71078118  1
  Bi2+  Bi118  1  0.62640025  0.80570778  0.21558735  1
  Bi2+  Bi119  1  0.59857065  0.76464697  0.70672355  1
  Bi2+  Bi120  1  0.90313907  0.10513379  0.19104815  1
  Bi2+  Bi121  1  0.86180471  0.04120092  0.68431933  1
  Bi2+  Bi122  1  0.85302345  0.29552173  0.19273620  1
  Bi2+  Bi123  1  0.87547013  0.22521457  0.72226289  1
  Bi2+  Bi124  1  0.88331275  0.57885142  0.18467476  1
  Bi2+  Bi125  1  0.87957622  0.48979575  0.71603816  1
  Bi2+  Bi126  1  0.87319958  0.80197405  0.20117865  1
  Bi2+  Bi127  1  0.86534115  0.75281914  0.71825701  1
  S2-  S128  1  0.00576073  0.22678376  0.14170080  1
  S2-  S129  1  -0.01210191  0.23624944  0.64283923  1
  S2-  S130  1  -0.00376099  0.48050102  0.13867251  1
  S2-  S131  1  -0.00872165  0.45009043  0.65027348  1
  S2-  S132  1  -0.00531385  0.70068215  0.14223617  1
  S2-  S133  1  -0.10946855  0.63098512  0.65597368  1
  S2-  S134  1  0.00564110  0.90539834  0.16495247  1
  S2-  S135  1  -0.01678683  0.83475200  0.65431822  1
  S2-  S136  1  0.25837350  0.21694104  0.13940297  1
  S2-  S137  1  0.37048518  0.10645020  0.63879210  1
  S2-  S138  1  0.26579238  0.44705825  0.15339516  1
  S2-  S139  1  0.25855759  0.47056692  0.64578582  1
  S2-  S140  1  0.16935389  0.62156298  0.20684804  1
  S2-  S141  1  0.11001505  0.62758912  0.64915994  1
  S2-  S142  1  0.24203491  0.78580344  0.15158901  1
  S2-  S143  1  0.26240117  0.76301706  0.64252249  1
  S2-  S144  1  0.50370296  0.24636642  0.13923327  1
  S2-  S145  1  0.59334698  0.10819625  0.64702438  1
  S2-  S146  1  0.52804066  0.45218749  0.13702835  1
  S2-  S147  1  0.54356415  0.35210262  0.65440290  1
  S2-  S148  1  0.40868809  0.62941818  0.15846673  1
  S2-  S149  1  0.56480568  0.61367683  0.64264962  1
  S2-  S150  1  0.50219970  0.85765888  0.15224716  1
  S2-  S151  1  0.51004039  0.87143824  0.64861062  1
  S2-  S152  1  0.65252521  0.09692377  0.14338878  1
  S2-  S153  1  0.74702863  0.24840739  0.65020446  1
  S2-  S154  1  0.76890183  0.47559384  0.13168173  1
  S2-  S155  1  0.74466615  0.46474595  0.65271862  1
  S2-  S156  1  0.77423565  0.69837033  0.13983117  1
  S2-  S157  1  0.72727873  0.64016601  0.72642314  1
  S2-  S158  1  0.76093301  0.90695242  0.16907611  1
  S2-  S159  1  0.74090659  0.79492181  0.64860699  1
  S2-  S160  1  0.15137345  0.02903379  0.35598966  1
  S2-  S161  1  0.11915105  -0.01436659  0.85885211  1
  S2-  S162  1  0.12551888  0.36177144  0.36460318  1
  S2-  S163  1  0.13797096  0.28965915  0.84909468  1
  S2-  S164  1  0.14109063  0.59280796  0.36111700  1
  S2-  S165  1  0.04759281  0.48568715  0.85574880  1
  S2-  S166  1  0.12187332  0.80254506  0.33862917  1
  S2-  S167  1  0.12684084  0.72964098  0.84682419  1
  S2-  S168  1  0.38975195  0.02367940  0.34033174  1
  S2-  S169  1  0.37100997  -0.00032922  0.84310815  1
  S2-  S170  1  0.36630596  0.32088992  0.35980171  1
  S2-  S171  1  0.37777922  0.25318126  0.84378322  1
  S2-  S172  1  0.36065054  0.53459008  0.33301053  1
  S2-  S173  1  0.34055177  0.49556903  0.84534764  1
  S2-  S174  1  0.35717134  0.75683382  0.34479712  1
  S2-  S175  1  0.36848860  0.75839296  0.84186472  1
  S2-  S176  1  0.63844429  -0.00688432  0.33740382  1
  S2-  S177  1  0.60094591  0.06412538  0.85948295  1
  S2-  S178  1  0.60884676  0.34826541  0.35825956  1
  S2-  S179  1  0.62027939  0.27457624  0.83139724  1
  S2-  S180  1  0.71799234  0.52099731  0.35137113  1
  S2-  S181  1  0.62131054  0.49785596  0.82933929  1
  S2-  S182  1  0.66899452  0.75247845  0.34176947  1
  S2-  S183  1  0.65083310  0.79996752  0.85468480  1
  S2-  S184  1  0.87054598  -0.02249521  0.34459158  1
  S2-  S185  1  0.88263368  -0.11148006  0.86837580  1
  S2-  S186  1  0.86941168  0.33776356  0.36151720  1
  S2-  S187  1  0.88301449  0.31716741  0.85491541  1
  S2-  S188  1  0.92306609  0.55524390  0.33821135  1
  S2-  S189  1  0.83665302  0.51079607  0.82084842  1
  S2-  S190  1  0.89686935  0.75857087  0.33669824  1
  S2-  S191  1  0.89545642  0.70226870  0.82103428  1
  S2-  S192  1  -0.00352731  0.10754627  0.46108376  1
  S2-  S193  1  0.00780233  0.09488929  0.96175819  1
  S2-  S194  1  -0.00476299  0.35284018  0.46174953  1
  S2-  S195  1  0.01143066  0.34115204  0.95771266  1
  S2-  S196  1  -0.00519518  0.60603391  0.45879957  1
  S2-  S197  1  0.00902802  0.60035738  0.95140443  1
  S2-  S198  1  -0.00502462  0.85920052  0.45160739  1
  S2-  S199  1  0.01742132  0.84478490  0.96381849  1
  S2-  S200  1  0.24808782  0.10810693  0.46171977  1
  S2-  S201  1  0.25965818  0.09560864  0.95725176  1
  S2-  S202  1  0.24716809  0.35344028  0.46524350  1
  S2-  S203  1  0.25906257  0.34227320  0.95646996  1
  S2-  S204  1  0.25225423  0.60533393  0.46402310  1
  S2-  S205  1  0.25455021  0.59063258  0.94748930  1
  S2-  S206  1  0.24732477  0.85322890  0.45472482  1
  S2-  S207  1  0.25722085  0.84745207  0.95344460  1
  S2-  S208  1  0.49374781  0.10766347  0.45169652  1
  S2-  S209  1  0.50579355  0.09443718  0.96287447  1
  S2-  S210  1  0.49397406  0.35411909  0.45734653  1
  S2-  S211  1  0.50675527  0.34366201  0.94756981  1
  S2-  S212  1  0.49668458  0.60427177  0.44480483  1
  S2-  S213  1  0.50647725  0.58959732  0.94733743  1
  S2-  S214  1  0.49541641  0.85472319  0.44597783  1
  S2-  S215  1  0.50520432  0.84381446  0.94944428  1
  S2-  S216  1  0.74860611  0.10859678  0.44179444  1
  S2-  S217  1  0.76087562  0.09062734  0.95633687  1
  S2-  S218  1  0.74486346  0.35122308  0.46043153  1
  S2-  S219  1  0.75502876  0.34155959  0.95102159  1
  S2-  S220  1  0.74642467  0.60971329  0.45383492  1
  S2-  S221  1  0.76316520  0.59425808  0.94359984  1
  S2-  S222  1  0.74995742  0.86005077  0.45060889  1
  S2-  S223  1  0.75766783  0.84139552  0.96623486  1
  S2-  S224  1  0.13653929  -0.02375456  0.06012338  1
  S2-  S225  1  0.12313586  -0.02099955  0.55274441  1
  S2-  S226  1  0.13300003  0.22269144  0.04240082  1
  S2-  S227  1  0.12926872  0.22934082  0.54856272  1
  S2-  S228  1  0.13857498  0.47544443  0.04494925  1
  S2-  S229  1  0.12270588  0.47659990  0.54642994  1
  S2-  S230  1  0.14026432  0.71690920  0.04923425  1
  S2-  S231  1  0.11857035  0.73717112  0.54043672  1
  S2-  S232  1  0.38381898  -0.02419930  0.04777390  1
  S2-  S233  1  0.37011378  -0.02508884  0.54242111  1
  S2-  S234  1  0.38589879  0.22178881  0.04160629  1
  S2-  S235  1  0.37128388  0.23766709  0.54619850  1
  S2-  S236  1  0.38385387  0.47006187  0.04277828  1
  S2-  S237  1  0.37825568  0.48079777  0.54427786  1
  S2-  S238  1  0.37966444  0.71736017  0.04609893  1
  S2-  S239  1  0.37951350  0.73106186  0.54549037  1
  S2-  S240  1  0.63510588  -0.03478451  0.04517579  1
  S2-  S241  1  0.62466434  -0.01501875  0.54392380  1
  S2-  S242  1  0.63729211  0.22482936  0.03672330  1
  S2-  S243  1  0.62074604  0.22858910  0.54036574  1
  S2-  S244  1  0.63197815  0.47263212  0.03275626  1
  S2-  S245  1  0.62014330  0.48052058  0.54079695  1
  S2-  S246  1  0.62640997  0.71479032  0.04855134  1
  S2-  S247  1  0.62200398  0.73321219  0.54119798  1
  S2-  S248  1  0.88388702  -0.02924553  0.05800106  1
  S2-  S249  1  0.86906748  -0.01416037  0.54868315  1
  S2-  S250  1  0.87725326  0.22356277  0.04268579  1
  S2-  S251  1  0.86130475  0.22135341  0.54462097  1
  S2-  S252  1  0.88519111  0.46901517  0.02741399  1
  S2-  S253  1  0.86943260  0.47675146  0.54306788  1
  S2-  S254  1  0.88553640  0.72275003  0.03521254  1
  S2-  S255  1  0.86993516  0.73466527  0.54381246  1
