# generated using pymatgen
data_La6Ce7Pr13Nd19Sm19(BiS2)64
_symmetry_space_group_name_H-M   'P 1'
_cell_length_a   16.05246750
_cell_length_b   16.08628987
_cell_length_c   27.29367416
_cell_angle_alpha   90.04242187
_cell_angle_beta   90.16761947
_cell_angle_gamma   90.02700253
_symmetry_Int_Tables_number   1
_chemical_formula_structural   La6Ce7Pr13Nd19Sm19(BiS2)64
_chemical_formula_sum   'La6 Ce7 Pr13 Nd19 Sm19 Bi64 S128'
_cell_volume   7047.86644993
_cell_formula_units_Z   1
loop_
 _symmetry_equiv_pos_site_id
 _symmetry_equiv_pos_as_xyz
  1  'x, y, z'
loop_
 _atom_type_symbol
 _atom_type_oxidation_number
  La3+  3.0
  Ce3+  3.0
  Pr3+  3.0
  Nd3+  3.0
  Sm3+  3.0
  Bi2+  2.0
  S2-  -2.0
loop_
 _atom_site_type_symbol
 _atom_site_label
 _atom_site_symmetry_multiplicity
 _atom_site_fract_x
 _atom_site_fract_y
 _atom_site_fract_z
 _atom_site_occupancy
  La3+  La0  1  0.10217110  0.74627854  0.42860324  1
  La3+  La1  1  0.00118546  0.36678894  0.07416323  1
  La3+  La2  1  -0.01213250  0.62170939  0.60005809  1
  La3+  La3  1  0.09867006  0.01165031  0.41370906  1
  La3+  La4  1  0.12569599  0.48804096  0.92542755  1
  La3+  La5  1  0.86344129  0.49297623  0.42287714  1
  Ce3+  Ce6  1  0.87637985  0.49364982  0.94592623  1
  Ce3+  Ce7  1  0.87873073  0.74041586  0.93906603  1
  Ce3+  Ce8  1  0.00435670  0.85998359  0.06154155  1
  Ce3+  Ce9  1  0.35492336  0.24576024  0.44685556  1
  Ce3+  Ce10  1  0.73595144  0.86714754  0.56103745  1
  Ce3+  Ce11  1  0.23098979  0.11870944  0.56396235  1
  Ce3+  Ce12  1  0.24700976  0.11669869  0.05150436  1
  Pr3+  Pr13  1  0.37488288  -0.00969463  0.92651617  1
  Pr3+  Pr14  1  0.60860710  0.49554084  0.42344644  1
  Pr3+  Pr15  1  0.48121168  0.61547365  0.56879901  1
  Pr3+  Pr16  1  0.37511854  0.48801950  0.93319075  1
  Pr3+  Pr17  1  0.36081348  0.73766146  0.42371125  1
  Pr3+  Pr18  1  0.75103827  0.61789613  0.06817614  1
  Pr3+  Pr19  1  0.25364248  0.36388198  0.06297210  1
  Pr3+  Pr20  1  0.24889700  0.87744257  0.07021180  1
  Pr3+  Pr21  1  -0.01299100  0.87217838  0.56498366  1
  Pr3+  Pr22  1  0.75019168  0.86259230  0.06598015  1
  Pr3+  Pr23  1  0.25657261  0.61102949  0.07310685  1
  Pr3+  Pr24  1  0.38247447  0.73439724  0.93306160  1
  Pr3+  Pr25  1  0.85947737  0.74729653  0.43546133  1
  Nd3+  Nd26  1  0.86221639  0.24195959  0.43770669  1
  Nd3+  Nd27  1  0.60631843  0.74337819  0.44811352  1
  Nd3+  Nd28  1  -0.02605798  0.12039450  0.57847685  1
  Nd3+  Nd29  1  0.37090914  0.24470004  0.92807675  1
  Nd3+  Nd30  1  0.73908844  0.61478766  0.55682864  1
  Nd3+  Nd31  1  0.49815180  0.61850916  0.06547392  1
  Nd3+  Nd32  1  0.23090449  0.37419184  0.56474113  1
  Nd3+  Nd33  1  0.11238112  -0.00342656  0.93282635  1
  Nd3+  Nd34  1  0.23054615  0.86837288  0.54834980  1
  Nd3+  Nd35  1  0.85658772  -0.00456535  0.44236848  1
  Nd3+  Nd36  1  0.62731219  0.49047770  0.94109617  1
  Nd3+  Nd37  1  0.35140563  0.49419817  0.43313246  1
  Nd3+  Nd38  1  0.63140619  0.24191923  0.94157656  1
  Nd3+  Nd39  1  0.60611110  0.24413968  0.43965361  1
  Nd3+  Nd40  1  -0.00713619  0.10817307  0.07000966  1
  Nd3+  Nd41  1  0.48171750  0.86788121  0.55747714  1
  Nd3+  Nd42  1  0.49719166  0.87114282  0.06098699  1
  Nd3+  Nd43  1  0.48495596  0.37366710  0.55956102  1
  Nd3+  Nd44  1  0.13869972  0.75139312  0.93257262  1
  Sm3+  Sm45  1  0.86738239  0.24507837  0.93941791  1
  Sm3+  Sm46  1  0.75202933  0.11495850  0.06356840  1
  Sm3+  Sm47  1  0.73471848  0.37321674  0.55029185  1
  Sm3+  Sm48  1  0.50305026  0.11685231  0.04947481  1
  Sm3+  Sm49  1  0.10688112  0.49829637  0.43605527  1
  Sm3+  Sm50  1  0.60664523  -0.00458715  0.44429296  1
  Sm3+  Sm51  1  0.10925276  0.24142325  0.93842390  1
  Sm3+  Sm52  1  0.10670313  0.24238080  0.45351956  1
  Sm3+  Sm53  1  0.50274526  0.36460083  0.05394873  1
  Sm3+  Sm54  1  0.62375498  -0.01028892  0.93214214  1
  Sm3+  Sm55  1  0.73374859  0.12203993  0.55899996  1
  Sm3+  Sm56  1  0.62331755  0.74096128  0.94081502  1
  Sm3+  Sm57  1  0.48335760  0.12066975  0.55416117  1
  Sm3+  Sm58  1  0.86778731  -0.01192926  0.93668936  1
  Sm3+  Sm59  1  0.75557926  0.37113008  0.07494257  1
  Sm3+  Sm60  1  -0.01789487  0.37711360  0.55856372  1
  Sm3+  Sm61  1  0.23506199  0.62353345  0.56244432  1
  Sm3+  Sm62  1  0.35521318  -0.00614690  0.44146375  1
  Sm3+  Sm63  1  0.01049645  0.61701381  0.06119531  1
  Bi2+  Bi64  1  -0.00869518  0.17223737  0.29889827  1
  Bi2+  Bi65  1  0.08812047  0.12438429  0.81172506  1
  Bi2+  Bi66  1  0.00127975  0.37298365  0.28167906  1
  Bi2+  Bi67  1  -0.00739846  0.35325859  0.79862956  1
  Bi2+  Bi68  1  0.01979453  0.63785571  0.29079291  1
  Bi2+  Bi69  1  -0.06908686  0.62618916  0.81852056  1
  Bi2+  Bi70  1  -0.02956760  0.90621539  0.28981561  1
  Bi2+  Bi71  1  0.00252890  0.87103978  0.80506872  1
  Bi2+  Bi72  1  0.29568502  0.15091964  0.27990298  1
  Bi2+  Bi73  1  0.30357310  0.12033298  0.82389933  1
  Bi2+  Bi74  1  0.24248853  0.37684658  0.29282371  1
  Bi2+  Bi75  1  0.25256905  0.30689969  0.78830038  1
  Bi2+  Bi76  1  0.28677325  0.63893635  0.29297045  1
  Bi2+  Bi77  1  0.23476585  0.66194133  0.79918962  1
  Bi2+  Bi78  1  0.27840271  0.90638047  0.27985494  1
  Bi2+  Bi79  1  0.28919356  0.92131234  0.78714207  1
  Bi2+  Bi80  1  0.48628905  0.20995943  0.27215130  1
  Bi2+  Bi81  1  0.49895290  0.15771955  0.79993740  1
  Bi2+  Bi82  1  0.51307038  0.41501009  0.30169576  1
  Bi2+  Bi83  1  0.52050570  0.35744091  0.79472977  1
  Bi2+  Bi84  1  0.55024299  0.61027648  0.29185483  1
  Bi2+  Bi85  1  0.50003422  0.61516867  0.79320944  1
  Bi2+  Bi86  1  0.58313646  0.89362288  0.28962871  1
  Bi2+  Bi87  1  0.54489037  0.87433341  0.78540970  1
  Bi2+  Bi88  1  0.73193946  0.09334029  0.28631905  1
  Bi2+  Bi89  1  0.75912618  0.13019967  0.79769452  1
  Bi2+  Bi90  1  0.70981550  0.37539853  0.27285891  1
  Bi2+  Bi91  1  0.74357089  0.31073317  0.75947379  1
  Bi2+  Bi92  1  0.76544806  0.63585627  0.29288813  1
  Bi2+  Bi93  1  0.71801079  0.64590224  0.77377310  1
  Bi2+  Bi94  1  0.78158058  0.83441263  0.30520631  1
  Bi2+  Bi95  1  0.73513253  0.91610012  0.76495412  1
  Bi2+  Bi96  1  0.12890463  0.04043415  0.20208341  1
  Bi2+  Bi97  1  0.11443866  0.02817668  0.71553072  1
  Bi2+  Bi98  1  0.14946166  0.28623210  0.20998524  1
  Bi2+  Bi99  1  0.11656843  0.23055894  0.71341356  1
  Bi2+  Bi100  1  0.12991071  0.52189193  0.21465283  1
  Bi2+  Bi101  1  0.11481069  0.50111058  0.72041229  1
  Bi2+  Bi102  1  0.11914418  0.79386845  0.19963467  1
  Bi2+  Bi103  1  0.13152083  0.77124419  0.70316790  1
  Bi2+  Bi104  1  0.46272796  0.01859115  0.23420604  1
  Bi2+  Bi105  1  0.37426154  0.05703661  0.72175570  1
  Bi2+  Bi106  1  0.34787389  0.26944038  0.19060657  1
  Bi2+  Bi107  1  0.39125721  0.31766877  0.70664084  1
  Bi2+  Bi108  1  0.37919199  0.46574151  0.21170560  1
  Bi2+  Bi109  1  0.37184507  0.51226452  0.70689114  1
  Bi2+  Bi110  1  0.40075127  0.74321083  0.20920076  1
  Bi2+  Bi111  1  0.37095080  0.78155476  0.70354696  1
  Bi2+  Bi112  1  0.64497974  0.01851308  0.18320187  1
  Bi2+  Bi113  1  0.61843350  0.06134810  0.72243497  1
  Bi2+  Bi114  1  0.65419258  0.22017718  0.20517034  1
  Bi2+  Bi115  1  0.58264007  0.25557248  0.69764807  1
  Bi2+  Bi116  1  0.59838165  0.48806962  0.20388284  1
  Bi2+  Bi117  1  0.63135184  0.52580890  0.70002959  1
  Bi2+  Bi118  1  0.64279225  0.74589688  0.21777665  1
  Bi2+  Bi119  1  0.57798985  0.71908255  0.70172611  1
  Bi2+  Bi120  1  0.82644953  -0.03680243  0.21576399  1
  Bi2+  Bi121  1  0.89770523  0.05393976  0.72367147  1
  Bi2+  Bi122  1  0.85115126  0.20267857  0.21764637  1
  Bi2+  Bi123  1  0.91739650  0.24876266  0.70613083  1
  Bi2+  Bi124  1  0.88013493  0.46595946  0.20939473  1
  Bi2+  Bi125  1  0.85376999  0.48957469  0.70601195  1
  Bi2+  Bi126  1  0.88727408  0.70924003  0.21597344  1
  Bi2+  Bi127  1  0.82880094  0.76727351  0.70814719  1
  S2-  S128  1  0.05955601  0.17395647  0.15613189  1
  S2-  S129  1  -0.00365820  -0.00877339  0.64585825  1
  S2-  S130  1  0.01066497  0.50454128  0.14354167  1
  S2-  S131  1  -0.00822114  0.45476516  0.64636723  1
  S2-  S132  1  -0.00655550  0.73333295  0.13770173  1
  S2-  S133  1  -0.01451853  0.60199430  0.73090462  1
  S2-  S134  1  0.03789576  0.93925734  0.14918212  1
  S2-  S135  1  -0.01624759  0.77764201  0.65204708  1
  S2-  S136  1  0.24708084  0.03632140  0.13679837  1
  S2-  S137  1  0.23998369  0.12322434  0.66176430  1
  S2-  S138  1  0.24642516  0.46804852  0.14352655  1
  S2-  S139  1  0.24208659  0.42287936  0.66023155  1
  S2-  S140  1  0.18731044  0.66085659  0.16621312  1
  S2-  S141  1  0.14480283  0.62746007  0.64954198  1
  S2-  S142  1  0.27702459  0.84677731  0.17228918  1
  S2-  S143  1  0.23657531  0.85887338  0.64960425  1
  S2-  S144  1  0.49277232  0.08965833  0.14650771  1
  S2-  S145  1  0.49303268  0.11007550  0.65087171  1
  S2-  S146  1  0.49123141  0.36804135  0.15156417  1
  S2-  S147  1  0.50029550  0.48138023  0.63796486  1
  S2-  S148  1  0.40336453  0.61599539  0.14822027  1
  S2-  S149  1  0.35534283  0.64122544  0.64004630  1
  S2-  S150  1  0.51451858  0.81713125  0.15557266  1
  S2-  S151  1  0.48810746  0.86548210  0.65711665  1
  S2-  S152  1  0.85822275  0.09179233  0.14039733  1
  S2-  S153  1  0.82522707  0.13538167  0.64180169  1
  S2-  S154  1  0.87543106  0.33323816  0.14727259  1
  S2-  S155  1  0.73753414  0.41024679  0.64638326  1
  S2-  S156  1  0.74587533  0.50128983  0.14667599  1
  S2-  S157  1  0.82478673  0.62207189  0.64374641  1
  S2-  S158  1  0.75643042  0.74434558  0.14253949  1
  S2-  S159  1  0.75016831  0.88703394  0.65767492  1
  S2-  S160  1  0.12655653  -0.05733994  0.32017959  1
  S2-  S161  1  0.14693389  -0.08348688  0.84485236  1
  S2-  S162  1  0.11382008  0.17258393  0.36335647  1
  S2-  S163  1  0.13075046  0.34455704  0.85966437  1
  S2-  S164  1  0.22303739  0.49334405  0.35957788  1
  S2-  S165  1  0.15078159  0.52870203  0.82081126  1
  S2-  S166  1  0.16448630  0.71376857  0.33351916  1
  S2-  S167  1  0.07822394  0.72020887  0.83880139  1
  S2-  S168  1  0.34467199  0.01948137  0.34444815  1
  S2-  S169  1  0.50716799  -0.01641594  0.85438092  1
  S2-  S170  1  0.34972294  0.26927691  0.35114658  1
  S2-  S171  1  0.37209120  0.36759735  0.85552031  1
  S2-  S172  1  0.40421005  0.59897551  0.35863531  1
  S2-  S173  1  0.36970353  0.59772878  0.85329466  1
  S2-  S174  1  0.36505050  0.79240394  0.32341822  1
  S2-  S175  1  0.29822148  0.79378935  0.85279485  1
  S2-  S176  1  0.60800977  0.03344419  0.34887013  1
  S2-  S177  1  0.74518495  -0.00768721  0.86191042  1
  S2-  S178  1  0.61159056  0.28125935  0.34359484  1
  S2-  S179  1  0.73869393  0.26740513  0.86442949  1
  S2-  S180  1  0.73659688  0.49677976  0.34954657  1
  S2-  S181  1  0.59710425  0.49039116  0.84324808  1
  S2-  S182  1  0.58715446  0.74631592  0.35044659  1
  S2-  S183  1  0.52972728  0.74984509  0.85777608  1
  S2-  S184  1  0.93719472  0.03523230  0.35789927  1
  S2-  S185  1  0.97304977  0.00376689  0.85847892  1
  S2-  S186  1  0.88040014  0.29146191  0.34371868  1
  S2-  S187  1  0.96635700  0.22673048  0.85764961  1
  S2-  S188  1  0.99784781  0.50095284  0.35354123  1
  S2-  S189  1  0.88394611  0.46995834  0.84810787  1
  S2-  S190  1  0.96539305  0.76245565  0.35444350  1
  S2-  S191  1  0.86318370  0.78594162  0.84478181  1
  S2-  S192  1  -0.01948176  0.12286176  0.46926319  1
  S2-  S193  1  -0.01038866  0.11825722  0.96310626  1
  S2-  S194  1  -0.01273427  0.36578579  0.45496615  1
  S2-  S195  1  -0.00580116  0.36668240  0.96208993  1
  S2-  S196  1  -0.01839903  0.62023880  0.45120405  1
  S2-  S197  1  0.00617910  0.61799628  0.95357693  1
  S2-  S198  1  -0.01558297  0.87920027  0.45602057  1
  S2-  S199  1  0.00077165  0.86328254  0.95454109  1
  S2-  S200  1  0.23484500  0.11824830  0.45831669  1
  S2-  S201  1  0.24501065  0.12003334  0.94673504  1
  S2-  S202  1  0.22760124  0.36570385  0.45895878  1
  S2-  S203  1  0.24830238  0.36164589  0.95785275  1
  S2-  S204  1  0.23264392  0.62311530  0.45669790  1
  S2-  S205  1  0.24941886  0.61545034  0.95525740  1
  S2-  S206  1  0.23199429  0.87394367  0.44240839  1
  S2-  S207  1  0.25128759  0.87780558  0.96104191  1
  S2-  S208  1  0.48108227  0.11888234  0.44982487  1
  S2-  S209  1  0.50150572  0.12200166  0.94752624  1
  S2-  S210  1  0.48326897  0.37205533  0.45312390  1
  S2-  S211  1  0.50533275  0.36263971  0.95123645  1
  S2-  S212  1  0.48805315  0.61667539  0.46140972  1
  S2-  S213  1  0.50563396  0.61230565  0.95936043  1
  S2-  S214  1  0.48211494  0.87232268  0.45019513  1
  S2-  S215  1  0.50104189  0.86770994  0.95725054  1
  S2-  S216  1  0.73193761  0.12112660  0.45384256  1
  S2-  S217  1  0.74892665  0.11460384  0.96060691  1
  S2-  S218  1  0.73339399  0.36570945  0.44766037  1
  S2-  S219  1  0.75081891  0.37188886  0.96844305  1
  S2-  S220  1  0.73365205  0.62237059  0.45056752  1
  S2-  S221  1  0.74769956  0.61863478  0.95307300  1
  S2-  S222  1  0.72976898  0.87229199  0.45268989  1
  S2-  S223  1  0.74516535  0.86172755  0.95827615  1
  S2-  S224  1  0.12081271  -0.00566413  0.03876099  1
  S2-  S225  1  0.11112511  -0.00138689  0.54368988  1
  S2-  S226  1  0.12420251  0.24225907  0.04401741  1
  S2-  S227  1  0.10343168  0.24727484  0.55900440  1
  S2-  S228  1  0.12845481  0.49103820  0.03897866  1
  S2-  S229  1  0.10913523  0.49739430  0.54230809  1
  S2-  S230  1  0.13537483  0.74198808  0.04203032  1
  S2-  S231  1  0.10859219  0.74387955  0.54124580  1
  S2-  S232  1  0.37915545  -0.00351905  0.03691120  1
  S2-  S233  1  0.36030094  -0.00444785  0.54782407  1
  S2-  S234  1  0.37950638  0.23945510  0.03966933  1
  S2-  S235  1  0.35980700  0.24706835  0.55421897  1
  S2-  S236  1  0.38150549  0.48693488  0.04119573  1
  S2-  S237  1  0.35504020  0.49230960  0.54046338  1
  S2-  S238  1  0.37489168  0.74554583  0.04541677  1
  S2-  S239  1  0.35944493  0.74784882  0.53476059  1
  S2-  S240  1  0.62712865  -0.00873943  0.04139327  1
  S2-  S241  1  0.60910737  -0.00323888  0.54963542  1
  S2-  S242  1  0.62967472  0.24131996  0.04932935  1
  S2-  S243  1  0.60925403  0.24597499  0.54673119  1
  S2-  S244  1  0.62209926  0.49118979  0.04773977  1
  S2-  S245  1  0.61316808  0.49427331  0.53381304  1
  S2-  S246  1  0.62056851  0.74163146  0.04442127  1
  S2-  S247  1  0.60973339  0.74148723  0.55383656  1
  S2-  S248  1  0.87222089  -0.01801869  0.04163700  1
  S2-  S249  1  0.85345557  -0.00416834  0.54638988  1
  S2-  S250  1  0.87069144  0.23947677  0.04413176  1
  S2-  S251  1  0.85757675  0.25157826  0.54452586  1
  S2-  S252  1  0.87714344  0.49641407  0.04833661  1
  S2-  S253  1  0.85903893  0.49210763  0.53573014  1
  S2-  S254  1  0.87561261  0.73800054  0.04121265  1
  S2-  S255  1  0.85918561  0.74609554  0.54178152  1
