# generated using pymatgen
data_La6Ce7Pr13Nd19Sm19(BiS2)64
_symmetry_space_group_name_H-M   'P 1'
_cell_length_a   16.09899131
_cell_length_b   16.05213471
_cell_length_c   27.43085110
_cell_angle_alpha   90.05077963
_cell_angle_beta   89.68689083
_cell_angle_gamma   89.91721767
_symmetry_Int_Tables_number   1
_chemical_formula_structural   La6Ce7Pr13Nd19Sm19(BiS2)64
_chemical_formula_sum   'La6 Ce7 Pr13 Nd19 Sm19 Bi64 S128'
_cell_volume   7088.65161233
_cell_formula_units_Z   1
loop_
 _symmetry_equiv_pos_site_id
 _symmetry_equiv_pos_as_xyz
  1  'x, y, z'
loop_
 _atom_type_symbol
 _atom_type_oxidation_number
  La3+  3.0
  Ce3+  3.0
  Pr3+  3.0
  Nd3+  3.0
  Sm3+  3.0
  Bi2+  2.0
  S2-  -2.0
loop_
 _atom_site_type_symbol
 _atom_site_label
 _atom_site_symmetry_multiplicity
 _atom_site_fract_x
 _atom_site_fract_y
 _atom_site_fract_z
 _atom_site_occupancy
  La3+  La0  1  0.62482841  0.00226059  0.91483844  1
  La3+  La1  1  0.36299534  0.27748211  0.37573726  1
  La3+  La2  1  0.11122760  0.74398629  0.42402383  1
  La3+  La3  1  0.49282647  0.62863471  0.07981127  1
  La3+  La4  1  0.23319513  0.87202754  0.06882419  1
  La3+  La5  1  0.74101816  0.87416157  0.06314500  1
  Ce3+  Ce6  1  0.61672276  0.75103427  0.93163544  1
  Ce3+  Ce7  1  0.11847319  0.50125879  0.44018289  1
  Ce3+  Ce8  1  0.87207589  0.74644004  0.94212789  1
  Ce3+  Ce9  1  0.87131068  0.49763248  0.94539683  1
  Ce3+  Ce10  1  0.36527967  0.74529950  0.94065309  1
  Ce3+  Ce11  1  0.49420686  0.37706288  0.06074045  1
  Ce3+  Ce12  1  0.48731405  0.87667441  0.55794314  1
  Pr3+  Pr13  1  -0.01232619  0.13035947  0.56008781  1
  Pr3+  Pr14  1  0.73499032  0.13041188  0.55973594  1
  Pr3+  Pr15  1  -0.00989537  0.62955657  0.57087157  1
  Pr3+  Pr16  1  0.62074189  0.50727580  0.93179065  1
  Pr3+  Pr17  1  0.48248797  0.62989770  0.57200548  1
  Pr3+  Pr18  1  0.48585937  0.37956619  0.55753627  1
  Pr3+  Pr19  1  0.23941114  0.37368603  0.06480413  1
  Pr3+  Pr20  1  0.23732291  0.12925457  0.56370004  1
  Pr3+  Pr21  1  0.24405619  0.62013505  0.06099355  1
  Pr3+  Pr22  1  0.11185890  0.25001089  0.43029930  1
  Pr3+  Pr23  1  0.37429117  0.48895529  0.91012570  1
  Pr3+  Pr24  1  -0.00170158  0.62435902  0.07141355  1
  Pr3+  Pr25  1  0.23813675  0.62410952  0.56680432  1
  Nd3+  Nd26  1  0.23761517  0.87440799  0.55831232  1
  Nd3+  Nd27  1  0.86329551  0.25378316  0.42972546  1
  Nd3+  Nd28  1  -0.00880412  0.37252187  0.06353783  1
  Nd3+  Nd29  1  0.37566893  0.51282931  0.42328640  1
  Nd3+  Nd30  1  0.60940998  0.25407830  0.43210923  1
  Nd3+  Nd31  1  0.61367355  0.75645998  0.43873324  1
  Nd3+  Nd32  1  0.62003497  0.24796118  0.94350879  1
  Nd3+  Nd33  1  -0.01297172  0.87376952  0.55537940  1
  Nd3+  Nd34  1  0.24043273  0.12428538  0.05616915  1
  Nd3+  Nd35  1  0.61087690  0.50441158  0.44349270  1
  Nd3+  Nd36  1  0.86025299  0.74946631  0.42701948  1
  Nd3+  Nd37  1  0.11393970  0.49642470  0.93105112  1
  Nd3+  Nd38  1  0.24207351  0.37814252  0.55026629  1
  Nd3+  Nd39  1  0.74268115  0.62828628  0.06948788  1
  Nd3+  Nd40  1  0.35823453  0.75596496  0.43240511  1
  Nd3+  Nd41  1  0.49345122  0.12194502  0.05646912  1
  Nd3+  Nd42  1  -0.01189282  0.37739095  0.55863600  1
  Nd3+  Nd43  1  0.86188711  0.00280551  0.44580675  1
  Nd3+  Nd44  1  0.12144557  0.25236157  0.93032941  1
  Sm3+  Sm45  1  0.73679677  0.37867577  0.55412723  1
  Sm3+  Sm46  1  0.36818526  -0.00229108  0.94497274  1
  Sm3+  Sm47  1  0.49272972  0.87252341  0.05526995  1
  Sm3+  Sm48  1  0.73728023  0.62807733  0.55728179  1
  Sm3+  Sm49  1  0.74272875  0.11940584  0.06562593  1
  Sm3+  Sm50  1  0.86499582  0.50382272  0.44630968  1
  Sm3+  Sm51  1  0.86944279  0.24428216  0.94825597  1
  Sm3+  Sm52  1  0.11229856  0.00310737  0.44796339  1
  Sm3+  Sm53  1  0.87986306  -0.00278162  0.93543999  1
  Sm3+  Sm54  1  0.11508718  0.73959601  0.92956837  1
  Sm3+  Sm55  1  0.12452949  -0.01150640  0.92876844  1
  Sm3+  Sm56  1  -0.00451916  0.87485070  0.05589246  1
  Sm3+  Sm57  1  0.48837752  0.13014799  0.55611885  1
  Sm3+  Sm58  1  -0.00581418  0.12393483  0.05515910  1
  Sm3+  Sm59  1  0.36169017  0.01353217  0.44069013  1
  Sm3+  Sm60  1  0.61420471  0.00306856  0.44386042  1
  Sm3+  Sm61  1  0.74121858  0.37512398  0.05405060  1
  Sm3+  Sm62  1  0.73839380  0.87515278  0.55854819  1
  Sm3+  Sm63  1  0.36806885  0.24850904  0.94344735  1
  Bi2+  Bi64  1  -0.03114604  0.12677651  0.28798815  1
  Bi2+  Bi65  1  0.00534500  0.12924106  0.79388258  1
  Bi2+  Bi66  1  -0.04538827  0.39697857  0.29181086  1
  Bi2+  Bi67  1  0.00285424  0.35750489  0.79988098  1
  Bi2+  Bi68  1  0.00616421  0.64412527  0.28322071  1
  Bi2+  Bi69  1  0.00747522  0.61502007  0.79267865  1
  Bi2+  Bi70  1  -0.05908244  0.87764431  0.27552477  1
  Bi2+  Bi71  1  -0.01572789  0.86409286  0.78537338  1
  Bi2+  Bi72  1  0.24095632  0.11194280  0.29143880  1
  Bi2+  Bi73  1  0.19720082  0.15980983  0.81541241  1
  Bi2+  Bi74  1  0.21849002  0.37198934  0.26894965  1
  Bi2+  Bi75  1  0.21835381  0.33990913  0.76176756  1
  Bi2+  Bi76  1  0.25471556  0.62676372  0.30041307  1
  Bi2+  Bi77  1  0.25759258  0.69862588  0.80183053  1
  Bi2+  Bi78  1  0.30385011  0.89665658  0.29175677  1
  Bi2+  Bi79  1  0.23285962  0.96437149  0.79852315  1
  Bi2+  Bi80  1  0.59092716  0.13075361  0.27885708  1
  Bi2+  Bi81  1  0.55742683  0.06173966  0.78655413  1
  Bi2+  Bi82  1  0.58291273  0.33886366  0.25347934  1
  Bi2+  Bi83  1  0.54811755  0.33903711  0.78071670  1
  Bi2+  Bi84  1  0.55799722  0.65264382  0.32299794  1
  Bi2+  Bi85  1  0.49889830  0.61768065  0.80252370  1
  Bi2+  Bi86  1  0.49386553  0.85786338  0.30096326  1
  Bi2+  Bi87  1  0.52365970  0.85573121  0.75977804  1
  Bi2+  Bi88  1  0.77698091  0.16739486  0.30825593  1
  Bi2+  Bi89  1  0.76050360  0.13929644  0.79069319  1
  Bi2+  Bi90  1  0.75678853  0.36472400  0.30971160  1
  Bi2+  Bi91  1  0.72703207  0.40928374  0.80459930  1
  Bi2+  Bi92  1  0.79718107  0.63884089  0.28417746  1
  Bi2+  Bi93  1  0.77895441  0.60147697  0.79331738  1
  Bi2+  Bi94  1  0.73866526  0.89170933  0.29422891  1
  Bi2+  Bi95  1  0.76142731  0.87456518  0.79370962  1
  Bi2+  Bi96  1  0.11050371  -0.02804679  0.25627232  1
  Bi2+  Bi97  1  0.13380942  0.06137531  0.71085091  1
  Bi2+  Bi98  1  0.07924553  0.19377885  0.20014342  1
  Bi2+  Bi99  1  0.10238072  0.25979525  0.68252053  1
  Bi2+  Bi100  1  0.06402772  0.49319571  0.21183311  1
  Bi2+  Bi101  1  0.15028256  0.50273127  0.70705874  1
  Bi2+  Bi102  1  0.14583475  0.76966160  0.19720325  1
  Bi2+  Bi103  1  0.10990547  0.77942908  0.70663047  1
  Bi2+  Bi104  1  0.42785198  0.00234252  0.22640147  1
  Bi2+  Bi105  1  0.39358160  -0.00002017  0.73972672  1
  Bi2+  Bi106  1  0.36655568  0.24422353  0.17574780  1
  Bi2+  Bi107  1  0.38244275  0.22406577  0.78101187  1
  Bi2+  Bi108  1  0.38867088  0.49320996  0.20921847  1
  Bi2+  Bi109  1  0.40773176  0.49723667  0.69494634  1
  Bi2+  Bi110  1  0.38901235  0.74930585  0.21167037  1
  Bi2+  Bi111  1  0.36136141  0.77638342  0.70814276  1
  Bi2+  Bi112  1  0.61580812  -0.04435444  0.21504613  1
  Bi2+  Bi113  1  0.63368017  0.00054986  0.68752728  1
  Bi2+  Bi114  1  0.68628156  0.21205203  0.18883618  1
  Bi2+  Bi115  1  0.61225185  0.24562682  0.68874208  1
  Bi2+  Bi116  1  0.70613168  0.49931218  0.22506466  1
  Bi2+  Bi117  1  0.65854332  0.49618938  0.70875547  1
  Bi2+  Bi118  1  0.63661207  0.72926367  0.20361559  1
  Bi2+  Bi119  1  0.71020618  0.73973299  0.71881183  1
  Bi2+  Bi120  1  0.84350740  0.02127308  0.21489938  1
  Bi2+  Bi121  1  0.87881173  0.00207880  0.74014614  1
  Bi2+  Bi122  1  0.86228932  0.28273289  0.21568337  1
  Bi2+  Bi123  1  0.84640470  0.29558407  0.74119157  1
  Bi2+  Bi124  1  0.88600559  0.55630633  0.18131440  1
  Bi2+  Bi125  1  0.90510767  0.48373998  0.72227451  1
  Bi2+  Bi126  1  0.92179297  0.74601441  0.19112327  1
  Bi2+  Bi127  1  0.91002380  0.70381985  0.70412076  1
  S2-  S128  1  -0.03283789  0.09755126  0.15083495  1
  S2-  S129  1  -0.00967629  0.14023666  0.65901967  1
  S2-  S130  1  0.05796516  0.34528409  0.15238866  1
  S2-  S131  1  0.01574724  0.41650308  0.65430420  1
  S2-  S132  1  0.12954685  0.62873029  0.14166968  1
  S2-  S133  1  0.11579517  0.63300179  0.64358839  1
  S2-  S134  1  0.08813343  0.88483503  0.13725093  1
  S2-  S135  1  -0.01650727  0.84446388  0.65218249  1
  S2-  S136  1  0.22788096  0.13846179  0.15460286  1
  S2-  S137  1  0.24439712  0.16451659  0.66186382  1
  S2-  S138  1  0.26308788  0.38816236  0.16437637  1
  S2-  S139  1  0.26101253  0.44207074  0.64386822  1
  S2-  S140  1  0.35216719  0.61279371  0.14632612  1
  S2-  S141  1  0.35110046  0.64274872  0.64438333  1
  S2-  S142  1  0.29217581  0.85302361  0.16369689  1
  S2-  S143  1  0.23646719  0.86504860  0.65747994  1
  S2-  S144  1  0.47974379  0.11746690  0.15522334  1
  S2-  S145  1  0.51324832  0.12652715  0.65282798  1
  S2-  S146  1  0.49282101  0.37265727  0.15994483  1
  S2-  S147  1  0.48210296  0.36824676  0.65853926  1
  S2-  S148  1  0.49465943  0.60307928  0.23829450  1
  S2-  S149  1  0.54543683  0.58929553  0.66692295  1
  S2-  S150  1  0.51073023  0.78633973  0.14058285  1
  S2-  S151  1  0.49204497  0.84350142  0.65338280  1
  S2-  S152  1  0.73437376  -0.00051109  0.13835456  1
  S2-  S153  1  0.73514893  0.13183128  0.65951851  1
  S2-  S154  1  0.74653076  0.36974211  0.15123842  1
  S2-  S155  1  0.73207995  0.36519569  0.65052133  1
  S2-  S156  1  0.62991602  0.59203666  0.14431934  1
  S2-  S157  1  0.77928851  0.61901658  0.65094858  1
  S2-  S158  1  0.75711252  0.76273271  0.14338794  1
  S2-  S159  1  0.73722390  0.88265606  0.65567331  1
  S2-  S160  1  0.11877363  0.02680864  0.35171542  1
  S2-  S161  1  0.00196286  -0.00460550  0.85886420  1
  S2-  S162  1  0.19232139  0.25639131  0.34062502  1
  S2-  S163  1  0.13913477  0.37469436  0.85700860  1
  S2-  S164  1  0.12574476  0.58523511  0.35561232  1
  S2-  S165  1  0.13828186  0.61486199  0.85677311  1
  S2-  S166  1  0.23269811  0.77634485  0.35192306  1
  S2-  S167  1  0.17679838  0.83843479  0.85528060  1
  S2-  S168  1  0.36206466  0.09719798  0.35481732  1
  S2-  S169  1  0.38816667  0.00368166  0.84751615  1
  S2-  S170  1  0.35467779  0.26370418  0.26817359  1
  S2-  S171  1  0.37055262  0.32710251  0.85753166  1
  S2-  S172  1  0.32110834  0.44364942  0.33187973  1
  S2-  S173  1  0.33913299  0.55159893  0.81306757  1
  S2-  S174  1  0.38943677  0.64868819  0.35466407  1
  S2-  S175  1  0.40403806  0.74986097  0.84353418  1
  S2-  S176  1  0.60705395  -0.03055484  0.34864161  1
  S2-  S177  1  0.61357782  -0.13959094  0.85219351  1
  S2-  S178  1  0.53329842  0.25814447  0.34370079  1
  S2-  S179  1  0.62355877  0.16397284  0.85718802  1
  S2-  S180  1  0.53923323  0.50089602  0.35505106  1
  S2-  S181  1  0.52225074  0.47316495  0.84841515  1
  S2-  S182  1  0.72530826  0.74661954  0.35868051  1
  S2-  S183  1  0.63977138  0.63921704  0.85738056  1
  S2-  S184  1  0.85935069  -0.01512224  0.34829733  1
  S2-  S185  1  0.77601987  0.00640191  0.85812395  1
  S2-  S186  1  0.97973658  0.25567584  0.35565146  1
  S2-  S187  1  0.87934392  0.23170365  0.85108108  1
  S2-  S188  1  0.88434284  0.53139004  0.35024797  1
  S2-  S189  1  0.95750382  0.49182945  0.86155501  1
  S2-  S190  1  0.98088624  0.76054670  0.35400716  1
  S2-  S191  1  0.96324061  0.74586648  0.85875273  1
  S2-  S192  1  -0.01465235  0.12654416  0.45473337  1
  S2-  S193  1  -0.00113054  0.12705031  0.95198654  1
  S2-  S194  1  -0.01322526  0.38028799  0.45356650  1
  S2-  S195  1  -0.00776112  0.36590341  0.95912561  1
  S2-  S196  1  -0.01543860  0.62546244  0.46189181  1
  S2-  S197  1  -0.00713582  0.62061080  0.96363405  1
  S2-  S198  1  -0.01302577  0.87957999  0.45161196  1
  S2-  S199  1  -0.00040710  0.87129131  0.95536332  1
  S2-  S200  1  0.23274505  0.12589742  0.45831881  1
  S2-  S201  1  0.24315876  0.12237137  0.95001046  1
  S2-  S202  1  0.24341175  0.37570496  0.44592206  1
  S2-  S203  1  0.24720798  0.37431818  0.95821346  1
  S2-  S204  1  0.24282206  0.62528964  0.45751060  1
  S2-  S205  1  0.24967480  0.61528548  0.95401827  1
  S2-  S206  1  0.23950184  0.88677264  0.45373353  1
  S2-  S207  1  0.24723603  0.87578973  0.96034178  1
  S2-  S208  1  0.49416633  0.12546665  0.45334387  1
  S2-  S209  1  0.49024548  0.12369062  0.95167281  1
  S2-  S210  1  0.48325684  0.37415481  0.45068206  1
  S2-  S211  1  0.49507178  0.37001051  0.95620467  1
  S2-  S212  1  0.49335528  0.63438795  0.46292895  1
  S2-  S213  1  0.48647948  0.62008816  0.95212976  1
  S2-  S214  1  0.48610438  0.88154376  0.45159991  1
  S2-  S215  1  0.48951375  0.87652630  0.95337104  1
  S2-  S216  1  0.73718852  0.13004760  0.45188723  1
  S2-  S217  1  0.74781420  0.12286769  0.96252239  1
  S2-  S218  1  0.73870916  0.37931085  0.44950561  1
  S2-  S219  1  0.74528931  0.37125162  0.94986856  1
  S2-  S220  1  0.73854432  0.62501294  0.45501580  1
  S2-  S221  1  0.75033219  0.62410128  0.96118064  1
  S2-  S222  1  0.73933922  0.87864025  0.45562674  1
  S2-  S223  1  0.75088459  0.87309798  0.95538032  1
  S2-  S224  1  0.11547280  0.00346525  0.03568005  1
  S2-  S225  1  0.11105754  0.00062181  0.55281041  1
  S2-  S226  1  0.11662952  0.24729717  0.03974550  1
  S2-  S227  1  0.11324808  0.25506244  0.54144472  1
  S2-  S228  1  0.11399817  0.49380178  0.04302878  1
  S2-  S229  1  0.11188649  0.50047877  0.54319450  1
  S2-  S230  1  0.11604937  0.74782945  0.03613552  1
  S2-  S231  1  0.11311217  0.75358975  0.53864578  1
  S2-  S232  1  0.36705278  -0.00233370  0.05076814  1
  S2-  S233  1  0.36406822  0.00457068  0.54854219  1
  S2-  S234  1  0.36817682  0.24838556  0.04685597  1
  S2-  S235  1  0.36478106  0.25059728  0.55390444  1
  S2-  S236  1  0.37071224  0.49374119  0.04879839  1
  S2-  S237  1  0.36564638  0.50412321  0.53608987  1
  S2-  S238  1  0.36669282  0.75117709  0.04541688  1
  S2-  S239  1  0.36239156  0.75636099  0.53989829  1
  S2-  S240  1  0.61355730  -0.00135688  0.03920123  1
  S2-  S241  1  0.61349261  0.00119193  0.54738802  1
  S2-  S242  1  0.62095487  0.24636268  0.04856072  1
  S2-  S243  1  0.61241271  0.25487540  0.54001680  1
  S2-  S244  1  0.61984840  0.49694988  0.03935505  1
  S2-  S245  1  0.61550026  0.50373041  0.54929260  1
  S2-  S246  1  0.61676589  0.74788466  0.03728226  1
  S2-  S247  1  0.61566450  0.75202418  0.54750569  1
  S2-  S248  1  0.87401642  -0.00074323  0.04124970  1
  S2-  S249  1  0.86140220  0.00187339  0.55195699  1
  S2-  S250  1  0.86479006  0.24613786  0.05294717  1
  S2-  S251  1  0.86097519  0.25533493  0.54226512  1
  S2-  S252  1  0.86681976  0.49776044  0.05043553  1
  S2-  S253  1  0.86221541  0.50195201  0.55051199  1
  S2-  S254  1  0.87602745  0.74934239  0.04552977  1
  S2-  S255  1  0.86093827  0.75078853  0.54331673  1
