# generated using pymatgen
data_La6Ce7Pr13Nd19Sm19(BiS2)64
_symmetry_space_group_name_H-M   'P 1'
_cell_length_a   16.11907490
_cell_length_b   16.11847191
_cell_length_c   27.34908483
_cell_angle_alpha   89.94274175
_cell_angle_beta   90.06849915
_cell_angle_gamma   90.18411341
_symmetry_Int_Tables_number   1
_chemical_formula_structural   La6Ce7Pr13Nd19Sm19(BiS2)64
_chemical_formula_sum   'La6 Ce7 Pr13 Nd19 Sm19 Bi64 S128'
_cell_volume   7105.65324961
_cell_formula_units_Z   1
loop_
 _symmetry_equiv_pos_site_id
 _symmetry_equiv_pos_as_xyz
  1  'x, y, z'
loop_
 _atom_type_symbol
 _atom_type_oxidation_number
  La3+  3.0
  Ce3+  3.0
  Pr3+  3.0
  Nd3+  3.0
  Sm3+  3.0
  Bi2+  2.0
  S2-  -2.0
loop_
 _atom_site_type_symbol
 _atom_site_label
 _atom_site_symmetry_multiplicity
 _atom_site_fract_x
 _atom_site_fract_y
 _atom_site_fract_z
 _atom_site_occupancy
  La3+  La0  1  0.86090101  0.50838789  0.91068653  1
  La3+  La1  1  0.74440884  0.62747534  0.59625566  1
  La3+  La2  1  0.74936463  0.35810520  0.59462685  1
  La3+  La3  1  0.13499089  -0.00355190  0.39046130  1
  La3+  La4  1  0.86931070  0.24168796  0.90103919  1
  La3+  La5  1  0.36129417  0.75636358  0.89236119  1
  Ce3+  Ce6  1  0.62381128  0.25118858  0.94017265  1
  Ce3+  Ce7  1  0.62047339  0.50341500  0.94240431  1
  Ce3+  Ce8  1  0.37059945  0.50683953  0.93444931  1
  Ce3+  Ce9  1  0.36873203  0.24976792  0.93776965  1
  Ce3+  Ce10  1  0.24609427  0.87722148  0.06396201  1
  Ce3+  Ce11  1  0.49891657  0.12759267  0.06212220  1
  Ce3+  Ce12  1  0.62664119  0.49975083  0.45377439  1
  Pr3+  Pr13  1  0.24789923  0.87466871  0.56436714  1
  Pr3+  Pr14  1  0.74696872  0.63041697  0.06171980  1
  Pr3+  Pr15  1  0.24299188  0.13029355  0.07305063  1
  Pr3+  Pr16  1  0.24625853  0.62976974  0.05680779  1
  Pr3+  Pr17  1  0.62535504  -0.00181494  0.43718441  1
  Pr3+  Pr18  1  0.86728693  0.26048677  0.40945810  1
  Pr3+  Pr19  1  -0.00834045  0.37406556  0.05459251  1
  Pr3+  Pr20  1  0.00010891  0.12562849  0.54080758  1
  Pr3+  Pr21  1  0.75248476  0.87511420  0.56413976  1
  Pr3+  Pr22  1  0.12500796  0.24984266  0.93904876  1
  Pr3+  Pr23  1  0.00476378  0.36609504  0.56644293  1
  Pr3+  Pr24  1  0.24649467  0.12304966  0.56026133  1
  Pr3+  Pr25  1  0.49360820  0.37865738  0.05488323  1
  Nd3+  Nd26  1  0.74472638  0.37807698  0.05743868  1
  Nd3+  Nd27  1  0.87804182  0.74762648  0.43887367  1
  Nd3+  Nd28  1  0.11927183  0.00449488  0.95112533  1
  Nd3+  Nd29  1  0.87169728  0.75590300  0.93335934  1
  Nd3+  Nd30  1  0.24994353  0.37389175  0.56848647  1
  Nd3+  Nd31  1  0.50288305  0.37617441  0.56188031  1
  Nd3+  Nd32  1  0.62461169  0.74683168  0.44334619  1
  Nd3+  Nd33  1  0.62224336  0.00376688  0.94268593  1
  Nd3+  Nd34  1  -0.00652051  0.62674435  0.05535457  1
  Nd3+  Nd35  1  0.36958562  -0.00041400  0.94435375  1
  Nd3+  Nd36  1  0.49065083  0.62935469  0.57798136  1
  Nd3+  Nd37  1  0.50247524  0.12519287  0.55590461  1
  Nd3+  Nd38  1  0.87200139  -0.00701499  0.42170426  1
  Nd3+  Nd39  1  -0.01543141  0.12833810  0.07304928  1
  Nd3+  Nd40  1  0.74182875  0.12861768  0.07191655  1
  Nd3+  Nd41  1  0.62233982  0.75284114  0.93456485  1
  Nd3+  Nd42  1  0.11752443  0.50065455  0.94206707  1
  Nd3+  Nd43  1  0.50203700  0.87435693  0.55861869  1
  Nd3+  Nd44  1  0.12026101  0.75403766  0.93972986  1
  Sm3+  Sm45  1  -0.00662387  0.87751714  0.06320081  1
  Sm3+  Sm46  1  0.37008041  0.24843652  0.44906016  1
  Sm3+  Sm47  1  0.37231895  0.74924920  0.44237567  1
  Sm3+  Sm48  1  0.00069960  0.87352718  0.54983395  1
  Sm3+  Sm49  1  0.75452231  0.12510257  0.54692249  1
  Sm3+  Sm50  1  0.49460872  0.87446221  0.05270854  1
  Sm3+  Sm51  1  0.62552114  0.25338443  0.43723529  1
  Sm3+  Sm52  1  0.12441104  0.49352714  0.44236176  1
  Sm3+  Sm53  1  0.12630590  0.74896656  0.44180570  1
  Sm3+  Sm54  1  0.49247394  0.63063012  0.04940269  1
  Sm3+  Sm55  1  0.37129809  -0.00114990  0.44461487  1
  Sm3+  Sm56  1  0.12642157  0.25255564  0.42690473  1
  Sm3+  Sm57  1  0.74512340  0.87567604  0.05425019  1
  Sm3+  Sm58  1  0.87280900  0.00548582  0.94452190  1
  Sm3+  Sm59  1  -0.00154959  0.62139192  0.55979849  1
  Sm3+  Sm60  1  0.87197364  0.49620426  0.45140233  1
  Sm3+  Sm61  1  0.24493768  0.37747447  0.05507859  1
  Sm3+  Sm62  1  0.37541401  0.49961413  0.44996853  1
  Sm3+  Sm63  1  0.24940287  0.62498928  0.56059679  1
  Bi2+  Bi64  1  0.01435511  0.12017073  0.27181835  1
  Bi2+  Bi65  1  0.00752255  0.09634419  0.79556754  1
  Bi2+  Bi66  1  0.01931446  0.45231195  0.29398015  1
  Bi2+  Bi67  1  0.03173916  0.36422515  0.79078606  1
  Bi2+  Bi68  1  -0.03138545  0.63064948  0.33602408  1
  Bi2+  Bi69  1  0.00652798  0.71436106  0.79577353  1
  Bi2+  Bi70  1  -0.04453836  0.80362478  0.27531895  1
  Bi2+  Bi71  1  -0.05281581  0.89003721  0.83031985  1
  Bi2+  Bi72  1  0.27507456  0.13314971  0.28660085  1
  Bi2+  Bi73  1  0.29011450  0.11132250  0.80005664  1
  Bi2+  Bi74  1  0.27585014  0.37839883  0.29711498  1
  Bi2+  Bi75  1  0.26101007  0.37499259  0.79196395  1
  Bi2+  Bi76  1  0.27994460  0.61565103  0.30206546  1
  Bi2+  Bi77  1  0.18366643  0.62692903  0.78574105  1
  Bi2+  Bi78  1  0.26558852  0.86454546  0.29163689  1
  Bi2+  Bi79  1  0.21810903  0.91511514  0.79223340  1
  Bi2+  Bi80  1  0.50932958  0.14239632  0.28332790  1
  Bi2+  Bi81  1  0.47336744  0.19030436  0.80453557  1
  Bi2+  Bi82  1  0.50717574  0.41922525  0.29538534  1
  Bi2+  Bi83  1  0.46992860  0.39055005  0.80531163  1
  Bi2+  Bi84  1  0.50629279  0.63422711  0.25651588  1
  Bi2+  Bi85  1  0.47919840  0.59461014  0.78665792  1
  Bi2+  Bi86  1  0.50372489  0.86232240  0.28936989  1
  Bi2+  Bi87  1  0.48827181  0.99279281  0.78551148  1
  Bi2+  Bi88  1  0.77071591  0.13118871  0.29308562  1
  Bi2+  Bi89  1  0.73034002  0.10638177  0.78381893  1
  Bi2+  Bi90  1  0.75239999  0.41080824  0.29692206  1
  Bi2+  Bi91  1  0.74560774  0.37676213  0.79377433  1
  Bi2+  Bi92  1  0.78539482  0.60837267  0.29173162  1
  Bi2+  Bi93  1  0.73833360  0.63056868  0.78744049  1
  Bi2+  Bi94  1  0.72724806  0.86745823  0.29097836  1
  Bi2+  Bi95  1  0.75569678  0.88310757  0.79721436  1
  Bi2+  Bi96  1  0.14585699  -0.01382473  0.19028155  1
  Bi2+  Bi97  1  0.05477528  -0.04684138  0.73156579  1
  Bi2+  Bi98  1  0.14306435  0.26376468  0.19618512  1
  Bi2+  Bi99  1  0.12292968  0.21571524  0.70553085  1
  Bi2+  Bi100  1  0.16268445  0.50105898  0.22128575  1
  Bi2+  Bi101  1  0.16376377  0.48064933  0.70918769  1
  Bi2+  Bi102  1  0.11114961  0.68353292  0.26125530  1
  Bi2+  Bi103  1  0.11891577  0.75578571  0.70277484  1
  Bi2+  Bi104  1  0.40281622  0.00120027  0.23133987  1
  Bi2+  Bi105  1  0.35753822  0.01942475  0.70584992  1
  Bi2+  Bi106  1  0.42341864  0.28977590  0.22252174  1
  Bi2+  Bi107  1  0.37225118  0.28272008  0.71642017  1
  Bi2+  Bi108  1  0.36164278  0.51783228  0.21058458  1
  Bi2+  Bi109  1  0.35918580  0.47831320  0.69521069  1
  Bi2+  Bi110  1  0.34891490  0.72622912  0.20408032  1
  Bi2+  Bi111  1  0.35771684  0.75944872  0.71593433  1
  Bi2+  Bi112  1  0.59628366  -0.00138667  0.21841897  1
  Bi2+  Bi113  1  0.62782490  -0.02468191  0.70039914  1
  Bi2+  Bi114  1  0.61667638  0.25322921  0.20684781  1
  Bi2+  Bi115  1  0.61212337  0.19610752  0.70577409  1
  Bi2+  Bi116  1  0.63288571  0.49651319  0.21956408  1
  Bi2+  Bi117  1  0.55751280  0.47702997  0.71258649  1
  Bi2+  Bi118  1  0.60620611  0.75963535  0.18627020  1
  Bi2+  Bi119  1  0.60653138  0.77609434  0.70982325  1
  Bi2+  Bi120  1  0.85871759  -0.04482020  0.20553891  1
  Bi2+  Bi121  1  0.82087168  -0.00315263  0.70274132  1
  Bi2+  Bi122  1  0.87582466  0.26666501  0.19946882  1
  Bi2+  Bi123  1  0.87862001  0.24374533  0.69609785  1
  Bi2+  Bi124  1  0.89594825  0.51621664  0.21333207  1
  Bi2+  Bi125  1  0.93909056  0.52099925  0.71601270  1
  Bi2+  Bi126  1  0.84748316  0.70716493  0.19742050  1
  Bi2+  Bi127  1  0.87492225  0.80175563  0.71804269  1
  S2-  S128  1  0.04753604  0.12797808  0.16596945  1
  S2-  S129  1  0.01103116  0.16860225  0.64019173  1
  S2-  S130  1  0.00315271  0.34453556  0.15431932  1
  S2-  S131  1  -0.08556318  0.38825143  0.65049573  1
  S2-  S132  1  -0.01531922  0.62931696  0.15402500  1
  S2-  S133  1  0.03890194  0.62090033  0.65462574  1
  S2-  S134  1  -0.00069070  0.89782424  0.16011025  1
  S2-  S135  1  -0.00192577  0.85732692  0.64697810  1
  S2-  S136  1  0.25407557  0.12872330  0.17453731  1
  S2-  S137  1  0.24109140  0.11642267  0.66094279  1
  S2-  S138  1  0.24837634  0.35458368  0.15115344  1
  S2-  S139  1  0.13560620  0.35071493  0.64148019  1
  S2-  S140  1  0.23591365  0.62446792  0.15634477  1
  S2-  S141  1  0.34359265  0.63810661  0.64324430  1
  S2-  S142  1  0.24498317  0.86132240  0.16180119  1
  S2-  S143  1  0.25296358  0.86592160  0.66446288  1
  S2-  S144  1  0.60538494  0.12656168  0.14096464  1
  S2-  S145  1  0.49982151  0.09258075  0.65290091  1
  S2-  S146  1  0.51895299  0.37943801  0.15378668  1
  S2-  S147  1  0.57315064  0.33656913  0.64801898  1
  S2-  S148  1  0.48327561  0.65014973  0.14641759  1
  S2-  S149  1  0.59007052  0.62662685  0.65896257  1
  S2-  S150  1  0.51572818  0.88073992  0.15046350  1
  S2-  S151  1  0.48220503  0.81921176  0.65222340  1
  S2-  S152  1  0.84438725  0.11408033  0.15324098  1
  S2-  S153  1  0.74677785  0.18680345  0.63780535  1
  S2-  S154  1  0.74984038  0.33304244  0.15457741  1
  S2-  S155  1  0.74877636  0.36358346  0.70182045  1
  S2-  S156  1  0.70335555  0.61437070  0.15774598  1
  S2-  S157  1  0.79982534  0.58274221  0.69050887  1
  S2-  S158  1  0.75480259  0.86723498  0.15243750  1
  S2-  S159  1  0.74939488  0.78158785  0.64812004  1
  S2-  S160  1  0.10493166  -0.02286687  0.28451447  1
  S2-  S161  1  0.14202207  0.03265264  0.85419878  1
  S2-  S162  1  0.13620589  0.15823916  0.34251017  1
  S2-  S163  1  0.03307589  0.23414825  0.85546729  1
  S2-  S164  1  0.13776095  0.38945901  0.36399267  1
  S2-  S165  1  0.12404066  0.48817237  0.84339525  1
  S2-  S166  1  0.15439335  0.82168327  0.35582547  1
  S2-  S167  1  0.20035470  0.76802341  0.85130084  1
  S2-  S168  1  0.30256939  0.00283719  0.35493122  1
  S2-  S169  1  0.36008012  -0.07164190  0.85409920  1
  S2-  S170  1  0.33562310  0.25116522  0.35281354  1
  S2-  S171  1  0.25423032  0.24317688  0.86300562  1
  S2-  S172  1  0.37369300  0.49993975  0.35250137  1
  S2-  S173  1  0.34862391  0.58824360  0.84895837  1
  S2-  S174  1  0.37884892  0.77148342  0.34513266  1
  S2-  S175  1  0.44394924  0.76026115  0.79928615  1
  S2-  S176  1  0.68963476  0.00558564  0.34487304  1
  S2-  S177  1  0.63401982  -0.00235004  0.84399448  1
  S2-  S178  1  0.71265765  0.25921025  0.35282458  1
  S2-  S179  1  0.70178685  0.24033752  0.85425922  1
  S2-  S180  1  0.62612976  0.49238273  0.35618583  1
  S2-  S181  1  0.69439977  0.51308358  0.85502795  1
  S2-  S182  1  0.62152536  0.77245543  0.34483734  1
  S2-  S183  1  0.66095760  0.74978226  0.83697005  1
  S2-  S184  1  0.89794684  0.04473571  0.32603243  1
  S2-  S185  1  0.86698372  0.08188827  0.85665621  1
  S2-  S186  1  0.90872169  0.23896025  0.30509989  1
  S2-  S187  1  0.87830455  0.27514214  0.79393196  1
  S2-  S188  1  0.88179936  0.42013900  0.36249720  1
  S2-  S189  1  0.90757424  0.46502635  0.81590636  1
  S2-  S190  1  0.86151127  0.84683094  0.35700390  1
  S2-  S191  1  0.86168493  0.65921049  0.85070308  1
  S2-  S192  1  -0.00431556  0.12640437  0.43642436  1
  S2-  S193  1  -0.00627290  0.12682927  0.96431489  1
  S2-  S194  1  0.00019429  0.37425949  0.45937219  1
  S2-  S195  1  -0.01212968  0.37937331  0.94777856  1
  S2-  S196  1  0.00296791  0.62064072  0.45596474  1
  S2-  S197  1  -0.00529300  0.62688527  0.94951124  1
  S2-  S198  1  0.00789615  0.87777113  0.44713506  1
  S2-  S199  1  -0.00426197  0.87875520  0.95814136  1
  S2-  S200  1  0.24792905  0.12207664  0.45459657  1
  S2-  S201  1  0.24869450  0.12300664  0.96564739  1
  S2-  S202  1  0.25420724  0.37594884  0.46294207  1
  S2-  S203  1  0.24751693  0.38229136  0.95271191  1
  S2-  S204  1  0.24904815  0.62270581  0.45551203  1
  S2-  S205  1  0.24219901  0.62923752  0.95213752  1
  S2-  S206  1  0.25192318  0.87368588  0.45850145  1
  S2-  S207  1  0.24353043  0.87766181  0.95888097  1
  S2-  S208  1  0.49774408  0.12533925  0.44870494  1
  S2-  S209  1  0.49528666  0.12549103  0.95376833  1
  S2-  S210  1  0.49654672  0.37145478  0.45530106  1
  S2-  S211  1  0.49497115  0.37631591  0.94837102  1
  S2-  S212  1  0.49602646  0.62578433  0.45927112  1
  S2-  S213  1  0.49530745  0.63222314  0.94464781  1
  S2-  S214  1  0.49710092  0.87425889  0.45201173  1
  S2-  S215  1  0.49638110  0.87481621  0.94790813  1
  S2-  S216  1  0.75223688  0.12529848  0.44583961  1
  S2-  S217  1  0.74678279  0.12576435  0.96186433  1
  S2-  S218  1  0.74640219  0.37465682  0.45971439  1
  S2-  S219  1  0.74870372  0.37753771  0.95195754  1
  S2-  S220  1  0.75255714  0.62503395  0.45125119  1
  S2-  S221  1  0.74624205  0.63081390  0.95666871  1
  S2-  S222  1  0.74774049  0.87244604  0.45805515  1
  S2-  S223  1  0.74789600  0.87930232  0.94983659  1
  S2-  S224  1  0.11751281  0.00297568  0.05604875  1
  S2-  S225  1  0.12176140  -0.00328586  0.55527787  1
  S2-  S226  1  0.12093150  0.25202397  0.04641859  1
  S2-  S227  1  0.13047855  0.24778930  0.53295571  1
  S2-  S228  1  0.12000171  0.50116702  0.04913211  1
  S2-  S229  1  0.12779492  0.50153720  0.54635465  1
  S2-  S230  1  0.11688890  0.75419342  0.04813895  1
  S2-  S231  1  0.12421874  0.74612544  0.54648972  1
  S2-  S232  1  0.37303211  0.00267879  0.05320860  1
  S2-  S233  1  0.37643260  -0.00132225  0.54877676  1
  S2-  S234  1  0.36984920  0.25171114  0.04790514  1
  S2-  S235  1  0.37633391  0.24980047  0.55395398  1
  S2-  S236  1  0.36938884  0.50370031  0.04400171  1
  S2-  S237  1  0.37417358  0.49825839  0.55216689  1
  S2-  S238  1  0.37140263  0.75430169  0.04729559  1
  S2-  S239  1  0.37361920  0.75174167  0.54467391  1
  S2-  S240  1  0.62114824  -0.00388506  0.04674644  1
  S2-  S241  1  0.62707811  0.00080584  0.54449870  1
  S2-  S242  1  0.61953935  0.25502349  0.04375460  1
  S2-  S243  1  0.62661303  0.24652986  0.53941148  1
  S2-  S244  1  0.61785480  0.50627553  0.04774516  1
  S2-  S245  1  0.62912602  0.49916469  0.55808338  1
  S2-  S246  1  0.61880197  0.75323160  0.04138959  1
  S2-  S247  1  0.62335428  0.74702775  0.54767087  1
  S2-  S248  1  0.86816137  -0.00291716  0.04803924  1
  S2-  S249  1  0.87594411  -0.00266569  0.53857452  1
  S2-  S250  1  0.86539481  0.25209956  0.05044949  1
  S2-  S251  1  0.87286249  0.24993075  0.53947348  1
  S2-  S252  1  0.86890924  0.50300179  0.05077735  1
  S2-  S253  1  0.87064049  0.50444014  0.55369381  1
  S2-  S254  1  0.87188957  0.75520615  0.04291617  1
  S2-  S255  1  0.87758849  0.74570193  0.54555528  1
