# generated using pymatgen
data_La6Ce7Pr13Nd19Sm19(BiS2)64
_symmetry_space_group_name_H-M   'P 1'
_cell_length_a   16.08975889
_cell_length_b   16.07685557
_cell_length_c   27.37775089
_cell_angle_alpha   90.02341470
_cell_angle_beta   90.06330382
_cell_angle_gamma   89.95109351
_symmetry_Int_Tables_number   1
_chemical_formula_structural   La6Ce7Pr13Nd19Sm19(BiS2)64
_chemical_formula_sum   'La6 Ce7 Pr13 Nd19 Sm19 Bi64 S128'
_cell_volume   7081.87006979
_cell_formula_units_Z   1
loop_
 _symmetry_equiv_pos_site_id
 _symmetry_equiv_pos_as_xyz
  1  'x, y, z'
loop_
 _atom_type_symbol
 _atom_type_oxidation_number
  La3+  3.0
  Ce3+  3.0
  Pr3+  3.0
  Nd3+  3.0
  Sm3+  3.0
  Bi2+  2.0
  S2-  -2.0
loop_
 _atom_site_type_symbol
 _atom_site_label
 _atom_site_symmetry_multiplicity
 _atom_site_fract_x
 _atom_site_fract_y
 _atom_site_fract_z
 _atom_site_occupancy
  La3+  La0  1  0.11285576  0.23578035  0.89992514  1
  La3+  La1  1  0.00036890  0.84645652  0.07826653  1
  La3+  La2  1  0.51050219  0.86224973  0.07745314  1
  La3+  La3  1  0.37308266  0.22175756  0.91406517  1
  La3+  La4  1  0.75109060  0.59737821  0.09418267  1
  La3+  La5  1  0.50405380  0.11492521  0.07789844  1
  Ce3+  Ce6  1  0.75302245  0.88007094  0.55162935  1
  Ce3+  Ce7  1  0.62509897  0.75473484  0.43796673  1
  Ce3+  Ce8  1  0.37811727  0.76146348  0.44228647  1
  Ce3+  Ce9  1  0.37887795  -0.01757224  0.94601928  1
  Ce3+  Ce10  1  0.87745468  0.75381028  0.44095308  1
  Ce3+  Ce11  1  0.50021274  0.37081634  0.57963836  1
  Ce3+  Ce12  1  0.87903843  0.48314855  0.94131238  1
  Pr3+  Pr13  1  0.25519618  0.63050646  0.55912358  1
  Pr3+  Pr14  1  0.12564661  0.73622709  0.93789155  1
  Pr3+  Pr15  1  0.61900963  0.50286078  0.43903110  1
  Pr3+  Pr16  1  0.38827125  0.00860159  0.41255680  1
  Pr3+  Pr17  1  0.00315270  0.10777010  0.06530470  1
  Pr3+  Pr18  1  0.50220818  0.12558639  0.56240481  1
  Pr3+  Pr19  1  0.11557164  0.01065658  0.40772214  1
  Pr3+  Pr20  1  0.13091998  0.50496991  0.44098067  1
  Pr3+  Pr21  1  0.00909438  0.13225198  0.55989304  1
  Pr3+  Pr22  1  0.86700264  0.50556010  0.42649879  1
  Pr3+  Pr23  1  0.87756545  0.00718978  0.44182873  1
  Pr3+  Pr24  1  0.01187664  0.60156860  0.07325622  1
  Pr3+  Pr25  1  0.12144674  -0.01825041  0.93700415  1
  Nd3+  Nd26  1  0.62316903  0.23077103  0.93140078  1
  Nd3+  Nd27  1  0.13073677  0.25717215  0.42802177  1
  Nd3+  Nd28  1  0.25171268  0.85898673  0.06830821  1
  Nd3+  Nd29  1  0.75201575  0.11093913  0.06366942  1
  Nd3+  Nd30  1  0.62861039  0.47733445  0.93079323  1
  Nd3+  Nd31  1  0.75018152  0.85390618  0.06139221  1
  Nd3+  Nd32  1  0.00600986  0.88147885  0.55847899  1
  Nd3+  Nd33  1  0.50087976  0.63179104  0.56414213  1
  Nd3+  Nd34  1  0.25226684  0.35368566  0.04852581  1
  Nd3+  Nd35  1  0.50087539  0.61075745  0.07242862  1
  Nd3+  Nd36  1  0.12983305  0.75737676  0.43666067  1
  Nd3+  Nd37  1  0.87507703  0.25625639  0.44292695  1
  Nd3+  Nd38  1  0.38136542  0.25640048  0.42988116  1
  Nd3+  Nd39  1  0.75325483  0.62950009  0.56345307  1
  Nd3+  Nd40  1  0.25013117  0.10902407  0.05737607  1
  Nd3+  Nd41  1  0.87451875  0.72787247  0.95002507  1
  Nd3+  Nd42  1  0.75601369  0.13942567  0.56807738  1
  Nd3+  Nd43  1  0.75493438  0.38777691  0.56868704  1
  Nd3+  Nd44  1  0.50423193  0.88433218  0.56299622  1
  Sm3+  Sm45  1  0.38121719  0.50226313  0.45107308  1
  Sm3+  Sm46  1  0.88063130  0.23149392  0.94912605  1
  Sm3+  Sm47  1  0.62547965  -0.01484324  0.94022945  1
  Sm3+  Sm48  1  0.37899725  0.73459483  0.94793386  1
  Sm3+  Sm49  1  0.25284314  0.60479897  0.05447106  1
  Sm3+  Sm50  1  0.62746093  0.25702144  0.44822285  1
  Sm3+  Sm51  1  0.25162155  0.88597397  0.54628559  1
  Sm3+  Sm52  1  0.00590825  0.38213544  0.54839571  1
  Sm3+  Sm53  1  0.37987114  0.48216495  0.93949755  1
  Sm3+  Sm54  1  0.00443445  0.36089348  0.06224278  1
  Sm3+  Sm55  1  0.50175635  0.35648908  0.05396305  1
  Sm3+  Sm56  1  0.25467638  0.12617909  0.54660741  1
  Sm3+  Sm57  1  0.62390150  0.72867322  0.94686967  1
  Sm3+  Sm58  1  0.00628141  0.62952535  0.55271446  1
  Sm3+  Sm59  1  0.62711708  0.00719702  0.43912028  1
  Sm3+  Sm60  1  0.13046437  0.48216288  0.93341806  1
  Sm3+  Sm61  1  0.87719819  -0.01954709  0.95343625  1
  Sm3+  Sm62  1  0.75029043  0.36127102  0.05732470  1
  Sm3+  Sm63  1  0.25407009  0.36620610  0.56934322  1
  Bi2+  Bi64  1  -0.03909793  0.14206751  0.29111804  1
  Bi2+  Bi65  1  -0.00312266  0.13080276  0.78736776  1
  Bi2+  Bi66  1  -0.00559115  0.33737728  0.27883785  1
  Bi2+  Bi67  1  0.00645480  0.38664580  0.75460315  1
  Bi2+  Bi68  1  0.03971591  0.60658397  0.28047672  1
  Bi2+  Bi69  1  -0.02666711  0.65247169  0.78816191  1
  Bi2+  Bi70  1  -0.00509745  0.86077743  0.29700694  1
  Bi2+  Bi71  1  -0.00487172  0.87877626  0.80013812  1
  Bi2+  Bi72  1  0.21860754  0.18906542  0.26930328  1
  Bi2+  Bi73  1  0.21467840  0.12309748  0.76473923  1
  Bi2+  Bi74  1  0.26229927  0.35570828  0.31830837  1
  Bi2+  Bi75  1  0.23644960  0.39010933  0.78607711  1
  Bi2+  Bi76  1  0.27172151  0.54287924  0.27508672  1
  Bi2+  Bi77  1  0.23160079  0.72028807  0.82096054  1
  Bi2+  Bi78  1  0.25829688  0.80830885  0.29811718  1
  Bi2+  Bi79  1  0.23819900  0.85852243  0.73769610  1
  Bi2+  Bi80  1  0.48092811  0.17014096  0.27337718  1
  Bi2+  Bi81  1  0.48074234  0.11801117  0.78773880  1
  Bi2+  Bi82  1  0.46026403  0.35431205  0.30993289  1
  Bi2+  Bi83  1  0.52969361  0.41254612  0.78982803  1
  Bi2+  Bi84  1  0.50925776  0.57487833  0.28127071  1
  Bi2+  Bi85  1  0.50884381  0.69419513  0.79880703  1
  Bi2+  Bi86  1  0.50936815  0.84704651  0.31044419  1
  Bi2+  Bi87  1  0.48414971  0.91254267  0.78738479  1
  Bi2+  Bi88  1  0.71757971  0.15691066  0.29496520  1
  Bi2+  Bi89  1  0.73231623  0.12342786  0.78728458  1
  Bi2+  Bi90  1  0.73443621  0.36604460  0.28869191  1
  Bi2+  Bi91  1  0.73682179  0.41649131  0.77689576  1
  Bi2+  Bi92  1  0.77428636  0.63325637  0.30375815  1
  Bi2+  Bi93  1  0.77225460  0.64611921  0.81526927  1
  Bi2+  Bi94  1  0.76519462  0.92809166  0.27789090  1
  Bi2+  Bi95  1  0.68203500  0.92054393  0.80769164  1
  Bi2+  Bi96  1  0.14332760  0.00960029  0.21712554  1
  Bi2+  Bi97  1  0.10372863  0.00900517  0.69335770  1
  Bi2+  Bi98  1  0.07397403  0.26311302  0.18625807  1
  Bi2+  Bi99  1  0.11857740  0.27394548  0.68444694  1
  Bi2+  Bi100  1  0.12907853  0.46924980  0.20451953  1
  Bi2+  Bi101  1  0.14524296  0.57041802  0.77022463  1
  Bi2+  Bi102  1  0.13046959  0.74375506  0.19628914  1
  Bi2+  Bi103  1  0.08423615  0.74515490  0.69664583  1
  Bi2+  Bi104  1  0.36205598  -0.02477542  0.21315627  1
  Bi2+  Bi105  1  0.35530236  0.01683317  0.71410909  1
  Bi2+  Bi106  1  0.35421491  0.29152412  0.20988299  1
  Bi2+  Bi107  1  0.37046150  0.30166059  0.69724596  1
  Bi2+  Bi108  1  0.40523237  0.49342571  0.19091643  1
  Bi2+  Bi109  1  0.35130734  0.59361719  0.76327547  1
  Bi2+  Bi110  1  0.37819945  0.68461863  0.22167466  1
  Bi2+  Bi111  1  0.36655608  0.73682080  0.68443917  1
  Bi2+  Bi112  1  0.62024443  0.00277658  0.21923861  1
  Bi2+  Bi113  1  0.60941154  -0.01346122  0.70150854  1
  Bi2+  Bi114  1  0.62174995  0.25174500  0.20464289  1
  Bi2+  Bi115  1  0.63306941  0.25942964  0.69838903  1
  Bi2+  Bi116  1  0.60259488  0.44768456  0.21415513  1
  Bi2+  Bi117  1  0.67820477  0.59828531  0.71748211  1
  Bi2+  Bi118  1  0.62739868  0.73764069  0.20656643  1
  Bi2+  Bi119  1  0.55498707  0.79502802  0.68876904  1
  Bi2+  Bi120  1  0.83727296  0.06730091  0.20985914  1
  Bi2+  Bi121  1  0.85026928  -0.02318732  0.75323748  1
  Bi2+  Bi122  1  0.85756828  0.26269023  0.19795151  1
  Bi2+  Bi123  1  0.85189414  0.26329782  0.74762365  1
  Bi2+  Bi124  1  0.87315794  0.45562109  0.21779980  1
  Bi2+  Bi125  1  0.89523720  0.52700953  0.70919807  1
  Bi2+  Bi126  1  0.87353226  0.80428762  0.21644993  1
  Bi2+  Bi127  1  0.76608150  0.77211287  0.72242542  1
  S2-  S128  1  0.03786019  0.10026663  0.16417421  1
  S2-  S129  1  0.00834673  0.13963803  0.65984551  1
  S2-  S130  1  -0.00765935  0.46904812  0.14054555  1
  S2-  S131  1  0.00781216  0.38251984  0.64591108  1
  S2-  S132  1  -0.01517688  0.71243413  0.15128429  1
  S2-  S133  1  -0.02081847  0.63721707  0.64890865  1
  S2-  S134  1  0.05664277  0.89723999  0.17087695  1
  S2-  S135  1  0.00118927  0.88529933  0.65735050  1
  S2-  S136  1  0.27310373  0.08325588  0.15756441  1
  S2-  S137  1  0.25869901  0.20940886  0.63310821  1
  S2-  S138  1  0.21999502  0.34971778  0.14720960  1
  S2-  S139  1  0.24397103  0.40693368  0.66588362  1
  S2-  S140  1  0.17269496  0.60547345  0.14064096  1
  S2-  S141  1  0.22270941  0.65335464  0.65575719  1
  S2-  S142  1  0.26721599  0.84535726  0.16798586  1
  S2-  S143  1  0.24421048  0.94457005  0.63799066  1
  S2-  S144  1  0.48506848  -0.01369384  0.15202825  1
  S2-  S145  1  0.48731769  0.22767989  0.64321989  1
  S2-  S146  1  0.48426619  0.26292334  0.13749524  1
  S2-  S147  1  0.50002625  0.40799202  0.68148200  1
  S2-  S148  1  0.60554110  0.59363072  0.15113493  1
  S2-  S149  1  0.53186467  0.62806915  0.66158083  1
  S2-  S150  1  0.48240018  0.74764752  0.15245622  1
  S2-  S151  1  0.47303684  1.00070985  0.63440634  1
  S2-  S152  1  0.65125159  0.11151945  0.14355272  1
  S2-  S153  1  0.67919867  0.11188743  0.65481188  1
  S2-  S154  1  0.75481228  0.44029931  0.14440335  1
  S2-  S155  1  0.77316411  0.28778477  0.65118652  1
  S2-  S156  1  0.78393987  0.66178153  0.19623066  1
  S2-  S157  1  0.76590164  0.51681321  0.63882212  1
  S2-  S158  1  0.66813495  0.86484174  0.14855296  1
  S2-  S159  1  0.73358843  0.87933638  0.64797562  1
  S2-  S160  1  0.14613729  -0.06111832  0.31557290  1
  S2-  S161  1  0.12138506  0.07632305  0.84817768  1
  S2-  S162  1  0.11349986  0.15741461  0.34696240  1
  S2-  S163  1  0.25208347  0.24497932  0.83627328  1
  S2-  S164  1  0.13741716  0.50609563  0.34157985  1
  S2-  S165  1  0.09776556  0.40053319  0.84872087  1
  S2-  S166  1  0.11364716  0.73268390  0.33907096  1
  S2-  S167  1  0.12190530  0.85567314  0.86338813  1
  S2-  S168  1  0.35752917  -0.06356428  0.31744771  1
  S2-  S169  1  0.38091249  0.05738733  0.85849708  1
  S2-  S170  1  0.37848041  0.15032429  0.34926160  1
  S2-  S171  1  0.46481996  0.26921050  0.82875248  1
  S2-  S172  1  0.48063133  0.49849736  0.37001404  1
  S2-  S173  1  0.33957208  0.48248819  0.84345404  1
  S2-  S174  1  0.38999596  0.73111590  0.34695872  1
  S2-  S175  1  0.38992544  0.78620381  0.85435092  1
  S2-  S176  1  0.54845725  -0.01192422  0.35328782  1
  S2-  S177  1  0.62391845  0.09893818  0.86390602  1
  S2-  S178  1  0.60258879  0.25681427  0.35090584  1
  S2-  S179  1  0.64875955  0.35212002  0.85672005  1
  S2-  S180  1  0.72278671  0.49815474  0.35653213  1
  S2-  S181  1  0.55601575  0.54284232  0.84709932  1
  S2-  S182  1  0.63817717  0.73491092  0.33957469  1
  S2-  S183  1  0.64341794  0.76029300  0.85046548  1
  S2-  S184  1  0.95481667  0.00159686  0.35229036  1
  S2-  S185  1  0.90013592  -0.01032479  0.85670550  1
  S2-  S186  1  0.85184244  0.25308307  0.34524929  1
  S2-  S187  1  0.94779173  0.23214865  0.85889436  1
  S2-  S188  1  0.91759236  0.54712925  0.33260188  1
  S2-  S189  1  0.84105225  0.49100003  0.84566701  1
  S2-  S190  1  0.87440918  0.75666864  0.34402784  1
  S2-  S191  1  0.89577124  0.76417090  0.85348980  1
  S2-  S192  1  0.00207277  0.13500777  0.45340663  1
  S2-  S193  1  -0.00039712  0.10556243  0.96061507  1
  S2-  S194  1  0.00166827  0.38074185  0.44256612  1
  S2-  S195  1  0.00313128  0.35888826  0.95878512  1
  S2-  S196  1  0.00452641  0.62975725  0.44874726  1
  S2-  S197  1  0.00583774  0.60621937  0.95123201  1
  S2-  S198  1  0.00423843  0.87949865  0.45194143  1
  S2-  S199  1  -0.00520709  0.85498731  0.96828179  1
  S2-  S200  1  0.25049613  0.13048797  0.44463118  1
  S2-  S201  1  0.24531493  0.10739806  0.95366707  1
  S2-  S202  1  0.25656330  0.37975907  0.45714727  1
  S2-  S203  1  0.25263413  0.35916871  0.94530511  1
  S2-  S204  1  0.25780011  0.62928729  0.45143266  1
  S2-  S205  1  0.25418266  0.60732230  0.95031180  1
  S2-  S206  1  0.24952085  0.88742741  0.44120752  1
  S2-  S207  1  0.25513034  0.85819321  0.96125774  1
  S2-  S208  1  0.50717753  0.13230830  0.45453083  1
  S2-  S209  1  0.50259105  0.10608526  0.96382282  1
  S2-  S210  1  0.50181371  0.37462211  0.46613855  1
  S2-  S211  1  0.49611030  0.35631258  0.95098574  1
  S2-  S212  1  0.49956016  0.63443619  0.45929841  1
  S2-  S213  1  0.49827673  0.60904699  0.96138396  1
  S2-  S214  1  0.50535779  0.88140811  0.45714081  1
  S2-  S215  1  0.50625541  0.85762969  0.96060395  1
  S2-  S216  1  0.75060607  0.13145312  0.45700891  1
  S2-  S217  1  0.75760072  0.10805218  0.95898885  1
  S2-  S218  1  0.75151703  0.37946734  0.46063305  1
  S2-  S219  1  0.75854618  0.35362536  0.95558195  1
  S2-  S220  1  0.74994269  0.63097958  0.45814541  1
  S2-  S221  1  0.74764198  0.60523280  0.95140448  1
  S2-  S222  1  0.75099583  0.88195195  0.44454426  1
  S2-  S223  1  0.75059784  0.85732558  0.95627444  1
  S2-  S224  1  0.12571818  -0.02011299  0.04971056  1
  S2-  S225  1  0.12709813  0.00664690  0.53500804  1
  S2-  S226  1  0.12400252  0.23379133  0.04876669  1
  S2-  S227  1  0.12900488  0.25694501  0.53464194  1
  S2-  S228  1  0.13018205  0.47989121  0.03717201  1
  S2-  S229  1  0.13124230  0.50336948  0.54758709  1
  S2-  S230  1  0.13082768  0.73115461  0.04361394  1
  S2-  S231  1  0.12975658  0.75681551  0.54281288  1
  S2-  S232  1  0.37493440  -0.01800997  0.04968275  1
  S2-  S233  1  0.37422605  0.00495485  0.52852520  1
  S2-  S234  1  0.37408792  0.23124679  0.03811573  1
  S2-  S235  1  0.37585248  0.25212847  0.53562881  1
  S2-  S236  1  0.37756934  0.48166661  0.04558124  1
  S2-  S237  1  0.37717736  0.50001508  0.55560986  1
  S2-  S238  1  0.37289792  0.73118386  0.05058511  1
  S2-  S239  1  0.37710952  0.76186925  0.54809708  1
  S2-  S240  1  0.63261213  -0.01464620  0.04251580  1
  S2-  S241  1  0.63294913  0.00696558  0.54216374  1
  S2-  S242  1  0.63084119  0.23885601  0.03958490  1
  S2-  S243  1  0.63136168  0.25880974  0.55006272  1
  S2-  S244  1  0.62427767  0.48025435  0.04088697  1
  S2-  S245  1  0.62080999  0.50528054  0.54826960  1
  S2-  S246  1  0.63117558  0.72552908  0.04898779  1
  S2-  S247  1  0.62713105  0.75428289  0.54609819  1
  S2-  S248  1  0.87498371  -0.01917011  0.05938018  1
  S2-  S249  1  0.87896488  0.00832323  0.54943181  1
  S2-  S250  1  0.87772098  0.23814839  0.05380055  1
  S2-  S251  1  0.88327462  0.25897527  0.54716633  1
  S2-  S252  1  0.87595128  0.48528310  0.04411689  1
  S2-  S253  1  0.88488302  0.50741020  0.53706795  1
  S2-  S254  1  0.86831443  0.72143643  0.05359000  1
  S2-  S255  1  0.88024295  0.75400678  0.54773146  1
