# generated using pymatgen
data_La6Ce7Pr13Nd19Sm19(BiS2)64
_symmetry_space_group_name_H-M   'P 1'
_cell_length_a   16.07664032
_cell_length_b   16.09973802
_cell_length_c   27.25045682
_cell_angle_alpha   89.89447503
_cell_angle_beta   90.05803199
_cell_angle_gamma   90.12981088
_symmetry_Int_Tables_number   1
_chemical_formula_structural   La6Ce7Pr13Nd19Sm19(BiS2)64
_chemical_formula_sum   'La6 Ce7 Pr13 Nd19 Sm19 Bi64 S128'
_cell_volume   7053.19384061
_cell_formula_units_Z   1
loop_
 _symmetry_equiv_pos_site_id
 _symmetry_equiv_pos_as_xyz
  1  'x, y, z'
loop_
 _atom_type_symbol
 _atom_type_oxidation_number
  La3+  3.0
  Ce3+  3.0
  Pr3+  3.0
  Nd3+  3.0
  Sm3+  3.0
  Bi2+  2.0
  S2-  -2.0
loop_
 _atom_site_type_symbol
 _atom_site_label
 _atom_site_symmetry_multiplicity
 _atom_site_fract_x
 _atom_site_fract_y
 _atom_site_fract_z
 _atom_site_occupancy
  La3+  La0  1  0.36575488  0.24294328  0.92614136  1
  La3+  La1  1  0.89135484  -0.01390721  0.38768381  1
  La3+  La2  1  0.88540511  -0.00123608  0.89150221  1
  La3+  La3  1  -0.00521859  0.63978806  0.11355528  1
  La3+  La4  1  0.26027746  0.85819382  0.58140024  1
  La3+  La5  1  0.00974595  0.85482496  0.59446119  1
  Ce3+  Ce6  1  0.62809835  0.75205067  0.94503496  1
  Ce3+  Ce7  1  0.12511201  0.74374226  0.44578850  1
  Ce3+  Ce8  1  0.25358083  0.36387739  0.55695591  1
  Ce3+  Ce9  1  0.24867258  0.87047580  0.05824983  1
  Ce3+  Ce10  1  0.24746665  0.62540653  0.06008950  1
  Ce3+  Ce11  1  0.50543366  0.61448082  0.56156450  1
  Ce3+  Ce12  1  0.12582500  0.23342761  0.44079171  1
  Pr3+  Pr13  1  0.74558292  0.87346335  0.07654050  1
  Pr3+  Pr14  1  0.25981368  0.12226842  0.07344874  1
  Pr3+  Pr15  1  0.49750577  0.87423443  0.06422517  1
  Pr3+  Pr16  1  0.61673684  0.25272688  0.93850761  1
  Pr3+  Pr17  1  0.88540002  0.48609586  0.41696339  1
  Pr3+  Pr18  1  0.88148607  0.74033604  0.43437643  1
  Pr3+  Pr19  1  0.62792237  0.73884205  0.43055362  1
  Pr3+  Pr20  1  0.62769796  0.48792785  0.43680637  1
  Pr3+  Pr21  1  0.62808327  -0.01121223  0.43233423  1
  Pr3+  Pr22  1  0.00520973  0.87338722  0.06791492  1
  Pr3+  Pr23  1  0.13264346  0.49015678  0.43147258  1
  Pr3+  Pr24  1  -0.00503632  0.60537105  0.57170928  1
  Pr3+  Pr25  1  0.62312607  0.50018831  0.93942740  1
  Nd3+  Nd26  1  0.87835819  0.23101123  0.44367800  1
  Nd3+  Nd27  1  0.49494378  0.37180657  0.06960513  1
  Nd3+  Nd28  1  0.74827910  0.62128603  0.07005299  1
  Nd3+  Nd29  1  0.75424869  0.11018680  0.56268629  1
  Nd3+  Nd30  1  0.75934232  0.86176624  0.55359834  1
  Nd3+  Nd31  1  0.87372794  0.74621498  0.94250941  1
  Nd3+  Nd32  1  0.12366418  0.49919483  0.94193521  1
  Nd3+  Nd33  1  0.75205265  0.12539644  0.06678898  1
  Nd3+  Nd34  1  0.00696039  0.10933384  0.56549435  1
  Nd3+  Nd35  1  0.50292863  0.10898106  0.56381961  1
  Nd3+  Nd36  1  0.12135472  0.24524629  0.94425411  1
  Nd3+  Nd37  1  0.00247797  0.12118306  0.06389402  1
  Nd3+  Nd38  1  0.50671056  0.85660013  0.56567050  1
  Nd3+  Nd39  1  0.12166114  -0.00512829  0.94175937  1
  Nd3+  Nd40  1  0.00518302  0.37935705  0.07309004  1
  Nd3+  Nd41  1  0.37782138  0.23545641  0.44380489  1
  Nd3+  Nd42  1  0.75327398  0.37545781  0.05636835  1
  Nd3+  Nd43  1  0.24954466  0.37369047  0.06668400  1
  Nd3+  Nd44  1  0.87708595  0.50284045  0.94008970  1
  Sm3+  Sm45  1  0.49971114  0.12421372  0.05541822  1
  Sm3+  Sm46  1  0.00417494  0.36484673  0.55716936  1
  Sm3+  Sm47  1  0.37425630  0.48939776  0.43656447  1
  Sm3+  Sm48  1  0.12152314  0.74868775  0.93916686  1
  Sm3+  Sm49  1  0.38224453  -0.01344478  0.43405614  1
  Sm3+  Sm50  1  0.63485182  0.00039969  0.94404745  1
  Sm3+  Sm51  1  0.25362975  0.10982055  0.55247921  1
  Sm3+  Sm52  1  0.50359598  0.36485020  0.55285627  1
  Sm3+  Sm53  1  0.62803326  0.23780831  0.44467909  1
  Sm3+  Sm54  1  0.37619309  0.74940336  0.93976203  1
  Sm3+  Sm55  1  0.87490310  0.24605730  0.94499184  1
  Sm3+  Sm56  1  0.25130432  0.61309379  0.56028465  1
  Sm3+  Sm57  1  0.75936022  0.61185799  0.54677261  1
  Sm3+  Sm58  1  0.75439664  0.36324457  0.55232420  1
  Sm3+  Sm59  1  0.37710128  0.74020443  0.44133967  1
  Sm3+  Sm60  1  0.12594480  -0.01543773  0.44634165  1
  Sm3+  Sm61  1  0.37364871  0.49958358  0.94640939  1
  Sm3+  Sm62  1  0.37479952  -0.00281731  0.93680001  1
  Sm3+  Sm63  1  0.50395823  0.62312201  0.06308952  1
  Bi2+  Bi64  1  0.01078436  0.14751198  0.29093336  1
  Bi2+  Bi65  1  0.01285898  0.22665241  0.80925297  1
  Bi2+  Bi66  1  -0.03432872  0.34673586  0.28250384  1
  Bi2+  Bi67  1  -0.06598653  0.40054736  0.82853735  1
  Bi2+  Bi68  1  0.01071784  0.63203531  0.32070744  1
  Bi2+  Bi69  1  -0.00597359  0.57067049  0.78373544  1
  Bi2+  Bi70  1  0.04272232  0.87373633  0.29275162  1
  Bi2+  Bi71  1  0.02455403  0.87157996  0.79396949  1
  Bi2+  Bi72  1  0.33044388  0.11225927  0.29222222  1
  Bi2+  Bi73  1  0.25485799  0.14757966  0.78061831  1
  Bi2+  Bi74  1  0.29814524  0.38255703  0.28500633  1
  Bi2+  Bi75  1  0.20191838  0.39439492  0.80131275  1
  Bi2+  Bi76  1  0.28422456  0.63471544  0.29135549  1
  Bi2+  Bi77  1  0.27692846  0.57085897  0.77078576  1
  Bi2+  Bi78  1  0.26532160  0.93074767  0.28624823  1
  Bi2+  Bi79  1  0.31158940  0.88290846  0.78335936  1
  Bi2+  Bi80  1  0.53065935  0.12436797  0.29332243  1
  Bi2+  Bi81  1  0.49925674  0.14619330  0.79589468  1
  Bi2+  Bi82  1  0.49800926  0.41128466  0.29378485  1
  Bi2+  Bi83  1  0.48644880  0.40027216  0.78033064  1
  Bi2+  Bi84  1  0.48534989  0.60997596  0.29352620  1
  Bi2+  Bi85  1  0.47567507  0.63909419  0.79907579  1
  Bi2+  Bi86  1  0.45945363  0.87660986  0.27920746  1
  Bi2+  Bi87  1  0.50074565  0.93961513  0.79351875  1
  Bi2+  Bi88  1  0.73455818  0.14581077  0.25018472  1
  Bi2+  Bi89  1  0.74373869  0.11727131  0.78643272  1
  Bi2+  Bi90  1  0.74574972  0.33138095  0.28726330  1
  Bi2+  Bi91  1  0.74979795  0.36510329  0.78891375  1
  Bi2+  Bi92  1  0.68268417  0.61986913  0.29107091  1
  Bi2+  Bi93  1  0.73892732  0.59963598  0.80017447  1
  Bi2+  Bi94  1  0.70570664  0.90274529  0.27280064  1
  Bi2+  Bi95  1  0.75953188  0.86464109  0.79089440  1
  Bi2+  Bi96  1  0.13720856  0.01893763  0.20602178  1
  Bi2+  Bi97  1  0.13044833  0.04708190  0.71293474  1
  Bi2+  Bi98  1  0.14556091  0.27795346  0.23736530  1
  Bi2+  Bi99  1  0.09561242  0.30071780  0.71259580  1
  Bi2+  Bi100  1  0.11845962  0.50001283  0.20868967  1
  Bi2+  Bi101  1  0.12543870  0.49829129  0.70603770  1
  Bi2+  Bi102  1  0.22301684  0.76923840  0.21549233  1
  Bi2+  Bi103  1  0.15679237  0.75062445  0.71627665  1
  Bi2+  Bi104  1  0.35634820  -0.09462266  0.17355820  1
  Bi2+  Bi105  1  0.36959319  0.03091222  0.70779664  1
  Bi2+  Bi106  1  0.39000885  0.24143508  0.21156594  1
  Bi2+  Bi107  1  0.33111248  0.30496870  0.72922336  1
  Bi2+  Bi108  1  0.36151583  0.51619639  0.20423817  1
  Bi2+  Bi109  1  0.42064002  0.52387456  0.69400043  1
  Bi2+  Bi110  1  0.38720598  0.70558748  0.15981874  1
  Bi2+  Bi111  1  0.39943705  0.76663064  0.70441439  1
  Bi2+  Bi112  1  0.51783537  0.01331478  0.19745970  1
  Bi2+  Bi113  1  0.60433951  0.02798908  0.70784904  1
  Bi2+  Bi114  1  0.58455383  0.28507061  0.20882562  1
  Bi2+  Bi115  1  0.62235006  0.31067056  0.70903774  1
  Bi2+  Bi116  1  0.55446484  0.47540004  0.18819970  1
  Bi2+  Bi117  1  0.60573452  0.58094441  0.71537641  1
  Bi2+  Bi118  1  0.56136937  0.74162101  0.20949584  1
  Bi2+  Bi119  1  0.59852250  0.77609797  0.74913946  1
  Bi2+  Bi120  1  0.88793699  -0.02315705  0.18468903  1
  Bi2+  Bi121  1  0.84628292  -0.00858198  0.67997059  1
  Bi2+  Bi122  1  0.86198918  0.26865524  0.19862504  1
  Bi2+  Bi123  1  0.89841280  0.28263509  0.72077042  1
  Bi2+  Bi124  1  0.84841062  0.49466015  0.22319495  1
  Bi2+  Bi125  1  0.86186397  0.47749679  0.70911238  1
  Bi2+  Bi126  1  0.86995146  0.74287318  0.23059172  1
  Bi2+  Bi127  1  0.86416149  0.72810562  0.69994682  1
  S2-  S128  1  -0.00065822  0.10107659  0.16417939  1
  S2-  S129  1  -0.00820007  0.09348664  0.66496671  1
  S2-  S130  1  -0.02602325  0.47592882  0.15575107  1
  S2-  S131  1  -0.00396510  0.46501177  0.63633875  1
  S2-  S132  1  0.01715006  0.64173670  0.22488680  1
  S2-  S133  1  0.02217807  0.70227205  0.65508804  1
  S2-  S134  1  -0.03301493  0.81702065  0.16258185  1
  S2-  S135  1  -0.04396226  0.87502641  0.69331691  1
  S2-  S136  1  0.20630789  0.15124181  0.17071599  1
  S2-  S137  1  0.24149275  0.11574615  0.65032470  1
  S2-  S138  1  0.13786281  0.36421057  0.14762579  1
  S2-  S139  1  0.24288480  0.37877468  0.65393289  1
  S2-  S140  1  0.16561966  0.61887959  0.14682780  1
  S2-  S141  1  0.26251218  0.70237539  0.64620812  1
  S2-  S142  1  0.15657604  0.87745098  0.14189189  1
  S2-  S143  1  0.15346984  0.88877361  0.66205343  1
  S2-  S144  1  0.40957299  0.11855702  0.13848373  1
  S2-  S145  1  0.49300086  0.13283786  0.66243379  1
  S2-  S146  1  0.36949369  0.36254711  0.14092801  1
  S2-  S147  1  0.50031939  0.37821096  0.64994880  1
  S2-  S148  1  0.61538058  0.62104761  0.14204883  1
  S2-  S149  1  0.52405112  0.72653884  0.63573911  1
  S2-  S150  1  0.59459424  0.88327484  0.14740157  1
  S2-  S151  1  0.39914532  0.90193911  0.64175949  1
  S2-  S152  1  0.74224634  0.07462895  0.16316462  1
  S2-  S153  1  0.72847839  0.12516266  0.66167045  1
  S2-  S154  1  0.76296581  0.39346320  0.15511963  1
  S2-  S155  1  0.74681640  0.37465864  0.64976867  1
  S2-  S156  1  0.83296569  0.62545780  0.15855248  1
  S2-  S157  1  0.82617069  0.60908660  0.63686145  1
  S2-  S158  1  0.77210446  0.84161012  0.17904960  1
  S2-  S159  1  0.75948084  0.84284465  0.65385888  1
  S2-  S160  1  0.06537923  0.00047413  0.35310135  1
  S2-  S161  1  0.05314765  0.00307750  0.85061122  1
  S2-  S162  1  0.13120543  0.23357915  0.34305923  1
  S2-  S163  1  0.21844390  0.25363997  0.86126708  1
  S2-  S164  1  0.02757799  0.46794261  0.35102527  1
  S2-  S165  1  0.13158399  0.54621119  0.84438330  1
  S2-  S166  1  0.13729246  0.74516923  0.34712954  1
  S2-  S167  1  0.12741524  0.77974187  0.84025519  1
  S2-  S168  1  0.49744128  -0.01401145  0.35972054  1
  S2-  S169  1  0.36476313  0.09728775  0.85713122  1
  S2-  S170  1  0.37351319  0.25084074  0.34552653  1
  S2-  S171  1  0.47779676  0.28813538  0.85245134  1
  S2-  S172  1  0.26400671  0.50074660  0.35927169  1
  S2-  S173  1  0.38621958  0.50703245  0.84839228  1
  S2-  S174  1  0.39777942  0.74331958  0.34339878  1
  S2-  S175  1  0.36807323  0.75517859  0.84206784  1
  S2-  S176  1  0.72583046  -0.00600700  0.34755320  1
  S2-  S177  1  0.71432350  -0.01349972  0.85682076  1
  S2-  S178  1  0.63887106  0.22246963  0.34730943  1
  S2-  S179  1  0.64101122  0.18453022  0.84649739  1
  S2-  S180  1  0.65344021  0.46311542  0.33876837  1
  S2-  S181  1  0.63877406  0.46787259  0.84101362  1
  S2-  S182  1  0.66753997  0.77390539  0.33338760  1
  S2-  S183  1  0.66509171  0.74093037  0.84973135  1
  S2-  S184  1  0.89534296  -0.04172739  0.28013123  1
  S2-  S185  1  0.87080838  -0.00002182  0.77788412  1
  S2-  S186  1  0.88728856  0.15662308  0.35400767  1
  S2-  S187  1  0.86532653  0.16774506  0.85741522  1
  S2-  S188  1  0.84591427  0.56865134  0.32599929  1
  S2-  S189  1  0.86764989  0.61465846  0.85953192  1
  S2-  S190  1  0.91022721  0.77997558  0.33677128  1
  S2-  S191  1  0.88750626  0.83132244  0.85378178  1
  S2-  S192  1  0.00308914  0.10840401  0.45979678  1
  S2-  S193  1  -0.00366754  0.12048137  0.95829828  1
  S2-  S194  1  0.00274060  0.35748546  0.45365468  1
  S2-  S195  1  0.00056176  0.37143076  0.96107424  1
  S2-  S196  1  0.00391229  0.61216666  0.45380250  1
  S2-  S197  1  0.00369101  0.62555360  0.95153698  1
  S2-  S198  1  -0.00007015  0.86954353  0.45096599  1
  S2-  S199  1  0.00010568  0.87249094  0.95957724  1
  S2-  S200  1  0.25429660  0.10760277  0.44730570  1
  S2-  S201  1  0.24574207  0.11652340  0.96187099  1
  S2-  S202  1  0.25360020  0.35958832  0.45229118  1
  S2-  S203  1  0.24933641  0.37743069  0.95915532  1
  S2-  S204  1  0.25494294  0.61904713  0.45714961  1
  S2-  S205  1  0.25124707  0.62673899  0.95103109  1
  S2-  S206  1  0.25693140  0.86645750  0.45000997  1
  S2-  S207  1  0.25132032  0.87236996  0.94947223  1
  S2-  S208  1  0.50409247  0.11576471  0.45705168  1
  S2-  S209  1  0.50277555  0.11729717  0.95313787  1
  S2-  S210  1  0.50025215  0.36369089  0.44804110  1
  S2-  S211  1  0.49601800  0.37851115  0.96176450  1
  S2-  S212  1  0.50022097  0.61285305  0.45054430  1
  S2-  S213  1  0.49867307  0.62564821  0.95607085  1
  S2-  S214  1  0.50292832  0.85951374  0.45754503  1
  S2-  S215  1  0.50103792  0.87692162  0.95126174  1
  S2-  S216  1  0.74943510  0.11465708  0.45806370  1
  S2-  S217  1  0.74690417  0.13004199  0.96217689  1
  S2-  S218  1  0.75528238  0.36101612  0.44679045  1
  S2-  S219  1  0.75201467  0.37246114  0.95031901  1
  S2-  S220  1  0.75517500  0.61203836  0.44320315  1
  S2-  S221  1  0.74675680  0.62190572  0.96220852  1
  S2-  S222  1  0.75732239  0.86534320  0.44795705  1
  S2-  S223  1  0.75117830  0.87414264  0.96527653  1
  S2-  S224  1  0.12901977  0.00250248  0.04760675  1
  S2-  S225  1  0.13050078  -0.01557628  0.54986739  1
  S2-  S226  1  0.12676978  0.24394162  0.04848491  1
  S2-  S227  1  0.12837981  0.23764596  0.54919590  1
  S2-  S228  1  0.12550189  0.49930365  0.04609190  1
  S2-  S229  1  0.13033600  0.48920063  0.54054416  1
  S2-  S230  1  0.12270732  0.74522336  0.04428807  1
  S2-  S231  1  0.12880338  0.73769189  0.54875600  1
  S2-  S232  1  0.37636160  -0.00354162  0.03961613  1
  S2-  S233  1  0.37795365  -0.00997344  0.53802715  1
  S2-  S234  1  0.37607346  0.24662613  0.03723436  1
  S2-  S235  1  0.37937076  0.23729979  0.55050378  1
  S2-  S236  1  0.37647506  0.50407530  0.04962981  1
  S2-  S237  1  0.37828984  0.49028529  0.54205317  1
  S2-  S238  1  0.37702867  0.74765761  0.04296019  1
  S2-  S239  1  0.37839045  0.73456863  0.54311413  1
  S2-  S240  1  0.62458728  0.00384922  0.04773351  1
  S2-  S241  1  0.62840851  -0.01459061  0.54790827  1
  S2-  S242  1  0.62338405  0.24981277  0.05096355  1
  S2-  S243  1  0.62714660  0.23963842  0.54976568  1
  S2-  S244  1  0.62204129  0.49256821  0.04554215  1
  S2-  S245  1  0.63124948  0.48847433  0.54481645  1
  S2-  S246  1  0.62343347  0.74971165  0.04756150  1
  S2-  S247  1  0.63731541  0.73447083  0.53666705  1
  S2-  S248  1  0.87425601  -0.00162573  0.06094033  1
  S2-  S249  1  0.88244100  -0.01445425  0.56039107  1
  S2-  S250  1  0.87918894  0.24984379  0.05152050  1
  S2-  S251  1  0.88001647  0.23888950  0.55184971  1
  S2-  S252  1  0.87602712  0.49993064  0.04540215  1
  S2-  S253  1  0.87639720  0.48214891  0.53042238  1
  S2-  S254  1  0.87459781  0.74649492  0.05152000  1
  S2-  S255  1  0.88351691  0.73937213  0.54189587  1
