# generated using pymatgen
data_La6Ce7Pr13Nd19Sm19(BiS2)64
_symmetry_space_group_name_H-M   'P 1'
_cell_length_a   16.10254418
_cell_length_b   16.11993246
_cell_length_c   27.21161303
_cell_angle_alpha   90.03180431
_cell_angle_beta   90.03181857
_cell_angle_gamma   90.08687797
_symmetry_Int_Tables_number   1
_chemical_formula_structural   La6Ce7Pr13Nd19Sm19(BiS2)64
_chemical_formula_sum   'La6 Ce7 Pr13 Nd19 Sm19 Bi64 S128'
_cell_volume   7063.36046489
_cell_formula_units_Z   1
loop_
 _symmetry_equiv_pos_site_id
 _symmetry_equiv_pos_as_xyz
  1  'x, y, z'
loop_
 _atom_type_symbol
 _atom_type_oxidation_number
  La3+  3.0
  Ce3+  3.0
  Pr3+  3.0
  Nd3+  3.0
  Sm3+  3.0
  Bi2+  2.0
  S2-  -2.0
loop_
 _atom_site_type_symbol
 _atom_site_label
 _atom_site_symmetry_multiplicity
 _atom_site_fract_x
 _atom_site_fract_y
 _atom_site_fract_z
 _atom_site_occupancy
  La3+  La0  1  0.62739901  0.50002962  0.90048152  1
  La3+  La1  1  0.89348038  0.49184885  0.42014127  1
  La3+  La2  1  0.35951533  0.50704213  0.91133326  1
  La3+  La3  1  0.73280367  0.88562847  0.09221394  1
  La3+  La4  1  0.62477101  0.24813044  0.43238780  1
  La3+  La5  1  -0.00690538  0.12396604  0.06549350  1
  Ce3+  Ce6  1  0.38611162  0.74794452  0.45286916  1
  Ce3+  Ce7  1  0.63698187  0.49978072  0.44290000  1
  Ce3+  Ce8  1  0.62593610  0.74753412  0.94480341  1
  Ce3+  Ce9  1  0.86711732  0.25208827  0.94429816  1
  Ce3+  Ce10  1  0.86584102  0.50300751  0.95138003  1
  Ce3+  Ce11  1  0.26114724  0.62193750  0.56649506  1
  Ce3+  Ce12  1  0.73531873  0.37836487  0.06504237  1
  Pr3+  Pr13  1  0.00348121  0.62114862  0.08246007  1
  Pr3+  Pr14  1  0.62064428  0.24717054  0.92721574  1
  Pr3+  Pr15  1  0.24660555  0.12609953  0.06557164  1
  Pr3+  Pr16  1  0.25694239  0.11733787  0.57075649  1
  Pr3+  Pr17  1  0.51754275  0.37165985  0.57884121  1
  Pr3+  Pr18  1  0.76712394  0.62574063  0.55535266  1
  Pr3+  Pr19  1  0.00541625  0.62457707  0.56276012  1
  Pr3+  Pr20  1  0.49427741  0.38095644  0.04875501  1
  Pr3+  Pr21  1  0.88932637  0.75748328  0.41277153  1
  Pr3+  Pr22  1  0.36969025  0.00076819  0.93496145  1
  Pr3+  Pr23  1  0.51885935  0.87342974  0.56852827  1
  Pr3+  Pr24  1  0.73436923  0.13005764  0.06965750  1
  Pr3+  Pr25  1  0.63094282  -0.00271590  0.92498078  1
  Nd3+  Nd26  1  -0.00771785  0.87306400  0.06633926  1
  Nd3+  Nd27  1  0.38661357  -0.00212994  0.44156962  1
  Nd3+  Nd28  1  0.00886385  0.37226993  0.56772434  1
  Nd3+  Nd29  1  0.76450262  0.37491758  0.56164919  1
  Nd3+  Nd30  1  0.49431065  0.62245673  0.05673237  1
  Nd3+  Nd31  1  0.13483070  0.00066280  0.44097810  1
  Nd3+  Nd32  1  0.76626127  0.87407693  0.56280684  1
  Nd3+  Nd33  1  0.13203821  0.74767829  0.44030872  1
  Nd3+  Nd34  1  0.76038644  0.12556902  0.56102751  1
  Nd3+  Nd35  1  0.86808675  -0.00005478  0.94664434  1
  Nd3+  Nd36  1  0.11512987  0.75088144  0.94494458  1
  Nd3+  Nd37  1  0.13639678  0.49703728  0.44734486  1
  Nd3+  Nd38  1  0.25071671  0.62363882  0.06257008  1
  Nd3+  Nd39  1  0.24670211  0.87637224  0.05525991  1
  Nd3+  Nd40  1  0.38819129  0.24786759  0.45112030  1
  Nd3+  Nd41  1  -0.00957680  0.37518133  0.06398393  1
  Nd3+  Nd42  1  0.50191828  0.11542683  0.59345986  1
  Nd3+  Nd43  1  0.51937839  0.62458291  0.56974345  1
  Nd3+  Nd44  1  0.63742593  0.74942019  0.43318311  1
  Sm3+  Sm45  1  0.00469192  0.87383632  0.55953489  1
  Sm3+  Sm46  1  0.49672947  0.87867472  0.04969172  1
  Sm3+  Sm47  1  0.63417160  -0.00019057  0.44499514  1
  Sm3+  Sm48  1  0.25172335  0.37098751  0.06352222  1
  Sm3+  Sm49  1  0.13827438  0.24768840  0.44259960  1
  Sm3+  Sm50  1  0.25806332  0.87312949  0.55775280  1
  Sm3+  Sm51  1  0.49694853  0.12610903  0.05186892  1
  Sm3+  Sm52  1  0.86951498  0.74811593  0.95859417  1
  Sm3+  Sm53  1  0.88288085  0.00036663  0.43583337  1
  Sm3+  Sm54  1  0.38701598  0.50030236  0.44838573  1
  Sm3+  Sm55  1  0.11956392  0.25156573  0.94532925  1
  Sm3+  Sm56  1  0.26177069  0.37237416  0.55988520  1
  Sm3+  Sm57  1  0.12046407  0.00068465  0.94425178  1
  Sm3+  Sm58  1  0.37135184  0.74779283  0.94109582  1
  Sm3+  Sm59  1  0.11811554  0.50252065  0.94483156  1
  Sm3+  Sm60  1  0.88367097  0.24750805  0.43893529  1
  Sm3+  Sm61  1  0.01076373  0.12447975  0.55300948  1
  Sm3+  Sm62  1  0.37001157  0.25307632  0.93249758  1
  Sm3+  Sm63  1  0.73459839  0.62502208  0.07636720  1
  Bi2+  Bi64  1  0.05531734  0.14785598  0.31251633  1
  Bi2+  Bi65  1  0.00125036  0.15765351  0.78638436  1
  Bi2+  Bi66  1  0.06896277  0.35939766  0.28448318  1
  Bi2+  Bi67  1  -0.01320374  0.44398848  0.79129168  1
  Bi2+  Bi68  1  0.01635965  0.60582963  0.29330704  1
  Bi2+  Bi69  1  -0.03152586  0.63841440  0.80921837  1
  Bi2+  Bi70  1  0.08236341  0.87529257  0.28508679  1
  Bi2+  Bi71  1  -0.00288962  0.89384619  0.77492500  1
  Bi2+  Bi72  1  0.27751447  0.10222823  0.28177485  1
  Bi2+  Bi73  1  0.19280868  0.09363663  0.79414498  1
  Bi2+  Bi74  1  0.32679488  0.37984728  0.23299445  1
  Bi2+  Bi75  1  0.17015850  0.36827008  0.78147141  1
  Bi2+  Bi76  1  0.26172057  0.61486852  0.29384235  1
  Bi2+  Bi77  1  0.21956924  0.62001529  0.79127348  1
  Bi2+  Bi78  1  0.27765652  0.82045056  0.30416848  1
  Bi2+  Bi79  1  0.19697381  0.84094168  0.78393078  1
  Bi2+  Bi80  1  0.53509063  0.12930207  0.30847974  1
  Bi2+  Bi81  1  0.48576815  0.11713875  0.78353456  1
  Bi2+  Bi82  1  0.48917274  0.39053549  0.29452892  1
  Bi2+  Bi83  1  0.50134715  0.35168087  0.78218565  1
  Bi2+  Bi84  1  0.45484010  0.60767629  0.28678431  1
  Bi2+  Bi85  1  0.49019532  0.65187921  0.79082987  1
  Bi2+  Bi86  1  0.45296492  0.89300921  0.26793445  1
  Bi2+  Bi87  1  0.48477520  0.86825541  0.79562911  1
  Bi2+  Bi88  1  0.87239313  0.07675533  0.30808240  1
  Bi2+  Bi89  1  0.75646906  0.11338771  0.79544685  1
  Bi2+  Bi90  1  0.70945601  0.36127317  0.28903850  1
  Bi2+  Bi91  1  0.78141045  0.38724141  0.78690898  1
  Bi2+  Bi92  1  0.72701472  0.61941608  0.28998374  1
  Bi2+  Bi93  1  0.76456290  0.65518281  0.79354968  1
  Bi2+  Bi94  1  0.72715857  0.87775108  0.29897532  1
  Bi2+  Bi95  1  0.68038351  0.87729765  0.80008550  1
  Bi2+  Bi96  1  0.17893901  0.00719199  0.18845249  1
  Bi2+  Bi97  1  0.10408140  0.08026039  0.69212114  1
  Bi2+  Bi98  1  0.12582711  0.19682414  0.20551818  1
  Bi2+  Bi99  1  0.09468814  0.29052289  0.68432414  1
  Bi2+  Bi100  1  0.16518258  0.47540494  0.20947033  1
  Bi2+  Bi101  1  0.07498129  0.56805319  0.70821386  1
  Bi2+  Bi102  1  0.16196820  0.73294617  0.22071838  1
  Bi2+  Bi103  1  0.08192613  0.76796278  0.69934201  1
  Bi2+  Bi104  1  0.37488512  0.01660297  0.18979672  1
  Bi2+  Bi105  1  0.33884424  -0.02755596  0.70877717  1
  Bi2+  Bi106  1  0.39623050  0.20227547  0.21024076  1
  Bi2+  Bi107  1  0.27149772  0.22522248  0.72181310  1
  Bi2+  Bi108  1  0.37425507  0.55996306  0.17038527  1
  Bi2+  Bi109  1  0.34876473  0.49278121  0.70890983  1
  Bi2+  Bi110  1  0.37586186  0.75154815  0.19562572  1
  Bi2+  Bi111  1  0.35668996  0.76588468  0.73328227  1
  Bi2+  Bi112  1  0.62500898  0.02276726  0.20486599  1
  Bi2+  Bi113  1  0.61940831  -0.01699127  0.70794402  1
  Bi2+  Bi114  1  0.65910187  0.26698833  0.19983698  1
  Bi2+  Bi115  1  0.70162973  0.23012603  0.70745772  1
  Bi2+  Bi116  1  0.55778476  0.50456193  0.20776300  1
  Bi2+  Bi117  1  0.59922744  0.50508703  0.69364545  1
  Bi2+  Bi118  1  0.57033788  0.76578240  0.20968590  1
  Bi2+  Bi119  1  0.62889535  0.74599936  0.71943582  1
  Bi2+  Bi120  1  0.97863111  0.00345167  0.21646859  1
  Bi2+  Bi121  1  0.88047655  0.01132198  0.71537378  1
  Bi2+  Bi122  1  0.88464719  0.26146772  0.27187767  1
  Bi2+  Bi123  1  0.90145731  0.28284393  0.71649675  1
  Bi2+  Bi124  1  0.88289332  0.47053476  0.20263898  1
  Bi2+  Bi125  1  0.85694326  0.52112481  0.71023237  1
  Bi2+  Bi126  1  0.86845730  0.73371145  0.20841759  1
  Bi2+  Bi127  1  0.88689414  0.76536465  0.71074770  1
  S2-  S128  1  -0.02771082  0.15533949  0.16352124  1
  S2-  S129  1  -0.04478916  0.11438128  0.64505503  1
  S2-  S130  1  0.02882403  0.39854907  0.16002876  1
  S2-  S131  1  -0.11406536  0.39467646  0.63754998  1
  S2-  S132  1  -0.02783945  0.60515796  0.18487406  1
  S2-  S133  1  -0.11734834  0.63799717  0.63519586  1
  S2-  S134  1  -0.02819911  0.85346322  0.16450146  1
  S2-  S135  1  -0.10811837  0.88135554  0.63482258  1
  S2-  S136  1  0.24585949  0.24420837  0.13948405  1
  S2-  S137  1  0.35320092  0.12506098  0.65455795  1
  S2-  S138  1  0.38063700  0.40209356  0.12864299  1
  S2-  S139  1  0.24758198  0.37397873  0.65721520  1
  S2-  S140  1  0.15355568  0.61366635  0.14424110  1
  S2-  S141  1  0.23181213  0.60642363  0.66255980  1
  S2-  S142  1  0.23598075  0.84815379  0.15227022  1
  S2-  S143  1  0.22423365  0.92472503  0.64923239  1
  S2-  S144  1  0.58609613  0.14437465  0.13713741  1
  S2-  S145  1  0.55328543  0.16873082  0.68722595  1
  S2-  S146  1  0.59976817  0.38067244  0.13487594  1
  S2-  S147  1  0.45991363  0.38027375  0.67827326  1
  S2-  S148  1  0.59013666  0.63621369  0.14202210  1
  S2-  S149  1  0.45552002  0.59444594  0.66222619  1
  S2-  S150  1  0.56553206  0.90240134  0.13866546  1
  S2-  S151  1  0.48543926  0.96597138  0.65210499  1
  S2-  S152  1  0.75873141  0.03093485  0.15370034  1
  S2-  S153  1  0.74790196  0.07800317  0.65729629  1
  S2-  S154  1  0.80037063  0.33298107  0.15434409  1
  S2-  S155  1  0.66320294  0.37074928  0.64493094  1
  S2-  S156  1  0.77936667  0.59041298  0.17486381  1
  S2-  S157  1  0.66022284  0.62862198  0.63987157  1
  S2-  S158  1  0.73730769  0.82751628  0.19213961  1
  S2-  S159  1  0.65757934  0.85619067  0.64269594  1
  S2-  S160  1  0.14901972  0.00090712  0.34231104  1
  S2-  S161  1  0.11379701  -0.03638969  0.84904062  1
  S2-  S162  1  0.16983570  0.27132830  0.34690197  1
  S2-  S163  1  0.12998411  0.23803068  0.84727618  1
  S2-  S164  1  0.07897327  0.49431003  0.35320281  1
  S2-  S165  1  0.19809116  0.49210470  0.85778580  1
  S2-  S166  1  0.04108353  0.74411852  0.35531000  1
  S2-  S167  1  0.11739866  0.71481016  0.84738809  1
  S2-  S168  1  0.40078208  0.03165641  0.34349621  1
  S2-  S169  1  0.39078657  0.00290981  0.83479012  1
  S2-  S170  1  0.47192446  0.25653274  0.36314495  1
  S2-  S171  1  0.40273058  0.23475163  0.83527889  1
  S2-  S172  1  0.36469125  0.48744647  0.35055234  1
  S2-  S173  1  0.38512885  0.45035787  0.80983208  1
  S2-  S174  1  0.40222951  0.73567522  0.35695009  1
  S2-  S175  1  0.35430327  0.66135910  0.85665242  1
  S2-  S176  1  0.62887428  -0.01154144  0.34556201  1
  S2-  S177  1  0.60893376  0.12042481  0.85023947  1
  S2-  S178  1  0.67796433  0.21379472  0.33682575  1
  S2-  S179  1  0.64388726  0.34162135  0.84381620  1
  S2-  S180  1  0.63830040  0.49707609  0.34505530  1
  S2-  S181  1  0.57686999  0.50677821  0.79571689  1
  S2-  S182  1  0.63210095  0.74760534  0.33295221  1
  S2-  S183  1  0.62928772  0.67052486  0.85747418  1
  S2-  S184  1  0.87609710  -0.08601913  0.35172678  1
  S2-  S185  1  0.77780031  -0.01669817  0.86145018  1
  S2-  S186  1  0.90042097  0.34216637  0.35843530  1
  S2-  S187  1  0.86682989  0.21196568  0.84861995  1
  S2-  S188  1  0.87175937  0.54506476  0.32221011  1
  S2-  S189  1  0.79251108  0.50965246  0.86148907  1
  S2-  S190  1  0.83340005  0.73697397  0.31194734  1
  S2-  S191  1  0.86741958  0.74785035  0.85935122  1
  S2-  S192  1  0.00966469  0.12564474  0.44858305  1
  S2-  S193  1  -0.00246207  0.12364275  0.95528614  1
  S2-  S194  1  0.01718748  0.36688951  0.46114806  1
  S2-  S195  1  -0.00335159  0.37657091  0.95391485  1
  S2-  S196  1  0.01141306  0.62133472  0.45538135  1
  S2-  S197  1  -0.00408053  0.62451842  0.96674629  1
  S2-  S198  1  0.01105640  0.87901696  0.45462690  1
  S2-  S199  1  -0.00610328  0.87724727  0.95805797  1
  S2-  S200  1  0.26154581  0.12399544  0.45755595  1
  S2-  S201  1  0.24314645  0.12613999  0.95397422  1
  S2-  S202  1  0.26283770  0.37340054  0.45519741  1
  S2-  S203  1  0.24377586  0.37143968  0.95505847  1
  S2-  S204  1  0.25902171  0.62323624  0.45752250  1
  S2-  S205  1  0.23885097  0.63065546  0.95822869  1
  S2-  S206  1  0.25755491  0.87366248  0.45255797  1
  S2-  S207  1  0.24484207  0.87276538  0.94871168  1
  S2-  S208  1  0.50835183  0.11871303  0.46260406  1
  S2-  S209  1  0.48982449  0.12612372  0.94931832  1
  S2-  S210  1  0.50857281  0.37908649  0.46534165  1
  S2-  S211  1  0.49081541  0.37963672  0.93850123  1
  S2-  S212  1  0.51123291  0.62335990  0.45841536  1
  S2-  S213  1  0.49553452  0.62591429  0.95090606  1
  S2-  S214  1  0.51180927  0.87459482  0.45578657  1
  S2-  S215  1  0.49613227  0.87372746  0.94529452  1
  S2-  S216  1  0.76027798  0.12346053  0.45249786  1
  S2-  S217  1  0.74710237  0.12592345  0.95943170  1
  S2-  S218  1  0.75772016  0.36922257  0.45379511  1
  S2-  S219  1  0.74481909  0.37603855  0.95709962  1
  S2-  S220  1  0.76482391  0.62682046  0.44363888  1
  S2-  S221  1  0.74858615  0.62860393  0.96761306  1
  S2-  S222  1  0.75759093  0.87709984  0.45471283  1
  S2-  S223  1  0.74874817  0.87043468  0.96448861  1
  S2-  S224  1  0.11977173  -0.00131288  0.04928313  1
  S2-  S225  1  0.12959387  -0.00318951  0.54593939  1
  S2-  S226  1  0.11758537  0.25295118  0.04763706  1
  S2-  S227  1  0.13704309  0.24723331  0.54834761  1
  S2-  S228  1  0.12410277  0.49275387  0.04707816  1
  S2-  S229  1  0.13413832  0.49609362  0.55334782  1
  S2-  S230  1  0.11973136  0.75217966  0.05052120  1
  S2-  S231  1  0.13198888  0.75101062  0.54801406  1
  S2-  S232  1  0.37179607  0.00172639  0.04305281  1
  S2-  S233  1  0.38162050  -0.00404237  0.54707835  1
  S2-  S234  1  0.37361547  0.24588360  0.03708486  1
  S2-  S235  1  0.38557139  0.24830492  0.55608548  1
  S2-  S236  1  0.36674560  0.50533839  0.02670907  1
  S2-  S237  1  0.38551812  0.49642356  0.55324674  1
  S2-  S238  1  0.37282659  0.75327624  0.04593165  1
  S2-  S239  1  0.38511836  0.75044096  0.56004380  1
  S2-  S240  1  0.61778294  0.00289096  0.03390564  1
  S2-  S241  1  0.63498972  0.00335917  0.54933014  1
  S2-  S242  1  0.61564792  0.25127433  0.03340969  1
  S2-  S243  1  0.63192173  0.24106392  0.54728921  1
  S2-  S244  1  0.62013038  0.50691136  0.03807556  1
  S2-  S245  1  0.63837934  0.49798427  0.54552229  1
  S2-  S246  1  0.61953320  0.75554054  0.04790222  1
  S2-  S247  1  0.63746224  0.74953156  0.53857061  1
  S2-  S248  1  0.86843880  -0.00270853  0.05156515  1
  S2-  S249  1  0.88711134  0.00305871  0.53835864  1
  S2-  S250  1  0.86766647  0.24873178  0.04850657  1
  S2-  S251  1  0.88773694  0.24639393  0.54278754  1
  S2-  S252  1  0.86939406  0.50446426  0.05745398  1
  S2-  S253  1  0.88844661  0.49786360  0.53183120  1
  S2-  S254  1  0.86673922  0.74744175  0.06376579  1
  S2-  S255  1  0.88902839  0.75300210  0.52992059  1
