# generated using pymatgen
data_La6Ce7Pr13Nd19Sm19(BiS2)64
_symmetry_space_group_name_H-M   'P 1'
_cell_length_a   16.05598172
_cell_length_b   16.00556677
_cell_length_c   27.47817866
_cell_angle_alpha   90.16896521
_cell_angle_beta   89.94663464
_cell_angle_gamma   89.93683202
_symmetry_Int_Tables_number   1
_chemical_formula_structural   La6Ce7Pr13Nd19Sm19(BiS2)64
_chemical_formula_sum   'La6 Ce7 Pr13 Nd19 Sm19 Bi64 S128'
_cell_volume   7061.44406366
_cell_formula_units_Z   1
loop_
 _symmetry_equiv_pos_site_id
 _symmetry_equiv_pos_as_xyz
  1  'x, y, z'
loop_
 _atom_type_symbol
 _atom_type_oxidation_number
  La3+  3.0
  Ce3+  3.0
  Pr3+  3.0
  Nd3+  3.0
  Sm3+  3.0
  Bi2+  2.0
  S2-  -2.0
loop_
 _atom_site_type_symbol
 _atom_site_label
 _atom_site_symmetry_multiplicity
 _atom_site_fract_x
 _atom_site_fract_y
 _atom_site_fract_z
 _atom_site_occupancy
  La3+  La0  1  0.12884765  0.73208666  0.90132741  1
  La3+  La1  1  0.25923391  0.61002772  0.06277422  1
  La3+  La2  1  0.38001435  0.73272095  0.92371053  1
  La3+  La3  1  0.63548293  -0.02540096  0.91611185  1
  La3+  La4  1  0.12395104  0.25939474  0.42965833  1
  La3+  La5  1  0.50150028  0.35523204  0.10144271  1
  Ce3+  Ce6  1  0.50427727  0.63689577  0.55606328  1
  Ce3+  Ce7  1  0.25208137  0.13570166  0.56253674  1
  Ce3+  Ce8  1  0.88131456  0.76409552  0.43769326  1
  Ce3+  Ce9  1  0.50278052  0.60638235  0.05834653  1
  Ce3+  Ce10  1  0.00944454  0.13389477  0.57331409  1
  Ce3+  Ce11  1  0.75168446  0.85851058  0.05184239  1
  Ce3+  Ce12  1  0.87897280  0.23806809  0.93598200  1
  Pr3+  Pr13  1  0.00358049  0.88685557  0.57181034  1
  Pr3+  Pr14  1  0.38338326  0.76412474  0.43013118  1
  Pr3+  Pr15  1  0.75731916  0.36088956  0.06848975  1
  Pr3+  Pr16  1  0.12931814  -0.01704984  0.94152293  1
  Pr3+  Pr17  1  0.62788927  0.48173163  0.94254099  1
  Pr3+  Pr18  1  0.00442557  0.11028474  0.05619271  1
  Pr3+  Pr19  1  0.62205707  0.26185582  0.43668206  1
  Pr3+  Pr20  1  0.38401190  0.00718484  0.43952699  1
  Pr3+  Pr21  1  0.25817617  0.86014444  0.05491231  1
  Pr3+  Pr22  1  0.37807351  0.48011468  0.92671509  1
  Pr3+  Pr23  1  0.00092813  0.63870427  0.56808144  1
  Pr3+  Pr24  1  0.50648818  0.87616624  0.60404151  1
  Pr3+  Pr25  1  0.88071549  0.48088109  0.93115267  1
  Nd3+  Nd26  1  0.38299987  0.22965088  0.92914999  1
  Nd3+  Nd27  1  0.87992368  0.26053356  0.45152951  1
  Nd3+  Nd28  1  0.50125196  0.38795108  0.56461738  1
  Nd3+  Nd29  1  0.63264164  0.51057104  0.42897149  1
  Nd3+  Nd30  1  0.51250140  0.10675542  0.06753028  1
  Nd3+  Nd31  1  0.12976410  0.23377069  0.94443697  1
  Nd3+  Nd32  1  0.13064158  0.00727123  0.43849242  1
  Nd3+  Nd33  1  0.75574837  0.60874480  0.06368404  1
  Nd3+  Nd34  1  0.49574136  0.13892648  0.57837689  1
  Nd3+  Nd35  1  0.00670544  0.60977732  0.05724395  1
  Nd3+  Nd36  1  0.63017228  0.72677813  0.93451569  1
  Nd3+  Nd37  1  0.25660775  0.88097625  0.57323498  1
  Nd3+  Nd38  1  0.74861892  0.88826638  0.56253397  1
  Nd3+  Nd39  1  0.00522367  0.85709723  0.05897366  1
  Nd3+  Nd40  1  0.38226450  0.51503517  0.41277050  1
  Nd3+  Nd41  1  0.88181775  0.72586359  0.92604489  1
  Nd3+  Nd42  1  0.50610669  0.85761412  0.05698614  1
  Nd3+  Nd43  1  0.62636799  0.23251176  0.94074084  1
  Nd3+  Nd44  1  0.88658238  0.51628072  0.42071823  1
  Sm3+  Sm45  1  0.75414177  0.63648206  0.55156426  1
  Sm3+  Sm46  1  0.25600729  0.63839992  0.55902785  1
  Sm3+  Sm47  1  0.87952892  0.01231805  0.44934373  1
  Sm3+  Sm48  1  0.00480154  0.39230426  0.56155173  1
  Sm3+  Sm49  1  0.88062239  -0.02156208  0.94227235  1
  Sm3+  Sm50  1  0.75495826  0.39071654  0.55462540  1
  Sm3+  Sm51  1  0.00377234  0.36080403  0.06285591  1
  Sm3+  Sm52  1  0.37837515  0.26408410  0.44439510  1
  Sm3+  Sm53  1  0.74784327  0.14010172  0.55497000  1
  Sm3+  Sm54  1  0.26142875  0.35821883  0.05605705  1
  Sm3+  Sm55  1  0.62222114  0.01070401  0.44615926  1
  Sm3+  Sm56  1  0.13282737  0.76401049  0.44162101  1
  Sm3+  Sm57  1  0.26042491  0.11085012  0.05548311  1
  Sm3+  Sm58  1  0.62617012  0.76348470  0.44050171  1
  Sm3+  Sm59  1  0.12713408  0.52091732  0.43184014  1
  Sm3+  Sm60  1  0.13042785  0.48655936  0.94135560  1
  Sm3+  Sm61  1  0.74956311  0.10857750  0.05044509  1
  Sm3+  Sm62  1  0.25138289  0.39099087  0.54987178  1
  Sm3+  Sm63  1  0.38389658  -0.01774015  0.93171600  1
  Bi2+  Bi64  1  -0.02127664  0.11917236  0.30763889  1
  Bi2+  Bi65  1  -0.00763708  0.14425112  0.78996640  1
  Bi2+  Bi66  1  0.07345588  0.35079124  0.29773302  1
  Bi2+  Bi67  1  -0.02858294  0.41798506  0.78024490  1
  Bi2+  Bi68  1  -0.01762402  0.64772355  0.26534711  1
  Bi2+  Bi69  1  -0.00343402  0.62892494  0.78707326  1
  Bi2+  Bi70  1  -0.01725209  0.85526916  0.30441712  1
  Bi2+  Bi71  1  -0.03137693  0.92716150  0.79775335  1
  Bi2+  Bi72  1  0.21698974  0.08733558  0.27306114  1
  Bi2+  Bi73  1  0.23796187  0.20821220  0.76314444  1
  Bi2+  Bi74  1  0.25230197  0.36191509  0.23958922  1
  Bi2+  Bi75  1  0.15212502  0.36247207  0.81660185  1
  Bi2+  Bi76  1  0.23014251  0.57451357  0.28936706  1
  Bi2+  Bi77  1  0.25515717  0.52390466  0.78817354  1
  Bi2+  Bi78  1  0.23353328  0.78329950  0.30880949  1
  Bi2+  Bi79  1  0.26161592  0.92007635  0.79286970  1
  Bi2+  Bi80  1  0.52169372  0.06763335  0.27055980  1
  Bi2+  Bi81  1  0.49413485  0.16276494  0.79906540  1
  Bi2+  Bi82  1  0.48348116  0.34855293  0.30113123  1
  Bi2+  Bi83  1  0.50715919  0.40800526  0.80574517  1
  Bi2+  Bi84  1  0.49388763  0.63161150  0.28640513  1
  Bi2+  Bi85  1  0.51110980  0.63356644  0.78870010  1
  Bi2+  Bi86  1  0.47828543  0.88038134  0.29898531  1
  Bi2+  Bi87  1  0.51687816  0.89218259  0.78717540  1
  Bi2+  Bi88  1  0.72090533  0.03517398  0.28622417  1
  Bi2+  Bi89  1  0.81384041  0.15893919  0.74752374  1
  Bi2+  Bi90  1  0.77317255  0.34098082  0.29690080  1
  Bi2+  Bi91  1  0.74639345  0.36303716  0.79111704  1
  Bi2+  Bi92  1  0.75474270  0.63511449  0.29574647  1
  Bi2+  Bi93  1  0.73443149  0.56971114  0.78415665  1
  Bi2+  Bi94  1  0.70521376  0.84222439  0.31515765  1
  Bi2+  Bi95  1  0.76798702  0.82961693  0.78978490  1
  Bi2+  Bi96  1  0.06414516  -0.01799289  0.23044719  1
  Bi2+  Bi97  1  0.10849695  0.05529745  0.71288825  1
  Bi2+  Bi98  1  0.11556173  0.22210516  0.20649503  1
  Bi2+  Bi99  1  0.14784294  0.33741116  0.68891679  1
  Bi2+  Bi100  1  0.07634155  0.41614805  0.18761728  1
  Bi2+  Bi101  1  0.11308605  0.53575289  0.71041754  1
  Bi2+  Bi102  1  0.10574333  0.74226396  0.19537144  1
  Bi2+  Bi103  1  0.14669631  0.78883512  0.71340154  1
  Bi2+  Bi104  1  0.33693315  -0.01398890  0.20423366  1
  Bi2+  Bi105  1  0.36774753  0.02643839  0.70526941  1
  Bi2+  Bi106  1  0.38501186  0.20527038  0.24314249  1
  Bi2+  Bi107  1  0.40642470  0.27367580  0.72141358  1
  Bi2+  Bi108  1  0.37651056  0.52952239  0.19503778  1
  Bi2+  Bi109  1  0.39709370  0.49301396  0.70845784  1
  Bi2+  Bi110  1  0.35286172  0.76281923  0.19608944  1
  Bi2+  Bi111  1  0.38652459  0.69635776  0.71259651  1
  Bi2+  Bi112  1  0.63487009  -0.06485972  0.19120805  1
  Bi2+  Bi113  1  0.65444151  0.01080676  0.71603686  1
  Bi2+  Bi114  1  0.62902099  0.19768495  0.20785434  1
  Bi2+  Bi115  1  0.65305036  0.26488565  0.70811216  1
  Bi2+  Bi116  1  0.67265131  0.45365979  0.22660817  1
  Bi2+  Bi117  1  0.59645010  0.48217506  0.71341897  1
  Bi2+  Bi118  1  0.62453532  0.72991749  0.22968859  1
  Bi2+  Bi119  1  0.65849163  0.73086733  0.71021606  1
  Bi2+  Bi120  1  0.86683153  0.07213154  0.21458164  1
  Bi2+  Bi121  1  0.85561428  -0.05761086  0.70522635  1
  Bi2+  Bi122  1  0.90186947  0.26702817  0.22437696  1
  Bi2+  Bi123  1  0.96318165  0.26743596  0.70087640  1
  Bi2+  Bi124  1  0.89533800  0.49908712  0.20720496  1
  Bi2+  Bi125  1  0.84608252  0.49612744  0.69857999  1
  Bi2+  Bi126  1  0.84298140  0.78761894  0.23532715  1
  Bi2+  Bi127  1  0.88682892  0.74717502  0.71219881  1
  S2-  S128  1  0.01372191  0.10237613  0.15482734  1
  S2-  S129  1  0.13821876  0.16298293  0.63772366  1
  S2-  S130  1  -0.10826298  0.35553349  0.13795265  1
  S2-  S131  1  -0.00744157  0.50678972  0.63719149  1
  S2-  S132  1  -0.01034184  0.63171331  0.15571195  1
  S2-  S133  1  0.01809827  0.76115209  0.64503498  1
  S2-  S134  1  0.01217530  0.86031794  0.15833412  1
  S2-  S135  1  -0.01272310  1.01083490  0.64612805  1
  S2-  S136  1  0.26505486  0.10467373  0.15210594  1
  S2-  S137  1  0.35047625  0.14859336  0.64426538  1
  S2-  S138  1  0.33367701  0.38052347  0.14360187  1
  S2-  S139  1  0.28822905  0.39752584  0.64543934  1
  S2-  S140  1  0.23853169  0.63190223  0.16281572  1
  S2-  S141  1  0.24730856  0.71943621  0.64809874  1
  S2-  S142  1  0.24092205  0.86133750  0.15570667  1
  S2-  S143  1  0.21696724  0.93284386  0.66790603  1
  S2-  S144  1  0.48286478  0.20194116  0.15218065  1
  S2-  S145  1  0.52412498  0.03242368  0.65947019  1
  S2-  S146  1  0.51990006  0.45738318  0.18799218  1
  S2-  S147  1  0.52096888  0.27986313  0.64299561  1
  S2-  S148  1  0.46890112  0.66027230  0.14838729  1
  S2-  S149  1  0.52324567  0.70200114  0.64602420  1
  S2-  S150  1  0.47182068  0.89993323  0.15191714  1
  S2-  S151  1  0.42353746  0.86233892  0.69742570  1
  S2-  S152  1  0.65721181  0.08213581  0.13223640  1
  S2-  S153  1  0.73406156  0.13308544  0.65190625  1
  S2-  S154  1  0.66437572  0.32880468  0.15325209  1
  S2-  S155  1  0.74204998  0.38807259  0.65197998  1
  S2-  S156  1  0.75576591  0.55210066  0.15743009  1
  S2-  S157  1  0.78130141  0.64397902  0.64817086  1
  S2-  S158  1  0.75832716  0.84321492  0.14798246  1
  S2-  S159  1  0.66647588  0.87374068  0.65043321  1
  S2-  S160  1  0.12671625  -0.12041512  0.36461953  1
  S2-  S161  1  0.12986684  -0.03802850  0.84233576  1
  S2-  S162  1  0.13084414  0.12701707  0.36192518  1
  S2-  S163  1  0.13595606  0.19175279  0.84873752  1
  S2-  S164  1  0.02101267  0.47171181  0.35683238  1
  S2-  S165  1  0.12498848  0.57055552  0.85475334  1
  S2-  S166  1  0.14094222  0.65382030  0.36332750  1
  S2-  S167  1  0.21064526  0.76796931  0.80858761  1
  S2-  S168  1  0.34249237  -0.10747698  0.35849424  1
  S2-  S169  1  0.37739970  0.10088163  0.85600919  1
  S2-  S170  1  0.40056176  0.23276581  0.34899850  1
  S2-  S171  1  0.37572095  0.35074974  0.85368524  1
  S2-  S172  1  0.30747465  0.44549669  0.32915331  1
  S2-  S173  1  0.37551223  0.60412444  0.85239706  1
  S2-  S174  1  0.35391683  0.65343720  0.34682584  1
  S2-  S175  1  0.39605683  0.86785725  0.85252627  1
  S2-  S176  1  0.51776992  0.02190914  0.36785981  1
  S2-  S177  1  0.60349707  0.04069599  0.82221467  1
  S2-  S178  1  0.62336679  0.27846576  0.33658048  1
  S2-  S179  1  0.62006203  0.27733896  0.84371972  1
  S2-  S180  1  0.52401703  0.50412673  0.34874078  1
  S2-  S181  1  0.62876575  0.59758069  0.86373325  1
  S2-  S182  1  0.52820200  0.75848591  0.35935390  1
  S2-  S183  1  0.62318404  0.82957327  0.85052341  1
  S2-  S184  1  0.89941757  -0.01802981  0.35399303  1
  S2-  S185  1  0.82779639  -0.02891423  0.85007839  1
  S2-  S186  1  0.89587520  0.25291338  0.35399043  1
  S2-  S187  1  0.87820326  0.34764578  0.86041544  1
  S2-  S188  1  0.75550397  0.49106827  0.35331644  1
  S2-  S189  1  0.86565853  0.59741427  0.85429607  1
  S2-  S190  1  0.89610021  0.66383883  0.35759374  1
  S2-  S191  1  0.98526127  0.76928481  0.84667915  1
  S2-  S192  1  0.00246463  0.13352149  0.46442229  1
  S2-  S193  1  0.00065220  0.10810447  0.94972260  1
  S2-  S194  1  0.00286603  0.38670215  0.45978880  1
  S2-  S195  1  0.00849483  0.35986079  0.95867026  1
  S2-  S196  1  0.00487907  0.64024246  0.46142498  1
  S2-  S197  1  0.00868762  0.61059370  0.95410747  1
  S2-  S198  1  0.00109210  0.88776754  0.46439690  1
  S2-  S199  1  0.00518225  0.85613592  0.95418489  1
  S2-  S200  1  0.25931701  0.13692530  0.45586180  1
  S2-  S201  1  0.25419585  0.10750340  0.95325879  1
  S2-  S202  1  0.25088599  0.38909757  0.44571091  1
  S2-  S203  1  0.25140344  0.35820550  0.95368083  1
  S2-  S204  1  0.26190816  0.63418126  0.45827621  1
  S2-  S205  1  0.24944350  0.61183991  0.95489551  1
  S2-  S206  1  0.25621985  0.88484874  0.46626098  1
  S2-  S207  1  0.25110336  0.85564647  0.94870471  1
  S2-  S208  1  0.50073325  0.14162615  0.46693817  1
  S2-  S209  1  0.50952423  0.10326865  0.95397725  1
  S2-  S210  1  0.49979713  0.39011167  0.45660870  1
  S2-  S211  1  0.50455755  0.35660680  0.95145227  1
  S2-  S212  1  0.50583382  0.63192586  0.45381636  1
  S2-  S213  1  0.49984031  0.60602021  0.95635947  1
  S2-  S214  1  0.50775918  0.88439216  0.46247826  1
  S2-  S215  1  0.50732149  0.85646789  0.95281126  1
  S2-  S216  1  0.75073873  0.13483595  0.44975161  1
  S2-  S217  1  0.75653387  0.10752391  0.94677257  1
  S2-  S218  1  0.75361317  0.38244557  0.45273526  1
  S2-  S219  1  0.75233404  0.35757518  0.96002862  1
  S2-  S220  1  0.75072274  0.64085438  0.44962622  1
  S2-  S221  1  0.75783340  0.60568801  0.96040790  1
  S2-  S222  1  0.75077865  0.88969727  0.45584832  1
  S2-  S223  1  0.76024499  0.85008932  0.94888150  1
  S2-  S224  1  0.13156511  -0.01349770  0.04835354  1
  S2-  S225  1  0.13110418  0.00712453  0.54519414  1
  S2-  S226  1  0.13217223  0.23654058  0.05024685  1
  S2-  S227  1  0.12689565  0.27049402  0.53780476  1
  S2-  S228  1  0.13198780  0.48074884  0.04741883  1
  S2-  S229  1  0.13107090  0.51580976  0.54076871  1
  S2-  S230  1  0.13051719  0.73538282  0.05056364  1
  S2-  S231  1  0.13080109  0.76054012  0.54384527  1
  S2-  S232  1  0.38260580  -0.01293479  0.03969565  1
  S2-  S233  1  0.38013288  0.00394450  0.55213534  1
  S2-  S234  1  0.38212606  0.23280771  0.04055838  1
  S2-  S235  1  0.37460836  0.26862802  0.54532889  1
  S2-  S236  1  0.38171680  0.48182362  0.04000508  1
  S2-  S237  1  0.37812919  0.51315096  0.54872094  1
  S2-  S238  1  0.38135470  0.73616375  0.03804679  1
  S2-  S239  1  0.38253887  0.76198768  0.54976238  1
  S2-  S240  1  0.63038249  -0.01958901  0.03015056  1
  S2-  S241  1  0.62669721  0.01509703  0.54833299  1
  S2-  S242  1  0.62822107  0.23533685  0.04378529  1
  S2-  S243  1  0.63160233  0.26670060  0.54240043  1
  S2-  S244  1  0.62674465  0.48162280  0.05042084  1
  S2-  S245  1  0.63010039  0.51079772  0.54384745  1
  S2-  S246  1  0.62918680  0.73062647  0.04368272  1
  S2-  S247  1  0.63066582  0.76057181  0.54297801  1
  S2-  S248  1  0.87724814  -0.01483576  0.04778415  1
  S2-  S249  1  0.87031533  0.01557265  0.55050960  1
  S2-  S250  1  0.87725332  0.23033665  0.04145198  1
  S2-  S251  1  0.87921085  0.26363705  0.55655896  1
  S2-  S252  1  0.88291316  0.48610884  0.04052114  1
  S2-  S253  1  0.87556032  0.51230806  0.53547845  1
  S2-  S254  1  0.88040926  0.73277893  0.04387953  1
  S2-  S255  1  0.87302844  0.76480522  0.54468868  1
