# generated using pymatgen
data_La6Ce7Pr13Nd19Sm19(BiS2)64
_symmetry_space_group_name_H-M   'P 1'
_cell_length_a   16.07445858
_cell_length_b   16.10493958
_cell_length_c   27.33736646
_cell_angle_alpha   90.00590232
_cell_angle_beta   89.86607035
_cell_angle_gamma   89.89324853
_symmetry_Int_Tables_number   1
_chemical_formula_structural   La6Ce7Pr13Nd19Sm19(BiS2)64
_chemical_formula_sum   'La6 Ce7 Pr13 Nd19 Sm19 Bi64 S128'
_cell_volume   7077.01612908
_cell_formula_units_Z   1
loop_
 _symmetry_equiv_pos_site_id
 _symmetry_equiv_pos_as_xyz
  1  'x, y, z'
loop_
 _atom_type_symbol
 _atom_type_oxidation_number
  La3+  3.0
  Ce3+  3.0
  Pr3+  3.0
  Nd3+  3.0
  Sm3+  3.0
  Bi2+  2.0
  S2-  -2.0
loop_
 _atom_site_type_symbol
 _atom_site_label
 _atom_site_symmetry_multiplicity
 _atom_site_fract_x
 _atom_site_fract_y
 _atom_site_fract_z
 _atom_site_occupancy
  La3+  La0  1  0.63291915  -0.02036637  0.42646102  1
  La3+  La1  1  0.50560056  0.61676226  0.61062575  1
  La3+  La2  1  0.64201183  0.01323703  0.91970455  1
  La3+  La3  1  0.12370840  0.49492919  0.41494022  1
  La3+  La4  1  0.13200144  -0.00959264  0.44577457  1
  La3+  La5  1  0.51050395  0.38388891  0.09621290  1
  Ce3+  Ce6  1  0.75881946  0.62662289  0.05766312  1
  Ce3+  Ce7  1  0.75490706  0.36698914  0.55977534  1
  Ce3+  Ce8  1  0.39165191  0.50208495  0.93744627  1
  Ce3+  Ce9  1  0.13725368  0.25422453  0.94449809  1
  Ce3+  Ce10  1  0.89043752  0.25604157  0.94937238  1
  Ce3+  Ce11  1  0.26383859  0.12825272  0.05940820  1
  Ce3+  Ce12  1  0.76359724  0.12590826  0.06072072  1
  Pr3+  Pr13  1  0.01300621  0.62179078  0.07223991  1
  Pr3+  Pr14  1  0.26186034  0.11825222  0.55171524  1
  Pr3+  Pr15  1  0.13361863  0.24503289  0.42651408  1
  Pr3+  Pr16  1  0.26375797  0.87613125  0.05717069  1
  Pr3+  Pr17  1  0.50649783  0.36885534  0.55710975  1
  Pr3+  Pr18  1  0.63252679  0.49401205  0.44044958  1
  Pr3+  Pr19  1  0.63815022  0.23989071  0.42984670  1
  Pr3+  Pr20  1  0.26696518  0.62620893  0.06021580  1
  Pr3+  Pr21  1  0.26137077  0.36780666  0.55015293  1
  Pr3+  Pr22  1  0.00823367  0.12004045  0.56695140  1
  Pr3+  Pr23  1  0.52113012  0.63305155  0.06726163  1
  Pr3+  Pr24  1  0.88670880  0.74980881  0.93555894  1
  Pr3+  Pr25  1  0.89373286  0.75094797  0.43062647  1
  Nd3+  Nd26  1  0.50368383  0.86774998  0.58516878  1
  Nd3+  Nd27  1  0.38568058  0.49264955  0.43135243  1
  Nd3+  Nd28  1  0.01061530  0.36419214  0.56278644  1
  Nd3+  Nd29  1  0.88042977  0.24301791  0.43490084  1
  Nd3+  Nd30  1  0.75377452  0.86448122  0.56870223  1
  Nd3+  Nd31  1  0.39017330  0.00189651  0.93940426  1
  Nd3+  Nd32  1  0.88528151  -0.00761707  0.44461648  1
  Nd3+  Nd33  1  0.76318694  0.87888062  0.05611877  1
  Nd3+  Nd34  1  0.25945946  0.61404209  0.55752467  1
  Nd3+  Nd35  1  0.75890784  0.61408510  0.57134922  1
  Nd3+  Nd36  1  0.88844646  0.49881777  0.94356908  1
  Nd3+  Nd37  1  0.38867830  0.25242740  0.94332227  1
  Nd3+  Nd38  1  0.64352051  0.75182492  0.92229589  1
  Nd3+  Nd39  1  0.75921390  0.37713521  0.06896489  1
  Nd3+  Nd40  1  0.51632756  0.12671260  0.06249404  1
  Nd3+  Nd41  1  0.39171688  0.75117697  0.93711918  1
  Nd3+  Nd42  1  0.88123487  0.49702574  0.44040443  1
  Nd3+  Nd43  1  0.38627055  0.74010067  0.44830836  1
  Nd3+  Nd44  1  0.00837345  0.60780826  0.56869017  1
  Sm3+  Sm45  1  0.38407589  -0.01380674  0.43918528  1
  Sm3+  Sm46  1  0.51760034  0.87921999  0.04766584  1
  Sm3+  Sm47  1  0.26406056  0.37789233  0.05752938  1
  Sm3+  Sm48  1  0.75444490  0.11483008  0.55441411  1
  Sm3+  Sm49  1  0.39267619  0.23949829  0.42276739  1
  Sm3+  Sm50  1  0.50970694  0.11504400  0.54915309  1
  Sm3+  Sm51  1  0.63538121  0.49976953  0.94240647  1
  Sm3+  Sm52  1  0.01297704  0.12644135  0.05987597  1
  Sm3+  Sm53  1  0.01101067  0.87542448  0.05079509  1
  Sm3+  Sm54  1  0.88783973  0.00494974  0.93365176  1
  Sm3+  Sm55  1  0.63802376  0.25482674  0.94512705  1
  Sm3+  Sm56  1  0.01296675  0.37657580  0.06866474  1
  Sm3+  Sm57  1  0.00086568  0.86183463  0.57205925  1
  Sm3+  Sm58  1  0.13780371  0.50342340  0.94182453  1
  Sm3+  Sm59  1  0.13331662  0.73882294  0.44884451  1
  Sm3+  Sm60  1  0.25953982  0.86567173  0.56334416  1
  Sm3+  Sm61  1  0.13767004  0.75079749  0.94267651  1
  Sm3+  Sm62  1  0.63601059  0.74264573  0.44911034  1
  Sm3+  Sm63  1  0.13772918  0.00184244  0.94537845  1
  Bi2+  Bi64  1  -0.04345450  0.17516246  0.32004913  1
  Bi2+  Bi65  1  -0.01703946  0.08142293  0.80309303  1
  Bi2+  Bi66  1  -0.03868381  0.38101611  0.29157996  1
  Bi2+  Bi67  1  -0.00612676  0.36714220  0.81806800  1
  Bi2+  Bi68  1  0.00630746  0.66720684  0.30469412  1
  Bi2+  Bi69  1  0.00540072  0.64311715  0.79192728  1
  Bi2+  Bi70  1  -0.00261388  0.98221712  0.30104705  1
  Bi2+  Bi71  1  -0.03289953  0.88303248  0.79080470  1
  Bi2+  Bi72  1  0.15376206  0.15484854  0.30264938  1
  Bi2+  Bi73  1  0.21566426  0.06002678  0.73698386  1
  Bi2+  Bi74  1  0.17734828  0.34735788  0.25331296  1
  Bi2+  Bi75  1  0.23064118  0.33124283  0.79260116  1
  Bi2+  Bi76  1  0.26986713  0.68966428  0.27932738  1
  Bi2+  Bi77  1  0.21307177  0.62883759  0.76612383  1
  Bi2+  Bi78  1  0.24606270  0.87614880  0.29268165  1
  Bi2+  Bi79  1  0.17676500  0.87397073  0.79220486  1
  Bi2+  Bi80  1  0.52376663  0.11151015  0.28442454  1
  Bi2+  Bi81  1  0.47419958  0.12197035  0.80742514  1
  Bi2+  Bi82  1  0.48459502  0.37239601  0.29604688  1
  Bi2+  Bi83  1  0.49629976  0.37787830  0.81424039  1
  Bi2+  Bi84  1  0.46037000  0.63034121  0.28377618  1
  Bi2+  Bi85  1  0.47791473  0.62512294  0.80182577  1
  Bi2+  Bi86  1  0.51034833  0.86535787  0.29675997  1
  Bi2+  Bi87  1  0.43709412  0.87949596  0.79884091  1
  Bi2+  Bi88  1  0.77717527  0.12655413  0.28158816  1
  Bi2+  Bi89  1  0.79504398  0.10769157  0.75648753  1
  Bi2+  Bi90  1  0.75661759  0.39435370  0.29296004  1
  Bi2+  Bi91  1  0.75840512  0.37033736  0.78456322  1
  Bi2+  Bi92  1  0.79528619  0.59527387  0.25495295  1
  Bi2+  Bi93  1  0.80018834  0.63311818  0.79431297  1
  Bi2+  Bi94  1  0.77920980  0.82104162  0.29130803  1
  Bi2+  Bi95  1  0.77324792  0.90572578  0.77868813  1
  Bi2+  Bi96  1  0.12341453  0.06775801  0.19911394  1
  Bi2+  Bi97  1  0.10567507  -0.08890568  0.68354271  1
  Bi2+  Bi98  1  0.04887530  0.25176815  0.18979155  1
  Bi2+  Bi99  1  0.07732904  0.20711592  0.73288787  1
  Bi2+  Bi100  1  0.11129883  0.56900962  0.21960330  1
  Bi2+  Bi101  1  0.11500835  0.46808179  0.73782207  1
  Bi2+  Bi102  1  0.10389685  0.86154792  0.21500853  1
  Bi2+  Bi103  1  0.08390684  0.69894452  0.68619294  1
  Bi2+  Bi104  1  0.37913191  -0.02127093  0.23744417  1
  Bi2+  Bi105  1  0.40586397  0.00889128  0.71593133  1
  Bi2+  Bi106  1  0.32695081  0.18579510  0.25222742  1
  Bi2+  Bi107  1  0.37347359  0.23969598  0.68546134  1
  Bi2+  Bi108  1  0.34238562  0.48540459  0.20435516  1
  Bi2+  Bi109  1  0.36279789  0.46111265  0.70363803  1
  Bi2+  Bi110  1  0.39559318  0.78767469  0.20080380  1
  Bi2+  Bi111  1  0.26073221  0.78140480  0.69878961  1
  Bi2+  Bi112  1  0.62700600  -0.01902675  0.18748233  1
  Bi2+  Bi113  1  0.63372001  0.05131908  0.70052827  1
  Bi2+  Bi114  1  0.60098964  0.23509825  0.20133949  1
  Bi2+  Bi115  1  0.61265393  0.25392262  0.75587967  1
  Bi2+  Bi116  1  0.61386081  0.52805796  0.20779118  1
  Bi2+  Bi117  1  0.67901151  0.52794755  0.72770029  1
  Bi2+  Bi118  1  0.62554657  0.71502415  0.24603131  1
  Bi2+  Bi119  1  0.62256103  0.78129547  0.71869876  1
  Bi2+  Bi120  1  0.87730756  -0.01351749  0.20984213  1
  Bi2+  Bi121  1  0.93984142  0.01754720  0.69354628  1
  Bi2+  Bi122  1  0.85225478  0.27643405  0.21334006  1
  Bi2+  Bi123  1  0.89455424  0.29018116  0.71472722  1
  Bi2+  Bi124  1  0.87040227  0.46370279  0.18363532  1
  Bi2+  Bi125  1  0.90355458  0.48311208  0.69668172  1
  Bi2+  Bi126  1  0.90732125  0.74538221  0.21465115  1
  Bi2+  Bi127  1  0.87907243  0.75297874  0.71577998  1
  S2-  S128  1  -0.04038558  0.10680424  0.15221101  1
  S2-  S129  1  0.01237029  0.24395178  0.63824660  1
  S2-  S130  1  0.02718376  0.48625757  0.14417435  1
  S2-  S131  1  0.04559651  0.47583379  0.63913224  1
  S2-  S132  1  0.05120429  0.69097813  0.16430761  1
  S2-  S133  1  -0.11335071  0.62307747  0.64319995  1
  S2-  S134  1  -0.01925899  0.89201909  0.14634092  1
  S2-  S135  1  -0.12479560  0.87164933  0.64238178  1
  S2-  S136  1  0.26466196  0.13141066  0.15566380  1
  S2-  S137  1  0.24418824  0.13662513  0.65021536  1
  S2-  S138  1  0.25074652  0.37984588  0.15513641  1
  S2-  S139  1  0.26245402  0.35389496  0.65129650  1
  S2-  S140  1  0.25482193  0.60245673  0.16033953  1
  S2-  S141  1  0.33322379  0.58683325  0.64621414  1
  S2-  S142  1  0.25332152  0.84802101  0.15503707  1
  S2-  S143  1  0.35386355  0.90144588  0.64276086  1
  S2-  S144  1  0.50672278  0.10809463  0.16111025  1
  S2-  S145  1  0.49242416  0.12081446  0.64760298  1
  S2-  S146  1  0.46250029  0.32691337  0.19229248  1
  S2-  S147  1  0.48064340  0.35311645  0.65649596  1
  S2-  S148  1  0.47531107  0.53706026  0.14850728  1
  S2-  S149  1  0.51207494  0.54455289  0.70840696  1
  S2-  S150  1  0.53064561  0.86224239  0.14435050  1
  S2-  S151  1  0.49239137  0.75978671  0.66875275  1
  S2-  S152  1  0.71544710  0.12255281  0.15388051  1
  S2-  S153  1  0.74880592  0.14174931  0.65131578  1
  S2-  S154  1  0.66105165  0.38153837  0.15234955  1
  S2-  S155  1  0.74790854  0.43554622  0.64797404  1
  S2-  S156  1  0.66155131  0.64722802  0.13715804  1
  S2-  S157  1  0.66938416  0.65187898  0.65660564  1
  S2-  S158  1  0.75424822  0.89537982  0.15596234  1
  S2-  S159  1  0.64285369  0.90199923  0.64802451  1
  S2-  S160  1  0.16466585  -0.00740083  0.34765342  1
  S2-  S161  1  0.12395933  0.00673897  0.84846900  1
  S2-  S162  1  0.13083419  0.35991379  0.34855747  1
  S2-  S163  1  0.12355950  0.24080616  0.84741688  1
  S2-  S164  1  0.16129073  0.59239748  0.32836965  1
  S2-  S165  1  0.14560186  0.45976629  0.84664814  1
  S2-  S166  1  0.05150233  0.77926036  0.36709109  1
  S2-  S167  1  0.13106182  0.72087589  0.84646008  1
  S2-  S168  1  0.41952949  0.00713279  0.34350683  1
  S2-  S169  1  0.35252441  0.00908934  0.84302152  1
  S2-  S170  1  0.34306525  0.28183345  0.32963031  1
  S2-  S171  1  0.36553554  0.25569469  0.84354552  1
  S2-  S172  1  0.38169939  0.49870704  0.33064653  1
  S2-  S173  1  0.37910886  0.48816296  0.83828175  1
  S2-  S174  1  0.39012024  0.76269836  0.34919824  1
  S2-  S175  1  0.36455936  0.73114307  0.84004034  1
  S2-  S176  1  0.65855593  0.04901772  0.33260939  1
  S2-  S177  1  0.55736719  -0.02213417  0.83214076  1
  S2-  S178  1  0.53006493  0.24176133  0.35067398  1
  S2-  S179  1  0.61795342  0.19149528  0.85482498  1
  S2-  S180  1  0.61945486  0.45947664  0.34021516  1
  S2-  S181  1  0.60138764  0.50001652  0.84563799  1
  S2-  S182  1  0.63096837  0.83458812  0.36393889  1
  S2-  S183  1  0.57146834  0.74593547  0.82864767  1
  S2-  S184  1  0.87327651  -0.09132745  0.35811556  1
  S2-  S185  1  0.78212177  0.01399718  0.85528678  1
  S2-  S186  1  0.76406892  0.25346694  0.35670505  1
  S2-  S187  1  0.86043770  0.28338253  0.85449113  1
  S2-  S188  1  0.96664712  0.51179111  0.35432769  1
  S2-  S189  1  0.90851970  0.51676490  0.84610589  1
  S2-  S190  1  0.81828379  0.68688772  0.34714865  1
  S2-  S191  1  0.78131514  0.76562820  0.85521711  1
  S2-  S192  1  0.00816020  0.11898628  0.45666537  1
  S2-  S193  1  0.01261829  0.12588852  0.95481067  1
  S2-  S194  1  0.00320384  0.36510074  0.45392077  1
  S2-  S195  1  0.01607405  0.38029233  0.96320778  1
  S2-  S196  1  0.00883854  0.61876445  0.46079224  1
  S2-  S197  1  0.01373479  0.62650858  0.95778657  1
  S2-  S198  1  0.01068204  0.87037474  0.46998371  1
  S2-  S199  1  0.01209182  0.87711198  0.94599627  1
  S2-  S200  1  0.26432085  0.11790121  0.44471914  1
  S2-  S201  1  0.26180746  0.12561788  0.95274391  1
  S2-  S202  1  0.26495318  0.36613068  0.44440864  1
  S2-  S203  1  0.26262004  0.37865580  0.95287885  1
  S2-  S204  1  0.25796243  0.61643733  0.44993671  1
  S2-  S205  1  0.26168775  0.62724334  0.95216694  1
  S2-  S206  1  0.25844337  0.86353821  0.45767386  1
  S2-  S207  1  0.26155860  0.87555871  0.94975290  1
  S2-  S208  1  0.50810132  0.11117005  0.44705966  1
  S2-  S209  1  0.51181674  0.12818474  0.95631943  1
  S2-  S210  1  0.50798483  0.36718427  0.45053065  1
  S2-  S211  1  0.51385354  0.37484834  0.95177687  1
  S2-  S212  1  0.51175781  0.62079274  0.44006008  1
  S2-  S213  1  0.51674189  0.62803498  0.95420092  1
  S2-  S214  1  0.50438084  0.86523240  0.46138432  1
  S2-  S215  1  0.51636546  0.87675165  0.94424915  1
  S2-  S216  1  0.75899659  0.11102427  0.45090062  1
  S2-  S217  1  0.76630179  0.13374159  0.95567852  1
  S2-  S218  1  0.75816007  0.37073773  0.45554993  1
  S2-  S219  1  0.76006274  0.37864483  0.95940294  1
  S2-  S220  1  0.75662680  0.61827201  0.46087313  1
  S2-  S221  1  0.76102511  0.62140942  0.95200335  1
  S2-  S222  1  0.76284717  0.86431831  0.46331423  1
  S2-  S223  1  0.76579140  0.88159948  0.95226564  1
  S2-  S224  1  0.13489926  0.00057239  0.04997000  1
  S2-  S225  1  0.13289789  -0.00933889  0.55309748  1
  S2-  S226  1  0.13659381  0.25331373  0.05139447  1
  S2-  S227  1  0.13592717  0.24117139  0.53483279  1
  S2-  S228  1  0.14133857  0.50101596  0.04550353  1
  S2-  S229  1  0.13756873  0.49101762  0.53317028  1
  S2-  S230  1  0.13600375  0.75093070  0.04685917  1
  S2-  S231  1  0.13371794  0.74255230  0.55283819  1
  S2-  S232  1  0.39035976  0.00094020  0.04710148  1
  S2-  S233  1  0.38537142  -0.00683643  0.54146183  1
  S2-  S234  1  0.39089664  0.25586050  0.05211357  1
  S2-  S235  1  0.38733857  0.24069729  0.53385356  1
  S2-  S236  1  0.38854378  0.49911235  0.04366099  1
  S2-  S237  1  0.38754540  0.49518535  0.53818978  1
  S2-  S238  1  0.39244235  0.75295216  0.04432845  1
  S2-  S239  1  0.38327091  0.73969582  0.55246726  1
  S2-  S240  1  0.63889129  0.00302404  0.03745308  1
  S2-  S241  1  0.63170686  -0.00592509  0.53937854  1
  S2-  S242  1  0.63465445  0.25480850  0.04908324  1
  S2-  S243  1  0.63174418  0.24052059  0.54147163  1
  S2-  S244  1  0.63512395  0.49828285  0.04562642  1
  S2-  S245  1  0.62533521  0.49936729  0.54832599  1
  S2-  S246  1  0.64090738  0.75767361  0.03154084  1
  S2-  S247  1  0.62535526  0.74270814  0.55049842  1
  S2-  S248  1  0.88979248  0.00253194  0.03912281  1
  S2-  S249  1  0.88288471  -0.00327221  0.54846823  1
  S2-  S250  1  0.88878996  0.25420011  0.05560659  1
  S2-  S251  1  0.87681866  0.24003877  0.54145001  1
  S2-  S252  1  0.88470369  0.50008752  0.04818172  1
  S2-  S253  1  0.88288735  0.48534797  0.54420757  1
  S2-  S254  1  0.88816801  0.75001626  0.04483424  1
  S2-  S255  1  0.88431768  0.73956810  0.54322222  1
