# generated using pymatgen
data_La6Ce7Pr13Nd19Sm19(BiS2)64
_symmetry_space_group_name_H-M   'P 1'
_cell_length_a   16.11360029
_cell_length_b   16.13460382
_cell_length_c   27.19732169
_cell_angle_alpha   90.07999493
_cell_angle_beta   90.03955755
_cell_angle_gamma   90.04722680
_symmetry_Int_Tables_number   1
_chemical_formula_structural   La6Ce7Pr13Nd19Sm19(BiS2)64
_chemical_formula_sum   'La6 Ce7 Pr13 Nd19 Sm19 Bi64 S128'
_cell_volume   7070.92703450
_cell_formula_units_Z   1
loop_
 _symmetry_equiv_pos_site_id
 _symmetry_equiv_pos_as_xyz
  1  'x, y, z'
loop_
 _atom_type_symbol
 _atom_type_oxidation_number
  La3+  3.0
  Ce3+  3.0
  Pr3+  3.0
  Nd3+  3.0
  Sm3+  3.0
  Bi2+  2.0
  S2-  -2.0
loop_
 _atom_site_type_symbol
 _atom_site_label
 _atom_site_symmetry_multiplicity
 _atom_site_fract_x
 _atom_site_fract_y
 _atom_site_fract_z
 _atom_site_occupancy
  La3+  La0  1  0.62570007  0.50557750  0.40565322  1
  La3+  La1  1  0.86490841  0.00051838  0.41547740  1
  La3+  La2  1  0.26165917  0.86277475  0.06541501  1
  La3+  La3  1  0.63909517  0.73368934  0.91821033  1
  La3+  La4  1  0.39070652  0.23512348  0.91556982  1
  La3+  La5  1  0.75255340  0.86036008  0.07138165  1
  Ce3+  Ce6  1  0.88174976  -0.01711626  0.95610912  1
  Ce3+  Ce7  1  0.24916393  0.62793565  0.55586051  1
  Ce3+  Ce8  1  0.62427748  0.75659742  0.44370184  1
  Ce3+  Ce9  1  0.00702579  0.11333269  0.06298496  1
  Ce3+  Ce10  1  0.50774490  0.61414030  0.05825084  1
  Ce3+  Ce11  1  -0.00290955  0.88016790  0.55321768  1
  Ce3+  Ce12  1  0.26445862  0.11651997  0.05910868  1
  Pr3+  Pr13  1  0.75141154  0.88000053  0.56451691  1
  Pr3+  Pr14  1  0.01132837  0.85308462  0.08363996  1
  Pr3+  Pr15  1  0.49836984  0.37903354  0.56779263  1
  Pr3+  Pr16  1  0.37077766  -0.02071430  0.91662279  1
  Pr3+  Pr17  1  0.37452196  0.25418448  0.44329390  1
  Pr3+  Pr18  1  0.37422717  0.50502920  0.43216316  1
  Pr3+  Pr19  1  0.61523685  0.00891273  0.43160119  1
  Pr3+  Pr20  1  0.37330397  0.75505117  0.44625120  1
  Pr3+  Pr21  1  0.63722184  -0.01336752  0.93403361  1
  Pr3+  Pr22  1  0.00628856  0.36026621  0.05718220  1
  Pr3+  Pr23  1  0.75633104  0.61746099  0.06985321  1
  Pr3+  Pr24  1  0.88198641  0.48743237  0.93879629  1
  Pr3+  Pr25  1  0.13228256  -0.01222517  0.94836937  1
  Nd3+  Nd26  1  -0.00182426  0.37623071  0.55521147  1
  Nd3+  Nd27  1  0.24911139  0.88069850  0.56781878  1
  Nd3+  Nd28  1  0.75010104  0.12935852  0.55661962  1
  Nd3+  Nd29  1  0.38087629  0.73551832  0.93234978  1
  Nd3+  Nd30  1  0.88678288  0.73399573  0.93359636  1
  Nd3+  Nd31  1  0.50251923  0.10935143  0.05893073  1
  Nd3+  Nd32  1  -0.00100180  0.62940662  0.56080981  1
  Nd3+  Nd33  1  0.00541312  0.60857959  0.06655989  1
  Nd3+  Nd34  1  0.87051917  0.25467683  0.43152708  1
  Nd3+  Nd35  1  0.12247513  0.50431956  0.43860339  1
  Nd3+  Nd36  1  0.49966370  0.62803940  0.55789257  1
  Nd3+  Nd37  1  0.75589960  0.36202967  0.06929737  1
  Nd3+  Nd38  1  0.74613025  0.10667543  0.08856775  1
  Nd3+  Nd39  1  0.25918911  0.61164967  0.05797052  1
  Nd3+  Nd40  1  0.50992133  0.13161539  0.58335258  1
  Nd3+  Nd41  1  -0.00244347  0.12847128  0.54881086  1
  Nd3+  Nd42  1  0.13273216  0.48361535  0.94345606  1
  Nd3+  Nd43  1  0.74850092  0.38081873  0.54996895  1
  Nd3+  Nd44  1  0.63795337  0.23381031  0.93776186  1
  Sm3+  Sm45  1  0.25137457  0.12859080  0.55886220  1
  Sm3+  Sm46  1  0.50800158  0.86272441  0.04478745  1
  Sm3+  Sm47  1  0.26102868  0.36162289  0.05033465  1
  Sm3+  Sm48  1  0.12173459  0.75619727  0.44291954  1
  Sm3+  Sm49  1  0.13245016  0.23609247  0.94508845  1
  Sm3+  Sm50  1  0.12761494  0.73570053  0.94132990  1
  Sm3+  Sm51  1  0.50895512  0.36182303  0.05488628  1
  Sm3+  Sm52  1  0.74824263  0.62861142  0.55752487  1
  Sm3+  Sm53  1  0.87374418  0.50386304  0.44199406  1
  Sm3+  Sm54  1  0.37681845  0.00482775  0.44725784  1
  Sm3+  Sm55  1  0.86912961  0.75093227  0.43723543  1
  Sm3+  Sm56  1  0.12307494  0.00223004  0.44313899  1
  Sm3+  Sm57  1  0.24881270  0.37836675  0.55489939  1
  Sm3+  Sm58  1  0.12351500  0.25192757  0.44192527  1
  Sm3+  Sm59  1  0.63490114  0.49196657  0.94623833  1
  Sm3+  Sm60  1  0.61966593  0.25301180  0.44118228  1
  Sm3+  Sm61  1  0.38327005  0.48776552  0.94107672  1
  Sm3+  Sm62  1  0.50120752  0.88128783  0.56711872  1
  Sm3+  Sm63  1  0.87629136  0.23387731  0.94552442  1
  Bi2+  Bi64  1  0.03869825  0.19800134  0.28646906  1
  Bi2+  Bi65  1  -0.03386225  0.17371849  0.81299111  1
  Bi2+  Bi66  1  0.02824439  0.39914048  0.29917547  1
  Bi2+  Bi67  1  -0.04395712  0.37062206  0.79999299  1
  Bi2+  Bi68  1  -0.00413189  0.58906484  0.22908224  1
  Bi2+  Bi69  1  0.01408059  0.63595865  0.79102792  1
  Bi2+  Bi70  1  0.02534966  0.87010107  0.29821625  1
  Bi2+  Bi71  1  0.00463349  0.87546302  0.78755186  1
  Bi2+  Bi72  1  0.30374865  0.12464056  0.29045788  1
  Bi2+  Bi73  1  0.14134950  0.10685482  0.78093905  1
  Bi2+  Bi74  1  0.23961079  0.37798800  0.29121801  1
  Bi2+  Bi75  1  0.15638930  0.38295821  0.78212057  1
  Bi2+  Bi76  1  0.26096882  0.56904325  0.31208976  1
  Bi2+  Bi77  1  0.22634656  0.67181761  0.80351971  1
  Bi2+  Bi78  1  0.27807489  0.88459969  0.31273723  1
  Bi2+  Bi79  1  0.20351833  0.86439566  0.79452047  1
  Bi2+  Bi80  1  0.49988025  0.11187642  0.29021088  1
  Bi2+  Bi81  1  0.52436076  0.13224149  0.78175755  1
  Bi2+  Bi82  1  0.43569910  0.36907752  0.27836834  1
  Bi2+  Bi83  1  0.45722793  0.37436572  0.79854665  1
  Bi2+  Bi84  1  0.44743794  0.63065451  0.28563334  1
  Bi2+  Bi85  1  0.48879642  0.60311336  0.80334055  1
  Bi2+  Bi86  1  0.48767765  0.85125350  0.26659379  1
  Bi2+  Bi87  1  0.46416056  0.87697849  0.77645290  1
  Bi2+  Bi88  1  0.73623032  0.14916363  0.28335735  1
  Bi2+  Bi89  1  0.76485820  0.18899830  0.76715568  1
  Bi2+  Bi90  1  0.82955242  0.39719954  0.29151219  1
  Bi2+  Bi91  1  0.75491353  0.38613433  0.80337054  1
  Bi2+  Bi92  1  0.71192405  0.60337834  0.29058698  1
  Bi2+  Bi93  1  0.76476719  0.61381189  0.79222101  1
  Bi2+  Bi94  1  0.77172010  0.85704723  0.30176607  1
  Bi2+  Bi95  1  0.72782665  0.89742194  0.80371431  1
  Bi2+  Bi96  1  0.16705240  0.00871651  0.24003030  1
  Bi2+  Bi97  1  0.06011307  -0.00898671  0.70001058  1
  Bi2+  Bi98  1  0.14750550  0.18587610  0.18920077  1
  Bi2+  Bi99  1  0.07385485  0.26234572  0.70416911  1
  Bi2+  Bi100  1  0.12506898  0.44757225  0.20270827  1
  Bi2+  Bi101  1  0.14469898  0.54723128  0.72177191  1
  Bi2+  Bi102  1  0.20737440  0.73552798  0.24639027  1
  Bi2+  Bi103  1  0.12229380  0.74871058  0.71162765  1
  Bi2+  Bi104  1  0.36097251  -0.01860701  0.21229036  1
  Bi2+  Bi105  1  0.31642333  0.02255523  0.71837800  1
  Bi2+  Bi106  1  0.33447915  0.24305232  0.19591679  1
  Bi2+  Bi107  1  0.33572688  0.27106396  0.70701598  1
  Bi2+  Bi108  1  0.35545488  0.51588084  0.21009887  1
  Bi2+  Bi109  1  0.42113124  0.47276897  0.69737775  1
  Bi2+  Bi110  1  0.35507536  0.78429546  0.18248003  1
  Bi2+  Bi111  1  0.37280141  0.65969231  0.72198798  1
  Bi2+  Bi112  1  0.60385648  -0.01557397  0.20730187  1
  Bi2+  Bi113  1  0.61555077  -0.01035478  0.69532282  1
  Bi2+  Bi114  1  0.56601779  0.26834969  0.20356977  1
  Bi2+  Bi115  1  0.62512014  0.29096745  0.71074832  1
  Bi2+  Bi116  1  0.62583916  0.47984217  0.20935156  1
  Bi2+  Bi117  1  0.60608905  0.48254802  0.73770473  1
  Bi2+  Bi118  1  0.61048587  0.72340838  0.21753633  1
  Bi2+  Bi119  1  0.62257205  0.73990434  0.70218027  1
  Bi2+  Bi120  1  0.87738186  0.01899819  0.21648067  1
  Bi2+  Bi121  1  0.87977517  0.02236332  0.75570160  1
  Bi2+  Bi122  1  0.93657343  0.26891705  0.20350923  1
  Bi2+  Bi123  1  0.88013245  0.26371561  0.68248557  1
  Bi2+  Bi124  1  0.81290403  0.54951301  0.19241844  1
  Bi2+  Bi125  1  0.86483537  0.46074962  0.71523927  1
  Bi2+  Bi126  1  0.88180692  0.74668954  0.20849329  1
  Bi2+  Bi127  1  0.86517079  0.75029418  0.69284915  1
  S2-  S128  1  -0.00362936  0.10381898  0.16007929  1
  S2-  S129  1  -0.01088008  0.13224576  0.64783584  1
  S2-  S130  1  -0.02564388  0.40260429  0.15229765  1
  S2-  S131  1  0.00047377  0.39725551  0.65335668  1
  S2-  S132  1  0.01708354  0.70303936  0.14930158  1
  S2-  S133  1  -0.03341664  0.64213389  0.65817907  1
  S2-  S134  1  -0.03551584  0.88824387  0.18219176  1
  S2-  S135  1  -0.04340443  0.87904871  0.64729545  1
  S2-  S136  1  0.37550177  0.10233047  0.13285582  1
  S2-  S137  1  0.25429788  0.13974666  0.65724879  1
  S2-  S138  1  0.26303701  0.37907994  0.14802789  1
  S2-  S139  1  0.25075595  0.37136195  0.65325317  1
  S2-  S140  1  0.26101268  0.62316754  0.15700157  1
  S2-  S141  1  0.23718925  0.64583516  0.65221218  1
  S2-  S142  1  0.19918023  0.84346204  0.15918970  1
  S2-  S143  1  0.25923030  0.89777097  0.66696075  1
  S2-  S144  1  0.59659408  0.12663640  0.14484743  1
  S2-  S145  1  0.46875483  0.05879810  0.67303236  1
  S2-  S146  1  0.50015965  0.39871587  0.15171541  1
  S2-  S147  1  0.49246835  0.27102473  0.64791273  1
  S2-  S148  1  0.51510314  0.64049203  0.15451990  1
  S2-  S149  1  0.51753809  0.64417999  0.65688007  1
  S2-  S150  1  0.52373611  0.89447144  0.14210940  1
  S2-  S151  1  0.50916351  0.85422667  0.66560014  1
  S2-  S152  1  0.80037051  0.16263038  0.18252113  1
  S2-  S153  1  0.67019173  0.11436707  0.64415964  1
  S2-  S154  1  0.70623789  0.35254671  0.16582456  1
  S2-  S155  1  0.75051429  0.37328603  0.64899062  1
  S2-  S156  1  0.73796749  0.73765846  0.14502982  1
  S2-  S157  1  0.74534781  0.64407370  0.65590167  1
  S2-  S158  1  0.74994663  0.96345335  0.15565251  1
  S2-  S159  1  0.73552780  0.86475350  0.66538942  1
  S2-  S160  1  0.13370688  -0.01544279  0.34596340  1
  S2-  S161  1  0.20823770  -0.00050181  0.85731178  1
  S2-  S162  1  0.16535752  0.24121498  0.34779767  1
  S2-  S163  1  0.13189250  0.24062026  0.84775204  1
  S2-  S164  1  0.09361199  0.54169394  0.34354110  1
  S2-  S165  1  0.10538991  0.50812850  0.84751807  1
  S2-  S166  1  0.14560262  0.76803092  0.34630322  1
  S2-  S167  1  0.01738034  0.75955784  0.86653996  1
  S2-  S168  1  0.47652124  0.00844443  0.36668596  1
  S2-  S169  1  0.41643084  0.03382980  0.82030781  1
  S2-  S170  1  0.41129514  0.24184958  0.34561210  1
  S2-  S171  1  0.34421808  0.25445725  0.81486433  1
  S2-  S172  1  0.47759528  0.50025730  0.35023299  1
  S2-  S173  1  0.36670382  0.50600349  0.84382383  1
  S2-  S174  1  0.39875192  0.77084627  0.34719471  1
  S2-  S175  1  0.36763458  0.83427775  0.84996619  1
  S2-  S176  1  0.72164425  -0.00948274  0.34984614  1
  S2-  S177  1  0.63453037  0.02778999  0.83402276  1
  S2-  S178  1  0.62558172  0.19968142  0.34753788  1
  S2-  S179  1  0.53873323  0.24203425  0.85413024  1
  S2-  S180  1  0.67024305  0.42926356  0.31591778  1
  S2-  S181  1  0.63970455  0.57904935  0.86052493  1
  S2-  S182  1  0.66351452  0.74941560  0.34864142  1
  S2-  S183  1  0.58226458  0.80313729  0.82328151  1
  S2-  S184  1  0.92385999  -0.00968564  0.31867927  1
  S2-  S185  1  0.84957414  -0.02203892  0.86021006  1
  S2-  S186  1  0.85257805  0.22324930  0.33395285  1
  S2-  S187  1  0.76736617  0.23691135  0.86829406  1
  S2-  S188  1  0.85139007  0.53477994  0.34751922  1
  S2-  S189  1  0.88477741  0.58621692  0.85562701  1
  S2-  S190  1  0.90142326  0.76951414  0.34044521  1
  S2-  S191  1  0.77934710  0.75552017  0.85194354  1
  S2-  S192  1  -0.00224898  0.12734656  0.44197251  1
  S2-  S193  1  0.00622379  0.11505034  0.95555986  1
  S2-  S194  1  -0.00185042  0.37712207  0.44771469  1
  S2-  S195  1  0.00473407  0.35737909  0.95023660  1
  S2-  S196  1  -0.00317823  0.63124877  0.45293063  1
  S2-  S197  1  0.01100088  0.60815129  0.96125866  1
  S2-  S198  1  -0.00355106  0.87831715  0.44757163  1
  S2-  S199  1  0.01034106  0.86410719  0.97040475  1
  S2-  S200  1  0.24868834  0.12554093  0.45297471  1
  S2-  S201  1  0.25969898  0.11817149  0.95226908  1
  S2-  S202  1  0.24675630  0.37915941  0.44920854  1
  S2-  S203  1  0.25982985  0.36022342  0.94486369  1
  S2-  S204  1  0.24598380  0.63064127  0.45031994  1
  S2-  S205  1  0.25504013  0.61151030  0.95093850  1
  S2-  S206  1  0.24822647  0.88174655  0.45963728  1
  S2-  S207  1  0.25119040  0.85567872  0.95653724  1
  S2-  S208  1  0.49792127  0.13328738  0.46767385  1
  S2-  S209  1  0.50747851  0.10770217  0.95026424  1
  S2-  S210  1  0.50317494  0.38072325  0.45578199  1
  S2-  S211  1  0.51101886  0.37006280  0.95028872  1
  S2-  S212  1  0.50180492  0.62873972  0.45176746  1
  S2-  S213  1  0.50403719  0.61205084  0.95224932  1
  S2-  S214  1  0.49806516  0.87771016  0.46190689  1
  S2-  S215  1  0.50863095  0.86104971  0.94264455  1
  S2-  S216  1  0.74684594  0.13127431  0.45151507  1
  S2-  S217  1  0.75900939  0.10870840  0.96745182  1
  S2-  S218  1  0.74510192  0.38040664  0.44387201  1
  S2-  S219  1  0.75612011  0.36799967  0.96177075  1
  S2-  S220  1  0.74648316  0.62460084  0.45227797  1
  S2-  S221  1  0.76035090  0.61155056  0.96288595  1
  S2-  S222  1  0.74974727  0.87677550  0.45642771  1
  S2-  S223  1  0.75767905  0.85971887  0.96106956  1
  S2-  S224  1  0.13480167  -0.00938506  0.05655878  1
  S2-  S225  1  0.12514390  0.00564492  0.54863658  1
  S2-  S226  1  0.13555073  0.23941221  0.04954170  1
  S2-  S227  1  0.12593881  0.25230997  0.54689152  1
  S2-  S228  1  0.13451901  0.48594052  0.04982444  1
  S2-  S229  1  0.12318882  0.50228589  0.54665558  1
  S2-  S230  1  0.13442688  0.73330677  0.04570019  1
  S2-  S231  1  0.12380557  0.75551397  0.54858391  1
  S2-  S232  1  0.38169679  -0.01736874  0.03106451  1
  S2-  S233  1  0.37584138  0.00443938  0.55225854  1
  S2-  S234  1  0.38564209  0.24385173  0.03491259  1
  S2-  S235  1  0.37004436  0.25397842  0.54863400  1
  S2-  S236  1  0.38328902  0.48628133  0.04589962  1
  S2-  S237  1  0.37342790  0.50208505  0.54280333  1
  S2-  S238  1  0.38318943  0.73696935  0.03962307  1
  S2-  S239  1  0.37539920  0.75702543  0.55423363  1
  S2-  S240  1  0.62910213  -0.01258598  0.04165318  1
  S2-  S241  1  0.62311687  0.00048735  0.54351893  1
  S2-  S242  1  0.63199866  0.24181483  0.04467231  1
  S2-  S243  1  0.62654137  0.25656874  0.54508822  1
  S2-  S244  1  0.63316033  0.48864838  0.05090449  1
  S2-  S245  1  0.62455009  0.50462192  0.55329284  1
  S2-  S246  1  0.62713056  0.73671424  0.03732710  1
  S2-  S247  1  0.62417887  0.75461897  0.54996947  1
  S2-  S248  1  0.88467806  -0.01287028  0.06001866  1
  S2-  S249  1  0.87246294  0.00566975  0.53838862  1
  S2-  S250  1  0.87778471  0.23657645  0.05148218  1
  S2-  S251  1  0.87300637  0.25393811  0.53819918  1
  S2-  S252  1  0.87967108  0.48743336  0.04695525  1
  S2-  S253  1  0.87436387  0.50496967  0.54738184  1
  S2-  S254  1  0.88598356  0.73594711  0.04651264  1
  S2-  S255  1  0.87224639  0.75115571  0.54267099  1
