# generated using pymatgen
data_La6Ce7Pr13Nd19Sm19(BiS2)64
_symmetry_space_group_name_H-M   'P 1'
_cell_length_a   16.08607699
_cell_length_b   16.10307637
_cell_length_c   27.32340653
_cell_angle_alpha   90.11679269
_cell_angle_beta   90.07710162
_cell_angle_gamma   89.93754948
_symmetry_Int_Tables_number   1
_chemical_formula_structural   La6Ce7Pr13Nd19Sm19(BiS2)64
_chemical_formula_sum   'La6 Ce7 Pr13 Nd19 Sm19 Bi64 S128'
_cell_volume   7077.70222929
_cell_formula_units_Z   1
loop_
 _symmetry_equiv_pos_site_id
 _symmetry_equiv_pos_as_xyz
  1  'x, y, z'
loop_
 _atom_type_symbol
 _atom_type_oxidation_number
  La3+  3.0
  Ce3+  3.0
  Pr3+  3.0
  Nd3+  3.0
  Sm3+  3.0
  Bi2+  2.0
  S2-  -2.0
loop_
 _atom_site_type_symbol
 _atom_site_label
 _atom_site_symmetry_multiplicity
 _atom_site_fract_x
 _atom_site_fract_y
 _atom_site_fract_z
 _atom_site_occupancy
  La3+  La0  1  0.59828628  -0.00088343  0.41739237  1
  La3+  La1  1  -0.00957552  0.38868491  0.61451086  1
  La3+  La2  1  0.60391276  0.26054765  0.41004034  1
  La3+  La3  1  0.26802906  0.62467308  0.07705805  1
  La3+  La4  1  0.23484309  0.63356786  0.57998685  1
  La3+  La5  1  0.10450126  0.00675029  0.43281506  1
  Ce3+  Ce6  1  0.01375836  0.13392117  0.05990149  1
  Ce3+  Ce7  1  0.14083172  0.75121140  0.94121357  1
  Ce3+  Ce8  1  0.36221874  0.25462268  0.44223009  1
  Ce3+  Ce9  1  0.35530162  0.50510186  0.44679196  1
  Ce3+  Ce10  1  0.38612147  0.50437371  0.94099812  1
  Ce3+  Ce11  1  0.88596358  0.50338466  0.92975073  1
  Ce3+  Ce12  1  0.64248018  0.25206990  0.93297059  1
  Pr3+  Pr13  1  0.85671811  0.50334194  0.44712019  1
  Pr3+  Pr14  1  0.51621843  0.13403428  0.06389281  1
  Pr3+  Pr15  1  0.88744117  0.00250266  0.94471226  1
  Pr3+  Pr16  1  0.14265225  0.24928899  0.92610192  1
  Pr3+  Pr17  1  0.26362164  0.88030426  0.07405634  1
  Pr3+  Pr18  1  0.76643146  0.13757919  0.07043737  1
  Pr3+  Pr19  1  0.01799986  0.62660380  0.05473109  1
  Pr3+  Pr20  1  -0.02220178  0.88518455  0.56391488  1
  Pr3+  Pr21  1  0.72758286  0.13050215  0.55770035  1
  Pr3+  Pr22  1  0.89233853  0.23863497  0.91710649  1
  Pr3+  Pr23  1  0.72899506  0.62885643  0.56418306  1
  Pr3+  Pr24  1  0.48217462  0.88216620  0.55711579  1
  Pr3+  Pr25  1  0.10370469  0.25582093  0.44694950  1
  Nd3+  Nd26  1  0.34905460  0.75166442  0.43626048  1
  Nd3+  Nd27  1  0.76787224  0.38184633  0.05795138  1
  Nd3+  Nd28  1  0.15068089  0.51170704  0.91535897  1
  Nd3+  Nd29  1  0.51894694  0.88081716  0.06042542  1
  Nd3+  Nd30  1  0.73005649  0.37834173  0.56784306  1
  Nd3+  Nd31  1  -0.02605878  0.13362787  0.57317302  1
  Nd3+  Nd32  1  0.64040878  0.75665478  0.93912992  1
  Nd3+  Nd33  1  -0.02122098  0.63326458  0.56960409  1
  Nd3+  Nd34  1  0.63770989  0.01247823  0.93348899  1
  Nd3+  Nd35  1  0.51374133  0.37705345  0.05262828  1
  Nd3+  Nd36  1  0.01713219  0.37888012  0.04267280  1
  Nd3+  Nd37  1  0.85491662  0.25651844  0.44393285  1
  Nd3+  Nd38  1  0.60761898  0.75311876  0.43463870  1
  Nd3+  Nd39  1  0.10629911  0.50488515  0.44819536  1
  Nd3+  Nd40  1  0.48583574  0.37768323  0.56617385  1
  Nd3+  Nd41  1  0.38867429  0.75453552  0.94125995  1
  Nd3+  Nd42  1  0.85774452  0.75404113  0.44600761  1
  Nd3+  Nd43  1  0.23162503  0.38021275  0.56482964  1
  Nd3+  Nd44  1  0.63901100  0.50364739  0.93902784  1
  Sm3+  Sm45  1  0.60795481  0.50369210  0.43802583  1
  Sm3+  Sm46  1  0.38820160  0.00362062  0.94979998  1
  Sm3+  Sm47  1  0.48570080  0.13051462  0.55974891  1
  Sm3+  Sm48  1  0.10575289  0.75301736  0.45069670  1
  Sm3+  Sm49  1  0.23025079  0.13162032  0.55842702  1
  Sm3+  Sm50  1  0.25985821  0.37430810  0.06128151  1
  Sm3+  Sm51  1  0.48254176  0.63141973  0.54887104  1
  Sm3+  Sm52  1  0.72895445  0.88407755  0.54958573  1
  Sm3+  Sm53  1  0.51140346  0.63000546  0.05704030  1
  Sm3+  Sm54  1  0.76443636  0.62503716  0.06362332  1
  Sm3+  Sm55  1  0.14025758  0.00120412  0.94749435  1
  Sm3+  Sm56  1  0.76219382  0.87966648  0.05955427  1
  Sm3+  Sm57  1  0.35229457  0.00298915  0.43610696  1
  Sm3+  Sm58  1  0.88786773  0.75183639  0.94857983  1
  Sm3+  Sm59  1  0.85575077  0.00943852  0.43261000  1
  Sm3+  Sm60  1  0.23099839  0.88192725  0.56535690  1
  Sm3+  Sm61  1  0.01324747  0.87801234  0.05884386  1
  Sm3+  Sm62  1  0.38488178  0.25241132  0.93487383  1
  Sm3+  Sm63  1  0.26283391  0.12777903  0.06896678  1
  Bi2+  Bi64  1  0.02719255  0.11027265  0.27963615  1
  Bi2+  Bi65  1  -0.00458625  0.08738642  0.78435970  1
  Bi2+  Bi66  1  0.02015187  0.33410418  0.28758026  1
  Bi2+  Bi67  1  -0.02610201  0.37289685  0.81599482  1
  Bi2+  Bi68  1  -0.02569434  0.59516072  0.30157673  1
  Bi2+  Bi69  1  0.00522627  0.70144209  0.79090012  1
  Bi2+  Bi70  1  0.00474198  0.80939108  0.28511866  1
  Bi2+  Bi71  1  0.04590881  0.89684298  0.80444808  1
  Bi2+  Bi72  1  0.24635093  0.10686775  0.27734526  1
  Bi2+  Bi73  1  0.27044756  0.09124656  0.79041729  1
  Bi2+  Bi74  1  0.21188777  0.36660763  0.27588477  1
  Bi2+  Bi75  1  0.28613635  0.33025901  0.77257955  1
  Bi2+  Bi76  1  0.23917057  0.63429719  0.31539617  1
  Bi2+  Bi77  1  0.27773638  0.64193459  0.79454398  1
  Bi2+  Bi78  1  0.22983486  0.87834037  0.28914703  1
  Bi2+  Bi79  1  0.31219641  0.91367804  0.73969245  1
  Bi2+  Bi80  1  0.51929927  0.11053595  0.29511272  1
  Bi2+  Bi81  1  0.49100722  0.14677020  0.78524912  1
  Bi2+  Bi82  1  0.48625049  0.41548101  0.24462038  1
  Bi2+  Bi83  1  0.48165291  0.34491983  0.80230414  1
  Bi2+  Bi84  1  0.49226812  0.60965137  0.28277367  1
  Bi2+  Bi85  1  0.48632482  0.63581073  0.78750687  1
  Bi2+  Bi86  1  0.49496790  0.83054898  0.27943103  1
  Bi2+  Bi87  1  0.50049105  0.93028297  0.78886420  1
  Bi2+  Bi88  1  0.77710199  0.12875748  0.27455519  1
  Bi2+  Bi89  1  0.73036091  0.06507564  0.79172590  1
  Bi2+  Bi90  1  0.75316733  0.37036454  0.30121807  1
  Bi2+  Bi91  1  0.68093573  0.35736706  0.78387476  1
  Bi2+  Bi92  1  0.67769358  0.61758600  0.31071509  1
  Bi2+  Bi93  1  0.75111505  0.63202921  0.80642560  1
  Bi2+  Bi94  1  0.75248013  0.80162318  0.29264704  1
  Bi2+  Bi95  1  0.80143558  0.88223301  0.78237586  1
  Bi2+  Bi96  1  0.11277314  -0.01328365  0.20448125  1
  Bi2+  Bi97  1  0.11906699  -0.00769036  0.70897054  1
  Bi2+  Bi98  1  0.13308065  0.24102661  0.18999923  1
  Bi2+  Bi99  1  0.14188971  0.23428541  0.71798205  1
  Bi2+  Bi100  1  0.10237926  0.48026400  0.20525571  1
  Bi2+  Bi101  1  0.13380667  0.50490247  0.72195024  1
  Bi2+  Bi102  1  0.11511855  0.72836873  0.20887279  1
  Bi2+  Bi103  1  0.15250413  0.78739549  0.73048954  1
  Bi2+  Bi104  1  0.36373859  -0.02456649  0.22766789  1
  Bi2+  Bi105  1  0.39527570  0.07287114  0.69118735  1
  Bi2+  Bi106  1  0.37186502  0.25510143  0.26240965  1
  Bi2+  Bi107  1  0.40756789  0.27146887  0.68142501  1
  Bi2+  Bi108  1  0.33243100  0.52957436  0.22058406  1
  Bi2+  Bi109  1  0.40332322  0.46102249  0.71676209  1
  Bi2+  Bi110  1  0.38471764  0.74207820  0.20528861  1
  Bi2+  Bi111  1  0.40230631  0.72708566  0.69665866  1
  Bi2+  Bi112  1  0.62236972  -0.02547883  0.19331695  1
  Bi2+  Bi113  1  0.61507765  -0.02706385  0.69620689  1
  Bi2+  Bi114  1  0.62627541  0.22978487  0.18811039  1
  Bi2+  Bi115  1  0.60528833  0.24051485  0.70602791  1
  Bi2+  Bi116  1  0.64303348  0.51306388  0.20569603  1
  Bi2+  Bi117  1  0.60333580  0.51764391  0.70800152  1
  Bi2+  Bi118  1  0.64834019  0.71114583  0.20318907  1
  Bi2+  Bi119  1  0.59690765  0.78107248  0.74151478  1
  Bi2+  Bi120  1  0.88570990  -0.03624319  0.27608290  1
  Bi2+  Bi121  1  0.89527603  -0.03593525  0.69229936  1
  Bi2+  Bi122  1  0.90863048  0.27789885  0.20476919  1
  Bi2+  Bi123  1  0.85125724  0.23351840  0.70908169  1
  Bi2+  Bi124  1  0.84278282  0.52971861  0.22898853  1
  Bi2+  Bi125  1  0.86179513  0.51313736  0.71554008  1
  Bi2+  Bi126  1  0.84538447  0.71888061  0.20381454  1
  Bi2+  Bi127  1  0.86536149  0.73783617  0.71422127  1
  S2-  S128  1  0.00993885  0.11703262  0.15774979  1
  S2-  S129  1  -0.00372654  0.22390588  0.65992759  1
  S2-  S130  1  0.00889971  0.36709833  0.14328502  1
  S2-  S131  1  -0.01684644  0.40287640  0.72217018  1
  S2-  S132  1  0.03405117  0.61032710  0.15493251  1
  S2-  S133  1  -0.00027222  0.56421750  0.65892365  1
  S2-  S134  1  0.03425551  0.86328834  0.15544580  1
  S2-  S135  1  -0.02314236  0.81598563  0.65624577  1
  S2-  S136  1  0.26888882  0.25296272  0.13716059  1
  S2-  S137  1  0.20483875  0.12435719  0.65609766  1
  S2-  S138  1  0.23575875  0.48446376  0.13901752  1
  S2-  S139  1  0.15828982  0.37300414  0.65483715  1
  S2-  S140  1  0.24759763  0.75732566  0.14703200  1
  S2-  S141  1  0.25933867  0.55325462  0.67090899  1
  S2-  S142  1  0.26510601  1.00745122  0.14692645  1
  S2-  S143  1  0.25022123  0.77706276  0.64250833  1
  S2-  S144  1  0.51557683  0.11100086  0.16419565  1
  S2-  S145  1  0.60477365  0.11648932  0.63306701  1
  S2-  S146  1  0.51712964  0.33571354  0.14903773  1
  S2-  S147  1  0.60395314  0.38797097  0.64061365  1
  S2-  S148  1  0.42409622  0.61755559  0.14111906  1
  S2-  S149  1  0.50198964  0.62016010  0.64527310  1
  S2-  S150  1  0.48468340  0.87308137  0.15735282  1
  S2-  S151  1  0.50537741  0.84742343  0.65458716  1
  S2-  S152  1  0.73602096  0.08209830  0.16801197  1
  S2-  S153  1  0.83357167  0.11423790  0.64311303  1
  S2-  S154  1  0.77866746  0.27822473  0.13933082  1
  S2-  S155  1  0.82269465  0.37168208  0.65649031  1
  S2-  S156  1  0.77560610  0.50431190  0.13332573  1
  S2-  S157  1  0.73446564  0.60556156  0.66379249  1
  S2-  S158  1  0.72612521  0.86941633  0.15469373  1
  S2-  S159  1  0.74377203  0.89908900  0.64676024  1
  S2-  S160  1  0.23017333  -0.00275150  0.36122735  1
  S2-  S161  1  0.14416251  0.02464329  0.85074539  1
  S2-  S162  1  0.09435831  0.21449349  0.34950000  1
  S2-  S163  1  0.03432775  0.22263150  0.84653520  1
  S2-  S164  1  0.10880624  0.53833933  0.34982028  1
  S2-  S165  1  0.11974176  0.44314971  0.82268158  1
  S2-  S166  1  0.13506807  0.76887629  0.35485019  1
  S2-  S167  1  0.13949225  0.66243822  0.85660085  1
  S2-  S168  1  0.45304069  0.00818079  0.35511160  1
  S2-  S169  1  0.38553770  0.00160499  0.85230899  1
  S2-  S170  1  0.44778833  0.25015246  0.35716307  1
  S2-  S171  1  0.27610864  0.23453613  0.85817726  1
  S2-  S172  1  0.33833055  0.51854007  0.35049074  1
  S2-  S173  1  0.30684739  0.51416918  0.85685660  1
  S2-  S174  1  0.35544672  0.77190108  0.33764545  1
  S2-  S175  1  0.37886136  0.74785510  0.84185198  1
  S2-  S176  1  0.67259218  0.03925981  0.32553525  1
  S2-  S177  1  0.66937822  -0.06962077  0.84732160  1
  S2-  S178  1  0.64376583  0.23899521  0.29536109  1
  S2-  S179  1  0.63148095  0.13935122  0.85853273  1
  S2-  S180  1  0.61739542  0.41173704  0.35636527  1
  S2-  S181  1  0.66451195  0.50763946  0.84092290  1
  S2-  S182  1  0.60431001  0.84333463  0.35089494  1
  S2-  S183  1  0.62050681  0.71779217  0.84305512  1
  S2-  S184  1  0.97561855  0.00784379  0.36170613  1
  S2-  S185  1  0.87134749  0.08069684  0.85554810  1
  S2-  S186  1  0.84462971  0.24311102  0.34413777  1
  S2-  S187  1  0.81312545  0.28779437  0.82665839  1
  S2-  S188  1  0.85971658  0.48866201  0.34674781  1
  S2-  S189  1  0.88768367  0.52601500  0.83177160  1
  S2-  S190  1  0.88750033  0.73148666  0.35016666  1
  S2-  S191  1  0.86347760  0.75634571  0.85236017  1
  S2-  S192  1  -0.02203036  0.13160845  0.46330351  1
  S2-  S193  1  0.01748858  0.12193942  0.95533108  1
  S2-  S194  1  -0.01788213  0.38075488  0.44878832  1
  S2-  S195  1  0.01532147  0.38063222  0.93864091  1
  S2-  S196  1  -0.01735442  0.63059892  0.46202392  1
  S2-  S197  1  0.00996726  0.62869421  0.94942051  1
  S2-  S198  1  -0.01866314  0.87689543  0.45734333  1
  S2-  S199  1  0.01306354  0.87617001  0.95378349  1
  S2-  S200  1  0.23411216  0.13313347  0.45547858  1
  S2-  S201  1  0.26456228  0.12265965  0.96205132  1
  S2-  S202  1  0.23225440  0.37876825  0.45658026  1
  S2-  S203  1  0.26446662  0.37779049  0.95373149  1
  S2-  S204  1  0.22934398  0.63001146  0.46592279  1
  S2-  S205  1  0.26773469  0.63252967  0.96233620  1
  S2-  S206  1  0.22968492  0.87674089  0.46249600  1
  S2-  S207  1  0.26464534  0.87927217  0.95779856  1
  S2-  S208  1  0.47966399  0.12738671  0.45717528  1
  S2-  S209  1  0.50702909  0.13061947  0.95647427  1
  S2-  S210  1  0.48182021  0.38393098  0.45892213  1
  S2-  S211  1  0.51227970  0.37641310  0.94583259  1
  S2-  S212  1  0.48253502  0.62978847  0.44422411  1
  S2-  S213  1  0.51451967  0.62964733  0.95240836  1
  S2-  S214  1  0.47364670  0.87281723  0.45206509  1
  S2-  S215  1  0.51539912  0.88106616  0.95295875  1
  S2-  S216  1  0.72927992  0.13103656  0.44594273  1
  S2-  S217  1  0.76406241  0.12940011  0.96091151  1
  S2-  S218  1  0.73010432  0.37988751  0.45915116  1
  S2-  S219  1  0.76406995  0.37803670  0.94899941  1
  S2-  S220  1  0.73055554  0.62967811  0.45531225  1
  S2-  S221  1  0.76244535  0.62932715  0.95818080  1
  S2-  S222  1  0.73673089  0.88135939  0.44566730  1
  S2-  S223  1  0.76443268  0.87727329  0.95611745  1
  S2-  S224  1  0.13462735  0.00283624  0.05013130  1
  S2-  S225  1  0.10722516  0.00631308  0.54867299  1
  S2-  S226  1  0.13883273  0.25186753  0.03583628  1
  S2-  S227  1  0.10671133  0.25491399  0.55140209  1
  S2-  S228  1  0.13952839  0.50274308  0.03246859  1
  S2-  S229  1  0.10688147  0.50544876  0.55354394  1
  S2-  S230  1  0.13724783  0.75661866  0.04499748  1
  S2-  S231  1  0.10446645  0.75785739  0.55359873  1
  S2-  S232  1  0.39301541  0.00547718  0.05235316  1
  S2-  S233  1  0.35380951  0.00611733  0.54717022  1
  S2-  S234  1  0.38848678  0.25375767  0.03890215  1
  S2-  S235  1  0.35748838  0.25276015  0.54899280  1
  S2-  S236  1  0.38988337  0.49830540  0.04419082  1
  S2-  S237  1  0.36018881  0.50447853  0.55317172  1
  S2-  S238  1  0.39294193  0.75930351  0.04597104  1
  S2-  S239  1  0.35956006  0.75509109  0.54253997  1
  S2-  S240  1  0.64184686  0.00618636  0.04422563  1
  S2-  S241  1  0.60529041  0.00139553  0.53172198  1
  S2-  S242  1  0.63990502  0.25618671  0.03912178  1
  S2-  S243  1  0.60292979  0.25506952  0.53709383  1
  S2-  S244  1  0.63352040  0.50640305  0.04416507  1
  S2-  S245  1  0.60511382  0.50764379  0.54115738  1
  S2-  S246  1  0.64066647  0.74976818  0.04733331  1
  S2-  S247  1  0.60756808  0.75580925  0.54159810  1
  S2-  S248  1  0.88758860  0.00144781  0.05280143  1
  S2-  S249  1  0.85378170  0.00427766  0.53653008  1
  S2-  S250  1  0.89253415  0.25493981  0.03344780  1
  S2-  S251  1  0.85540196  0.25751048  0.54804284  1
  S2-  S252  1  0.89249728  0.50514832  0.03623665  1
  S2-  S253  1  0.85805824  0.50535364  0.55356531  1
  S2-  S254  1  0.88652058  0.75294603  0.05328085  1
  S2-  S255  1  0.85215698  0.75675509  0.55113785  1
