# generated using pymatgen
data_La6Ce7Pr13Nd19Sm19(BiS2)64
_symmetry_space_group_name_H-M   'P 1'
_cell_length_a   16.05421085
_cell_length_b   15.95813507
_cell_length_c   27.45968334
_cell_angle_alpha   89.30402539
_cell_angle_beta   89.87982551
_cell_angle_gamma   89.97132346
_symmetry_Int_Tables_number   1
_chemical_formula_structural   La6Ce7Pr13Nd19Sm19(BiS2)64
_chemical_formula_sum   'La6 Ce7 Pr13 Nd19 Sm19 Bi64 S128'
_cell_volume   7034.50558196
_cell_formula_units_Z   1
loop_
 _symmetry_equiv_pos_site_id
 _symmetry_equiv_pos_as_xyz
  1  'x, y, z'
loop_
 _atom_type_symbol
 _atom_type_oxidation_number
  La3+  3.0
  Ce3+  3.0
  Pr3+  3.0
  Nd3+  3.0
  Sm3+  3.0
  Bi2+  2.0
  S2-  -2.0
loop_
 _atom_site_type_symbol
 _atom_site_label
 _atom_site_symmetry_multiplicity
 _atom_site_fract_x
 _atom_site_fract_y
 _atom_site_fract_z
 _atom_site_occupancy
  La3+  La0  1  0.12428106  0.28404793  0.42417892  1
  La3+  La1  1  0.75403623  0.91008336  0.56148664  1
  La3+  La2  1  0.62528994  0.53104117  0.92191784  1
  La3+  La3  1  0.88930361  0.52478483  0.91963119  1
  La3+  La4  1  0.62621617  0.29196926  0.43422149  1
  La3+  La5  1  0.49147179  0.39785978  0.59936213  1
  Ce3+  Ce6  1  0.86717759  0.78645031  0.42074645  1
  Ce3+  Ce7  1  0.00837252  0.40439193  0.06176106  1
  Ce3+  Ce8  1  0.49440479  0.90592257  0.56342668  1
  Ce3+  Ce9  1  0.00737641  0.15280201  0.06075452  1
  Ce3+  Ce10  1  0.00310141  0.90286495  0.05901268  1
  Ce3+  Ce11  1  0.75391678  0.89749139  0.06039859  1
  Ce3+  Ce12  1  0.13405553  0.27162088  0.93978896  1
  Pr3+  Pr13  1  0.37622059  0.53559831  0.43694496  1
  Pr3+  Pr14  1  0.50651949  0.15290545  0.56582345  1
  Pr3+  Pr15  1  0.87576690  0.03864900  0.42736624  1
  Pr3+  Pr16  1  0.62679509  0.04118225  0.42910400  1
  Pr3+  Pr17  1  0.25075782  0.15751126  0.56232531  1
  Pr3+  Pr18  1  0.12677215  0.78636610  0.42622940  1
  Pr3+  Pr19  1  0.12265433  0.53575077  0.42900753  1
  Pr3+  Pr20  1  0.38604897  0.02740307  0.93711633  1
  Pr3+  Pr21  1  0.75561382  0.14662673  0.06657670  1
  Pr3+  Pr22  1  0.37470752  0.29111025  0.43241019  1
  Pr3+  Pr23  1  0.00749817  0.64652764  0.06140945  1
  Pr3+  Pr24  1  0.88101905  0.27364156  0.93576113  1
  Pr3+  Pr25  1  0.25442972  0.15084056  0.07269425  1
  Nd3+  Nd26  1  0.75955674  0.65599150  0.57038027  1
  Nd3+  Nd27  1  -0.00166282  0.15640211  0.56138385  1
  Nd3+  Nd28  1  0.63210853  0.02697652  0.93205810  1
  Nd3+  Nd29  1  0.14095120  0.02942399  0.92111794  1
  Nd3+  Nd30  1  0.62777962  0.53416616  0.44291908  1
  Nd3+  Nd31  1  0.75445315  0.40354326  0.06201001  1
  Nd3+  Nd32  1  0.75229017  0.16001859  0.56129013  1
  Nd3+  Nd33  1  0.25370128  0.90843350  0.56593554  1
  Nd3+  Nd34  1  0.49762865  0.65059628  0.56559507  1
  Nd3+  Nd35  1  0.37718263  0.77515942  0.94566785  1
  Nd3+  Nd36  1  -0.00418333  0.40636996  0.56441596  1
  Nd3+  Nd37  1  0.37860059  0.78456604  0.43175786  1
  Nd3+  Nd38  1  0.25613912  0.39975378  0.06669884  1
  Nd3+  Nd39  1  0.74645458  0.40919619  0.57128377  1
  Nd3+  Nd40  1  0.24955215  0.65523204  0.55844751  1
  Nd3+  Nd41  1  0.37497035  0.03777201  0.43670087  1
  Nd3+  Nd42  1  0.51407280  0.39737491  0.08388122  1
  Nd3+  Nd43  1  0.24679350  0.40408530  0.56014024  1
  Nd3+  Nd44  1  0.00173709  0.90766291  0.54796404  1
  Sm3+  Sm45  1  0.25539410  0.64528408  0.06914703  1
  Sm3+  Sm46  1  0.87542115  0.02774652  0.93151436  1
  Sm3+  Sm47  1  0.63231072  0.76981804  0.94445476  1
  Sm3+  Sm48  1  0.38319564  0.27588537  0.95132833  1
  Sm3+  Sm49  1  0.63224239  0.27729218  0.94436667  1
  Sm3+  Sm50  1  0.75634018  0.64068574  0.06102496  1
  Sm3+  Sm51  1  0.50428262  0.89677519  0.05588705  1
  Sm3+  Sm52  1  0.87478225  0.53508732  0.43467269  1
  Sm3+  Sm53  1  0.13370870  0.53328874  0.93166706  1
  Sm3+  Sm54  1  0.87508570  0.28896072  0.43531357  1
  Sm3+  Sm55  1  0.88084601  0.77210911  0.94585611  1
  Sm3+  Sm56  1  0.24893434  0.89397348  0.06876109  1
  Sm3+  Sm57  1  0.37971285  0.52484856  0.94363605  1
  Sm3+  Sm58  1  0.13084553  0.78251294  0.93745707  1
  Sm3+  Sm59  1  0.50708278  0.64377210  0.06556620  1
  Sm3+  Sm60  1  0.62733952  0.78454983  0.45269288  1
  Sm3+  Sm61  1  -0.00137057  0.65939255  0.55566065  1
  Sm3+  Sm62  1  0.50500003  0.14489318  0.06501668  1
  Sm3+  Sm63  1  0.12665205  0.03593291  0.43166415  1
  Bi2+  Bi64  1  0.00056761  0.04312235  0.30920649  1
  Bi2+  Bi65  1  0.01362271  0.08776551  0.74106846  1
  Bi2+  Bi66  1  -0.00511842  0.38877235  0.28325152  1
  Bi2+  Bi67  1  0.04897126  0.33224033  0.75745089  1
  Bi2+  Bi68  1  0.00086738  0.60066547  0.29040495  1
  Bi2+  Bi69  1  0.06732742  0.61265729  0.78054913  1
  Bi2+  Bi70  1  0.01412309  0.79520846  0.25643033  1
  Bi2+  Bi71  1  -0.01123319  0.90879482  0.79259749  1
  Bi2+  Bi72  1  0.26525672  0.09254529  0.29946776  1
  Bi2+  Bi73  1  0.19935417  0.10106893  0.77785895  1
  Bi2+  Bi74  1  0.26332441  0.34106103  0.29761435  1
  Bi2+  Bi75  1  0.23617279  0.31337924  0.79426340  1
  Bi2+  Bi76  1  0.22614058  0.62780546  0.26729465  1
  Bi2+  Bi77  1  0.25833355  0.50188442  0.82360266  1
  Bi2+  Bi78  1  0.31389183  0.79735519  0.30170335  1
  Bi2+  Bi79  1  0.23722644  0.79751740  0.79817930  1
  Bi2+  Bi80  1  0.50770736  0.00035096  0.26471904  1
  Bi2+  Bi81  1  0.41525360  0.10440555  0.79554753  1
  Bi2+  Bi82  1  0.50034908  0.41729307  0.28350186  1
  Bi2+  Bi83  1  0.51872967  0.35843311  0.83104255  1
  Bi2+  Bi84  1  0.51436729  0.61142666  0.29789070  1
  Bi2+  Bi85  1  0.39519081  0.62925894  0.78770853  1
  Bi2+  Bi86  1  0.52555575  0.81364030  0.30352098  1
  Bi2+  Bi87  1  0.51132730  0.88126393  0.76406496  1
  Bi2+  Bi88  1  0.75486224  0.09461680  0.29806035  1
  Bi2+  Bi89  1  0.76979313  0.12867205  0.79861817  1
  Bi2+  Bi90  1  0.73636700  0.33800967  0.30461895  1
  Bi2+  Bi91  1  0.76480865  0.34812006  0.78631451  1
  Bi2+  Bi92  1  0.73120398  0.61935168  0.29769779  1
  Bi2+  Bi93  1  0.78632945  0.60833653  0.79732533  1
  Bi2+  Bi94  1  0.73297681  0.81567523  0.26208714  1
  Bi2+  Bi95  1  0.80465113  0.84737740  0.79902979  1
  Bi2+  Bi96  1  0.17130267  -0.07575128  0.25774185  1
  Bi2+  Bi97  1  0.12640285  -0.06585038  0.69501014  1
  Bi2+  Bi98  1  0.11090544  0.19109079  0.19778786  1
  Bi2+  Bi99  1  0.11797874  0.27901125  0.64916866  1
  Bi2+  Bi100  1  0.11958708  0.43641234  0.19362337  1
  Bi2+  Bi101  1  0.07710973  0.47645669  0.68142709  1
  Bi2+  Bi102  1  0.10671226  0.67679813  0.18312974  1
  Bi2+  Bi103  1  0.15655238  0.73863153  0.70227063  1
  Bi2+  Bi104  1  0.33924982  -0.11648824  0.19867701  1
  Bi2+  Bi105  1  0.37219584  -0.01376425  0.70481610  1
  Bi2+  Bi106  1  0.35347527  0.20533512  0.20832938  1
  Bi2+  Bi107  1  0.29335798  0.24183487  0.69331392  1
  Bi2+  Bi108  1  0.37196692  0.52774356  0.22145113  1
  Bi2+  Bi109  1  0.26246968  0.51342918  0.71111462  1
  Bi2+  Bi110  1  0.47376088  0.72977222  0.20059974  1
  Bi2+  Bi111  1  0.45356804  0.73143388  0.69635704  1
  Bi2+  Bi112  1  0.66091060  -0.03745644  0.19472015  1
  Bi2+  Bi113  1  0.63290859  0.00102850  0.70754845  1
  Bi2+  Bi114  1  0.59581462  0.22907859  0.20269760  1
  Bi2+  Bi115  1  0.58856488  0.24582071  0.71212525  1
  Bi2+  Bi116  1  0.63939152  0.49751949  0.20624487  1
  Bi2+  Bi117  1  0.60102611  0.50620668  0.71870994  1
  Bi2+  Bi118  1  0.66909790  0.69757125  0.17843880  1
  Bi2+  Bi119  1  0.64951679  0.73828253  0.76363165  1
  Bi2+  Bi120  1  0.94464068  -0.02658492  0.21055870  1
  Bi2+  Bi121  1  0.85163163  -0.00534937  0.69629783  1
  Bi2+  Bi122  1  0.88108016  0.23161490  0.25814942  1
  Bi2+  Bi123  1  0.88651996  0.25993277  0.71133770  1
  Bi2+  Bi124  1  0.85279516  0.50506089  0.23156389  1
  Bi2+  Bi125  1  0.86788115  0.53573232  0.70140157  1
  Bi2+  Bi126  1  0.86574987  0.70499288  0.19954341  1
  Bi2+  Bi127  1  0.93418109  0.74226795  0.73388300  1
  S2-  S128  1  -0.02547442  0.11264329  0.15466997  1
  S2-  S129  1  -0.12126120  0.14367212  0.63571030  1
  S2-  S130  1  0.02108901  0.31646352  0.14776460  1
  S2-  S131  1  -0.12452921  0.39573021  0.64077381  1
  S2-  S132  1  0.01947172  0.52948612  0.13923618  1
  S2-  S133  1  -0.09685893  0.67450752  0.63825848  1
  S2-  S134  1  0.05794550  0.89572359  0.14932126  1
  S2-  S135  1  -0.02621041  0.91171930  0.64605274  1
  S2-  S136  1  0.22748579  0.08317420  0.16699996  1
  S2-  S137  1  0.24005888  0.03459492  0.63930888  1
  S2-  S138  1  0.23772275  0.28807404  0.14736730  1
  S2-  S139  1  0.32992151  0.40091046  0.64757800  1
  S2-  S140  1  0.25834369  0.51892693  0.14226304  1
  S2-  S141  1  0.29401222  0.66123584  0.65490191  1
  S2-  S142  1  0.24987553  0.76869758  0.14135754  1
  S2-  S143  1  0.37591534  0.85935271  0.63748100  1
  S2-  S144  1  0.47641037  0.11784366  0.16138627  1
  S2-  S145  1  0.45900585  0.23481609  0.65124874  1
  S2-  S146  1  0.45209802  0.32310107  0.17438112  1
  S2-  S147  1  0.48224488  0.38354267  0.74234820  1
  S2-  S148  1  0.50401429  0.53778750  0.14504764  1
  S2-  S149  1  0.49959551  0.55709040  0.65144446  1
  S2-  S150  1  0.51139299  0.89212020  0.15308382  1
  S2-  S151  1  0.50573817  1.01733186  0.63939595  1
  S2-  S152  1  0.70587591  0.12901237  0.16363089  1
  S2-  S153  1  0.66219677  0.14819625  0.64944856  1
  S2-  S154  1  0.65882913  0.35316667  0.14712982  1
  S2-  S155  1  0.64274237  0.37807760  0.65486242  1
  S2-  S156  1  0.77898125  0.52525838  0.13568664  1
  S2-  S157  1  0.72062316  0.58067551  0.65960497  1
  S2-  S158  1  0.81108295  0.92230241  0.14946583  1
  S2-  S159  1  0.73283434  0.88401356  0.66057631  1
  S2-  S160  1  0.13372838  -0.07881205  0.35580479  1
  S2-  S161  1  0.12257264  -0.10741850  0.85672715  1
  S2-  S162  1  0.12725470  0.15327602  0.35173473  1
  S2-  S163  1  0.12849180  0.17413578  0.85978773  1
  S2-  S164  1  0.13262555  0.41112730  0.35091120  1
  S2-  S165  1  0.03163667  0.50899071  0.85274070  1
  S2-  S166  1  0.12865727  0.65907996  0.35293794  1
  S2-  S167  1  0.15910807  0.67734912  0.86009714  1
  S2-  S168  1  0.39261352  -0.00509835  0.33976352  1
  S2-  S169  1  0.28724345  0.02618400  0.85384069  1
  S2-  S170  1  0.36472318  0.21350043  0.33772156  1
  S2-  S171  1  0.38267540  0.25637085  0.85285879  1
  S2-  S172  1  0.36564216  0.42435644  0.35437996  1
  S2-  S173  1  0.47208936  0.52212251  0.86020344  1
  S2-  S174  1  0.37996314  0.65981713  0.36070000  1
  S2-  S175  1  0.38206941  0.77743891  0.84648837  1
  S2-  S176  1  0.64079074  -0.00960192  0.33237380  1
  S2-  S177  1  0.50819427  0.02852116  0.85983205  1
  S2-  S178  1  0.64719457  0.19769743  0.34556773  1
  S2-  S179  1  0.64418703  0.23121146  0.84797151  1
  S2-  S180  1  0.62644564  0.42699720  0.35902113  1
  S2-  S181  1  0.67014233  0.47038077  0.82557573  1
  S2-  S182  1  0.67185158  0.76146214  0.35916845  1
  S2-  S183  1  0.63249624  0.68640273  0.85966301  1
  S2-  S184  1  0.88361143  -0.06609480  0.34430552  1
  S2-  S185  1  0.74803557  -0.00591268  0.85658493  1
  S2-  S186  1  0.88727193  0.17529411  0.35655104  1
  S2-  S187  1  0.88943720  0.15201428  0.85864758  1
  S2-  S188  1  0.86828445  0.41081475  0.36088027  1
  S2-  S189  1  0.86724164  0.38263289  0.85402869  1
  S2-  S190  1  0.87253185  0.65253946  0.35761710  1
  S2-  S191  1  0.88152815  0.68553817  0.86036548  1
  S2-  S192  1  0.00244562  0.15928576  0.45651917  1
  S2-  S193  1  0.00802182  0.14345428  0.95824908  1
  S2-  S194  1  -0.00005727  0.41139197  0.45726025  1
  S2-  S195  1  0.01256603  0.39538963  0.95580685  1
  S2-  S196  1  -0.00068068  0.66292038  0.45425404  1
  S2-  S197  1  0.01146150  0.65528279  0.95704319  1
  S2-  S198  1  -0.00157052  0.90662484  0.44673468  1
  S2-  S199  1  -0.00158278  0.90267566  0.95283880  1
  S2-  S200  1  0.25116596  0.15873413  0.45466790  1
  S2-  S201  1  0.26124136  0.15043364  0.96382788  1
  S2-  S202  1  0.24620210  0.41160124  0.45641781  1
  S2-  S203  1  0.25733494  0.39971544  0.95523007  1
  S2-  S204  1  0.24753087  0.66085709  0.45520327  1
  S2-  S205  1  0.25922351  0.64974042  0.96358364  1
  S2-  S206  1  0.25426668  0.90751293  0.45608539  1
  S2-  S207  1  0.25699698  0.90133073  0.96308888  1
  S2-  S208  1  0.49911886  0.16091668  0.45074139  1
  S2-  S209  1  0.50808190  0.15307453  0.96096659  1
  S2-  S210  1  0.49982065  0.41278188  0.45608864  1
  S2-  S211  1  0.50637698  0.39809618  0.96060243  1
  S2-  S212  1  0.50616677  0.66025884  0.45888735  1
  S2-  S213  1  0.50178439  0.65202340  0.96177967  1
  S2-  S214  1  0.50285404  0.90820909  0.45219629  1
  S2-  S215  1  0.50984967  0.89336842  0.95321354  1
  S2-  S216  1  0.75178849  0.16252971  0.45533585  1
  S2-  S217  1  0.75210664  0.14959762  0.95982943  1
  S2-  S218  1  0.75387364  0.41241593  0.46359478  1
  S2-  S219  1  0.75065617  0.40166473  0.95558197  1
  S2-  S220  1  0.75052343  0.65843770  0.46274741  1
  S2-  S221  1  0.75661272  0.64758498  0.95926017  1
  S2-  S222  1  0.74816273  0.91050694  0.45233613  1
  S2-  S223  1  0.75523788  0.89339903  0.95719048  1
  S2-  S224  1  0.13266365  0.02222042  0.04692100  1
  S2-  S225  1  0.12400368  0.03305031  0.53761486  1
  S2-  S226  1  0.13219896  0.27502552  0.04235484  1
  S2-  S227  1  0.12211182  0.28126278  0.53559092  1
  S2-  S228  1  0.13613856  0.52494323  0.03707174  1
  S2-  S229  1  0.12155027  0.53381315  0.54377099  1
  S2-  S230  1  0.12868443  0.77510419  0.04127734  1
  S2-  S231  1  0.12651351  0.78252080  0.54496925  1
  S2-  S232  1  0.37955818  0.01867749  0.05104198  1
  S2-  S233  1  0.37504991  0.03333034  0.54000834  1
  S2-  S234  1  0.38695654  0.27443536  0.05369230  1
  S2-  S235  1  0.37363754  0.28241337  0.54041237  1
  S2-  S236  1  0.38389457  0.52225188  0.04520168  1
  S2-  S237  1  0.37275786  0.52989532  0.54448233  1
  S2-  S238  1  0.38337273  0.77144281  0.05004704  1
  S2-  S239  1  0.37525386  0.77554809  0.53525733  1
  S2-  S240  1  0.62736564  0.02201438  0.04441720  1
  S2-  S241  1  0.62837408  0.02963527  0.53654955  1
  S2-  S242  1  0.62715959  0.26832131  0.04616833  1
  S2-  S243  1  0.62428311  0.28434244  0.54381727  1
  S2-  S244  1  0.62783150  0.52472885  0.04059228  1
  S2-  S245  1  0.62595011  0.53360437  0.54637586  1
  S2-  S246  1  0.62969017  0.77003979  0.04868233  1
  S2-  S247  1  0.62451442  0.77883525  0.55700496  1
  S2-  S248  1  0.87790890  0.02470830  0.03972689  1
  S2-  S249  1  0.87715459  0.03206178  0.53491881  1
  S2-  S250  1  0.87671621  0.27506200  0.04704689  1
  S2-  S251  1  0.87662486  0.28301618  0.53851246  1
  S2-  S252  1  0.88348896  0.52476062  0.03250321  1
  S2-  S253  1  0.87853403  0.53360902  0.54059426  1
  S2-  S254  1  0.87886806  0.77010241  0.04988200  1
  S2-  S255  1  0.87574819  0.78497442  0.53453805  1
