# generated using pymatgen
data_La6Ce7Pr13Nd19Sm19(BiS2)64
_symmetry_space_group_name_H-M   'P 1'
_cell_length_a   16.03841165
_cell_length_b   16.03952691
_cell_length_c   27.53154122
_cell_angle_alpha   89.94925046
_cell_angle_beta   90.00791831
_cell_angle_gamma   90.11930342
_symmetry_Int_Tables_number   1
_chemical_formula_structural   La6Ce7Pr13Nd19Sm19(BiS2)64
_chemical_formula_sum   'La6 Ce7 Pr13 Nd19 Sm19 Bi64 S128'
_cell_volume   7082.43045320
_cell_formula_units_Z   1
loop_
 _symmetry_equiv_pos_site_id
 _symmetry_equiv_pos_as_xyz
  1  'x, y, z'
loop_
 _atom_type_symbol
 _atom_type_oxidation_number
  La3+  3.0
  Ce3+  3.0
  Pr3+  3.0
  Nd3+  3.0
  Sm3+  3.0
  Bi2+  2.0
  S2-  -2.0
loop_
 _atom_site_type_symbol
 _atom_site_label
 _atom_site_symmetry_multiplicity
 _atom_site_fract_x
 _atom_site_fract_y
 _atom_site_fract_z
 _atom_site_occupancy
  La3+  La0  1  0.13560229  0.74631664  0.40017560  1
  La3+  La1  1  0.11926575  0.00874680  0.88484732  1
  La3+  La2  1  0.87400172  0.73634325  0.41190641  1
  La3+  La3  1  0.25156984  0.62792715  0.56961941  1
  La3+  La4  1  -0.02032254  0.85797379  0.60077236  1
  La3+  La5  1  0.02344079  0.12454937  0.10047665  1
  Ce3+  Ce6  1  0.02464720  0.62822468  0.06815587  1
  Ce3+  Ce7  1  0.77115495  0.37359262  0.05933010  1
  Ce3+  Ce8  1  0.76137415  0.12090996  0.55050022  1
  Ce3+  Ce9  1  0.26445723  0.37399321  0.05560685  1
  Ce3+  Ce10  1  0.39258024  0.24973370  0.94480040  1
  Ce3+  Ce11  1  0.63108172  0.50086936  0.44570299  1
  Ce3+  Ce12  1  0.51895746  0.37585991  0.05626369  1
  Pr3+  Pr13  1  0.50563729  0.37511695  0.55546357  1
  Pr3+  Pr14  1  0.76527044  0.12563175  0.07049403  1
  Pr3+  Pr15  1  0.27488260  0.87747801  0.06545712  1
  Pr3+  Pr16  1  0.64588263  0.74849732  0.94825030  1
  Pr3+  Pr17  1  0.77380425  0.87533497  0.06786705  1
  Pr3+  Pr18  1  0.75667034  0.37105358  0.56035692  1
  Pr3+  Pr19  1  0.15050606  0.75249941  0.92870592  1
  Pr3+  Pr20  1  0.01107550  0.62491971  0.56132933  1
  Pr3+  Pr21  1  0.75742917  0.87161206  0.54658471  1
  Pr3+  Pr22  1  0.76742780  0.63036251  0.56931258  1
  Pr3+  Pr23  1  0.25289992  0.12296723  0.56234511  1
  Pr3+  Pr24  1  0.00408367  0.12448453  0.57009588  1
  Pr3+  Pr25  1  0.12919748  0.24597862  0.43163680  1
  Nd3+  Nd26  1  0.64746306  0.50225924  0.94758095  1
  Nd3+  Nd27  1  0.12422524  -0.00387629  0.44003059  1
  Nd3+  Nd28  1  0.63299469  0.25113861  0.43659749  1
  Nd3+  Nd29  1  0.37696694  0.24669030  0.42721638  1
  Nd3+  Nd30  1  0.88572460  0.25022034  0.42864604  1
  Nd3+  Nd31  1  0.37822318  -0.00301837  0.44311310  1
  Nd3+  Nd32  1  0.02986114  0.87521677  0.06741109  1
  Nd3+  Nd33  1  0.77884938  0.62513399  0.07400084  1
  Nd3+  Nd34  1  0.13048108  0.50270767  0.43430763  1
  Nd3+  Nd35  1  0.26707754  0.62577717  0.06583463  1
  Nd3+  Nd36  1  0.51210209  0.63558740  0.59570300  1
  Nd3+  Nd37  1  0.88482462  -0.00320667  0.43065297  1
  Nd3+  Nd38  1  0.50546524  0.87191946  0.55709244  1
  Nd3+  Nd39  1  0.37996037  0.74639767  0.43845062  1
  Nd3+  Nd40  1  0.02804378  0.37286955  0.07174787  1
  Nd3+  Nd41  1  0.50462017  0.12396878  0.55409602  1
  Nd3+  Nd42  1  0.37970161  0.50249364  0.44310658  1
  Nd3+  Nd43  1  0.63033907  0.00050981  0.43670639  1
  Nd3+  Nd44  1  0.89314880  0.00162651  0.94801207  1
  Sm3+  Sm45  1  0.51765235  0.12594240  0.05685711  1
  Sm3+  Sm46  1  0.64472635  -0.00104294  0.94480511  1
  Sm3+  Sm47  1  0.01152455  0.36781804  0.56209280  1
  Sm3+  Sm48  1  0.51604163  0.62469968  0.06941209  1
  Sm3+  Sm49  1  0.64544911  0.24960451  0.94367776  1
  Sm3+  Sm50  1  0.39361020  0.49996295  0.94274098  1
  Sm3+  Sm51  1  0.51754660  0.87578221  0.05667355  1
  Sm3+  Sm52  1  0.39243061  0.74945244  0.94107398  1
  Sm3+  Sm53  1  0.62919431  0.74686639  0.43753747  1
  Sm3+  Sm54  1  0.24821953  0.87203240  0.55417781  1
  Sm3+  Sm55  1  0.38496414  0.00099528  0.93596487  1
  Sm3+  Sm56  1  0.89976320  0.75153741  0.94448757  1
  Sm3+  Sm57  1  0.14314100  0.50338175  0.93547979  1
  Sm3+  Sm58  1  0.26641377  0.12340498  0.06053570  1
  Sm3+  Sm59  1  0.14256172  0.24564738  0.93959174  1
  Sm3+  Sm60  1  0.89875411  0.24739181  0.94806722  1
  Sm3+  Sm61  1  0.89756244  0.50114531  0.95167986  1
  Sm3+  Sm62  1  0.25764607  0.37298927  0.55175422  1
  Sm3+  Sm63  1  0.88258727  0.50332443  0.45146257  1
  Bi2+  Bi64  1  -0.04245632  0.14518719  0.29839214  1
  Bi2+  Bi65  1  -0.01813692  0.14607924  0.79590151  1
  Bi2+  Bi66  1  0.05342935  0.39910969  0.28626298  1
  Bi2+  Bi67  1  0.06682895  0.39748306  0.80467246  1
  Bi2+  Bi68  1  -0.01507529  0.61628000  0.28586250  1
  Bi2+  Bi69  1  0.00307841  0.59121481  0.78588915  1
  Bi2+  Bi70  1  -0.00824649  0.91209240  0.29586662  1
  Bi2+  Bi71  1  -0.01513799  0.87671684  0.78772508  1
  Bi2+  Bi72  1  0.21648598  0.12702481  0.28926794  1
  Bi2+  Bi73  1  0.28127345  0.13807459  0.78936872  1
  Bi2+  Bi74  1  0.25812265  0.39265781  0.29681265  1
  Bi2+  Bi75  1  0.25881012  0.40991998  0.79332983  1
  Bi2+  Bi76  1  0.25424591  0.63882822  0.28251950  1
  Bi2+  Bi77  1  0.24974745  0.60936795  0.79349296  1
  Bi2+  Bi78  1  0.37087922  0.90473599  0.27896974  1
  Bi2+  Bi79  1  0.32183664  0.86711113  0.78576948  1
  Bi2+  Bi80  1  0.45393279  0.13738640  0.28666769  1
  Bi2+  Bi81  1  0.50166467  0.10802824  0.79613743  1
  Bi2+  Bi82  1  0.45871814  0.33382829  0.30182889  1
  Bi2+  Bi83  1  0.50768444  0.31191420  0.78860789  1
  Bi2+  Bi84  1  0.50192866  0.55404631  0.31072123  1
  Bi2+  Bi85  1  0.50752953  0.58698593  0.78842120  1
  Bi2+  Bi86  1  0.49081176  0.75349053  0.31905666  1
  Bi2+  Bi87  1  0.51593678  0.90876404  0.79906947  1
  Bi2+  Bi88  1  0.70875661  0.11971610  0.30041439  1
  Bi2+  Bi89  1  0.71215689  0.11119830  0.76856366  1
  Bi2+  Bi90  1  0.70322583  0.39604612  0.25719389  1
  Bi2+  Bi91  1  0.72583872  0.40079741  0.79804793  1
  Bi2+  Bi92  1  0.73764379  0.59711390  0.29738796  1
  Bi2+  Bi93  1  0.77113588  0.65398664  0.82208623  1
  Bi2+  Bi94  1  0.65284557  0.85739736  0.28189983  1
  Bi2+  Bi95  1  0.71719714  0.90116938  0.78927099  1
  Bi2+  Bi96  1  0.24193036  -0.00100646  0.20865072  1
  Bi2+  Bi97  1  0.15312606  -0.02975832  0.68904309  1
  Bi2+  Bi98  1  0.12692616  0.26241548  0.21174511  1
  Bi2+  Bi99  1  0.13107785  0.26651790  0.70297824  1
  Bi2+  Bi100  1  0.16637111  0.50868584  0.21297567  1
  Bi2+  Bi101  1  0.05088253  0.47653281  0.69730217  1
  Bi2+  Bi102  1  0.09306855  0.76394035  0.20347393  1
  Bi2+  Bi103  1  0.18027699  0.72642519  0.71143429  1
  Bi2+  Bi104  1  0.40108485  0.09748606  0.16987529  1
  Bi2+  Bi105  1  0.39688527  0.00667624  0.71220349  1
  Bi2+  Bi106  1  0.33701941  0.27052602  0.21435504  1
  Bi2+  Bi107  1  0.40847411  0.20907608  0.70659110  1
  Bi2+  Bi108  1  0.39422718  0.48789329  0.20975821  1
  Bi2+  Bi109  1  0.34912741  0.46100390  0.70256694  1
  Bi2+  Bi110  1  0.36074069  0.74725841  0.20916838  1
  Bi2+  Bi111  1  0.40489135  0.71637845  0.72530065  1
  Bi2+  Bi112  1  0.52771141  -0.03945424  0.21257032  1
  Bi2+  Bi113  1  0.59772438  -0.00935794  0.70078216  1
  Bi2+  Bi114  1  0.57076770  0.26255044  0.21296974  1
  Bi2+  Bi115  1  0.70489260  0.27659895  0.70391443  1
  Bi2+  Bi116  1  0.58738620  0.53901728  0.20631876  1
  Bi2+  Bi117  1  0.58294432  0.45282793  0.71901418  1
  Bi2+  Bi118  1  0.56108846  0.73791459  0.20856960  1
  Bi2+  Bi119  1  0.60517623  0.73505182  0.72435813  1
  Bi2+  Bi120  1  0.84950886  -0.00604792  0.20830777  1
  Bi2+  Bi121  1  0.84576081  0.02648734  0.70098936  1
  Bi2+  Bi122  1  0.85083659  0.27492276  0.21502413  1
  Bi2+  Bi123  1  0.89908253  0.31711504  0.75506159  1
  Bi2+  Bi124  1  0.89060010  0.46903033  0.23358276  1
  Bi2+  Bi125  1  0.85840336  0.50962494  0.72311344  1
  Bi2+  Bi126  1  0.83911266  0.75014389  0.19921272  1
  Bi2+  Bi127  1  0.79884969  0.73837121  0.70301510  1
  S2-  S128  1  -0.01004993  0.06832942  0.20197901  1
  S2-  S129  1  -0.00507043  0.01623751  0.65002778  1
  S2-  S130  1  -0.01281114  0.27547410  0.15279756  1
  S2-  S131  1  0.00754946  0.26077684  0.63932263  1
  S2-  S132  1  -0.08876097  0.63703092  0.14596539  1
  S2-  S133  1  -0.09914200  0.68146884  0.63517129  1
  S2-  S134  1  -0.04211377  0.85639288  0.16195735  1
  S2-  S135  1  0.04690968  0.82182441  0.69488990  1
  S2-  S136  1  0.18134825  0.13501795  0.14795161  1
  S2-  S137  1  0.20214041  0.12894482  0.65789860  1
  S2-  S138  1  0.16890995  0.38675695  0.13666958  1
  S2-  S139  1  0.22879691  0.37110426  0.64775687  1
  S2-  S140  1  0.14531324  0.63524224  0.14065156  1
  S2-  S141  1  0.12841038  0.60912892  0.64371303  1
  S2-  S142  1  0.17156591  0.86710482  0.14776375  1
  S2-  S143  1  0.26285814  0.84576759  0.65061006  1
  S2-  S144  1  0.57726820  0.12320937  0.14821312  1
  S2-  S145  1  0.53188012  0.13344326  0.65080346  1
  S2-  S146  1  0.48686821  0.37063230  0.15143144  1
  S2-  S147  1  0.47442573  0.37108989  0.65314793  1
  S2-  S148  1  0.39021640  0.62068877  0.14004831  1
  S2-  S149  1  0.36593947  0.60366016  0.64870056  1
  S2-  S150  1  0.42668767  0.87616834  0.13929881  1
  S2-  S151  1  0.50447247  0.79245251  0.64422017  1
  S2-  S152  1  0.78806706  0.12956247  0.17009124  1
  S2-  S153  1  0.79389649  0.15667463  0.64258671  1
  S2-  S154  1  0.74901221  0.37429547  0.15426685  1
  S2-  S155  1  0.76111650  0.42064977  0.65556475  1
  S2-  S156  1  0.70351768  0.65086024  0.16241386  1
  S2-  S157  1  0.66356049  0.63556123  0.65074004  1
  S2-  S158  1  0.73251099  0.88151611  0.16424004  1
  S2-  S159  1  0.80962151  0.88048774  0.64366717  1
  S2-  S160  1  0.08840830  0.04222003  0.34496003  1
  S2-  S161  1  0.10107191  0.01054970  0.77423503  1
  S2-  S162  1  0.01201129  0.26266324  0.35568780  1
  S2-  S163  1  0.13887270  0.17953306  0.84818699  1
  S2-  S164  1  0.11650052  0.59449383  0.34901072  1
  S2-  S165  1  0.12459372  0.61531351  0.86132810  1
  S2-  S166  1  0.11687138  0.81493399  0.30071440  1
  S2-  S167  1  0.10461050  0.84382509  0.84612500  1
  S2-  S168  1  0.35874696  0.03639568  0.34812872  1
  S2-  S169  1  0.29154121  0.00356495  0.85284952  1
  S2-  S170  1  0.25075117  0.24416645  0.35682656  1
  S2-  S171  1  0.37592601  0.24109431  0.84904774  1
  S2-  S172  1  0.33895160  0.52564185  0.34789020  1
  S2-  S173  1  0.38181875  0.50561579  0.84567223  1
  S2-  S174  1  0.29428161  0.75014914  0.35232319  1
  S2-  S175  1  0.30883623  0.74599172  0.85613172  1
  S2-  S176  1  0.60961569  -0.00905348  0.33939904  1
  S2-  S177  1  0.72503367  0.01755192  0.86030814  1
  S2-  S178  1  0.59574512  0.21667104  0.34236907  1
  S2-  S179  1  0.64626725  0.27294879  0.84751412  1
  S2-  S180  1  0.65060538  0.46670838  0.35104217  1
  S2-  S181  1  0.64325642  0.53574001  0.85173267  1
  S2-  S182  1  0.71599111  0.72924883  0.35259071  1
  S2-  S183  1  0.65098158  0.76670777  0.84980877  1
  S2-  S184  1  0.84953246  0.00918705  0.33201958  1
  S2-  S185  1  0.94678245  0.00505260  0.85328236  1
  S2-  S186  1  0.81216352  0.23131153  0.33607261  1
  S2-  S187  1  0.88388426  0.23818743  0.85051341  1
  S2-  S188  1  0.87545546  0.56909857  0.36100495  1
  S2-  S189  1  0.88216007  0.53503630  0.85689319  1
  S2-  S190  1  0.90958391  0.77462422  0.30986712  1
  S2-  S191  1  0.88307240  0.76759542  0.84658576  1
  S2-  S192  1  0.00342428  0.12295056  0.45742411  1
  S2-  S193  1  0.01924046  0.12472890  0.95213394  1
  S2-  S194  1  0.00555671  0.38043565  0.45688432  1
  S2-  S195  1  0.02123104  0.37516581  0.95644722  1
  S2-  S196  1  0.00898350  0.62695033  0.45485765  1
  S2-  S197  1  0.01675980  0.62577758  0.96144642  1
  S2-  S198  1  0.00540524  0.86724082  0.42666531  1
  S2-  S199  1  0.01720715  0.87802598  0.95958745  1
  S2-  S200  1  0.25452467  0.11980636  0.45622212  1
  S2-  S201  1  0.26787790  0.12663571  0.95713693  1
  S2-  S202  1  0.25569492  0.37618954  0.44963691  1
  S2-  S203  1  0.26509028  0.37643338  0.94888716  1
  S2-  S204  1  0.25215704  0.62622916  0.45873319  1
  S2-  S205  1  0.27249343  0.62060910  0.95850830  1
  S2-  S206  1  0.25068901  0.87341498  0.45004613  1
  S2-  S207  1  0.27532063  0.87432181  0.95870373  1
  S2-  S208  1  0.50259073  0.12543519  0.44884197  1
  S2-  S209  1  0.52042592  0.12291590  0.95077060  1
  S2-  S210  1  0.50214036  0.37150537  0.44903195  1
  S2-  S211  1  0.52091411  0.37639955  0.94995739  1
  S2-  S212  1  0.50674092  0.62465208  0.44768226  1
  S2-  S213  1  0.51658883  0.62396897  0.96033061  1
  S2-  S214  1  0.50607941  0.87376037  0.45055916  1
  S2-  S215  1  0.51649150  0.87704181  0.95222694  1
  S2-  S216  1  0.75715118  0.12367913  0.44655967  1
  S2-  S217  1  0.76768667  0.12889158  0.96311992  1
  S2-  S218  1  0.76003756  0.37499447  0.45328519  1
  S2-  S219  1  0.77195423  0.37418929  0.95369641  1
  S2-  S220  1  0.75323358  0.62277424  0.46227671  1
  S2-  S221  1  0.77369306  0.62575860  0.96629761  1
  S2-  S222  1  0.75377810  0.87483971  0.44229739  1
  S2-  S223  1  0.76919233  0.87458051  0.96105926  1
  S2-  S224  1  0.14384913  0.00429387  0.05440584  1
  S2-  S225  1  0.12841146  -0.00366403  0.54527594  1
  S2-  S226  1  0.14176581  0.24484300  0.04225947  1
  S2-  S227  1  0.13398443  0.24920707  0.53818765  1
  S2-  S228  1  0.14446566  0.50112560  0.03743761  1
  S2-  S229  1  0.13223009  0.49162284  0.54024198  1
  S2-  S230  1  0.14874967  0.75228817  0.03808770  1
  S2-  S231  1  0.12076221  0.76140976  0.55398373  1
  S2-  S232  1  0.39624520  0.00386068  0.03963898  1
  S2-  S233  1  0.37976025  -0.00345050  0.54881208  1
  S2-  S234  1  0.39243900  0.24952448  0.04938042  1
  S2-  S235  1  0.37936551  0.24720391  0.53953516  1
  S2-  S236  1  0.39283212  0.49725509  0.04497733  1
  S2-  S237  1  0.38169118  0.49984531  0.54615003  1
  S2-  S238  1  0.39722732  0.74788122  0.04236325  1
  S2-  S239  1  0.38039098  0.74977365  0.54311660  1
  S2-  S240  1  0.64163922  -0.00186365  0.04856526  1
  S2-  S241  1  0.62991939  -0.00105114  0.54315742  1
  S2-  S242  1  0.64260619  0.25069131  0.04740755  1
  S2-  S243  1  0.63139708  0.24671535  0.54288120  1
  S2-  S244  1  0.64407998  0.50406729  0.05328286  1
  S2-  S245  1  0.62841667  0.50281141  0.55108225  1
  S2-  S246  1  0.63897139  0.75004981  0.05371335  1
  S2-  S247  1  0.62830624  0.74660017  0.54137422  1
  S2-  S248  1  0.89837093  0.00482100  0.05614272  1
  S2-  S249  1  0.88591370  -0.00568047  0.53729529  1
  S2-  S250  1  0.89581276  0.24669973  0.05055646  1
  S2-  S251  1  0.88271590  0.25117226  0.53616133  1
  S2-  S252  1  0.90025047  0.49346907  0.05467159  1
  S2-  S253  1  0.88624494  0.49364588  0.55329719  1
  S2-  S254  1  0.89674217  0.75375567  0.04721515  1
  S2-  S255  1  0.88416082  0.75552157  0.52920522  1
