# generated using pymatgen
data_La6Ce7Pr13Nd19Sm19(BiS2)64
_symmetry_space_group_name_H-M   'P 1'
_cell_length_a   16.08490117
_cell_length_b   16.08031065
_cell_length_c   27.48594620
_cell_angle_alpha   89.90571686
_cell_angle_beta   90.09468306
_cell_angle_gamma   89.94729651
_symmetry_Int_Tables_number   1
_chemical_formula_structural   La6Ce7Pr13Nd19Sm19(BiS2)64
_chemical_formula_sum   'La6 Ce7 Pr13 Nd19 Sm19 Bi64 S128'
_cell_volume   7109.22333410
_cell_formula_units_Z   1
loop_
 _symmetry_equiv_pos_site_id
 _symmetry_equiv_pos_as_xyz
  1  'x, y, z'
loop_
 _atom_type_symbol
 _atom_type_oxidation_number
  La3+  3.0
  Ce3+  3.0
  Pr3+  3.0
  Nd3+  3.0
  Sm3+  3.0
  Bi2+  2.0
  S2-  -2.0
loop_
 _atom_site_type_symbol
 _atom_site_label
 _atom_site_symmetry_multiplicity
 _atom_site_fract_x
 _atom_site_fract_y
 _atom_site_fract_z
 _atom_site_occupancy
  La3+  La0  1  0.67007614  0.74870239  0.87701313  1
  La3+  La1  1  0.74623740  0.86995345  0.57113556  1
  La3+  La2  1  0.60950099  0.75057978  0.43774909  1
  La3+  La3  1  0.86961548  0.74643652  0.39196800  1
  La3+  La4  1  0.35916434  0.50026714  0.41786628  1
  La3+  La5  1  0.73226633  0.36862851  0.57348271  1
  Ce3+  Ce6  1  -0.01271211  0.62417671  0.55745819  1
  Ce3+  Ce7  1  0.73993628  0.12590765  0.56051079  1
  Ce3+  Ce8  1  0.48647315  0.12540769  0.55165020  1
  Ce3+  Ce9  1  0.86281702  -0.00919718  0.44223108  1
  Ce3+  Ce10  1  0.35574877  0.24620003  0.42382888  1
  Ce3+  Ce11  1  0.86227542  0.25176098  0.44172640  1
  Ce3+  Ce12  1  0.49924114  0.12085218  0.05531368  1
  Pr3+  Pr13  1  0.74749298  0.36798000  0.05782761  1
  Pr3+  Pr14  1  0.24525349  0.12369649  0.07047105  1
  Pr3+  Pr15  1  0.48514592  0.37329643  0.55902293  1
  Pr3+  Pr16  1  0.25356539  0.61723048  0.07180521  1
  Pr3+  Pr17  1  -0.01851547  0.37946326  0.57041460  1
  Pr3+  Pr18  1  0.74417802  0.62089476  0.06232060  1
  Pr3+  Pr19  1  0.87296619  0.24862959  0.93331852  1
  Pr3+  Pr20  1  0.48251985  0.62207880  0.56617164  1
  Pr3+  Pr21  1  0.12264618  -0.01335073  0.93532583  1
  Pr3+  Pr22  1  0.61989636  0.25046300  0.42902009  1
  Pr3+  Pr23  1  0.00522282  0.88287123  0.07480199  1
  Pr3+  Pr24  1  0.49307017  0.87704267  0.57428023  1
  Pr3+  Pr25  1  0.36344274  0.00111719  0.43298166  1
  Nd3+  Nd26  1  0.24110713  0.12318803  0.56137841  1
  Nd3+  Nd27  1  0.61494878  0.49446199  0.91593508  1
  Nd3+  Nd28  1  0.74716322  0.86980325  0.06274147  1
  Nd3+  Nd29  1  -0.01001849  0.12539531  0.56287452  1
  Nd3+  Nd30  1  0.86946594  0.50154109  0.93987376  1
  Nd3+  Nd31  1  -0.00103055  0.62155857  0.06247880  1
  Nd3+  Nd32  1  0.62111899  0.24737063  0.93321562  1
  Nd3+  Nd33  1  0.25393268  0.86439434  0.06474901  1
  Nd3+  Nd34  1  0.38301857  0.75140323  0.92445765  1
  Nd3+  Nd35  1  0.37101735  0.24495005  0.94338129  1
  Nd3+  Nd36  1  0.60988656  0.49808179  0.43626669  1
  Nd3+  Nd37  1  0.49758022  0.86982588  0.06153375  1
  Nd3+  Nd38  1  0.50127125  0.37245193  0.06174870  1
  Nd3+  Nd39  1  0.61507806  -0.00531068  0.44567566  1
  Nd3+  Nd40  1  0.24854017  0.37277063  0.06388704  1
  Nd3+  Nd41  1  0.87193510  -0.00918809  0.94136152  1
  Nd3+  Nd42  1  -0.00233902  0.37026433  0.05769575  1
  Nd3+  Nd43  1  0.37156393  -0.00416714  0.93784634  1
  Nd3+  Nd44  1  0.10925034  0.25061921  0.44689014  1
  Sm3+  Sm45  1  0.85433902  0.50027161  0.43695054  1
  Sm3+  Sm46  1  0.10863931  -0.00369469  0.45035039  1
  Sm3+  Sm47  1  0.87668188  0.74507639  0.95161818  1
  Sm3+  Sm48  1  0.24057450  0.62495423  0.56194177  1
  Sm3+  Sm49  1  0.12619529  0.49823325  0.94453478  1
  Sm3+  Sm50  1  0.10983366  0.74989510  0.44538923  1
  Sm3+  Sm51  1  -0.01276608  0.87038441  0.56821912  1
  Sm3+  Sm52  1  0.50077403  0.62225228  0.04915852  1
  Sm3+  Sm53  1  0.24311060  0.37378330  0.56111772  1
  Sm3+  Sm54  1  0.12264571  0.24633721  0.93860078  1
  Sm3+  Sm55  1  -0.00130412  0.12073129  0.04921066  1
  Sm3+  Sm56  1  0.24022668  0.87412423  0.55310813  1
  Sm3+  Sm57  1  0.12686804  0.74357960  0.95080964  1
  Sm3+  Sm58  1  0.11349861  0.50115546  0.44882480  1
  Sm3+  Sm59  1  0.73648703  0.62245888  0.55824022  1
  Sm3+  Sm60  1  0.37352990  0.49777647  0.93693064  1
  Sm3+  Sm61  1  0.36455423  0.75124024  0.43934250  1
  Sm3+  Sm62  1  0.62209091  -0.01224657  0.94464108  1
  Sm3+  Sm63  1  0.74752139  0.12064227  0.04909432  1
  Bi2+  Bi64  1  -0.06796069  0.14120706  0.28251347  1
  Bi2+  Bi65  1  0.06313897  0.13744811  0.76427469  1
  Bi2+  Bi66  1  0.01810776  0.30236247  0.32629352  1
  Bi2+  Bi67  1  0.00777987  0.37716264  0.80165292  1
  Bi2+  Bi68  1  0.09424157  0.63618217  0.28536691  1
  Bi2+  Bi69  1  0.05900712  0.66651081  0.79815383  1
  Bi2+  Bi70  1  0.02933790  0.90174595  0.29557939  1
  Bi2+  Bi71  1  -0.01794622  0.93481647  0.78219070  1
  Bi2+  Bi72  1  0.21952629  0.10560407  0.30232340  1
  Bi2+  Bi73  1  0.25350615  0.08923166  0.79400132  1
  Bi2+  Bi74  1  0.21753297  0.38686825  0.29096669  1
  Bi2+  Bi75  1  0.28052189  0.37882187  0.79789410  1
  Bi2+  Bi76  1  0.28274994  0.66308307  0.32334597  1
  Bi2+  Bi77  1  0.26004084  0.57709492  0.82420415  1
  Bi2+  Bi78  1  0.24642556  0.85876986  0.29701870  1
  Bi2+  Bi79  1  0.22634334  0.77608552  0.80342281  1
  Bi2+  Bi80  1  0.44884537  0.10267144  0.25389066  1
  Bi2+  Bi81  1  0.44488083  0.11174423  0.80870777  1
  Bi2+  Bi82  1  0.48407918  0.38354425  0.28519262  1
  Bi2+  Bi83  1  0.49745057  0.37760035  0.78050866  1
  Bi2+  Bi84  1  0.51590886  0.59036347  0.26260101  1
  Bi2+  Bi85  1  0.43953359  0.62191404  0.78204907  1
  Bi2+  Bi86  1  0.49593431  0.94464048  0.32055291  1
  Bi2+  Bi87  1  0.47863150  0.89642931  0.79852404  1
  Bi2+  Bi88  1  0.74956945  0.08143196  0.24296170  1
  Bi2+  Bi89  1  0.74950886  0.13981845  0.77924979  1
  Bi2+  Bi90  1  0.70396878  0.34314822  0.29481569  1
  Bi2+  Bi91  1  0.75935811  0.37543986  0.79113560  1
  Bi2+  Bi92  1  0.75523518  0.60037873  0.29504061  1
  Bi2+  Bi93  1  0.80717943  0.62107899  0.78755101  1
  Bi2+  Bi94  1  0.74097189  0.86760623  0.29213145  1
  Bi2+  Bi95  1  0.73280201  0.92633305  0.77085532  1
  Bi2+  Bi96  1  0.16034514  0.06868336  0.19453665  1
  Bi2+  Bi97  1  0.10252283  -0.11918797  0.69743442  1
  Bi2+  Bi98  1  0.09261026  0.25295609  0.20829800  1
  Bi2+  Bi99  1  0.20579562  0.25331714  0.72294173  1
  Bi2+  Bi100  1  0.12321706  0.49002635  0.20881233  1
  Bi2+  Bi101  1  0.20846628  0.49604540  0.71369725  1
  Bi2+  Bi102  1  0.15976376  0.75739206  0.20705524  1
  Bi2+  Bi103  1  0.14275411  0.68397241  0.69078704  1
  Bi2+  Bi104  1  0.32567565  -0.03515487  0.21133834  1
  Bi2+  Bi105  1  0.33844310  0.01862816  0.70139388  1
  Bi2+  Bi106  1  0.30329419  0.23840558  0.23031920  1
  Bi2+  Bi107  1  0.40379093  0.24738174  0.70845666  1
  Bi2+  Bi108  1  0.32666339  0.57833660  0.22158503  1
  Bi2+  Bi109  1  0.40783721  0.49044907  0.69813134  1
  Bi2+  Bi110  1  0.42349843  0.77960859  0.26918001  1
  Bi2+  Bi111  1  0.34217336  0.74627476  0.71359133  1
  Bi2+  Bi112  1  0.59295808  -0.02676466  0.21924251  1
  Bi2+  Bi113  1  0.58285604  0.06096569  0.73520374  1
  Bi2+  Bi114  1  0.61996566  0.23558073  0.18286608  1
  Bi2+  Bi115  1  0.62834190  0.25933782  0.71733871  1
  Bi2+  Bi116  1  0.62045849  0.48024695  0.18538014  1
  Bi2+  Bi117  1  0.68384282  0.50198985  0.69327552  1
  Bi2+  Bi118  1  0.63030873  0.73093612  0.18664702  1
  Bi2+  Bi119  1  0.61005285  0.74860221  0.68809875  1
  Bi2+  Bi120  1  0.91585217  -0.01647809  0.21418109  1
  Bi2+  Bi121  1  0.85859792  0.02778553  0.70685997  1
  Bi2+  Bi122  1  0.87019338  0.31381455  0.23519771  1
  Bi2+  Bi123  1  0.89448222  0.27435935  0.69107290  1
  Bi2+  Bi124  1  0.96203910  0.47236681  0.27890371  1
  Bi2+  Bi125  1  1.00890573  0.49519371  0.71744816  1
  Bi2+  Bi126  1  0.88240823  0.71427702  0.18626851  1
  Bi2+  Bi127  1  0.94397907  0.76983303  0.71841699  1
  S2-  S128  1  0.00180749  0.07039170  0.14154749  1
  S2-  S129  1  -0.01777251  0.12311798  0.66253000  1
  S2-  S130  1  -0.02165509  0.33317293  0.15280661  1
  S2-  S131  1  0.03925696  0.34405007  0.66336794  1
  S2-  S132  1  0.00091148  0.59505231  0.15907130  1
  S2-  S133  1  -0.02199318  0.62555046  0.65464671  1
  S2-  S134  1  -0.00918546  0.83251098  0.16982384  1
  S2-  S135  1  -0.11928849  0.87649024  0.64721355  1
  S2-  S136  1  0.23479818  0.25593978  0.13931256  1
  S2-  S137  1  0.22114017  0.11649085  0.65921022  1
  S2-  S138  1  0.25990930  0.48571513  0.14130910  1
  S2-  S139  1  0.36013013  0.35848028  0.63416882  1
  S2-  S140  1  0.28857097  0.71149281  0.15491129  1
  S2-  S141  1  0.34877478  0.62598252  0.63690243  1
  S2-  S142  1  0.18558480  0.90679510  0.15122222  1
  S2-  S143  1  0.25821843  0.89077351  0.64972039  1
  S2-  S144  1  0.50356903  0.12812776  0.15177097  1
  S2-  S145  1  0.46459824  0.11073286  0.64819417  1
  S2-  S146  1  0.49803315  0.36425804  0.16140574  1
  S2-  S147  1  0.59626507  0.37531421  0.64114015  1
  S2-  S148  1  0.51405797  0.61084855  0.14783124  1
  S2-  S149  1  0.55259774  0.58406080  0.66014749  1
  S2-  S150  1  0.51780278  0.85449814  0.16034877  1
  S2-  S151  1  0.46505764  0.83285763  0.67104605  1
  S2-  S152  1  0.74442844  0.14446836  0.14520874  1
  S2-  S153  1  0.74711730  0.21317547  0.64358635  1
  S2-  S154  1  0.73324942  0.36985018  0.15740778  1
  S2-  S155  1  0.83937766  0.41177527  0.65144968  1
  S2-  S156  1  0.75050337  0.60042057  0.16269818  1
  S2-  S157  1  0.74940279  0.63977458  0.65778665  1
  S2-  S158  1  0.75195300  0.82996133  0.15969336  1
  S2-  S159  1  0.64886614  0.89165672  0.65278860  1
  S2-  S160  1  0.09234597  0.01275883  0.35327967  1
  S2-  S161  1  0.10951691  0.02657723  0.83867297  1
  S2-  S162  1  0.18532543  0.24871411  0.35843088  1
  S2-  S163  1  0.09094010  0.25733863  0.84322404  1
  S2-  S164  1  0.19707536  0.50954110  0.36288663  1
  S2-  S165  1  0.09467640  0.50660103  0.84898730  1
  S2-  S166  1  0.04088237  0.75712798  0.35566071  1
  S2-  S167  1  0.08839227  0.80460812  0.86291833  1
  S2-  S168  1  0.36380098  0.11714967  0.35621498  1
  S2-  S169  1  0.35145895  -0.10701886  0.85719236  1
  S2-  S170  1  0.36296091  0.36471469  0.35006000  1
  S2-  S171  1  0.39063748  0.27462374  0.84727473  1
  S2-  S172  1  0.50452118  0.51937254  0.35323748  1
  S2-  S173  1  0.46903290  0.49736974  0.85453692  1
  S2-  S174  1  0.47883660  0.77541667  0.36511323  1
  S2-  S175  1  0.49853037  0.74568445  0.84603921  1
  S2-  S176  1  0.65400349  -0.00689288  0.34895563  1
  S2-  S177  1  0.62624302  -0.07616858  0.85477733  1
  S2-  S178  1  0.55916469  0.26149918  0.33068046  1
  S2-  S179  1  0.63085938  0.34903286  0.85285266  1
  S2-  S180  1  0.72692192  0.47621047  0.36035455  1
  S2-  S181  1  0.67597239  0.58258096  0.83749635  1
  S2-  S182  1  0.70002032  0.73547131  0.34997681  1
  S2-  S183  1  0.70040755  0.76344102  0.77181329  1
  S2-  S184  1  0.87149224  -0.08625362  0.35419969  1
  S2-  S185  1  0.85596456  -0.01944365  0.84399730  1
  S2-  S186  1  0.76561574  0.24418350  0.36215798  1
  S2-  S187  1  0.85346166  0.25148529  0.83412991  1
  S2-  S188  1  0.89389181  0.58161904  0.35211611  1
  S2-  S189  1  0.87181704  0.48023084  0.84137885  1
  S2-  S190  1  0.85554153  0.74043863  0.27963436  1
  S2-  S191  1  0.84788407  0.72845375  0.85677926  1
  S2-  S192  1  -0.01383111  0.12186427  0.45587569  1
  S2-  S193  1  -0.00255519  0.11965572  0.94522938  1
  S2-  S194  1  -0.01335397  0.38062676  0.45918558  1
  S2-  S195  1  -0.00072152  0.37414762  0.95180593  1
  S2-  S196  1  -0.00987472  0.62405168  0.45454474  1
  S2-  S197  1  0.00067890  0.62149948  0.95623870  1
  S2-  S198  1  -0.01125970  0.87129408  0.46408353  1
  S2-  S199  1  -0.00326639  0.86976253  0.96594301  1
  S2-  S200  1  0.23064776  0.11921342  0.45774547  1
  S2-  S201  1  0.24449689  0.12082676  0.95416224  1
  S2-  S202  1  0.23293186  0.37471645  0.46008084  1
  S2-  S203  1  0.24673703  0.37127615  0.95305086  1
  S2-  S204  1  0.23650936  0.63096518  0.46013681  1
  S2-  S205  1  0.25105389  0.62213764  0.95854459  1
  S2-  S206  1  0.23606513  0.87425567  0.44861209  1
  S2-  S207  1  0.24891695  0.86710629  0.95964076  1
  S2-  S208  1  0.49413975  0.12392030  0.44824553  1
  S2-  S209  1  0.50021689  0.11810730  0.94916446  1
  S2-  S210  1  0.48899363  0.37036643  0.45299372  1
  S2-  S211  1  0.49559244  0.36912150  0.95574885  1
  S2-  S212  1  0.48139691  0.62592219  0.45876724  1
  S2-  S213  1  0.49661769  0.61984091  0.94931302  1
  S2-  S214  1  0.48459122  0.88006231  0.46613181  1
  S2-  S215  1  0.49406118  0.87683619  0.95820837  1
  S2-  S216  1  0.74078709  0.11852930  0.45704782  1
  S2-  S217  1  0.74512105  0.11821367  0.94454682  1
  S2-  S218  1  0.73896008  0.37270943  0.46466080  1
  S2-  S219  1  0.74860355  0.37355816  0.95215911  1
  S2-  S220  1  0.73917665  0.62580709  0.45535030  1
  S2-  S221  1  0.74813759  0.62450998  0.95585505  1
  S2-  S222  1  0.73947667  0.87074015  0.46070349  1
  S2-  S223  1  0.74846911  0.86607364  0.95600580  1
  S2-  S224  1  0.12768873  -0.00061882  0.04120349  1
  S2-  S225  1  0.11241566  -0.00387966  0.55416789  1
  S2-  S226  1  0.11990876  0.24408419  0.04113385  1
  S2-  S227  1  0.11557782  0.25127673  0.55226030  1
  S2-  S228  1  0.12193721  0.49468973  0.04707795  1
  S2-  S229  1  0.11801431  0.49853126  0.55381312  1
  S2-  S230  1  0.12360146  0.74583846  0.05396991  1
  S2-  S231  1  0.11521137  0.75079861  0.55026185  1
  S2-  S232  1  0.37018817  -0.00207225  0.04877589  1
  S2-  S233  1  0.36223180  -0.00259393  0.54242792  1
  S2-  S234  1  0.37420591  0.24569292  0.04746120  1
  S2-  S235  1  0.35935812  0.24479562  0.53518425  1
  S2-  S236  1  0.37827123  0.49483101  0.04091357  1
  S2-  S237  1  0.35740970  0.49896283  0.53553364  1
  S2-  S238  1  0.37772341  0.74423307  0.04086170  1
  S2-  S239  1  0.36237130  0.75525719  0.54281809  1
  S2-  S240  1  0.62472412  -0.00439168  0.04928522  1
  S2-  S241  1  0.61507834  0.00236299  0.55054151  1
  S2-  S242  1  0.62329275  0.24432833  0.03838190  1
  S2-  S243  1  0.61137894  0.24374711  0.53916983  1
  S2-  S244  1  0.62274852  0.49470067  0.04149060  1
  S2-  S245  1  0.61185365  0.50255020  0.54163414  1
  S2-  S246  1  0.62194083  0.74760902  0.05066934  1
  S2-  S247  1  0.61105042  0.74686098  0.54893228  1
  S2-  S248  1  0.87110217  -0.00269333  0.04692803  1
  S2-  S249  1  0.86767073  0.00209726  0.54776302  1
  S2-  S250  1  0.87370435  0.24231272  0.04032572  1
  S2-  S251  1  0.86841709  0.24888477  0.54558795  1
  S2-  S252  1  0.87313408  0.49526112  0.04750242  1
  S2-  S253  1  0.86124549  0.50275390  0.54218802  1
  S2-  S254  1  0.87563967  0.74840150  0.05464760  1
  S2-  S255  1  0.86628328  0.74363698  0.55130627  1
