# generated using pymatgen
data_La6Ce7Pr13Nd19Sm19(BiS2)64
_symmetry_space_group_name_H-M   'P 1'
_cell_length_a   16.09940186
_cell_length_b   16.06950029
_cell_length_c   27.32603778
_cell_angle_alpha   89.87510515
_cell_angle_beta   89.78671427
_cell_angle_gamma   90.05785509
_symmetry_Int_Tables_number   1
_chemical_formula_structural   La6Ce7Pr13Nd19Sm19(BiS2)64
_chemical_formula_sum   'La6 Ce7 Pr13 Nd19 Sm19 Bi64 S128'
_cell_volume   7069.43183621
_cell_formula_units_Z   1
loop_
 _symmetry_equiv_pos_site_id
 _symmetry_equiv_pos_as_xyz
  1  'x, y, z'
loop_
 _atom_type_symbol
 _atom_type_oxidation_number
  La3+  3.0
  Ce3+  3.0
  Pr3+  3.0
  Nd3+  3.0
  Sm3+  3.0
  Bi2+  2.0
  S2-  -2.0
loop_
 _atom_site_type_symbol
 _atom_site_label
 _atom_site_symmetry_multiplicity
 _atom_site_fract_x
 _atom_site_fract_y
 _atom_site_fract_z
 _atom_site_occupancy
  La3+  La0  1  0.37576942  0.23847564  0.93889044  1
  La3+  La1  1  0.50928770  0.85455408  0.57555917  1
  La3+  La2  1  0.87775150  0.48241462  0.90374290  1
  La3+  La3  1  0.13869069  0.24922370  0.40299814  1
  La3+  La4  1  0.25007596  0.86617448  0.10280404  1
  La3+  La5  1  0.76805949  0.86751026  0.58452758  1
  Ce3+  Ce6  1  0.75060840  0.36197017  0.05598255  1
  Ce3+  Ce7  1  0.86970485  0.74451100  0.93356056  1
  Ce3+  Ce8  1  0.01393570  0.86388028  0.55705506  1
  Ce3+  Ce9  1  0.14205471  0.73802777  0.43671038  1
  Ce3+  Ce10  1  0.88854638  0.73646414  0.44295126  1
  Ce3+  Ce11  1  0.87207130  -0.01023961  0.94228677  1
  Ce3+  Ce12  1  0.12793625  -0.01305429  0.93801302  1
  Pr3+  Pr13  1  0.12390922  0.49001986  0.93584936  1
  Pr3+  Pr14  1  0.64436348  0.48634257  0.43648568  1
  Pr3+  Pr15  1  0.39628145  0.73697348  0.42703836  1
  Pr3+  Pr16  1  0.39796930  -0.01193263  0.43155058  1
  Pr3+  Pr17  1  0.36980213  -0.01762842  0.93039524  1
  Pr3+  Pr18  1  0.75079604  0.61124840  0.05268489  1
  Pr3+  Pr19  1  0.62328768  0.49030982  0.93912602  1
  Pr3+  Pr20  1  0.87874724  0.23829929  0.93110009  1
  Pr3+  Pr21  1  0.24600838  0.61956322  0.06291157  1
  Pr3+  Pr22  1  0.50058888  0.60788342  0.06922928  1
  Pr3+  Pr23  1  0.88959161  0.23807202  0.44227438  1
  Pr3+  Pr24  1  0.51482528  0.36300625  0.56184522  1
  Pr3+  Pr25  1  0.50136774  0.85519388  0.06960714  1
  Nd3+  Nd26  1  0.62965888  0.74211927  0.92834593  1
  Nd3+  Nd27  1  0.37404305  0.74271231  0.93705260  1
  Nd3+  Nd28  1  0.01662117  0.11384232  0.55582318  1
  Nd3+  Nd29  1  0.76739974  0.36508146  0.57555368  1
  Nd3+  Nd30  1  -0.00416892  0.61456530  0.04934918  1
  Nd3+  Nd31  1  0.49764923  0.36198551  0.06811617  1
  Nd3+  Nd32  1  0.24486162  0.36323494  0.06157875  1
  Nd3+  Nd33  1  0.49453992  0.10359307  0.06535751  1
  Nd3+  Nd34  1  0.76343160  0.11660621  0.57183459  1
  Nd3+  Nd35  1  0.26721966  0.86074538  0.55653912  1
  Nd3+  Nd36  1  0.62248804  0.24056288  0.94640135  1
  Nd3+  Nd37  1  -0.00224622  0.10984379  0.05907489  1
  Nd3+  Nd38  1  -0.00346452  0.36452210  0.06432819  1
  Nd3+  Nd39  1  0.77028418  0.61423568  0.57695600  1
  Nd3+  Nd40  1  0.01805064  0.61571091  0.56683166  1
  Nd3+  Nd41  1  0.26220091  0.61345908  0.56316230  1
  Nd3+  Nd42  1  0.12457499  0.23951854  0.94505600  1
  Nd3+  Nd43  1  0.24777279  0.11026440  0.06325551  1
  Nd3+  Nd44  1  0.26603136  0.11072618  0.55475568  1
  Sm3+  Sm45  1  0.38676197  0.23807372  0.44058740  1
  Sm3+  Sm46  1  0.14350430  -0.01114038  0.43627255  1
  Sm3+  Sm47  1  -0.00156057  0.86401716  0.05580071  1
  Sm3+  Sm48  1  0.61396989  -0.00820484  0.93151166  1
  Sm3+  Sm49  1  0.01840751  0.36026257  0.56453070  1
  Sm3+  Sm50  1  0.89271242  0.48537695  0.44976798  1
  Sm3+  Sm51  1  0.74752469  0.11213573  0.05261659  1
  Sm3+  Sm52  1  0.64106332  0.24157877  0.43929585  1
  Sm3+  Sm53  1  0.63864121  -0.01410306  0.44411628  1
  Sm3+  Sm54  1  0.51615302  0.11017329  0.55928376  1
  Sm3+  Sm55  1  0.12513079  0.74110366  0.94110885  1
  Sm3+  Sm56  1  0.37407441  0.49215881  0.94871015  1
  Sm3+  Sm57  1  0.88856305  -0.01013520  0.44313261  1
  Sm3+  Sm58  1  0.74397735  0.86128809  0.06031964  1
  Sm3+  Sm59  1  0.64221345  0.73230973  0.43766212  1
  Sm3+  Sm60  1  0.26546401  0.36111236  0.55894491  1
  Sm3+  Sm61  1  0.39003542  0.48839251  0.44657454  1
  Sm3+  Sm62  1  0.51871450  0.61334606  0.55946070  1
  Sm3+  Sm63  1  0.13913939  0.48853807  0.44157075  1
  Bi2+  Bi64  1  -0.03210970  0.09990337  0.29660501  1
  Bi2+  Bi65  1  0.05398772  0.11661613  0.79186521  1
  Bi2+  Bi66  1  -0.00981384  0.36662056  0.29836812  1
  Bi2+  Bi67  1  0.01516062  0.35901335  0.78227259  1
  Bi2+  Bi68  1  -0.05178515  0.60039498  0.28574457  1
  Bi2+  Bi69  1  0.03850506  0.71598249  0.78382886  1
  Bi2+  Bi70  1  -0.01279929  0.85742046  0.23863663  1
  Bi2+  Bi71  1  0.04429469  0.91308601  0.79865514  1
  Bi2+  Bi72  1  0.23419143  0.10164879  0.29879461  1
  Bi2+  Bi73  1  0.26077919  0.11015629  0.78205192  1
  Bi2+  Bi74  1  0.24362622  0.42356606  0.25520169  1
  Bi2+  Bi75  1  0.25044817  0.39076363  0.79817370  1
  Bi2+  Bi76  1  0.23069884  0.61723719  0.28241759  1
  Bi2+  Bi77  1  0.28268109  0.61697575  0.79140784  1
  Bi2+  Bi78  1  0.20951739  0.85454915  0.30829018  1
  Bi2+  Bi79  1  0.25646713  0.87106290  0.78906222  1
  Bi2+  Bi80  1  0.49922561  0.15837253  0.32023825  1
  Bi2+  Bi81  1  0.47092243  0.18129432  0.79651509  1
  Bi2+  Bi82  1  0.52849556  0.35471016  0.29113464  1
  Bi2+  Bi83  1  0.48820185  0.41596886  0.78720869  1
  Bi2+  Bi84  1  0.53096596  0.61889230  0.30632717  1
  Bi2+  Bi85  1  0.45834951  0.64799623  0.73007500  1
  Bi2+  Bi86  1  0.54890147  0.88406509  0.28239558  1
  Bi2+  Bi87  1  0.51963831  0.89692336  0.80442207  1
  Bi2+  Bi88  1  0.69017012  0.12234745  0.31318183  1
  Bi2+  Bi89  1  0.85549443  0.11546514  0.79361611  1
  Bi2+  Bi90  1  0.74113907  0.39963401  0.27802076  1
  Bi2+  Bi91  1  0.73771995  0.39942531  0.78976963  1
  Bi2+  Bi92  1  0.76660310  0.68577667  0.28233465  1
  Bi2+  Bi93  1  0.68422295  0.64547606  0.79200506  1
  Bi2+  Bi94  1  0.74238306  0.91131001  0.29264701  1
  Bi2+  Bi95  1  0.77276926  0.88259104  0.78163374  1
  Bi2+  Bi96  1  0.11324303  0.00284881  0.20346863  1
  Bi2+  Bi97  1  0.15776821  -0.03323822  0.70605257  1
  Bi2+  Bi98  1  0.12055360  0.24326983  0.19446699  1
  Bi2+  Bi99  1  0.18518060  0.26010268  0.72185029  1
  Bi2+  Bi100  1  0.08795777  0.49821414  0.20144976  1
  Bi2+  Bi101  1  0.11544223  0.52646480  0.76041763  1
  Bi2+  Bi102  1  0.08736865  0.69104836  0.21273557  1
  Bi2+  Bi103  1  0.09394363  0.78475844  0.67734120  1
  Bi2+  Bi104  1  0.38682168  0.04187503  0.21010654  1
  Bi2+  Bi105  1  0.39692913  0.01080824  0.69471784  1
  Bi2+  Bi106  1  0.36147384  0.25908289  0.26101444  1
  Bi2+  Bi107  1  0.38001148  0.32120274  0.70541698  1
  Bi2+  Bi108  1  0.40599928  0.53098147  0.24032126  1
  Bi2+  Bi109  1  0.32852283  0.51028886  0.69225218  1
  Bi2+  Bi110  1  0.37836946  0.77109112  0.21027499  1
  Bi2+  Bi111  1  0.27849760  0.71924539  0.68232778  1
  Bi2+  Bi112  1  0.63853935  0.01042491  0.21010038  1
  Bi2+  Bi113  1  0.63637456  0.05650470  0.71176706  1
  Bi2+  Bi114  1  0.60472931  0.21874031  0.21659359  1
  Bi2+  Bi115  1  0.62894467  0.26009087  0.74364514  1
  Bi2+  Bi116  1  0.62321045  0.48227061  0.20279309  1
  Bi2+  Bi117  1  0.59457103  0.50682139  0.70503779  1
  Bi2+  Bi118  1  0.62748644  0.74684516  0.20741822  1
  Bi2+  Bi119  1  0.62513946  0.78402379  0.71615706  1
  Bi2+  Bi120  1  0.85126764  -0.00344229  0.20425801  1
  Bi2+  Bi121  1  0.93398990  0.01282949  0.70638506  1
  Bi2+  Bi122  1  0.79982308  0.22180937  0.23872999  1
  Bi2+  Bi123  1  0.88560762  0.24240377  0.70667889  1
  Bi2+  Bi124  1  0.83757484  0.52197096  0.20069899  1
  Bi2+  Bi125  1  0.86891429  0.49503209  0.71367280  1
  Bi2+  Bi126  1  0.82619381  0.80569026  0.18428140  1
  Bi2+  Bi127  1  0.88585994  0.74522004  0.71479682  1
  S2-  S128  1  0.01392825  0.12260171  0.15781830  1
  S2-  S129  1  0.00349693  0.13726876  0.65435458  1
  S2-  S130  1  0.00751580  0.35033795  0.16434679  1
  S2-  S131  1  -0.03893631  0.37574232  0.65724427  1
  S2-  S132  1  -0.02638253  0.60784291  0.14794809  1
  S2-  S133  1  -0.08377901  0.61171948  0.65100993  1
  S2-  S134  1  0.07753414  0.87113563  0.14267411  1
  S2-  S135  1  -0.07443257  0.86860037  0.64281312  1
  S2-  S136  1  0.24366599  0.10393866  0.16340753  1
  S2-  S137  1  0.26820285  0.08452276  0.65334270  1
  S2-  S138  1  0.24999365  0.33969331  0.15896625  1
  S2-  S139  1  0.21658972  0.38181597  0.65257700  1
  S2-  S140  1  0.25686363  0.70628278  0.14965251  1
  S2-  S141  1  0.14418285  0.62108792  0.63874125  1
  S2-  S142  1  0.24862137  0.88985525  0.21341740  1
  S2-  S143  1  0.35813361  0.86592412  0.64095594  1
  S2-  S144  1  0.47069240  0.16192095  0.15830642  1
  S2-  S145  1  0.50250065  0.12804132  0.65702184  1
  S2-  S146  1  0.48648403  0.47324557  0.14498964  1
  S2-  S147  1  0.54326739  0.36271687  0.66063105  1
  S2-  S148  1  0.48681015  0.71565948  0.14758351  1
  S2-  S149  1  0.51603685  0.70815826  0.64094232  1
  S2-  S150  1  0.40915390  0.91468866  0.15046160  1
  S2-  S151  1  0.55703498  0.92689412  0.66932372  1
  S2-  S152  1  0.76480830  0.12186594  0.14984325  1
  S2-  S153  1  0.75791039  0.23950774  0.64484957  1
  S2-  S154  1  0.75606764  0.38669538  0.15173275  1
  S2-  S155  1  0.74402974  0.48810320  0.64806108  1
  S2-  S156  1  0.70865598  0.61490235  0.15002993  1
  S2-  S157  1  0.74480100  0.73727811  0.65116530  1
  S2-  S158  1  0.63755464  0.87873096  0.13756015  1
  S2-  S159  1  0.75644454  1.01028259  0.65271729  1
  S2-  S160  1  0.10553297  -0.00035298  0.33988408  1
  S2-  S161  1  0.23482818  0.00083840  0.85938246  1
  S2-  S162  1  0.09571745  0.22093295  0.30061324  1
  S2-  S163  1  0.07165065  0.25324309  0.85152647  1
  S2-  S164  1  0.12352808  0.40996666  0.35531163  1
  S2-  S165  1  0.03218020  0.48779774  0.85070935  1
  S2-  S166  1  0.11734618  0.71509683  0.34140876  1
  S2-  S167  1  0.18446829  0.73716399  0.84802732  1
  S2-  S168  1  0.31875325  -0.01657441  0.33909325  1
  S2-  S169  1  0.48367799  0.03313120  0.85609640  1
  S2-  S170  1  0.29654978  0.24587641  0.35596529  1
  S2-  S171  1  0.32025339  0.24236066  0.84443891  1
  S2-  S172  1  0.40921033  0.51090517  0.35021945  1
  S2-  S173  1  0.36777128  0.49170274  0.85130026  1
  S2-  S174  1  0.32415609  0.74221129  0.33099661  1
  S2-  S175  1  0.38055166  0.84671462  0.85506671  1
  S2-  S176  1  0.53532042  -0.01010086  0.36378870  1
  S2-  S177  1  0.66935412  -0.03175001  0.83694404  1
  S2-  S178  1  0.65839864  0.35777879  0.36453700  1
  S2-  S179  1  0.60556203  0.23671082  0.84831921  1
  S2-  S180  1  0.67035805  0.60674107  0.36229713  1
  S2-  S181  1  0.60929070  0.50290148  0.83987443  1
  S2-  S182  1  0.53210816  0.76178923  0.35981702  1
  S2-  S183  1  0.55399625  0.73403406  0.83853131  1
  S2-  S184  1  0.87321691  -0.00265549  0.34558747  1
  S2-  S185  1  0.88883271  -0.04229740  0.84702461  1
  S2-  S186  1  0.89645920  0.23904280  0.34206671  1
  S2-  S187  1  0.85757468  0.33315652  0.84706597  1
  S2-  S188  1  0.89560258  0.46916881  0.35056574  1
  S2-  S189  1  0.82715628  0.54940930  0.81275381  1
  S2-  S190  1  0.89035907  0.73773873  0.34476426  1
  S2-  S191  1  0.76605279  0.75555060  0.85538755  1
  S2-  S192  1  0.02053099  0.11487949  0.44877525  1
  S2-  S193  1  0.00047484  0.11198228  0.95193990  1
  S2-  S194  1  0.01800392  0.35985092  0.45890445  1
  S2-  S195  1  -0.00163749  0.36508083  0.95723101  1
  S2-  S196  1  0.01633517  0.61032622  0.45506068  1
  S2-  S197  1  -0.00373417  0.61893810  0.94459501  1
  S2-  S198  1  0.01503766  0.86733555  0.44902282  1
  S2-  S199  1  -0.00008437  0.86340554  0.95117341  1
  S2-  S200  1  0.26113451  0.11538155  0.45029192  1
  S2-  S201  1  0.24845332  0.11744076  0.95817395  1
  S2-  S202  1  0.26454313  0.36514285  0.45583865  1
  S2-  S203  1  0.24857787  0.36685140  0.95517952  1
  S2-  S204  1  0.26493763  0.60953070  0.45226668  1
  S2-  S205  1  0.24833560  0.61470240  0.95504946  1
  S2-  S206  1  0.26742500  0.86373457  0.44988668  1
  S2-  S207  1  0.24487414  0.85923527  0.95720845  1
  S2-  S208  1  0.51695138  0.12104534  0.45699619  1
  S2-  S209  1  0.49862746  0.11650687  0.96104348  1
  S2-  S210  1  0.50915138  0.36097782  0.45531639  1
  S2-  S211  1  0.49683136  0.36683374  0.95891118  1
  S2-  S212  1  0.51464546  0.60906390  0.45742435  1
  S2-  S213  1  0.49717369  0.61455831  0.95512246  1
  S2-  S214  1  0.51825063  0.86129008  0.46457816  1
  S2-  S215  1  0.50395030  0.86240256  0.95722136  1
  S2-  S216  1  0.76124799  0.11350679  0.45606080  1
  S2-  S217  1  0.74652636  0.11559087  0.94694755  1
  S2-  S218  1  0.76963875  0.36273129  0.46552617  1
  S2-  S219  1  0.74917744  0.36414666  0.95058257  1
  S2-  S220  1  0.77251827  0.60939711  0.46548960  1
  S2-  S221  1  0.75503336  0.60828197  0.94654447  1
  S2-  S222  1  0.76346692  0.86502218  0.44997102  1
  S2-  S223  1  0.74492006  0.87152954  0.95678185  1
  S2-  S224  1  0.12462879  -0.01253787  0.04470867  1
  S2-  S225  1  0.14099751  -0.01347602  0.54388671  1
  S2-  S226  1  0.12147879  0.23743720  0.05032702  1
  S2-  S227  1  0.14279221  0.23805855  0.55321755  1
  S2-  S228  1  0.12192861  0.49007860  0.04527755  1
  S2-  S229  1  0.14033866  0.48311236  0.54437710  1
  S2-  S230  1  0.12031564  0.74032242  0.04506664  1
  S2-  S231  1  0.14043474  0.74126756  0.53952263  1
  S2-  S232  1  0.36783233  -0.01365071  0.04399606  1
  S2-  S233  1  0.39264452  -0.00961789  0.53971379  1
  S2-  S234  1  0.37218239  0.23991356  0.04876771  1
  S2-  S235  1  0.38938111  0.23701126  0.54677921  1
  S2-  S236  1  0.36726337  0.48870300  0.05103420  1
  S2-  S237  1  0.38868938  0.48970127  0.55180904  1
  S2-  S238  1  0.37256516  0.73846756  0.04278752  1
  S2-  S239  1  0.38674457  0.72998543  0.53690955  1
  S2-  S240  1  0.62430428  -0.00732835  0.03930583  1
  S2-  S241  1  0.63954901  -0.01092769  0.54694421  1
  S2-  S242  1  0.62084060  0.23569366  0.05253970  1
  S2-  S243  1  0.63605742  0.23776393  0.54354538  1
  S2-  S244  1  0.62400667  0.48439009  0.04465453  1
  S2-  S245  1  0.63718556  0.48810920  0.54424616  1
  S2-  S246  1  0.62642284  0.73368346  0.03737744  1
  S2-  S247  1  0.64362935  0.73686417  0.54242904  1
  S2-  S248  1  0.87061262  -0.01429703  0.04925143  1
  S2-  S249  1  0.88790779  -0.00578209  0.54526068  1
  S2-  S250  1  0.87450597  0.23563108  0.04254460  1
  S2-  S251  1  0.89425360  0.23891977  0.54736502  1
  S2-  S252  1  0.87561865  0.48628392  0.04359277  1
  S2-  S253  1  0.89699556  0.48459962  0.55044946  1
  S2-  S254  1  0.87265640  0.74251596  0.04123450  1
  S2-  S255  1  0.89181731  0.73970400  0.54615862  1
