# generated using pymatgen
data_La6Ce7Pr13Nd19Sm19(BiS2)64
_symmetry_space_group_name_H-M   'P 1'
_cell_length_a   16.06132269
_cell_length_b   16.01373152
_cell_length_c   27.41425974
_cell_angle_alpha   90.27077410
_cell_angle_beta   90.03171315
_cell_angle_gamma   89.95534504
_symmetry_Int_Tables_number   1
_chemical_formula_structural   La6Ce7Pr13Nd19Sm19(BiS2)64
_chemical_formula_sum   'La6 Ce7 Pr13 Nd19 Sm19 Bi64 S128'
_cell_volume   7050.91252289
_cell_formula_units_Z   1
loop_
 _symmetry_equiv_pos_site_id
 _symmetry_equiv_pos_as_xyz
  1  'x, y, z'
loop_
 _atom_type_symbol
 _atom_type_oxidation_number
  La3+  3.0
  Ce3+  3.0
  Pr3+  3.0
  Nd3+  3.0
  Sm3+  3.0
  Bi2+  2.0
  S2-  -2.0
loop_
 _atom_site_type_symbol
 _atom_site_label
 _atom_site_symmetry_multiplicity
 _atom_site_fract_x
 _atom_site_fract_y
 _atom_site_fract_z
 _atom_site_occupancy
  La3+  La0  1  0.63852385  0.51522013  0.42373945  1
  La3+  La1  1  0.00947501  0.37695253  0.10166597  1
  La3+  La2  1  0.25375704  0.62778600  0.07021668  1
  La3+  La3  1  0.62951079  0.00172423  0.41847144  1
  La3+  La4  1  0.75060724  0.61331623  0.58164380  1
  La3+  La5  1  0.12511107  0.50389691  0.90163587  1
  Ce3+  Ce6  1  0.87812479  0.74755661  0.45044534  1
  Ce3+  Ce7  1  0.75859282  0.36954120  0.55356611  1
  Ce3+  Ce8  1  -0.00037571  0.87900221  0.56744703  1
  Ce3+  Ce9  1  0.63255357  0.25220692  0.94395471  1
  Ce3+  Ce10  1  0.12718882  0.25341784  0.93601909  1
  Ce3+  Ce11  1  0.50394130  0.38143639  0.05793657  1
  Ce3+  Ce12  1  0.88005570  0.49853019  0.44113601  1
  Pr3+  Pr13  1  0.13136898  0.00306166  0.92414076  1
  Pr3+  Pr14  1  0.25608231  0.88186167  0.07164479  1
  Pr3+  Pr15  1  0.50472635  0.12593324  0.06053374  1
  Pr3+  Pr16  1  0.13283901  0.26170798  0.42466582  1
  Pr3+  Pr17  1  0.12740425  -0.00335861  0.42952725  1
  Pr3+  Pr18  1  0.37743959  0.25229555  0.43540650  1
  Pr3+  Pr19  1  0.00376314  0.12432150  0.06624860  1
  Pr3+  Pr20  1  0.00413029  0.62762176  0.06692265  1
  Pr3+  Pr21  1  0.51040921  0.88158248  0.57864138  1
  Pr3+  Pr22  1  0.62897909  0.00461995  0.92778908  1
  Pr3+  Pr23  1  0.74511098  0.13287062  0.08583563  1
  Pr3+  Pr24  1  0.25414804  0.12206423  0.55861787  1
  Pr3+  Pr25  1  0.25151000  0.38177320  0.06654891  1
  Nd3+  Nd26  1  0.75373731  0.38411478  0.07029711  1
  Nd3+  Nd27  1  0.87955456  -0.00497760  0.41605773  1
  Nd3+  Nd28  1  0.37561060  0.49992893  0.93363465  1
  Nd3+  Nd29  1  0.25472931  0.62759844  0.56514358  1
  Nd3+  Nd30  1  0.75914715  0.88013763  0.56573626  1
  Nd3+  Nd31  1  0.38608000  0.74756405  0.43987252  1
  Nd3+  Nd32  1  0.63022655  0.25112399  0.43485902  1
  Nd3+  Nd33  1  0.50531186  0.62675463  0.05022189  1
  Nd3+  Nd34  1  0.88229753  0.25558140  0.95038874  1
  Nd3+  Nd35  1  0.00050837  0.88158797  0.06323530  1
  Nd3+  Nd36  1  0.12964666  0.75190778  0.94578599  1
  Nd3+  Nd37  1  0.63242306  0.74879671  0.93908641  1
  Nd3+  Nd38  1  0.88019012  0.50009070  0.94091998  1
  Nd3+  Nd39  1  0.38431634  0.50450934  0.44546358  1
  Nd3+  Nd40  1  0.88589093  0.24762683  0.41628787  1
  Nd3+  Nd41  1  0.51068426  0.87846599  0.05703096  1
  Nd3+  Nd42  1  0.50738044  0.37690059  0.55642083  1
  Nd3+  Nd43  1  0.00817206  0.36658775  0.56219057  1
  Nd3+  Nd44  1  0.38140778  -0.00379706  0.43088395  1
  Sm3+  Sm45  1  0.75281307  0.88087328  0.05325391  1
  Sm3+  Sm46  1  0.25583893  0.37519781  0.55936630  1
  Sm3+  Sm47  1  0.25028988  0.12371975  0.05778922  1
  Sm3+  Sm48  1  0.88066640  0.74906762  0.94331261  1
  Sm3+  Sm49  1  0.13027997  0.50999249  0.43516303  1
  Sm3+  Sm50  1  0.75831395  0.12486860  0.54763322  1
  Sm3+  Sm51  1  0.63230231  0.49329184  0.93028884  1
  Sm3+  Sm52  1  0.25458679  0.87645063  0.55089349  1
  Sm3+  Sm53  1  0.50481722  0.12204818  0.55561037  1
  Sm3+  Sm54  1  0.37634298  0.25309358  0.94718239  1
  Sm3+  Sm55  1  0.75548430  0.62393518  0.06460003  1
  Sm3+  Sm56  1  0.00474288  0.12865935  0.54757254  1
  Sm3+  Sm57  1  0.87487809  0.00530654  0.93851613  1
  Sm3+  Sm58  1  0.38069237  0.00095743  0.93171322  1
  Sm3+  Sm59  1  0.00328068  0.62034800  0.56657846  1
  Sm3+  Sm60  1  0.50496975  0.63220297  0.57243223  1
  Sm3+  Sm61  1  0.12647108  0.74684939  0.44809092  1
  Sm3+  Sm62  1  0.63198904  0.75259095  0.45038034  1
  Sm3+  Sm63  1  0.37810924  0.75014000  0.94093451  1
  Bi2+  Bi64  1  0.01014746  0.09336966  0.28703004  1
  Bi2+  Bi65  1  0.00886540  0.11053599  0.76913208  1
  Bi2+  Bi66  1  0.00537825  0.37540573  0.29091683  1
  Bi2+  Bi67  1  0.00155543  0.37181359  0.79471542  1
  Bi2+  Bi68  1  -0.03540807  0.61444539  0.32166067  1
  Bi2+  Bi69  1  0.00113179  0.63987520  0.79058883  1
  Bi2+  Bi70  1  0.00322485  0.82615117  0.28226323  1
  Bi2+  Bi71  1  -0.01675175  0.93963523  0.82808537  1
  Bi2+  Bi72  1  0.22713290  0.09987482  0.29863441  1
  Bi2+  Bi73  1  0.24431663  0.12440546  0.79515482  1
  Bi2+  Bi74  1  0.27481834  0.37631291  0.29096022  1
  Bi2+  Bi75  1  0.33869373  0.35859827  0.78505846  1
  Bi2+  Bi76  1  0.23345815  0.62033774  0.28705512  1
  Bi2+  Bi77  1  0.27050119  0.64916074  0.79744818  1
  Bi2+  Bi78  1  0.24135758  0.90466797  0.30539345  1
  Bi2+  Bi79  1  0.16415541  0.88332541  0.79548107  1
  Bi2+  Bi80  1  0.43697310  0.11859312  0.28563237  1
  Bi2+  Bi81  1  0.51699793  0.12186386  0.79288248  1
  Bi2+  Bi82  1  0.46442273  0.31674047  0.30785303  1
  Bi2+  Bi83  1  0.50272720  0.45282507  0.82219351  1
  Bi2+  Bi84  1  0.50294251  0.61093293  0.30987507  1
  Bi2+  Bi85  1  0.47466701  0.64148743  0.78362724  1
  Bi2+  Bi86  1  0.55091302  0.85365297  0.30032123  1
  Bi2+  Bi87  1  0.42667274  0.82339518  0.74294712  1
  Bi2+  Bi88  1  0.74233385  0.07090438  0.28016318  1
  Bi2+  Bi89  1  0.79804622  0.14816827  0.78970116  1
  Bi2+  Bi90  1  0.74531348  0.44764043  0.28843242  1
  Bi2+  Bi91  1  0.74875469  0.37200109  0.79617461  1
  Bi2+  Bi92  1  0.74159760  0.67113259  0.19946987  1
  Bi2+  Bi93  1  0.74560545  0.64163170  0.79670524  1
  Bi2+  Bi94  1  0.73321570  0.83446348  0.26453417  1
  Bi2+  Bi95  1  0.68317594  0.90698617  0.79621809  1
  Bi2+  Bi96  1  0.14480492  -0.05536881  0.20343603  1
  Bi2+  Bi97  1  0.11879310  -0.00576342  0.69987796  1
  Bi2+  Bi98  1  0.14434944  0.21260528  0.21549342  1
  Bi2+  Bi99  1  0.14744401  0.22243071  0.70128207  1
  Bi2+  Bi100  1  0.15891066  0.48337784  0.21826966  1
  Bi2+  Bi101  1  0.13767197  0.51354087  0.67925722  1
  Bi2+  Bi102  1  0.12768646  0.73517372  0.20889497  1
  Bi2+  Bi103  1  0.03988065  0.81232716  0.71479000  1
  Bi2+  Bi104  1  0.35836712  -0.02982922  0.21994350  1
  Bi2+  Bi105  1  0.36583427  0.01377120  0.70724181  1
  Bi2+  Bi106  1  0.34599907  0.24406975  0.21592910  1
  Bi2+  Bi107  1  0.45024054  0.24622121  0.71542585  1
  Bi2+  Bi108  1  0.40967673  0.50612424  0.20931892  1
  Bi2+  Bi109  1  0.40902270  0.49610047  0.71296767  1
  Bi2+  Bi110  1  0.33584813  0.76078645  0.23800226  1
  Bi2+  Bi111  1  0.24833205  0.76214673  0.70581118  1
  Bi2+  Bi112  1  0.60749182  -0.01992034  0.19817608  1
  Bi2+  Bi113  1  0.62093027  0.01741808  0.71364803  1
  Bi2+  Bi114  1  0.62465409  0.23269775  0.26335715  1
  Bi2+  Bi115  1  0.64828385  0.21794985  0.72136124  1
  Bi2+  Bi116  1  0.63828577  0.40063261  0.20223858  1
  Bi2+  Bi117  1  0.62641570  0.50691298  0.74057497  1
  Bi2+  Bi118  1  0.55391357  0.74441755  0.20464192  1
  Bi2+  Bi119  1  0.62929401  0.74225763  0.69534704  1
  Bi2+  Bi120  1  0.89534013  -0.05611361  0.20801529  1
  Bi2+  Bi121  1  0.86028992  0.04966925  0.69711013  1
  Bi2+  Bi122  1  0.86183280  0.24385779  0.21484126  1
  Bi2+  Bi123  1  0.87755584  0.30095677  0.68244552  1
  Bi2+  Bi124  1  0.90876165  0.57327734  0.22032518  1
  Bi2+  Bi125  1  0.87531014  0.54542229  0.70056929  1
  Bi2+  Bi126  1  0.93799718  0.75852658  0.17163646  1
  Bi2+  Bi127  1  0.85788168  0.87127330  0.74838104  1
  S2-  S128  1  0.00300263  0.21324649  0.15582209  1
  S2-  S129  1  0.00969677  0.22241301  0.63135060  1
  S2-  S130  1  -0.08357332  0.39051886  0.19476055  1
  S2-  S131  1  -0.00910434  0.42713254  0.65755826  1
  S2-  S132  1  0.03780476  0.54001893  0.15328413  1
  S2-  S133  1  0.01455061  0.64242769  0.66430936  1
  S2-  S134  1  0.02243318  0.99296147  0.13917009  1
  S2-  S135  1  -0.11786682  0.90404239  0.63963809  1
  S2-  S136  1  0.26133488  0.01980096  0.13694752  1
  S2-  S137  1  0.27900684  0.14745485  0.65758106  1
  S2-  S138  1  0.16204023  0.34561017  0.15307358  1
  S2-  S139  1  0.21370309  0.36282692  0.65382359  1
  S2-  S140  1  0.28551592  0.51237419  0.14698384  1
  S2-  S141  1  0.28813666  0.60343321  0.66161956  1
  S2-  S142  1  0.26555586  0.75555445  0.14539339  1
  S2-  S143  1  0.25851771  0.91355520  0.64594827  1
  S2-  S144  1  0.59334190  0.11722716  0.14599520  1
  S2-  S145  1  0.48363683  0.02990749  0.63914740  1
  S2-  S146  1  0.48439226  0.37686639  0.15538539  1
  S2-  S147  1  0.49119098  0.37746596  0.65514975  1
  S2-  S148  1  0.48788561  0.61812018  0.14927327  1
  S2-  S149  1  0.60759018  0.58939266  0.64750605  1
  S2-  S150  1  0.47258009  0.89029902  0.15300898  1
  S2-  S151  1  0.47641065  0.75573622  0.64998367  1
  S2-  S152  1  0.81610135  0.08063312  0.17699414  1
  S2-  S153  1  0.77143949  0.18703744  0.63983188  1
  S2-  S154  1  0.74203510  0.27823036  0.15030542  1
  S2-  S155  1  0.77214549  0.42620674  0.64651750  1
  S2-  S156  1  0.72597139  0.51678647  0.13984210  1
  S2-  S157  1  0.79515100  0.67943544  0.67532323  1
  S2-  S158  1  0.70760200  0.88335324  0.14733794  1
  S2-  S159  1  0.65261626  0.88357255  0.64589809  1
  S2-  S160  1  0.01735616  -0.03015733  0.35101920  1
  S2-  S161  1  0.11578946  0.13830447  0.85654966  1
  S2-  S162  1  0.03010880  0.23781694  0.34331988  1
  S2-  S163  1  0.12552276  0.34656319  0.85185199  1
  S2-  S164  1  0.12738854  0.41621176  0.35268530  1
  S2-  S165  1  0.10764939  0.50290712  0.77037249  1
  S2-  S166  1  0.12566665  0.64627635  0.36752434  1
  S2-  S167  1  0.12572175  0.67554657  0.85523102  1
  S2-  S168  1  0.48932275  -0.01069570  0.35254893  1
  S2-  S169  1  0.26949024  -0.00963784  0.85397986  1
  S2-  S170  1  0.26675349  0.24549651  0.35762186  1
  S2-  S171  1  0.35963942  0.22862693  0.84971561  1
  S2-  S172  1  0.35944831  0.54383404  0.35062955  1
  S2-  S173  1  0.28145233  0.50761122  0.85004348  1
  S2-  S174  1  0.42138398  0.75781953  0.34272147  1
  S2-  S175  1  0.38323188  0.76771676  0.84313710  1
  S2-  S176  1  0.74922726  -0.05417021  0.34748565  1
  S2-  S177  1  0.50114820  -0.00157582  0.85720623  1
  S2-  S178  1  0.63882262  0.15360232  0.35256844  1
  S2-  S179  1  0.62985563  0.31317325  0.85267661  1
  S2-  S180  1  0.58450060  0.44697645  0.33490420  1
  S2-  S181  1  0.75499235  0.50539345  0.86191747  1
  S2-  S182  1  0.62428476  0.66871904  0.36346278  1
  S2-  S183  1  0.63891859  0.74896493  0.83983747  1
  S2-  S184  1  0.86621315  0.12115505  0.34125840  1
  S2-  S185  1  0.76245727  0.02397799  0.85913041  1
  S2-  S186  1  0.85183028  0.34997829  0.33572471  1
  S2-  S187  1  0.87672159  0.27616519  0.84882069  1
  S2-  S188  1  0.80558650  0.55477320  0.35853730  1
  S2-  S189  1  0.96669137  0.50734605  0.85244319  1
  S2-  S190  1  0.89679863  0.76363062  0.35294301  1
  S2-  S191  1  0.87414712  0.71992948  0.84609890  1
  S2-  S192  1  0.00838254  0.12423875  0.44701002  1
  S2-  S193  1  -0.00129805  0.12288826  0.95743357  1
  S2-  S194  1  0.00671321  0.38029984  0.45433794  1
  S2-  S195  1  0.00573697  0.37878400  0.95464744  1
  S2-  S196  1  0.00319157  0.62419723  0.46380813  1
  S2-  S197  1  0.00351822  0.62871351  0.96031360  1
  S2-  S198  1  0.00619398  0.87116267  0.46008268  1
  S2-  S199  1  0.00022766  0.87702920  0.95627159  1
  S2-  S200  1  0.25550613  0.11748954  0.45144581  1
  S2-  S201  1  0.25764556  0.12712421  0.95624082  1
  S2-  S202  1  0.25778839  0.38543869  0.45598316  1
  S2-  S203  1  0.25568218  0.37654239  0.95744226  1
  S2-  S204  1  0.25779290  0.62847323  0.46087093  1
  S2-  S205  1  0.25574964  0.62936287  0.95906123  1
  S2-  S206  1  0.25404029  0.86953089  0.44686580  1
  S2-  S207  1  0.25761093  0.87342454  0.95648696  1
  S2-  S208  1  0.50088083  0.12711663  0.45277756  1
  S2-  S209  1  0.50241610  0.13091960  0.95434488  1
  S2-  S210  1  0.50539672  0.37597112  0.45120792  1
  S2-  S211  1  0.50307816  0.37599002  0.95347063  1
  S2-  S212  1  0.50676754  0.62791970  0.46641583  1
  S2-  S213  1  0.50639310  0.62447763  0.94456006  1
  S2-  S214  1  0.50764422  0.87325793  0.45915295  1
  S2-  S215  1  0.50544774  0.87203534  0.95137315  1
  S2-  S216  1  0.75888506  0.12465675  0.44759101  1
  S2-  S217  1  0.75582895  0.13158165  0.96130090  1
  S2-  S218  1  0.75202109  0.37441625  0.44801314  1
  S2-  S219  1  0.75420136  0.37748235  0.96280226  1
  S2-  S220  1  0.75653501  0.62843256  0.47031113  1
  S2-  S221  1  0.75525394  0.62780415  0.96082873  1
  S2-  S222  1  0.75556022  0.87491134  0.45948180  1
  S2-  S223  1  0.75646834  0.87331899  0.94975889  1
  S2-  S224  1  0.13118825  -0.00033677  0.03400459  1
  S2-  S225  1  0.12710127  -0.00011884  0.54100816  1
  S2-  S226  1  0.13012969  0.24685460  0.04453859  1
  S2-  S227  1  0.13732931  0.25022169  0.53408856  1
  S2-  S228  1  0.12814230  0.50223686  0.05056304  1
  S2-  S229  1  0.13115477  0.50052720  0.54553904  1
  S2-  S230  1  0.12573756  0.75821793  0.05008774  1
  S2-  S231  1  0.12830017  0.75167417  0.55271841  1
  S2-  S232  1  0.38283248  0.00068346  0.03810429  1
  S2-  S233  1  0.37849361  -0.00211911  0.53658150  1
  S2-  S234  1  0.37613137  0.24966170  0.05244612  1
  S2-  S235  1  0.38041953  0.24947295  0.54467915  1
  S2-  S236  1  0.38157995  0.50349500  0.03892522  1
  S2-  S237  1  0.38097652  0.50208461  0.55224731  1
  S2-  S238  1  0.38440176  0.75522016  0.04436424  1
  S2-  S239  1  0.37653790  0.75345619  0.54637501  1
  S2-  S240  1  0.63138301  0.00351305  0.03680302  1
  S2-  S241  1  0.63241601  0.00630547  0.53925454  1
  S2-  S242  1  0.62639679  0.25633103  0.04720724  1
  S2-  S243  1  0.62734065  0.24601524  0.54215676  1
  S2-  S244  1  0.62757801  0.50330259  0.03539991  1
  S2-  S245  1  0.62998218  0.49498692  0.53922880  1
  S2-  S246  1  0.63328836  0.74964703  0.04546760  1
  S2-  S247  1  0.63252444  0.74988184  0.55161782  1
  S2-  S248  1  0.87113869  0.00427431  0.04367475  1
  S2-  S249  1  0.88356468  0.00706719  0.53462353  1
  S2-  S250  1  0.88054750  0.25628894  0.05456639  1
  S2-  S251  1  0.88127262  0.24903545  0.52857141  1
  S2-  S252  1  0.88241568  0.50156406  0.05104474  1
  S2-  S253  1  0.88451139  0.49650919  0.54693862  1
  S2-  S254  1  0.87375725  0.75357615  0.04725139  1
  S2-  S255  1  0.88200078  0.74523278  0.55534892  1
