# generated using pymatgen
data_La6Ce7Pr13Nd19Sm19(BiS2)64
_symmetry_space_group_name_H-M   'P 1'
_cell_length_a   16.09791380
_cell_length_b   16.00392058
_cell_length_c   27.37391250
_cell_angle_alpha   90.22595150
_cell_angle_beta   89.99978097
_cell_angle_gamma   89.96662795
_symmetry_Int_Tables_number   1
_chemical_formula_structural   La6Ce7Pr13Nd19Sm19(BiS2)64
_chemical_formula_sum   'La6 Ce7 Pr13 Nd19 Sm19 Bi64 S128'
_cell_volume   7052.27775888
_cell_formula_units_Z   1
loop_
 _symmetry_equiv_pos_site_id
 _symmetry_equiv_pos_as_xyz
  1  'x, y, z'
loop_
 _atom_type_symbol
 _atom_type_oxidation_number
  La3+  3.0
  Ce3+  3.0
  Pr3+  3.0
  Nd3+  3.0
  Sm3+  3.0
  Bi2+  2.0
  S2-  -2.0
loop_
 _atom_site_type_symbol
 _atom_site_label
 _atom_site_symmetry_multiplicity
 _atom_site_fract_x
 _atom_site_fract_y
 _atom_site_fract_z
 _atom_site_occupancy
  La3+  La0  1  0.24373306  0.86738423  0.12187828  1
  La3+  La1  1  0.00051828  0.90184799  0.05916450  1
  La3+  La2  1  0.87737258  0.02954846  0.91498731  1
  La3+  La3  1  0.25058133  0.14073460  0.07211101  1
  La3+  La4  1  0.75405146  0.14422733  0.06177344  1
  La3+  La5  1  0.00163333  0.40230842  0.07733713  1
  Ce3+  Ce6  1  0.37783651  0.47982091  0.42705848  1
  Ce3+  Ce7  1  0.50104759  0.90713589  0.06700799  1
  Ce3+  Ce8  1  0.00227690  0.64942077  0.06025906  1
  Ce3+  Ce9  1  0.49671300  0.60513313  0.56293807  1
  Ce3+  Ce10  1  0.74982156  0.64438137  0.06740807  1
  Ce3+  Ce11  1  0.37685103  0.22881032  0.43222295  1
  Ce3+  Ce12  1  0.87409743  0.47710136  0.43878446  1
  Pr3+  Pr13  1  0.50010378  0.64682763  0.06930180  1
  Pr3+  Pr14  1  0.75251786  0.35307350  0.56985820  1
  Pr3+  Pr15  1  0.37844094  0.52569614  0.93770395  1
  Pr3+  Pr16  1  -0.00031953  0.35248658  0.54955638  1
  Pr3+  Pr17  1  0.74333321  0.84603857  0.60979048  1
  Pr3+  Pr18  1  0.37801786  0.27572048  0.94289197  1
  Pr3+  Pr19  1  0.86399651  0.22357850  0.41865295  1
  Pr3+  Pr20  1  0.87349380  0.77243216  0.93578339  1
  Pr3+  Pr21  1  0.25003446  0.39400309  0.08918708  1
  Pr3+  Pr22  1  0.88318311  0.28295951  0.92469061  1
  Pr3+  Pr23  1  -0.00298603  0.85013934  0.57236109  1
  Pr3+  Pr24  1  0.49769513  0.09566442  0.57364406  1
  Pr3+  Pr25  1  0.12846884  0.02372189  0.93458133  1
  Nd3+  Nd26  1  0.37883494  0.77581550  0.94290497  1
  Nd3+  Nd27  1  0.12486399  -0.02582661  0.43448315  1
  Nd3+  Nd28  1  0.50330258  0.39845481  0.06725375  1
  Nd3+  Nd29  1  0.63136864  0.27674063  0.93645285  1
  Nd3+  Nd30  1  0.24668658  0.85479015  0.56757677  1
  Nd3+  Nd31  1  0.62673705  -0.02100677  0.45015218  1
  Nd3+  Nd32  1  0.37533333  -0.02041364  0.43324804  1
  Nd3+  Nd33  1  0.12675721  0.77517146  0.93921237  1
  Nd3+  Nd34  1  0.50361762  0.15259422  0.06460842  1
  Nd3+  Nd35  1  0.75692500  0.39029743  0.07874520  1
  Nd3+  Nd36  1  0.12562166  0.52088877  0.94252067  1
  Nd3+  Nd37  1  0.25005721  0.60457964  0.54883620  1
  Nd3+  Nd38  1  0.00170393  0.10355903  0.55564849  1
  Nd3+  Nd39  1  -0.00185047  0.60774694  0.55104627  1
  Nd3+  Nd40  1  0.25186129  0.35393473  0.55374311  1
  Nd3+  Nd41  1  0.75715901  0.10223622  0.57236579  1
  Nd3+  Nd42  1  0.62152800  0.02923232  0.92472060  1
  Nd3+  Nd43  1  0.49726990  0.84969267  0.56624147  1
  Nd3+  Nd44  1  0.62961161  0.52372995  0.93732571  1
  Sm3+  Sm45  1  0.62608831  0.73289435  0.44942607  1
  Sm3+  Sm46  1  0.25221581  0.64715830  0.05224551  1
  Sm3+  Sm47  1  0.12468270  0.47752957  0.43323539  1
  Sm3+  Sm48  1  0.49873788  0.35479410  0.55772658  1
  Sm3+  Sm49  1  0.37752791  0.73169194  0.43080269  1
  Sm3+  Sm50  1  0.74859706  0.90244252  0.05233979  1
  Sm3+  Sm51  1  0.62615809  0.77379733  0.94167343  1
  Sm3+  Sm52  1  0.87232898  0.73748195  0.43694144  1
  Sm3+  Sm53  1  0.12783175  0.27536964  0.94534019  1
  Sm3+  Sm54  1  0.12638551  0.22119450  0.42230347  1
  Sm3+  Sm55  1  0.24989157  0.10452023  0.55670442  1
  Sm3+  Sm56  1  0.62754840  0.22745391  0.45069195  1
  Sm3+  Sm57  1  0.87727528  0.51989345  0.94548591  1
  Sm3+  Sm58  1  0.62651157  0.48073500  0.44604392  1
  Sm3+  Sm59  1  0.37705823  0.02367013  0.94384194  1
  Sm3+  Sm60  1  0.12372819  0.73369954  0.43640828  1
  Sm3+  Sm61  1  0.00115027  0.15027490  0.05137693  1
  Sm3+  Sm62  1  0.87318917  -0.02384150  0.44013596  1
  Sm3+  Sm63  1  0.75033419  0.60787667  0.55616197  1
  Bi2+  Bi64  1  -0.05224263  0.07395899  0.26691446  1
  Bi2+  Bi65  1  -0.00222500  0.14814851  0.79100562  1
  Bi2+  Bi66  1  0.00722216  0.41460370  0.30204377  1
  Bi2+  Bi67  1  0.01037369  0.40316352  0.79777302  1
  Bi2+  Bi68  1  -0.04215770  0.68320732  0.27942029  1
  Bi2+  Bi69  1  0.03204074  0.59048569  0.76518576  1
  Bi2+  Bi70  1  -0.00535544  0.88294343  0.29459041  1
  Bi2+  Bi71  1  -0.01201712  0.84884035  0.80870790  1
  Bi2+  Bi72  1  0.26438108  0.16217145  0.29757467  1
  Bi2+  Bi73  1  0.21045992  0.08381161  0.81372287  1
  Bi2+  Bi74  1  0.25111232  0.44732853  0.30445927  1
  Bi2+  Bi75  1  0.27710907  0.36973970  0.79044504  1
  Bi2+  Bi76  1  0.28303673  0.64348756  0.24222976  1
  Bi2+  Bi77  1  0.32444895  0.61641066  0.77453118  1
  Bi2+  Bi78  1  0.24011787  0.95329576  0.30911930  1
  Bi2+  Bi79  1  0.24139934  0.88559747  0.79186138  1
  Bi2+  Bi80  1  0.53717138  0.15056481  0.26503273  1
  Bi2+  Bi81  1  0.39511248  0.10709099  0.77091663  1
  Bi2+  Bi82  1  0.48632967  0.44634412  0.29698802  1
  Bi2+  Bi83  1  0.52585568  0.29948688  0.80163092  1
  Bi2+  Bi84  1  0.52460251  0.66055912  0.29927388  1
  Bi2+  Bi85  1  0.54744355  0.49809518  0.79117214  1
  Bi2+  Bi86  1  0.48571809  0.86286647  0.27933676  1
  Bi2+  Bi87  1  0.43589938  0.84858516  0.79267319  1
  Bi2+  Bi88  1  0.72343969  0.10876270  0.29503876  1
  Bi2+  Bi89  1  0.72480997  0.09767168  0.79493754  1
  Bi2+  Bi90  1  0.75690925  0.37925522  0.30573238  1
  Bi2+  Bi91  1  0.79093766  0.37387870  0.77007651  1
  Bi2+  Bi92  1  0.75999611  0.68891652  0.27747632  1
  Bi2+  Bi93  1  0.74161522  0.56935787  0.75653454  1
  Bi2+  Bi94  1  0.72827323  0.88907097  0.29676806  1
  Bi2+  Bi95  1  0.72498337  0.82578336  0.80043235  1
  Bi2+  Bi96  1  0.11124123  0.05073462  0.20362141  1
  Bi2+  Bi97  1  0.12589413  -0.00850613  0.71791373  1
  Bi2+  Bi98  1  0.15018399  0.26042884  0.22625086  1
  Bi2+  Bi99  1  0.15940371  0.23098955  0.74251840  1
  Bi2+  Bi100  1  0.13726897  0.52170875  0.21250055  1
  Bi2+  Bi101  1  0.20144094  0.49908385  0.71376473  1
  Bi2+  Bi102  1  0.09432205  0.76897145  0.21657334  1
  Bi2+  Bi103  1  0.12942949  0.73318861  0.70494613  1
  Bi2+  Bi104  1  0.42447029  0.01280739  0.21505946  1
  Bi2+  Bi105  1  0.31151820  0.00662722  0.68333178  1
  Bi2+  Bi106  1  0.40063617  0.27374790  0.22385419  1
  Bi2+  Bi107  1  0.34030621  0.26289305  0.70018067  1
  Bi2+  Bi108  1  0.34654593  0.46878151  0.20265889  1
  Bi2+  Bi109  1  0.44905228  0.52525594  0.69409144  1
  Bi2+  Bi110  1  0.45806621  0.71947524  0.19823075  1
  Bi2+  Bi111  1  0.32283737  0.78094211  0.70263098  1
  Bi2+  Bi112  1  0.64538657  -0.07916956  0.19076946  1
  Bi2+  Bi113  1  0.58724877  -0.00685243  0.71191754  1
  Bi2+  Bi114  1  0.62473158  0.30770226  0.21588527  1
  Bi2+  Bi115  1  0.64284205  0.25183864  0.71820114  1
  Bi2+  Bi116  1  0.61070151  0.50500406  0.21496424  1
  Bi2+  Bi117  1  0.66197166  0.44155791  0.68426810  1
  Bi2+  Bi118  1  0.65614436  0.72452098  0.17880377  1
  Bi2+  Bi119  1  0.56600776  0.70797916  0.75020019  1
  Bi2+  Bi120  1  0.86219258  -0.07505220  0.20522616  1
  Bi2+  Bi121  1  0.86655394  -0.00444068  0.71787109  1
  Bi2+  Bi122  1  0.87858356  0.24312312  0.20982043  1
  Bi2+  Bi123  1  0.90040651  0.23921820  0.70544570  1
  Bi2+  Bi124  1  0.87297459  0.52941502  0.20763127  1
  Bi2+  Bi125  1  0.89952559  0.49134073  0.69778741  1
  Bi2+  Bi126  1  0.86056557  0.73004892  0.17625705  1
  Bi2+  Bi127  1  0.87950447  0.71713980  0.71076630  1
  S2-  S128  1  -0.00738275  0.15407269  0.15061531  1
  S2-  S129  1  -0.05283358  0.09939148  0.65061503  1
  S2-  S130  1  0.11383941  0.37982588  0.15744410  1
  S2-  S131  1  -0.02215512  0.36068814  0.64913510  1
  S2-  S132  1  0.01063808  0.56748500  0.14603231  1
  S2-  S133  1  0.00471098  0.68019033  0.64072200  1
  S2-  S134  1  0.07191606  0.90072732  0.15107389  1
  S2-  S135  1  -0.10250024  0.86611539  0.65851113  1
  S2-  S136  1  0.25325852  0.03683111  0.15599272  1
  S2-  S137  1  0.18125780  0.11128973  0.64694637  1
  S2-  S138  1  0.26923453  0.25373825  0.15464404  1
  S2-  S139  1  0.21819567  0.36476348  0.65044199  1
  S2-  S140  1  0.23481504  0.68972915  0.14652332  1
  S2-  S141  1  0.24250256  0.63176938  0.64652051  1
  S2-  S142  1  0.23608663  0.86124673  0.23240902  1
  S2-  S143  1  0.12742606  0.86780167  0.64174634  1
  S2-  S144  1  0.53617115  0.03955253  0.14026369  1
  S2-  S145  1  0.54134627  0.14163893  0.66915895  1
  S2-  S146  1  0.50443920  0.27509656  0.14122541  1
  S2-  S147  1  0.45041140  0.36657891  0.65208945  1
  S2-  S148  1  0.49342705  0.52014139  0.14242807  1
  S2-  S149  1  0.50144103  0.67877024  0.65106970  1
  S2-  S150  1  0.41275699  0.87141294  0.15130939  1
  S2-  S151  1  0.47504459  0.95156741  0.64598114  1
  S2-  S152  1  0.74507140  0.24328070  0.14802544  1
  S2-  S153  1  0.73570334  0.00853252  0.65867377  1
  S2-  S154  1  0.88881775  0.37997166  0.15670511  1
  S2-  S155  1  0.76773797  0.23273374  0.64227615  1
  S2-  S156  1  0.73755167  0.52727631  0.14379283  1
  S2-  S157  1  0.76721359  0.67759769  0.64565215  1
  S2-  S158  1  0.76658791  1.00509914  0.13248098  1
  S2-  S159  1  0.65226517  0.83072486  0.70184476  1
  S2-  S160  1  0.13953634  0.08443912  0.35432292  1
  S2-  S161  1  0.02707850  0.01045617  0.85106909  1
  S2-  S162  1  0.13549923  0.30407119  0.33308741  1
  S2-  S163  1  0.03985945  0.28145952  0.86008674  1
  S2-  S164  1  0.12195228  0.53993316  0.34147681  1
  S2-  S165  1  0.12035868  0.52006116  0.84336726  1
  S2-  S166  1  0.13250425  0.84442410  0.36142133  1
  S2-  S167  1  0.12596899  0.77465165  0.83926933  1
  S2-  S168  1  0.38329455  0.10549979  0.36068873  1
  S2-  S169  1  0.42507731  0.00424262  0.84900300  1
  S2-  S170  1  0.38146934  0.35136211  0.35652052  1
  S2-  S171  1  0.37743797  0.25109685  0.84297237  1
  S2-  S172  1  0.39490814  0.60861771  0.35832651  1
  S2-  S173  1  0.38171532  0.48784789  0.83923196  1
  S2-  S174  1  0.37281479  0.85638822  0.35723587  1
  S2-  S175  1  0.39205266  0.71346744  0.84960656  1
  S2-  S176  1  0.62540477  -0.00114393  0.35026845  1
  S2-  S177  1  0.63297491  -0.05280257  0.83217216  1
  S2-  S178  1  0.70521047  0.24117968  0.36263299  1
  S2-  S179  1  0.61452519  0.16556116  0.85503123  1
  S2-  S180  1  0.64324210  0.47334613  0.34811836  1
  S2-  S181  1  0.63188500  0.40373384  0.86331015  1
  S2-  S182  1  0.64343966  0.74913887  0.35245341  1
  S2-  S183  1  0.63441549  0.70176653  0.85227928  1
  S2-  S184  1  0.85931221  0.07830154  0.35705825  1
  S2-  S185  1  0.83960729  -0.05487469  0.82228632  1
  S2-  S186  1  0.91151551  0.28873888  0.32265452  1
  S2-  S187  1  0.84566436  0.16884555  0.84624492  1
  S2-  S188  1  0.87196316  0.49668951  0.34163490  1
  S2-  S189  1  0.87445694  0.42901112  0.86127820  1
  S2-  S190  1  0.87012774  0.85559439  0.36345304  1
  S2-  S191  1  0.88675467  0.72868464  0.83806506  1
  S2-  S192  1  0.00013959  0.10487487  0.44968819  1
  S2-  S193  1  0.00315050  0.15073659  0.95048361  1
  S2-  S194  1  0.00186046  0.35125893  0.44359152  1
  S2-  S195  1  0.00500224  0.40110641  0.96500571  1
  S2-  S196  1  -0.00184511  0.60974017  0.44545648  1
  S2-  S197  1  0.00112293  0.64710921  0.95282284  1
  S2-  S198  1  -0.00070995  0.85303245  0.46175556  1
  S2-  S199  1  -0.00060579  0.89558031  0.95147522  1
  S2-  S200  1  0.24971948  0.10541894  0.45563542  1
  S2-  S201  1  0.25216620  0.14934897  0.95551840  1
  S2-  S202  1  0.24386150  0.35229600  0.44891704  1
  S2-  S203  1  0.25026205  0.39870316  0.94756332  1
  S2-  S204  1  0.24570881  0.60787906  0.44493600  1
  S2-  S205  1  0.25053943  0.64884457  0.94790087  1
  S2-  S206  1  0.25256015  0.85080739  0.46115271  1
  S2-  S207  1  0.25417587  0.89830008  0.94233196  1
  S2-  S208  1  0.50359216  0.10510774  0.46373186  1
  S2-  S209  1  0.49891850  0.14933471  0.95764972  1
  S2-  S210  1  0.50727310  0.35427985  0.45438262  1
  S2-  S211  1  0.50072563  0.40091250  0.95952779  1
  S2-  S212  1  0.50513472  0.60680975  0.45792045  1
  S2-  S213  1  0.50457142  0.64786504  0.96049369  1
  S2-  S214  1  0.50062497  0.85298309  0.45918278  1
  S2-  S215  1  0.50344482  0.89733559  0.95448908  1
  S2-  S216  1  0.74796394  0.10296895  0.46475913  1
  S2-  S217  1  0.75317295  0.14994554  0.95308746  1
  S2-  S218  1  0.74853877  0.35733220  0.46231152  1
  S2-  S219  1  0.75503414  0.40099734  0.96518495  1
  S2-  S220  1  0.75069796  0.60811116  0.45127574  1
  S2-  S221  1  0.75302778  0.64538658  0.95736774  1
  S2-  S222  1  0.74734752  0.85443329  0.45848013  1
  S2-  S223  1  0.74895582  0.89866702  0.94799317  1
  S2-  S224  1  0.12372449  0.02534082  0.04094862  1
  S2-  S225  1  0.12709211  -0.01854824  0.54058337  1
  S2-  S226  1  0.12849428  0.27289780  0.04765181  1
  S2-  S227  1  0.12698589  0.22942393  0.53683589  1
  S2-  S228  1  0.13499579  0.52083359  0.04784344  1
  S2-  S229  1  0.12366003  0.48133743  0.53985248  1
  S2-  S230  1  0.12975571  0.77451418  0.04520979  1
  S2-  S231  1  0.12661190  0.72946282  0.53862418  1
  S2-  S232  1  0.37901388  0.02667907  0.04566719  1
  S2-  S233  1  0.36979999  -0.02258385  0.54108163  1
  S2-  S234  1  0.37085287  0.27784323  0.04704891  1
  S2-  S235  1  0.37636320  0.22801386  0.54515113  1
  S2-  S236  1  0.36845011  0.51960874  0.04514376  1
  S2-  S237  1  0.37521962  0.47915283  0.53883646  1
  S2-  S238  1  0.37400462  0.77205888  0.04719054  1
  S2-  S239  1  0.37233087  0.73073539  0.54116819  1
  S2-  S240  1  0.62721538  0.02330876  0.03176616  1
  S2-  S241  1  0.62737072  -0.02774496  0.55472631  1
  S2-  S242  1  0.62954117  0.27654288  0.04203222  1
  S2-  S243  1  0.62072733  0.23023083  0.55286794  1
  S2-  S244  1  0.62594303  0.52389061  0.04212565  1
  S2-  S245  1  0.62457968  0.48155376  0.55048602  1
  S2-  S246  1  0.62576433  0.77565673  0.04731046  1
  S2-  S247  1  0.62721036  0.73239168  0.55248575  1
  S2-  S248  1  0.88036206  0.02375423  0.03201934  1
  S2-  S249  1  0.87734067  -0.02104339  0.54540110  1
  S2-  S250  1  0.88093476  0.27295437  0.04162043  1
  S2-  S251  1  0.87654531  0.22920642  0.53620703  1
  S2-  S252  1  0.87684458  0.52626345  0.04732107  1
  S2-  S253  1  0.87315586  0.48285459  0.54578852  1
  S2-  S254  1  0.87260623  0.77488350  0.04367615  1
  S2-  S255  1  0.87144379  0.73054952  0.53982432  1
