# generated using pymatgen
data_La6Ce7Pr13Nd19Sm19(BiS2)64
_symmetry_space_group_name_H-M   'P 1'
_cell_length_a   16.05090325
_cell_length_b   15.97469051
_cell_length_c   27.57779617
_cell_angle_alpha   89.76231542
_cell_angle_beta   89.97307658
_cell_angle_gamma   90.05713316
_symmetry_Int_Tables_number   1
_chemical_formula_structural   La6Ce7Pr13Nd19Sm19(BiS2)64
_chemical_formula_sum   'La6 Ce7 Pr13 Nd19 Sm19 Bi64 S128'
_cell_volume   7071.10824962
_cell_formula_units_Z   1
loop_
 _symmetry_equiv_pos_site_id
 _symmetry_equiv_pos_as_xyz
  1  'x, y, z'
loop_
 _atom_type_symbol
 _atom_type_oxidation_number
  La3+  3.0
  Ce3+  3.0
  Pr3+  3.0
  Nd3+  3.0
  Sm3+  3.0
  Bi2+  2.0
  S2-  -2.0
loop_
 _atom_site_type_symbol
 _atom_site_label
 _atom_site_symmetry_multiplicity
 _atom_site_fract_x
 _atom_site_fract_y
 _atom_site_fract_z
 _atom_site_occupancy
  La3+  La0  1  -0.00721788  0.83289547  0.09560998  1
  La3+  La1  1  0.51407196  0.13605181  0.61620623  1
  La3+  La2  1  0.85887170  0.51100440  0.41943489  1
  La3+  La3  1  0.49001531  0.58761366  0.07338547  1
  La3+  La4  1  0.38159547  0.74588793  0.38801009  1
  La3+  La5  1  0.10995802  -0.04102261  0.90955571  1
  Ce3+  Ce6  1  0.48681303  0.63344045  0.56634872  1
  Ce3+  Ce7  1  0.24323197  0.63204128  0.55200212  1
  Ce3+  Ce8  1  0.24433814  0.87970733  0.55580084  1
  Ce3+  Ce9  1  0.48966610  0.37193776  0.55333417  1
  Ce3+  Ce10  1  0.62286637  0.25570537  0.43502889  1
  Ce3+  Ce11  1  0.86926348  0.00459421  0.44458314  1
  Ce3+  Ce12  1  0.36710360  0.46483922  0.94000444  1
  Pr3+  Pr13  1  0.36523504  0.25346528  0.42902765  1
  Pr3+  Pr14  1  0.61819061  0.21090904  0.94214261  1
  Pr3+  Pr15  1  0.74280347  0.63035596  0.55746825  1
  Pr3+  Pr16  1  0.36635300  0.00767373  0.43738762  1
  Pr3+  Pr17  1  -0.00482807  0.13001461  0.57347782  1
  Pr3+  Pr18  1  0.36754972  0.20857280  0.94159967  1
  Pr3+  Pr19  1  0.75193080  0.09079152  0.08124474  1
  Pr3+  Pr20  1  0.12004536  0.75823847  0.42724267  1
  Pr3+  Pr21  1  0.86893548  0.45328646  0.92682068  1
  Pr3+  Pr22  1  0.37332673  0.71781586  0.93527766  1
  Pr3+  Pr23  1  0.24303619  0.59090560  0.05884068  1
  Pr3+  Pr24  1  -0.00738624  0.87808701  0.56001237  1
  Pr3+  Pr25  1  -0.01141615  0.38023866  0.55585981  1
  Nd3+  Nd26  1  0.48675651  0.88075646  0.56942311  1
  Nd3+  Nd27  1  0.61067210  0.46068150  0.92620351  1
  Nd3+  Nd28  1  0.86996584  0.25838507  0.40661499  1
  Nd3+  Nd29  1  0.11307297  0.50768994  0.44050268  1
  Nd3+  Nd30  1  0.86879912  0.77017771  0.40056631  1
  Nd3+  Nd31  1  0.24144343  0.37837694  0.55775043  1
  Nd3+  Nd32  1  0.11722904  0.21345608  0.94369632  1
  Nd3+  Nd33  1  0.24580388  0.13100501  0.56436133  1
  Nd3+  Nd34  1  0.61604050  0.00587772  0.44668216  1
  Nd3+  Nd35  1  -0.00786921  0.34253637  0.06977953  1
  Nd3+  Nd36  1  0.62264883  0.70791205  0.93277923  1
  Nd3+  Nd37  1  0.36844647  0.50593467  0.43922628  1
  Nd3+  Nd38  1  0.23844277  0.08422467  0.06045411  1
  Nd3+  Nd39  1  0.74087582  0.37748370  0.55909753  1
  Nd3+  Nd40  1  0.74013565  0.33983638  0.06410585  1
  Nd3+  Nd41  1  0.87088077  0.71337194  0.94362555  1
  Nd3+  Nd42  1  0.74549004  0.82673292  0.06966198  1
  Nd3+  Nd43  1  0.48641148  0.08730268  0.07978662  1
  Nd3+  Nd44  1  0.24098045  0.83903942  0.05549689  1
  Sm3+  Sm45  1  0.11415433  0.00666110  0.44207918  1
  Sm3+  Sm46  1  0.74213888  0.13103131  0.55700397  1
  Sm3+  Sm47  1  -0.00858519  0.08420294  0.06132140  1
  Sm3+  Sm48  1  -0.01107397  0.63151812  0.55043668  1
  Sm3+  Sm49  1  0.11688712  0.46501897  0.94310382  1
  Sm3+  Sm50  1  0.61957935  -0.03368074  0.94933242  1
  Sm3+  Sm51  1  0.49950333  0.83645538  0.06306422  1
  Sm3+  Sm52  1  0.11043265  0.25483345  0.43743459  1
  Sm3+  Sm53  1  0.86878944  -0.03838128  0.94353366  1
  Sm3+  Sm54  1  0.61391920  0.75766247  0.44651781  1
  Sm3+  Sm55  1  0.24173217  0.33681263  0.05814483  1
  Sm3+  Sm56  1  0.49416497  0.33649655  0.06544876  1
  Sm3+  Sm57  1  0.74160899  0.88117387  0.55682149  1
  Sm3+  Sm58  1  0.74129719  0.58057191  0.05661093  1
  Sm3+  Sm59  1  0.36889019  -0.03449625  0.94315066  1
  Sm3+  Sm60  1  0.11624161  0.71786810  0.94082301  1
  Sm3+  Sm61  1  0.61982848  0.50842214  0.44693931  1
  Sm3+  Sm62  1  0.86938028  0.21115271  0.94780612  1
  Sm3+  Sm63  1  -0.01024327  0.58378532  0.06406225  1
  Bi2+  Bi64  1  -0.03621261  0.13650287  0.23725308  1
  Bi2+  Bi65  1  -0.06194897  0.14880900  0.80792010  1
  Bi2+  Bi66  1  0.02286480  0.34649985  0.28755577  1
  Bi2+  Bi67  1  0.04364350  0.40183236  0.79256331  1
  Bi2+  Bi68  1  -0.00463807  0.63400148  0.27904474  1
  Bi2+  Bi69  1  0.04679941  0.65964304  0.74658263  1
  Bi2+  Bi70  1  0.00695640  0.91196164  0.29101128  1
  Bi2+  Bi71  1  -0.01527717  0.84548761  0.79680547  1
  Bi2+  Bi72  1  0.22594900  0.16081922  0.29044252  1
  Bi2+  Bi73  1  0.21414441  0.18438402  0.78646132  1
  Bi2+  Bi74  1  0.24942007  0.34721025  0.32778522  1
  Bi2+  Bi75  1  0.30859497  0.45931899  0.78483828  1
  Bi2+  Bi76  1  0.22910036  0.53409424  0.28552861  1
  Bi2+  Bi77  1  0.22919218  0.64376409  0.79169531  1
  Bi2+  Bi78  1  0.25711723  0.88542364  0.29111984  1
  Bi2+  Bi79  1  0.29385093  0.90702834  0.79704104  1
  Bi2+  Bi80  1  0.48921762  0.17213966  0.29808772  1
  Bi2+  Bi81  1  0.48558406  0.15524865  0.81870880  1
  Bi2+  Bi82  1  0.45277653  0.36467744  0.31295711  1
  Bi2+  Bi83  1  0.56696042  0.38818581  0.77616613  1
  Bi2+  Bi84  1  0.51352610  0.62888567  0.28297447  1
  Bi2+  Bi85  1  0.49645763  0.64387513  0.81205196  1
  Bi2+  Bi86  1  0.53068255  0.89762754  0.29150162  1
  Bi2+  Bi87  1  0.56792516  0.90626431  0.77755762  1
  Bi2+  Bi88  1  0.70436478  0.11376994  0.28492052  1
  Bi2+  Bi89  1  0.74413902  0.11132681  0.80129729  1
  Bi2+  Bi90  1  0.74428399  0.38294627  0.28498769  1
  Bi2+  Bi91  1  0.83335314  0.40698651  0.78942035  1
  Bi2+  Bi92  1  0.71144496  0.62618187  0.28407320  1
  Bi2+  Bi93  1  0.79282344  0.59937343  0.80238921  1
  Bi2+  Bi94  1  0.74754639  0.82713440  0.29020775  1
  Bi2+  Bi95  1  0.76184978  0.90612456  0.80556573  1
  Bi2+  Bi96  1  0.15776518  0.08045407  0.19797171  1
  Bi2+  Bi97  1  0.11435401  0.01499616  0.71776425  1
  Bi2+  Bi98  1  0.08921905  0.26535035  0.18374028  1
  Bi2+  Bi99  1  0.10799886  0.27733998  0.70807693  1
  Bi2+  Bi100  1  0.10906674  0.46331882  0.20622887  1
  Bi2+  Bi101  1  0.16985232  0.51928162  0.70894287  1
  Bi2+  Bi102  1  0.12356259  0.73635016  0.21444863  1
  Bi2+  Bi103  1  0.16168451  0.81698577  0.71220942  1
  Bi2+  Bi104  1  0.42937023  0.03302162  0.22294683  1
  Bi2+  Bi105  1  0.37681148  0.00382014  0.71323633  1
  Bi2+  Bi106  1  0.33954078  0.29008128  0.22929252  1
  Bi2+  Bi107  1  0.37298360  0.26998729  0.70540920  1
  Bi2+  Bi108  1  0.38097772  0.50611269  0.21408657  1
  Bi2+  Bi109  1  0.45458369  0.51721543  0.71500603  1
  Bi2+  Bi110  1  0.38147660  0.77266895  0.18146079  1
  Bi2+  Bi111  1  0.35572990  0.73439724  0.70260402  1
  Bi2+  Bi112  1  0.62424894  0.02584281  0.18779586  1
  Bi2+  Bi113  1  0.69945756  0.00139714  0.70723573  1
  Bi2+  Bi114  1  0.60858488  0.23847709  0.21055637  1
  Bi2+  Bi115  1  0.74151943  0.26416675  0.72541198  1
  Bi2+  Bi116  1  0.57640827  0.45119542  0.23240893  1
  Bi2+  Bi117  1  0.65012130  0.52437478  0.71050507  1
  Bi2+  Bi118  1  0.62456004  0.82304576  0.20174192  1
  Bi2+  Bi119  1  0.59495452  0.73730051  0.72728531  1
  Bi2+  Bi120  1  0.81603472  -0.00140256  0.21891259  1
  Bi2+  Bi121  1  0.91811634  -0.00101827  0.71385625  1
  Bi2+  Bi122  1  0.87087661  0.30141230  0.20825006  1
  Bi2+  Bi123  1  0.92257496  0.19366378  0.69672369  1
  Bi2+  Bi124  1  0.82662648  0.54265084  0.19286474  1
  Bi2+  Bi125  1  0.89250739  0.50823909  0.68296999  1
  Bi2+  Bi126  1  0.86433798  0.73944269  0.21288591  1
  Bi2+  Bi127  1  0.79184846  0.75513415  0.72936187  1
  S2-  S128  1  -0.09970029  0.08307470  0.14423993  1
  S2-  S129  1  0.12490122  0.12673067  0.64386328  1
  S2-  S130  1  -0.02607871  0.46562880  0.14093146  1
  S2-  S131  1  -0.00072644  0.39498301  0.65550839  1
  S2-  S132  1  0.01751996  0.67797228  0.14755645  1
  S2-  S133  1  -0.00705460  0.62963768  0.64841356  1
  S2-  S134  1  0.04434933  0.88112164  0.19493153  1
  S2-  S135  1  0.02167770  0.89104919  0.65839017  1
  S2-  S136  1  0.30842153  0.08868595  0.15102507  1
  S2-  S137  1  0.34219476  0.13429147  0.64814767  1
  S2-  S138  1  0.23983297  0.36807009  0.15404521  1
  S2-  S139  1  0.24473629  0.34982659  0.65534351  1
  S2-  S140  1  0.33157081  0.61529219  0.14377237  1
  S2-  S141  1  0.27114653  0.61746560  0.64830807  1
  S2-  S142  1  0.23501666  0.83416015  0.15486179  1
  S2-  S143  1  0.29106346  0.88302947  0.65105182  1
  S2-  S144  1  0.49027763  0.22447990  0.14349463  1
  S2-  S145  1  0.49546527  0.14726036  0.72651202  1
  S2-  S146  1  0.49519162  0.45309592  0.14102057  1
  S2-  S147  1  0.49545269  0.31190204  0.64406942  1
  S2-  S148  1  0.53041202  0.72005787  0.13983815  1
  S2-  S149  1  0.49242009  0.74357360  0.64349275  1
  S2-  S150  1  0.47394855  0.94307642  0.14195754  1
  S2-  S151  1  0.50367108  0.97035904  0.65500222  1
  S2-  S152  1  0.74978315  0.23561571  0.14729891  1
  S2-  S153  1  0.68364456  0.15357815  0.64755221  1
  S2-  S154  1  0.72803655  0.46570677  0.13444269  1
  S2-  S155  1  0.74920185  0.39950362  0.65705738  1
  S2-  S156  1  0.75415243  0.67884676  0.13984976  1
  S2-  S157  1  0.76148039  0.62640327  0.65660934  1
  S2-  S158  1  0.84409713  0.86910036  0.14933684  1
  S2-  S159  1  0.74887561  0.86694452  0.65329913  1
  S2-  S160  1  0.13239576  -0.02037523  0.34468771  1
  S2-  S161  1  0.18022261  0.02737801  0.82347636  1
  S2-  S162  1  0.01811444  0.22094401  0.35624922  1
  S2-  S163  1  0.08580335  0.23103285  0.84709280  1
  S2-  S164  1  0.09037077  0.53468010  0.34441817  1
  S2-  S165  1  0.16874481  0.45201074  0.85051132  1
  S2-  S166  1  0.22186271  0.75621831  0.34409702  1
  S2-  S167  1  0.10813683  0.80512692  0.85449936  1
  S2-  S168  1  0.38156958  -0.08502976  0.35131458  1
  S2-  S169  1  0.40017424  0.00503863  0.84920065  1
  S2-  S170  1  0.34923461  0.12724950  0.35637107  1
  S2-  S171  1  0.35154207  0.24691114  0.84377567  1
  S2-  S172  1  0.39517254  0.57775673  0.35033666  1
  S2-  S173  1  0.44421288  0.48281966  0.85463942  1
  S2-  S174  1  0.37820243  0.75620088  0.27392751  1
  S2-  S175  1  0.34766302  0.74553350  0.83739176  1
  S2-  S176  1  0.62437699  0.00016302  0.34714374  1
  S2-  S177  1  0.61875597  0.07842359  0.87233452  1
  S2-  S178  1  0.71965725  0.25085565  0.35223256  1
  S2-  S179  1  0.61770963  0.32559045  0.85868372  1
  S2-  S180  1  0.67561587  0.50071788  0.35526569  1
  S2-  S181  1  0.64402947  0.58795218  0.85518989  1
  S2-  S182  1  0.55384208  0.75004538  0.35550387  1
  S2-  S183  1  0.56178784  0.79468880  0.85219217  1
  S2-  S184  1  0.86952986  -0.06659701  0.35530424  1
  S2-  S185  1  0.95703791  -0.01412719  0.85662847  1
  S2-  S186  1  0.88286776  0.39753427  0.34338989  1
  S2-  S187  1  0.86809703  0.29275308  0.86146485  1
  S2-  S188  1  0.85954500  0.62755530  0.34191158  1
  S2-  S189  1  0.94779108  0.52044539  0.84390744  1
  S2-  S190  1  1.01432013  0.77084667  0.34296103  1
  S2-  S191  1  0.85020776  0.75229346  0.84704182  1
  S2-  S192  1  -0.01095208  0.13051029  0.46341215  1
  S2-  S193  1  -0.00527979  0.08766574  0.95920370  1
  S2-  S194  1  -0.01161714  0.37985494  0.45099303  1
  S2-  S195  1  -0.00245018  0.33949523  0.96091785  1
  S2-  S196  1  -0.01266116  0.63566981  0.44840488  1
  S2-  S197  1  -0.00254636  0.59031021  0.95710474  1
  S2-  S198  1  -0.00870116  0.87891106  0.45516689  1
  S2-  S199  1  -0.00737354  0.83950714  0.95644885  1
  S2-  S200  1  0.23200381  0.13346292  0.45583132  1
  S2-  S201  1  0.23682549  0.08262259  0.95342682  1
  S2-  S202  1  0.23819589  0.38116573  0.45234136  1
  S2-  S203  1  0.24106610  0.33855505  0.95451521  1
  S2-  S204  1  0.24348923  0.62907427  0.44800627  1
  S2-  S205  1  0.24118136  0.59334235  0.95144001  1
  S2-  S206  1  0.23765340  0.88492481  0.45298180  1
  S2-  S207  1  0.24221748  0.84305591  0.95075293  1
  S2-  S208  1  0.49796788  0.13391046  0.44534856  1
  S2-  S209  1  0.49040508  0.08523238  0.96981394  1
  S2-  S210  1  0.49600361  0.38191292  0.44795915  1
  S2-  S211  1  0.48736921  0.33589789  0.95998700  1
  S2-  S212  1  0.49442291  0.62911450  0.45987658  1
  S2-  S213  1  0.49151333  0.59097869  0.95879855  1
  S2-  S214  1  0.49399135  0.88094618  0.46011388  1
  S2-  S215  1  0.49410785  0.84591692  0.95982639  1
  S2-  S216  1  0.74921032  0.13094226  0.45321601  1
  S2-  S217  1  0.75151829  0.08714483  0.96677468  1
  S2-  S218  1  0.74598750  0.37963139  0.45512108  1
  S2-  S219  1  0.74416146  0.33544142  0.95935615  1
  S2-  S220  1  0.74070219  0.63917771  0.45226043  1
  S2-  S221  1  0.75077945  0.58303651  0.95341900  1
  S2-  S222  1  0.74348216  0.87703238  0.45329005  1
  S2-  S223  1  0.74285363  0.84011002  0.95658691  1
  S2-  S224  1  0.11153590  -0.04033452  0.05938747  1
  S2-  S225  1  0.11743472  0.00397132  0.54548889  1
  S2-  S226  1  0.11499102  0.21263477  0.04935942  1
  S2-  S227  1  0.11502512  0.25648921  0.54219604  1
  S2-  S228  1  0.12038569  0.46366174  0.04635746  1
  S2-  S229  1  0.11551123  0.50642218  0.54594738  1
  S2-  S230  1  0.11585665  0.71446017  0.04331624  1
  S2-  S231  1  0.11623066  0.75333779  0.54316160  1
  S2-  S232  1  0.36458519  -0.03754122  0.04439486  1
  S2-  S233  1  0.36674770  0.00565380  0.54340150  1
  S2-  S234  1  0.36114320  0.21340496  0.04654795  1
  S2-  S235  1  0.36272310  0.25644752  0.53568167  1
  S2-  S236  1  0.36253014  0.46010298  0.04408422  1
  S2-  S237  1  0.36768665  0.50255717  0.54562112  1
  S2-  S238  1  0.36892533  0.71962298  0.04038251  1
  S2-  S239  1  0.36559408  0.75459151  0.54468283  1
  S2-  S240  1  0.62744713  -0.03817427  0.05153904  1
  S2-  S241  1  0.61858134  0.00679553  0.55020561  1
  S2-  S242  1  0.61910163  0.20830553  0.04761646  1
  S2-  S243  1  0.61779797  0.25209790  0.54066094  1
  S2-  S244  1  0.61273795  0.46164479  0.03384396  1
  S2-  S245  1  0.61397864  0.50388680  0.55112184  1
  S2-  S246  1  0.62209186  0.71074953  0.03634409  1
  S2-  S247  1  0.61875900  0.75749260  0.54883637  1
  S2-  S248  1  0.87088886  -0.04182062  0.04475067  1
  S2-  S249  1  0.86688998  0.00638310  0.55251326  1
  S2-  S250  1  0.87434643  0.21690258  0.04792414  1
  S2-  S251  1  0.86595270  0.25278032  0.55718333  1
  S2-  S252  1  0.87017716  0.46150211  0.03556423  1
  S2-  S253  1  0.86550420  0.50589609  0.53894069  1
  S2-  S254  1  0.87390800  0.71027654  0.04571022  1
  S2-  S255  1  0.86635454  0.75631016  0.55230563  1
