# generated using pymatgen
data_La6Ce7Pr13Nd19Sm19(BiS2)64
_symmetry_space_group_name_H-M   'P 1'
_cell_length_a   16.12967159
_cell_length_b   16.14299476
_cell_length_c   27.33246094
_cell_angle_alpha   89.87697701
_cell_angle_beta   90.00626471
_cell_angle_gamma   90.07994833
_symmetry_Int_Tables_number   1
_chemical_formula_structural   La6Ce7Pr13Nd19Sm19(BiS2)64
_chemical_formula_sum   'La6 Ce7 Pr13 Nd19 Sm19 Bi64 S128'
_cell_volume   7116.83571664
_cell_formula_units_Z   1
loop_
 _symmetry_equiv_pos_site_id
 _symmetry_equiv_pos_as_xyz
  1  'x, y, z'
loop_
 _atom_type_symbol
 _atom_type_oxidation_number
  La3+  3.0
  Ce3+  3.0
  Pr3+  3.0
  Nd3+  3.0
  Sm3+  3.0
  Bi2+  2.0
  S2-  -2.0
loop_
 _atom_site_type_symbol
 _atom_site_label
 _atom_site_symmetry_multiplicity
 _atom_site_fract_x
 _atom_site_fract_y
 _atom_site_fract_z
 _atom_site_occupancy
  La3+  La0  1  0.13963342  0.50519575  0.43127527  1
  La3+  La1  1  0.13413955  0.25404423  0.40723913  1
  La3+  La2  1  0.12349328  -0.01162964  0.41207577  1
  La3+  La3  1  -0.00600042  0.89444744  0.59241976  1
  La3+  La4  1  0.12494492  0.76094412  0.89076147  1
  La3+  La5  1  0.27048089  0.61411659  0.60248184  1
  Ce3+  Ce6  1  0.24053678  0.87568695  0.06463080  1
  Ce3+  Ce7  1  0.38452951  0.25039856  0.43007686  1
  Ce3+  Ce8  1  0.37630880  0.75240729  0.44470260  1
  Ce3+  Ce9  1  -0.00535498  0.12824462  0.05817335  1
  Ce3+  Ce10  1  -0.00481222  0.87468732  0.05867771  1
  Ce3+  Ce11  1  0.49026514  0.37877418  0.05967632  1
  Ce3+  Ce12  1  0.86901142  0.25627453  0.94705117  1
  Pr3+  Pr13  1  0.74297876  0.87125337  0.06474933  1
  Pr3+  Pr14  1  0.49337263  0.86760899  0.07609075  1
  Pr3+  Pr15  1  0.61856536  0.25421670  0.93896677  1
  Pr3+  Pr16  1  0.25404686  0.87536360  0.56928457  1
  Pr3+  Pr17  1  0.88210126  0.50423962  0.43686724  1
  Pr3+  Pr18  1  0.63021585  0.25106562  0.42638027  1
  Pr3+  Pr19  1  0.25357995  0.12703722  0.55428327  1
  Pr3+  Pr20  1  0.61824116  0.75717803  0.92864078  1
  Pr3+  Pr21  1  0.36578033  0.50701451  0.93646726  1
  Pr3+  Pr22  1  -0.00883642  0.38938666  0.09994148  1
  Pr3+  Pr23  1  0.74248450  0.12803232  0.06198743  1
  Pr3+  Pr24  1  0.11621556  0.25456171  0.93904661  1
  Pr3+  Pr25  1  0.23645455  0.12914104  0.06879937  1
  Nd3+  Nd26  1  0.36646455  0.00254610  0.95256412  1
  Nd3+  Nd27  1  0.86786382  0.75559610  0.93115610  1
  Nd3+  Nd28  1  0.61673416  0.50359686  0.94606634  1
  Nd3+  Nd29  1  0.63149169  0.75125585  0.43903169  1
  Nd3+  Nd30  1  0.36584704  0.75614571  0.94090694  1
  Nd3+  Nd31  1  0.75839449  0.62634434  0.56116144  1
  Nd3+  Nd32  1  0.50609503  0.37398945  0.55589046  1
  Nd3+  Nd33  1  0.49324899  0.13706151  0.07771972  1
  Nd3+  Nd34  1  0.74496675  0.37829051  0.06283039  1
  Nd3+  Nd35  1  0.25682860  0.36654097  0.56238734  1
  Nd3+  Nd36  1  0.01051965  0.37782729  0.55643545  1
  Nd3+  Nd37  1  0.86915457  0.00144810  0.94174970  1
  Nd3+  Nd38  1  0.75481746  0.87850487  0.55756682  1
  Nd3+  Nd39  1  0.61429020  0.00395212  0.95278715  1
  Nd3+  Nd40  1  0.49040038  0.62533414  0.05861712  1
  Nd3+  Nd41  1  0.75609359  0.37412065  0.55345797  1
  Nd3+  Nd42  1  0.50561504  0.87697174  0.55215349  1
  Nd3+  Nd43  1  0.50536721  0.62627840  0.55921149  1
  Nd3+  Nd44  1  0.36622322  0.25160563  0.94361616  1
  Sm3+  Sm45  1  0.88151060  0.00112104  0.43715659  1
  Sm3+  Sm46  1  0.87046098  0.50558926  0.93870430  1
  Sm3+  Sm47  1  0.75470181  0.12668704  0.54924592  1
  Sm3+  Sm48  1  0.23803106  0.62703527  0.05096568  1
  Sm3+  Sm49  1  0.00725844  0.12719722  0.54959599  1
  Sm3+  Sm50  1  0.11574138  0.50540910  0.93649038  1
  Sm3+  Sm51  1  0.23863355  0.37975204  0.05401567  1
  Sm3+  Sm52  1  0.88512848  0.75552965  0.44986434  1
  Sm3+  Sm53  1  0.74528482  0.62731695  0.05155680  1
  Sm3+  Sm54  1  0.11963009  0.00000410  0.94059953  1
  Sm3+  Sm55  1  0.37828616  0.50278291  0.44265087  1
  Sm3+  Sm56  1  0.88441894  0.25249732  0.44227513  1
  Sm3+  Sm57  1  0.37751077  0.00143949  0.43896384  1
  Sm3+  Sm58  1  -0.00607093  0.62695061  0.05399185  1
  Sm3+  Sm59  1  0.01041262  0.62361649  0.56116920  1
  Sm3+  Sm60  1  0.13005135  0.75563621  0.45619832  1
  Sm3+  Sm61  1  0.63060032  0.00013954  0.42862763  1
  Sm3+  Sm62  1  0.50792785  0.12409846  0.55004633  1
  Sm3+  Sm63  1  0.63287752  0.50388137  0.44622285  1
  Bi2+  Bi64  1  -0.02868917  0.12811663  0.27684446  1
  Bi2+  Bi65  1  0.02997920  0.11794037  0.77174199  1
  Bi2+  Bi66  1  -0.00948273  0.38272490  0.28851619  1
  Bi2+  Bi67  1  -0.00250657  0.31180609  0.79870901  1
  Bi2+  Bi68  1  0.01554361  0.61377166  0.28927977  1
  Bi2+  Bi69  1  -0.01486477  0.62587142  0.78820537  1
  Bi2+  Bi70  1  -0.00100419  0.85197843  0.29695983  1
  Bi2+  Bi71  1  -0.01561960  0.90206672  0.78835444  1
  Bi2+  Bi72  1  0.27878274  0.12657809  0.29569121  1
  Bi2+  Bi73  1  0.24529594  0.14713599  0.80676715  1
  Bi2+  Bi74  1  0.26113525  0.41118693  0.28885349  1
  Bi2+  Bi75  1  0.28536033  0.36332844  0.78453896  1
  Bi2+  Bi76  1  0.21009072  0.63685932  0.28729882  1
  Bi2+  Bi77  1  0.25441399  0.61627287  0.79943553  1
  Bi2+  Bi78  1  0.25894027  0.87097209  0.29957851  1
  Bi2+  Bi79  1  0.27266890  0.91333696  0.79266334  1
  Bi2+  Bi80  1  0.53621699  0.15130550  0.27895141  1
  Bi2+  Bi81  1  0.51331685  0.09583401  0.78902163  1
  Bi2+  Bi82  1  0.48512343  0.41022065  0.30275259  1
  Bi2+  Bi83  1  0.55647482  0.39898738  0.78009522  1
  Bi2+  Bi84  1  0.48230238  0.59997251  0.28304906  1
  Bi2+  Bi85  1  0.51891850  0.68375869  0.79871422  1
  Bi2+  Bi86  1  0.48648357  0.79862209  0.27461838  1
  Bi2+  Bi87  1  0.52339057  0.87856566  0.79390602  1
  Bi2+  Bi88  1  0.71679122  0.09755951  0.31730009  1
  Bi2+  Bi89  1  0.74067725  0.15884132  0.74694600  1
  Bi2+  Bi90  1  0.68312300  0.38002643  0.29697155  1
  Bi2+  Bi91  1  0.72656029  0.31477252  0.82066241  1
  Bi2+  Bi92  1  0.73666113  0.62352878  0.27783071  1
  Bi2+  Bi93  1  0.71274758  0.62792362  0.79123397  1
  Bi2+  Bi94  1  0.75549196  0.82187198  0.29437458  1
  Bi2+  Bi95  1  0.73106063  0.89255370  0.79195737  1
  Bi2+  Bi96  1  0.12582629  -0.00942465  0.19280705  1
  Bi2+  Bi97  1  0.19814972  0.03234260  0.70954179  1
  Bi2+  Bi98  1  0.14364995  0.24175284  0.20379141  1
  Bi2+  Bi99  1  0.14023340  0.22192303  0.70063977  1
  Bi2+  Bi100  1  0.14256335  0.50954594  0.20783680  1
  Bi2+  Bi101  1  0.11581540  0.47316220  0.70271610  1
  Bi2+  Bi102  1  0.09572619  0.75141913  0.21690991  1
  Bi2+  Bi103  1  0.10239616  0.72996443  0.68715113  1
  Bi2+  Bi104  1  0.37401742  -0.00522034  0.20731975  1
  Bi2+  Bi105  1  0.38893948  -0.02672144  0.70486076  1
  Bi2+  Bi106  1  0.38973863  0.31279639  0.22233462  1
  Bi2+  Bi107  1  0.37402024  0.17039609  0.71660289  1
  Bi2+  Bi108  1  0.42197987  0.49470203  0.18296588  1
  Bi2+  Bi109  1  0.40678262  0.46780438  0.71276221  1
  Bi2+  Bi110  1  0.36531812  0.68584529  0.20512514  1
  Bi2+  Bi111  1  0.40311445  0.74853392  0.71185270  1
  Bi2+  Bi112  1  0.63398764  0.00710971  0.20533968  1
  Bi2+  Bi113  1  0.60831603  0.01499620  0.70028604  1
  Bi2+  Bi114  1  0.65776775  0.30674410  0.18986785  1
  Bi2+  Bi115  1  0.62944510  0.29876369  0.69118349  1
  Bi2+  Bi116  1  0.61289049  0.50326693  0.20678895  1
  Bi2+  Bi117  1  0.67134554  0.49308171  0.70303327  1
  Bi2+  Bi118  1  0.64678655  0.74391945  0.19960094  1
  Bi2+  Bi119  1  0.61576893  0.75125231  0.70472070  1
  Bi2+  Bi120  1  0.85318382  -0.01838691  0.26302832  1
  Bi2+  Bi121  1  0.87139119  0.02089794  0.70322712  1
  Bi2+  Bi122  1  0.80786083  0.24346647  0.25990771  1
  Bi2+  Bi123  1  0.89461442  0.26107794  0.70510001  1
  Bi2+  Bi124  1  0.86473932  0.52559004  0.20641907  1
  Bi2+  Bi125  1  0.84870860  0.43043919  0.76317259  1
  Bi2+  Bi126  1  0.89757737  0.72095011  0.21525533  1
  Bi2+  Bi127  1  0.81096418  0.75725431  0.72063566  1
  S2-  S128  1  0.04042288  0.11226132  0.15232536  1
  S2-  S129  1  -0.01695546  0.06583060  0.64047876  1
  S2-  S130  1  0.00389060  0.31184632  0.19098183  1
  S2-  S131  1  0.02923396  0.34060446  0.65276247  1
  S2-  S132  1  0.00376889  0.54828995  0.14249510  1
  S2-  S133  1  0.01059255  0.58247128  0.65741921  1
  S2-  S134  1  0.01218199  0.89103697  0.15627602  1
  S2-  S135  1  0.05539375  0.88148875  0.68944777  1
  S2-  S136  1  0.26078160  0.11792983  0.16899149  1
  S2-  S137  1  0.26835872  0.23124712  0.63550424  1
  S2-  S138  1  0.19195922  0.37317205  0.14744869  1
  S2-  S139  1  0.26096899  0.44900849  0.64926147  1
  S2-  S140  1  0.24280043  0.61310496  0.14858202  1
  S2-  S141  1  0.21780791  0.60210135  0.70475112  1
  S2-  S142  1  0.25751233  0.88312591  0.16252476  1
  S2-  S143  1  0.26310489  0.77810364  0.65291233  1
  S2-  S144  1  0.49056924  0.09876835  0.17732722  1
  S2-  S145  1  0.50041977  0.11431983  0.64759771  1
  S2-  S146  1  0.49867615  0.28711600  0.14181010  1
  S2-  S147  1  0.47407954  0.35819314  0.65300239  1
  S2-  S148  1  0.50780212  0.71960392  0.13932825  1
  S2-  S149  1  0.43331824  0.61109567  0.64962390  1
  S2-  S150  1  0.49888544  0.90624054  0.17685926  1
  S2-  S151  1  0.51099174  0.85288424  0.64980938  1
  S2-  S152  1  0.71234935  0.14454780  0.15958319  1
  S2-  S153  1  0.73696791  0.09126801  0.64405080  1
  S2-  S154  1  0.82896845  0.40059907  0.14800771  1
  S2-  S155  1  0.78028008  0.37172517  0.65069286  1
  S2-  S156  1  0.76953781  0.66366596  0.14554836  1
  S2-  S157  1  0.77197401  0.61887844  0.65901618  1
  S2-  S158  1  0.72794789  0.89294056  0.16353055  1
  S2-  S159  1  0.83655813  0.88085854  0.64521607  1
  S2-  S160  1  0.17025878  0.00702810  0.31114521  1
  S2-  S161  1  0.11960442  -0.07314104  0.85141379  1
  S2-  S162  1  0.11272398  0.19443912  0.30620025  1
  S2-  S163  1  0.15090050  0.30391411  0.84437389  1
  S2-  S164  1  0.11343188  0.40030832  0.34929364  1
  S2-  S165  1  0.11190987  0.54737675  0.84143034  1
  S2-  S166  1  0.13185638  0.82284551  0.36559482  1
  S2-  S167  1  0.12435748  0.73103749  0.78441338  1
  S2-  S168  1  0.36126982  -0.00635299  0.34094134  1
  S2-  S169  1  0.34884536  0.01825111  0.85415720  1
  S2-  S170  1  0.28786603  0.26748916  0.35096956  1
  S2-  S171  1  0.36661936  0.25739421  0.84446740  1
  S2-  S172  1  0.28059312  0.52850638  0.36215493  1
  S2-  S173  1  0.35937863  0.49205712  0.83714297  1
  S2-  S174  1  0.36573986  0.76033457  0.34765053  1
  S2-  S175  1  0.29605026  0.76406036  0.85057969  1
  S2-  S176  1  0.57486303  0.00558557  0.33501475  1
  S2-  S177  1  0.61981132  -0.01270068  0.85474001  1
  S2-  S178  1  0.50623345  0.25098141  0.35482850  1
  S2-  S179  1  0.58162461  0.21441388  0.84405871  1
  S2-  S180  1  0.66924862  0.52876621  0.35278668  1
  S2-  S181  1  0.60864308  0.52015870  0.84829881  1
  S2-  S182  1  0.60616780  0.77475844  0.34244584  1
  S2-  S183  1  0.74249448  0.76304576  0.85814651  1
  S2-  S184  1  0.97055428  -0.00048806  0.35397332  1
  S2-  S185  1  0.86733363  -0.03139567  0.84334918  1
  S2-  S186  1  0.91401608  0.25440487  0.34644434  1
  S2-  S187  1  0.87062825  0.22282837  0.85257554  1
  S2-  S188  1  0.90800156  0.49855874  0.33778655  1
  S2-  S189  1  0.86633376  0.54309205  0.84255657  1
  S2-  S190  1  0.88808426  0.75369131  0.35236280  1
  S2-  S191  1  0.96207985  0.75738571  0.84659385  1
  S2-  S192  1  0.00742694  0.12835321  0.44712112  1
  S2-  S193  1  -0.00458084  0.12478652  0.95065914  1
  S2-  S194  1  0.00498361  0.37716009  0.45183505  1
  S2-  S195  1  -0.00742097  0.38302072  0.94263193  1
  S2-  S196  1  0.00821447  0.62991538  0.45454874  1
  S2-  S197  1  -0.00572255  0.62851979  0.95073146  1
  S2-  S198  1  0.00211008  0.87896012  0.46317051  1
  S2-  S199  1  -0.00501659  0.87805884  0.95363869  1
  S2-  S200  1  0.24924157  0.11925741  0.44693894  1
  S2-  S201  1  0.23975395  0.12758141  0.95967871  1
  S2-  S202  1  0.25937587  0.37569273  0.45596942  1
  S2-  S203  1  0.24265506  0.38108476  0.95071208  1
  S2-  S204  1  0.25340766  0.63479208  0.46248980  1
  S2-  S205  1  0.23701595  0.63203481  0.94769411  1
  S2-  S206  1  0.25499661  0.88042441  0.46180658  1
  S2-  S207  1  0.24048256  0.87738772  0.95782259  1
  S2-  S208  1  0.50784007  0.11865058  0.44712173  1
  S2-  S209  1  0.49033309  0.12918103  0.96436065  1
  S2-  S210  1  0.50817574  0.38404364  0.45099325  1
  S2-  S211  1  0.49047150  0.37892021  0.95146337  1
  S2-  S212  1  0.50604759  0.62518322  0.45170740  1
  S2-  S213  1  0.49278321  0.63144419  0.95235843  1
  S2-  S214  1  0.50519820  0.87902862  0.44728365  1
  S2-  S215  1  0.49152330  0.87702624  0.95987703  1
  S2-  S216  1  0.75854936  0.12735911  0.44560633  1
  S2-  S217  1  0.74302549  0.12625406  0.95470011  1
  S2-  S218  1  0.75653586  0.37603088  0.44741720  1
  S2-  S219  1  0.74484279  0.38301666  0.95573986  1
  S2-  S220  1  0.75848884  0.63068400  0.45471021  1
  S2-  S221  1  0.74289848  0.62614715  0.94998628  1
  S2-  S222  1  0.75694685  0.87767472  0.45025810  1
  S2-  S223  1  0.74170831  0.88174242  0.95881246  1
  S2-  S224  1  0.11843520  0.00126244  0.04540924  1
  S2-  S225  1  0.12911717  0.00156502  0.55205943  1
  S2-  S226  1  0.11285298  0.25832452  0.04628652  1
  S2-  S227  1  0.12668968  0.24975791  0.53756184  1
  S2-  S228  1  0.11603224  0.50092827  0.04101757  1
  S2-  S229  1  0.13375354  0.50317087  0.54517751  1
  S2-  S230  1  0.11706346  0.74854540  0.05557538  1
  S2-  S231  1  0.11845238  0.75843433  0.55855267  1
  S2-  S232  1  0.37038309  0.00445109  0.05826055  1
  S2-  S233  1  0.38090733  0.00133059  0.54569141  1
  S2-  S234  1  0.36102988  0.25453681  0.04954253  1
  S2-  S235  1  0.38797745  0.24686470  0.53653894  1
  S2-  S236  1  0.36347951  0.50367375  0.04314747  1
  S2-  S237  1  0.38209945  0.49896815  0.54476698  1
  S2-  S238  1  0.36359270  0.74975398  0.04659817  1
  S2-  S239  1  0.38185713  0.75057462  0.54920766  1
  S2-  S240  1  0.61362667  0.00171916  0.05831761  1
  S2-  S241  1  0.63172405  0.00103906  0.53651228  1
  S2-  S242  1  0.62034906  0.25466098  0.04463918  1
  S2-  S243  1  0.63064750  0.24915258  0.53682022  1
  S2-  S244  1  0.61940368  0.50415058  0.05277634  1
  S2-  S245  1  0.63149840  0.50102278  0.55085645  1
  S2-  S246  1  0.62083198  0.74964848  0.03753236  1
  S2-  S247  1  0.63205740  0.75083532  0.54597343  1
  S2-  S248  1  0.86743341  0.00120619  0.05032413  1
  S2-  S249  1  0.87590407  0.00569117  0.53883672  1
  S2-  S250  1  0.87189960  0.25485705  0.05395875  1
  S2-  S251  1  0.88082858  0.24913055  0.54645058  1
  S2-  S252  1  0.86940209  0.50465612  0.04189113  1
  S2-  S253  1  0.88152587  0.50136558  0.54484455  1
  S2-  S254  1  0.87030916  0.74990453  0.04164451  1
  S2-  S255  1  0.88367859  0.74911557  0.55331933  1
