# generated using pymatgen
data_La6Ce7Pr13Nd19Sm19(BiS2)64
_symmetry_space_group_name_H-M   'P 1'
_cell_length_a   16.12218746
_cell_length_b   16.11772037
_cell_length_c   27.17791350
_cell_angle_alpha   90.00447818
_cell_angle_beta   89.79355545
_cell_angle_gamma   90.08861573
_symmetry_Int_Tables_number   1
_chemical_formula_structural   La6Ce7Pr13Nd19Sm19(BiS2)64
_chemical_formula_sum   'La6 Ce7 Pr13 Nd19 Sm19 Bi64 S128'
_cell_volume   7062.20558152
_cell_formula_units_Z   1
loop_
 _symmetry_equiv_pos_site_id
 _symmetry_equiv_pos_as_xyz
  1  'x, y, z'
loop_
 _atom_type_symbol
 _atom_type_oxidation_number
  La3+  3.0
  Ce3+  3.0
  Pr3+  3.0
  Nd3+  3.0
  Sm3+  3.0
  Bi2+  2.0
  S2-  -2.0
loop_
 _atom_site_type_symbol
 _atom_site_label
 _atom_site_symmetry_multiplicity
 _atom_site_fract_x
 _atom_site_fract_y
 _atom_site_fract_z
 _atom_site_occupancy
  La3+  La0  1  0.87249172  0.00051460  0.89483804  1
  La3+  La1  1  0.13130229  0.73963075  0.90339595  1
  La3+  La2  1  0.86593012  0.76228902  0.41878348  1
  La3+  La3  1  0.72611094  0.13340265  0.59778781  1
  La3+  La4  1  0.38699183  -0.01236877  0.39286170  1
  La3+  La5  1  0.23244159  0.37337109  0.57267028  1
  Ce3+  Ce6  1  0.37191800  0.74655028  0.94513185  1
  Ce3+  Ce7  1  0.36554890  0.49601225  0.44036325  1
  Ce3+  Ce8  1  0.61419082  0.25018356  0.44496997  1
  Ce3+  Ce9  1  0.49573794  0.62721669  0.55237770  1
  Ce3+  Ce10  1  0.36876849  0.75223157  0.44515941  1
  Ce3+  Ce11  1  0.24312689  0.87387065  0.06188239  1
  Ce3+  Ce12  1  0.62721459  -0.00161935  0.93722103  1
  Pr3+  Pr13  1  0.23874049  0.12439397  0.55875995  1
  Pr3+  Pr14  1  0.13793341  0.00509518  0.92066179  1
  Pr3+  Pr15  1  0.24141174  0.62805159  0.56338122  1
  Pr3+  Pr16  1  0.50341822  0.62332959  0.06193867  1
  Pr3+  Pr17  1  0.62088886  0.50179539  0.42797819  1
  Pr3+  Pr18  1  0.86314527  -0.00206314  0.45207000  1
  Pr3+  Pr19  1  0.87123345  0.74389362  0.92715531  1
  Pr3+  Pr20  1  0.11499183  0.00087587  0.43703278  1
  Pr3+  Pr21  1  0.73370491  0.86482034  0.58821716  1
  Pr3+  Pr22  1  0.11877343  0.75483105  0.44025260  1
  Pr3+  Pr23  1  0.24669073  0.62297888  0.06693760  1
  Pr3+  Pr24  1  0.61111063  0.75245864  0.42044613  1
  Pr3+  Pr25  1  0.50066698  0.87304000  0.05970274  1
  Nd3+  Nd26  1  0.86755082  0.50674255  0.42485234  1
  Nd3+  Nd27  1  -0.01686124  0.62735649  0.56151000  1
  Nd3+  Nd28  1  -0.01456220  0.86840085  0.57451627  1
  Nd3+  Nd29  1  0.23563180  0.12697119  0.08670767  1
  Nd3+  Nd30  1  0.35832796  0.25404581  0.42500729  1
  Nd3+  Nd31  1  0.24520139  0.37205854  0.06908822  1
  Nd3+  Nd32  1  0.50032291  0.37215282  0.05622740  1
  Nd3+  Nd33  1  -0.01278635  0.37707294  0.56438448  1
  Nd3+  Nd34  1  -0.00395995  0.37500460  0.05829754  1
  Nd3+  Nd35  1  0.00001414  0.87282943  0.04244982  1
  Nd3+  Nd36  1  0.11382928  0.25113386  0.43816572  1
  Nd3+  Nd37  1  0.48708829  0.12797217  0.55945777  1
  Nd3+  Nd38  1  0.62734476  0.74545639  0.94235092  1
  Nd3+  Nd39  1  -0.00258080  0.11888150  0.05554846  1
  Nd3+  Nd40  1  0.11570518  0.50202296  0.44450179  1
  Nd3+  Nd41  1  0.77109390  0.62051626  0.09307938  1
  Nd3+  Nd42  1  0.24199638  0.87940000  0.55587549  1
  Nd3+  Nd43  1  0.48518739  0.37841463  0.56433323  1
  Nd3+  Nd44  1  0.62631457  0.24715429  0.94161500  1
  Sm3+  Sm45  1  0.62699761  0.49762140  0.94759414  1
  Sm3+  Sm46  1  0.74916869  0.37355347  0.05998759  1
  Sm3+  Sm47  1  0.49563170  0.87767100  0.56081409  1
  Sm3+  Sm48  1  0.00083951  0.62681648  0.05152783  1
  Sm3+  Sm49  1  0.12651098  0.49528104  0.94198769  1
  Sm3+  Sm50  1  0.12530705  0.24527689  0.94148730  1
  Sm3+  Sm51  1  0.75318249  0.87568503  0.05418673  1
  Sm3+  Sm52  1  0.37134986  -0.00217028  0.95299757  1
  Sm3+  Sm53  1  0.74038951  0.62809392  0.55093223  1
  Sm3+  Sm54  1  0.37259951  0.49591207  0.94766591  1
  Sm3+  Sm55  1  0.86312273  0.25221254  0.45140562  1
  Sm3+  Sm56  1  0.74062703  0.37959572  0.56503798  1
  Sm3+  Sm57  1  0.87559523  0.24516725  0.94553813  1
  Sm3+  Sm58  1  0.61689290  0.00338121  0.44619269  1
  Sm3+  Sm59  1  0.49759881  0.12300915  0.06255972  1
  Sm3+  Sm60  1  0.37221419  0.24557314  0.94757730  1
  Sm3+  Sm61  1  0.87442303  0.50078816  0.93330085  1
  Sm3+  Sm62  1  -0.01209862  0.12247111  0.55947031  1
  Sm3+  Sm63  1  0.74976121  0.12127477  0.05893612  1
  Bi2+  Bi64  1  0.00456169  0.15186119  0.28828286  1
  Bi2+  Bi65  1  0.00986310  0.21159144  0.78384948  1
  Bi2+  Bi66  1  -0.00520935  0.35334734  0.30007834  1
  Bi2+  Bi67  1  -0.00077115  0.39528682  0.81807047  1
  Bi2+  Bi68  1  -0.00399949  0.56313524  0.27392948  1
  Bi2+  Bi69  1  -0.03882788  0.56749472  0.76632701  1
  Bi2+  Bi70  1  0.01181843  0.91058711  0.29474471  1
  Bi2+  Bi71  1  -0.00040780  0.86918225  0.76867179  1
  Bi2+  Bi72  1  0.24741387  0.12882574  0.28992944  1
  Bi2+  Bi73  1  0.26650142  0.13478303  0.79814634  1
  Bi2+  Bi74  1  0.21596476  0.39680441  0.29475631  1
  Bi2+  Bi75  1  0.24126811  0.36591947  0.79981751  1
  Bi2+  Bi76  1  0.29318973  0.59073101  0.29252682  1
  Bi2+  Bi77  1  0.25944142  0.60700257  0.79635172  1
  Bi2+  Bi78  1  0.22610687  0.81646591  0.27318785  1
  Bi2+  Bi79  1  0.26025042  0.88457789  0.79244027  1
  Bi2+  Bi80  1  0.52355449  0.12881591  0.28622969  1
  Bi2+  Bi81  1  0.50229023  0.16090840  0.76887800  1
  Bi2+  Bi82  1  0.48650385  0.37785914  0.28844264  1
  Bi2+  Bi83  1  0.51329849  0.47026203  0.78831994  1
  Bi2+  Bi84  1  0.49702387  0.57392967  0.26705157  1
  Bi2+  Bi85  1  0.50119860  0.66624539  0.80576787  1
  Bi2+  Bi86  1  0.53734959  0.84876737  0.28980255  1
  Bi2+  Bi87  1  0.48037890  0.86875936  0.78888121  1
  Bi2+  Bi88  1  0.77933774  0.13510200  0.29506585  1
  Bi2+  Bi89  1  0.74203829  0.14632654  0.79647272  1
  Bi2+  Bi90  1  0.72321443  0.33122140  0.29760384  1
  Bi2+  Bi91  1  0.80075393  0.40518665  0.79791968  1
  Bi2+  Bi92  1  0.74403248  0.61809697  0.29823590  1
  Bi2+  Bi93  1  0.71846169  0.61490836  0.80576467  1
  Bi2+  Bi94  1  0.72940039  0.89067941  0.27324410  1
  Bi2+  Bi95  1  0.75703446  0.87543711  0.77977243  1
  Bi2+  Bi96  1  0.13426984  -0.02682743  0.19291627  1
  Bi2+  Bi97  1  0.16339659  0.02035453  0.68651879  1
  Bi2+  Bi98  1  0.09714289  0.26039716  0.20505983  1
  Bi2+  Bi99  1  0.16124658  0.25924128  0.71335479  1
  Bi2+  Bi100  1  0.14931122  0.52263831  0.20099235  1
  Bi2+  Bi101  1  0.12372274  0.47144625  0.72954890  1
  Bi2+  Bi102  1  0.05994641  0.72948117  0.20013798  1
  Bi2+  Bi103  1  0.14108237  0.74093024  0.69782308  1
  Bi2+  Bi104  1  0.39382147  -0.01813854  0.20674431  1
  Bi2+  Bi105  1  0.38534983  0.01480028  0.72936500  1
  Bi2+  Bi106  1  0.39895322  0.26710534  0.20923041  1
  Bi2+  Bi107  1  0.39565796  0.29501201  0.71394014  1
  Bi2+  Bi108  1  0.33505312  0.46337284  0.20324683  1
  Bi2+  Bi109  1  0.38895114  0.54006800  0.71259703  1
  Bi2+  Bi110  1  0.39035084  0.73444450  0.23949269  1
  Bi2+  Bi111  1  0.38723137  0.73956698  0.71893314  1
  Bi2+  Bi112  1  0.65142095  0.04195152  0.21413068  1
  Bi2+  Bi113  1  0.58616931  0.00550295  0.71629162  1
  Bi2+  Bi114  1  0.68535645  0.23685332  0.19545055  1
  Bi2+  Bi115  1  0.64480178  0.33314759  0.73038054  1
  Bi2+  Bi116  1  0.63448135  0.43168241  0.21303686  1
  Bi2+  Bi117  1  0.70385281  0.51558106  0.70710010  1
  Bi2+  Bi118  1  0.61472314  0.75690320  0.19387257  1
  Bi2+  Bi119  1  0.59681133  0.73640852  0.70991988  1
  Bi2+  Bi120  1  0.89090540  0.02077363  0.22584857  1
  Bi2+  Bi121  1  0.90378846  0.03719953  0.69340294  1
  Bi2+  Bi122  1  0.88245610  0.23169004  0.20177709  1
  Bi2+  Bi123  1  0.89141197  0.31156791  0.71167849  1
  Bi2+  Bi124  1  0.88639137  0.43073992  0.21797057  1
  Bi2+  Bi125  1  0.88394601  0.49246242  0.65809719  1
  Bi2+  Bi126  1  0.87066176  0.76546909  0.20491939  1
  Bi2+  Bi127  1  0.85531790  0.68387822  0.70429575  1
  S2-  S128  1  0.07750881  0.11469625  0.14374533  1
  S2-  S129  1  0.03940465  0.13353759  0.65298587  1
  S2-  S130  1  0.04397750  0.39770527  0.15232261  1
  S2-  S131  1  0.09618475  0.37178215  0.64443288  1
  S2-  S132  1  -0.07072127  0.63626011  0.14083221  1
  S2-  S133  1  -0.00758826  0.72655887  0.64400249  1
  S2-  S134  1  0.00934727  0.87222563  0.14411586  1
  S2-  S135  1  0.03771481  0.92386003  0.66692629  1
  S2-  S136  1  0.26111029  0.07822754  0.18653778  1
  S2-  S137  1  0.27162738  0.15837832  0.65662692  1
  S2-  S138  1  0.24855779  0.27127772  0.14935114  1
  S2-  S139  1  0.32917616  0.40326234  0.65463354  1
  S2-  S140  1  0.20688830  0.67174333  0.16131948  1
  S2-  S141  1  0.19261326  0.60607338  0.66035862  1
  S2-  S142  1  0.27110064  0.88342716  0.15920198  1
  S2-  S143  1  0.23788622  0.87319862  0.65639886  1
  S2-  S144  1  0.46708546  0.12502361  0.16003646  1
  S2-  S145  1  0.56199618  0.12517021  0.64941920  1
  S2-  S146  1  0.51052472  0.36635922  0.15462160  1
  S2-  S147  1  0.52728741  0.35746305  0.66095536  1
  S2-  S148  1  0.51037361  0.62938280  0.16200206  1
  S2-  S149  1  0.49829189  0.62652618  0.65040280  1
  S2-  S150  1  0.51344150  0.89449150  0.15867458  1
  S2-  S151  1  0.58411231  0.87037302  0.64561446  1
  S2-  S152  1  0.77904111  0.05033413  0.14667818  1
  S2-  S153  1  0.75012003  0.08770453  0.69676552  1
  S2-  S154  1  0.77041434  0.46241276  0.14222808  1
  S2-  S155  1  0.74780112  0.28784147  0.65040696  1
  S2-  S156  1  0.73890525  0.64780001  0.19464407  1
  S2-  S157  1  0.72778565  0.70641093  0.63952773  1
  S2-  S158  1  0.75611646  0.83746890  0.15044644  1
  S2-  S159  1  0.81832674  0.88925703  0.68052891  1
  S2-  S160  1  0.11379459  0.04324813  0.33846709  1
  S2-  S161  1  0.11899424  -0.05200262  0.82148549  1
  S2-  S162  1  0.20463847  0.25678304  0.35283342  1
  S2-  S163  1  0.12746501  0.15677517  0.85670431  1
  S2-  S164  1  0.11543920  0.52103152  0.34553462  1
  S2-  S165  1  0.13540784  0.57659765  0.85649379  1
  S2-  S166  1  0.10555401  0.78148819  0.33998643  1
  S2-  S167  1  0.08352625  0.74466271  0.79986599  1
  S2-  S168  1  0.30722048  -0.03429043  0.30060385  1
  S2-  S169  1  0.30716993  0.00578732  0.86279082  1
  S2-  S170  1  0.38156073  0.14728886  0.34475652  1
  S2-  S171  1  0.35061265  0.25187982  0.84972040  1
  S2-  S172  1  0.36546844  0.39365212  0.36103115  1
  S2-  S173  1  0.34477483  0.48409944  0.85063285  1
  S2-  S174  1  0.41941607  0.80561044  0.35778180  1
  S2-  S175  1  0.29195333  0.74720433  0.85772431  1
  S2-  S176  1  0.55247133  -0.00173238  0.35230662  1
  S2-  S177  1  0.70714996  -0.00175281  0.84788124  1
  S2-  S178  1  0.58145850  0.25434978  0.34822282  1
  S2-  S179  1  0.61135219  0.21708595  0.84412008  1
  S2-  S180  1  0.59633888  0.61817844  0.34788462  1
  S2-  S181  1  0.64646017  0.46440579  0.85173010  1
  S2-  S182  1  0.73395558  0.77278916  0.34471541  1
  S2-  S183  1  0.68130470  0.76405428  0.84775272  1
  S2-  S184  1  0.89957053  -0.08086190  0.36283047  1
  S2-  S185  1  0.91367971  0.01810260  0.79009010  1
  S2-  S186  1  0.87750182  0.25522257  0.35310268  1
  S2-  S187  1  0.86663686  0.18082727  0.85498406  1
  S2-  S188  1  0.74508543  0.47474985  0.35352569  1
  S2-  S189  1  0.86913793  0.61107876  0.85578872  1
  S2-  S190  1  0.89276385  0.62980179  0.35081922  1
  S2-  S191  1  0.87651098  0.84207698  0.84152590  1
  S2-  S192  1  -0.01227720  0.12679249  0.45317128  1
  S2-  S193  1  -0.00181270  0.12102200  0.95090230  1
  S2-  S194  1  -0.01117506  0.37693985  0.45551251  1
  S2-  S195  1  -0.00070097  0.37138551  0.95162322  1
  S2-  S196  1  -0.00462188  0.63071009  0.45586976  1
  S2-  S197  1  0.00333761  0.62130727  0.94953505  1
  S2-  S198  1  -0.00498151  0.87571729  0.46592481  1
  S2-  S199  1  0.00878719  0.87100885  0.93739909  1
  S2-  S200  1  0.24072139  0.12515901  0.45230438  1
  S2-  S201  1  0.25125985  0.12716442  0.96591722  1
  S2-  S202  1  0.23546930  0.37737622  0.46291045  1
  S2-  S203  1  0.24835630  0.37055668  0.96036542  1
  S2-  S204  1  0.24244101  0.62663639  0.45366842  1
  S2-  S205  1  0.25072215  0.61783383  0.96024233  1
  S2-  S206  1  0.24819398  0.88271611  0.44739879  1
  S2-  S207  1  0.24851840  0.87124620  0.95650936  1
  S2-  S208  1  0.48788179  0.12455458  0.45470983  1
  S2-  S209  1  0.49735305  0.12244042  0.95489695  1
  S2-  S210  1  0.49600384  0.37965147  0.45685699  1
  S2-  S211  1  0.49874885  0.37204335  0.95024213  1
  S2-  S212  1  0.48856588  0.62355260  0.44840534  1
  S2-  S213  1  0.49957308  0.61850851  0.95375785  1
  S2-  S214  1  0.49219409  0.88187335  0.45896599  1
  S2-  S215  1  0.49847751  0.87332851  0.95120850  1
  S2-  S216  1  0.74156732  0.12680708  0.45190248  1
  S2-  S217  1  0.75049133  0.12290675  0.95552345  1
  S2-  S218  1  0.74226407  0.37317665  0.45980197  1
  S2-  S219  1  0.75301380  0.37202411  0.95493771  1
  S2-  S220  1  0.74206299  0.63110800  0.44932425  1
  S2-  S221  1  0.74723175  0.61814530  0.95785502  1
  S2-  S222  1  0.73385776  0.88011650  0.45357601  1
  S2-  S223  1  0.75026300  0.87489235  0.95154484  1
  S2-  S224  1  0.12509355  -0.00086891  0.03900288  1
  S2-  S225  1  0.11218326  -0.00054335  0.54527375  1
  S2-  S226  1  0.11974817  0.25045113  0.04459249  1
  S2-  S227  1  0.10873669  0.24641710  0.54364927  1
  S2-  S228  1  0.12222606  0.49864635  0.04659701  1
  S2-  S229  1  0.11069331  0.50662219  0.54949426  1
  S2-  S230  1  0.12328618  0.74635528  0.04394274  1
  S2-  S231  1  0.11870667  0.75296174  0.54634316  1
  S2-  S232  1  0.37203343  0.00179905  0.05585937  1
  S2-  S233  1  0.36990326  -0.00081844  0.56088283  1
  S2-  S234  1  0.37555699  0.24688819  0.05117543  1
  S2-  S235  1  0.36472393  0.25294345  0.54420957  1
  S2-  S236  1  0.37411059  0.49582750  0.05312228  1
  S2-  S237  1  0.36575110  0.50489169  0.54645926  1
  S2-  S238  1  0.37441518  0.74715633  0.05332825  1
  S2-  S239  1  0.36881840  0.75444177  0.55231975  1
  S2-  S240  1  0.62456491  0.00023951  0.04615276  1
  S2-  S241  1  0.61977161  0.00358482  0.54929793  1
  S2-  S242  1  0.62571328  0.24642815  0.04905534  1
  S2-  S243  1  0.61547187  0.25579033  0.54903831  1
  S2-  S244  1  0.62742997  0.49812809  0.05144222  1
  S2-  S245  1  0.61911142  0.50034419  0.54526952  1
  S2-  S246  1  0.63081122  0.74669739  0.04972063  1
  S2-  S247  1  0.61472917  0.75159750  0.53503541  1
  S2-  S248  1  0.87467805  -0.00309460  0.04189185  1
  S2-  S249  1  0.85825865  0.00241940  0.55939582  1
  S2-  S250  1  0.87235706  0.24781766  0.05097671  1
  S2-  S251  1  0.86591604  0.24784913  0.55445524  1
  S2-  S252  1  0.87658699  0.50009407  0.03870961  1
  S2-  S253  1  0.86282512  0.50216758  0.53479135  1
  S2-  S254  1  0.87276506  0.74798673  0.03816200  1
  S2-  S255  1  0.85997337  0.75425838  0.54136879  1
