# generated using pymatgen
data_La6Ce7Pr13Nd19Sm19(BiS2)64
_symmetry_space_group_name_H-M   'P 1'
_cell_length_a   16.11646789
_cell_length_b   16.10999485
_cell_length_c   27.36503960
_cell_angle_alpha   89.91603045
_cell_angle_beta   90.11194214
_cell_angle_gamma   89.93667960
_symmetry_Int_Tables_number   1
_chemical_formula_structural   La6Ce7Pr13Nd19Sm19(BiS2)64
_chemical_formula_sum   'La6 Ce7 Pr13 Nd19 Sm19 Bi64 S128'
_cell_volume   7104.92974337
_cell_formula_units_Z   1
loop_
 _symmetry_equiv_pos_site_id
 _symmetry_equiv_pos_as_xyz
  1  'x, y, z'
loop_
 _atom_type_symbol
 _atom_type_oxidation_number
  La3+  3.0
  Ce3+  3.0
  Pr3+  3.0
  Nd3+  3.0
  Sm3+  3.0
  Bi2+  2.0
  S2-  -2.0
loop_
 _atom_site_type_symbol
 _atom_site_label
 _atom_site_symmetry_multiplicity
 _atom_site_fract_x
 _atom_site_fract_y
 _atom_site_fract_z
 _atom_site_occupancy
  La3+  La0  1  0.86861321  0.51856331  0.42606924  1
  La3+  La1  1  0.86862088  -0.00293353  0.88277325  1
  La3+  La2  1  0.26411216  0.63118664  0.07635387  1
  La3+  La3  1  0.74098670  0.63422406  0.57694886  1
  La3+  La4  1  0.36995086  0.25951380  0.39608130  1
  La3+  La5  1  0.76882253  0.37106346  0.09184339  1
  Ce3+  Ce6  1  -0.00120631  0.63392689  0.55724723  1
  Ce3+  Ce7  1  0.51047549  0.37624624  0.06675614  1
  Ce3+  Ce8  1  0.38234744  0.50259878  0.94680401  1
  Ce3+  Ce9  1  0.49640591  0.13773025  0.55360518  1
  Ce3+  Ce10  1  0.12652499  0.51566684  0.43385848  1
  Ce3+  Ce11  1  0.88368823  0.50161894  0.94469265  1
  Ce3+  Ce12  1  0.24819718  0.13869456  0.55763593  1
  Pr3+  Pr13  1  0.75507060  0.87938532  0.06267339  1
  Pr3+  Pr14  1  0.24623587  0.89009601  0.55959343  1
  Pr3+  Pr15  1  0.51435163  0.62537891  0.06605573  1
  Pr3+  Pr16  1  0.00394495  0.63362836  0.06830751  1
  Pr3+  Pr17  1  0.63494507  0.25615713  0.93301533  1
  Pr3+  Pr18  1  0.37498220  0.51716444  0.43209961  1
  Pr3+  Pr19  1  0.00538468  0.13687611  0.57658475  1
  Pr3+  Pr20  1  0.50783566  0.13167414  0.05575600  1
  Pr3+  Pr21  1  0.26833280  0.87921602  0.07352011  1
  Pr3+  Pr22  1  0.48768477  0.64294649  0.57271258  1
  Pr3+  Pr23  1  0.63369836  0.49905158  0.93552165  1
  Pr3+  Pr24  1  0.11876508  0.01607423  0.43533435  1
  Pr3+  Pr25  1  -0.00242365  0.38907772  0.55908807  1
  Nd3+  Nd26  1  0.49701114  0.38569240  0.55259232  1
  Nd3+  Nd27  1  0.63360247  0.74751549  0.92921042  1
  Nd3+  Nd28  1  0.74901552  0.88634276  0.55725485  1
  Nd3+  Nd29  1  0.13198781  0.00358176  0.93040565  1
  Nd3+  Nd30  1  0.13866512  0.25623109  0.93645968  1
  Nd3+  Nd31  1  0.13439834  0.75646673  0.94295473  1
  Nd3+  Nd32  1  0.75653551  0.62597738  0.06032990  1
  Nd3+  Nd33  1  0.25670824  0.12990046  0.05963769  1
  Nd3+  Nd34  1  0.88480233  0.24842207  0.93627817  1
  Nd3+  Nd35  1  0.37557720  0.76348500  0.43832732  1
  Nd3+  Nd36  1  0.62377700  0.26323191  0.43473901  1
  Nd3+  Nd37  1  0.38352400  0.75376200  0.94259254  1
  Nd3+  Nd38  1  0.74876778  0.13598779  0.56260511  1
  Nd3+  Nd39  1  0.75992497  0.13061293  0.05835092  1
  Nd3+  Nd40  1  -0.00415748  0.88536104  0.55772474  1
  Nd3+  Nd41  1  0.00930706  0.88157312  0.05575850  1
  Nd3+  Nd42  1  0.13320946  0.50493406  0.94689838  1
  Nd3+  Nd43  1  0.87446396  0.01541355  0.43229086  1
  Nd3+  Nd44  1  0.12175768  0.26460184  0.43850264  1
  Sm3+  Sm45  1  0.00750866  0.37795641  0.06016108  1
  Sm3+  Sm46  1  0.24783150  0.63640333  0.56054627  1
  Sm3+  Sm47  1  0.51343193  0.87818282  0.05845097  1
  Sm3+  Sm48  1  0.62389662  0.76278234  0.44347116  1
  Sm3+  Sm49  1  0.25485835  0.38512329  0.07334040  1
  Sm3+  Sm50  1  0.01014253  0.12667573  0.05385625  1
  Sm3+  Sm51  1  0.36577550  0.01381097  0.42903009  1
  Sm3+  Sm52  1  0.62303357  0.01341558  0.44737753  1
  Sm3+  Sm53  1  0.12333523  0.76160938  0.44278355  1
  Sm3+  Sm54  1  0.37888573  0.00362779  0.93510748  1
  Sm3+  Sm55  1  0.87094968  0.26361250  0.44654514  1
  Sm3+  Sm56  1  0.62048031  0.51863019  0.44131124  1
  Sm3+  Sm57  1  0.63317598  0.00207538  0.93932286  1
  Sm3+  Sm58  1  0.49634025  0.88588170  0.55590009  1
  Sm3+  Sm59  1  0.88203424  0.75429803  0.94142510  1
  Sm3+  Sm60  1  0.87119587  0.75937904  0.44378184  1
  Sm3+  Sm61  1  0.74582736  0.38692718  0.55523083  1
  Sm3+  Sm62  1  0.24959484  0.38616175  0.55099497  1
  Sm3+  Sm63  1  0.38307302  0.25574780  0.94732314  1
  Bi2+  Bi64  1  0.04233713  0.14333077  0.28770766  1
  Bi2+  Bi65  1  -0.00467589  0.11310875  0.77961120  1
  Bi2+  Bi66  1  0.01167685  0.32437508  0.24001958  1
  Bi2+  Bi67  1  0.04347179  0.34495861  0.80259429  1
  Bi2+  Bi68  1  -0.02025869  0.69103862  0.29239734  1
  Bi2+  Bi69  1  0.01837269  0.60173166  0.75277921  1
  Bi2+  Bi70  1  -0.06528340  0.88336633  0.30997766  1
  Bi2+  Bi71  1  0.06767771  0.86788185  0.77043298  1
  Bi2+  Bi72  1  0.25436286  0.11246685  0.28886428  1
  Bi2+  Bi73  1  0.24363332  0.10943177  0.78747132  1
  Bi2+  Bi74  1  0.22504944  0.37606160  0.28900686  1
  Bi2+  Bi75  1  0.23214868  0.39671284  0.80061564  1
  Bi2+  Bi76  1  0.25050792  0.61548446  0.29893396  1
  Bi2+  Bi77  1  0.24121626  0.59916538  0.73039180  1
  Bi2+  Bi78  1  0.20048773  0.88304445  0.28107204  1
  Bi2+  Bi79  1  0.25431238  0.83657342  0.80309589  1
  Bi2+  Bi80  1  0.50444876  0.03009227  0.27653524  1
  Bi2+  Bi81  1  0.45040303  0.05565603  0.81301479  1
  Bi2+  Bi82  1  0.55070764  0.37841891  0.27041510  1
  Bi2+  Bi83  1  0.48283122  0.30251039  0.81310321  1
  Bi2+  Bi84  1  0.51410100  0.62855837  0.28565790  1
  Bi2+  Bi85  1  0.49318976  0.62220571  0.79389351  1
  Bi2+  Bi86  1  0.44740793  0.84891536  0.30209759  1
  Bi2+  Bi87  1  0.46939848  0.86504608  0.78380026  1
  Bi2+  Bi88  1  0.77837441  0.07595619  0.30585395  1
  Bi2+  Bi89  1  0.62366493  0.15803540  0.80668769  1
  Bi2+  Bi90  1  0.76514085  0.33160558  0.29602727  1
  Bi2+  Bi91  1  0.76631040  0.29684512  0.81245360  1
  Bi2+  Bi92  1  0.72964366  0.58018122  0.30358229  1
  Bi2+  Bi93  1  0.75511377  0.61542488  0.78396079  1
  Bi2+  Bi94  1  0.73450705  0.87882200  0.30241389  1
  Bi2+  Bi95  1  0.72453495  0.87919337  0.78363944  1
  Bi2+  Bi96  1  0.06588195  -0.04262022  0.21243749  1
  Bi2+  Bi97  1  0.17583455  -0.00847654  0.70351653  1
  Bi2+  Bi98  1  0.15569495  0.20932404  0.19826368  1
  Bi2+  Bi99  1  0.18466431  0.26299601  0.71065567  1
  Bi2+  Bi100  1  0.11144342  0.50329933  0.23334803  1
  Bi2+  Bi101  1  0.10919906  0.46259912  0.68768888  1
  Bi2+  Bi102  1  0.11052814  0.74894410  0.21512347  1
  Bi2+  Bi103  1  0.11289180  0.73173057  0.68644950  1
  Bi2+  Bi104  1  0.34019099  -0.03010897  0.21636168  1
  Bi2+  Bi105  1  0.37552607  0.01489173  0.70104809  1
  Bi2+  Bi106  1  0.41021924  0.22419772  0.20220002  1
  Bi2+  Bi107  1  0.37759287  0.21242919  0.72208392  1
  Bi2+  Bi108  1  0.36666363  0.47749524  0.19932538  1
  Bi2+  Bi109  1  0.39211465  0.47494912  0.75055446  1
  Bi2+  Bi110  1  0.37758785  0.75612844  0.20778090  1
  Bi2+  Bi111  1  0.37303041  0.74856806  0.70502568  1
  Bi2+  Bi112  1  0.65817037  -0.01212912  0.20369537  1
  Bi2+  Bi113  1  0.56947626  -0.00140580  0.72116593  1
  Bi2+  Bi114  1  0.66122116  0.17837317  0.22600647  1
  Bi2+  Bi115  1  0.57494507  0.26381990  0.71035356  1
  Bi2+  Bi116  1  0.63575890  0.59182722  0.19720291  1
  Bi2+  Bi117  1  0.64141367  0.46904022  0.70661982  1
  Bi2+  Bi118  1  0.59062803  0.77856294  0.22564152  1
  Bi2+  Bi119  1  0.63738506  0.73574596  0.69643903  1
  Bi2+  Bi120  1  0.85869903  -0.02903187  0.20627772  1
  Bi2+  Bi121  1  0.85231357  -0.00406598  0.67806394  1
  Bi2+  Bi122  1  0.88750319  0.16917493  0.21577919  1
  Bi2+  Bi123  1  0.84927245  0.25952760  0.69836224  1
  Bi2+  Bi124  1  0.87187701  0.51090950  0.20172045  1
  Bi2+  Bi125  1  0.87959685  0.44142088  0.77664116  1
  Bi2+  Bi126  1  0.83849135  0.77066104  0.22612351  1
  Bi2+  Bi127  1  0.88927889  0.74994535  0.76342960  1
  S2-  S128  1  0.03534318  0.11671789  0.15131512  1
  S2-  S129  1  -0.04459806  0.13806600  0.67535467  1
  S2-  S130  1  -0.07312182  0.37475102  0.14709866  1
  S2-  S131  1  -0.01127804  0.35245425  0.65695065  1
  S2-  S132  1  0.01736784  0.58379389  0.16469297  1
  S2-  S133  1  -0.02394484  0.64035428  0.65290017  1
  S2-  S134  1  0.00431278  0.82668171  0.15027176  1
  S2-  S135  1  -0.00682899  0.91900306  0.65375802  1
  S2-  S136  1  0.29763863  0.11355105  0.15530023  1
  S2-  S137  1  0.15610138  0.13098702  0.64007819  1
  S2-  S138  1  0.28641811  0.32846644  0.16660271  1
  S2-  S139  1  0.25046480  0.38545065  0.64952905  1
  S2-  S140  1  0.23294222  0.51181520  0.14949915  1
  S2-  S141  1  0.34692944  0.62249051  0.63994326  1
  S2-  S142  1  0.23940181  0.75742223  0.14723130  1
  S2-  S143  1  0.24454438  0.84614040  0.65651120  1
  S2-  S144  1  0.52663851  0.14382977  0.15521949  1
  S2-  S145  1  0.51142525  0.12415646  0.65105166  1
  S2-  S146  1  0.50050066  0.38072805  0.16599430  1
  S2-  S147  1  0.51404088  0.39049055  0.65238062  1
  S2-  S148  1  0.41688183  0.61938188  0.15024024  1
  S2-  S149  1  0.57289360  0.60132130  0.65719603  1
  S2-  S150  1  0.41127841  0.88875931  0.13811688  1
  S2-  S151  1  0.49925361  0.80444717  0.64200220  1
  S2-  S152  1  0.76007307  0.21690952  0.14586925  1
  S2-  S153  1  0.74891839  0.14120006  0.66188985  1
  S2-  S154  1  0.72369971  0.44201455  0.18239942  1
  S2-  S155  1  0.75226589  0.39300060  0.65349788  1
  S2-  S156  1  0.80707139  0.65161131  0.15458391  1
  S2-  S157  1  0.76160701  0.62211355  0.67690180  1
  S2-  S158  1  0.63270469  0.86050868  0.13443413  1
  S2-  S159  1  0.74634842  0.85704923  0.65489646  1
  S2-  S160  1  0.23069885  -0.00704897  0.35886213  1
  S2-  S161  1  0.03440617  -0.00829585  0.84553860  1
  S2-  S162  1  0.20661356  0.25133393  0.35114719  1
  S2-  S163  1  0.10922208  0.19824955  0.84376931  1
  S2-  S164  1  0.10532303  0.47069206  0.34049107  1
  S2-  S165  1  0.11945291  0.49191650  0.84857147  1
  S2-  S166  1  0.12618591  0.70189067  0.35191181  1
  S2-  S167  1  0.12813502  0.75132323  0.84376561  1
  S2-  S168  1  0.39781248  0.10704818  0.34716586  1
  S2-  S169  1  0.26153556  -0.01227424  0.86138536  1
  S2-  S170  1  0.41460954  0.30617328  0.29700335  1
  S2-  S171  1  0.32748262  0.27385950  0.85644466  1
  S2-  S172  1  0.33837896  0.48907624  0.33483067  1
  S2-  S173  1  0.42022327  0.50829922  0.85110782  1
  S2-  S174  1  0.37278112  0.69450315  0.34776555  1
  S2-  S175  1  0.37689177  0.73021563  0.84440161  1
  S2-  S176  1  0.63317296  0.00800334  0.35046240  1
  S2-  S177  1  0.70069554  0.00905905  0.84999268  1
  S2-  S178  1  0.61639179  0.25797767  0.33515847  1
  S2-  S179  1  0.63051993  0.37962002  0.85828137  1
  S2-  S180  1  0.61515852  0.47516653  0.34628781  1
  S2-  S181  1  0.63163652  0.61224763  0.85601231  1
  S2-  S182  1  0.62264714  0.68770783  0.35535069  1
  S2-  S183  1  0.60879518  0.81836482  0.83865609  1
  S2-  S184  1  0.99466389  0.02941652  0.36003179  1
  S2-  S185  1  0.86227179  0.00264505  0.77339885  1
  S2-  S186  1  0.84844929  0.22636331  0.35217913  1
  S2-  S187  1  0.88101394  0.17020824  0.84684135  1
  S2-  S188  1  0.85285063  0.45353260  0.33003853  1
  S2-  S189  1  0.87599053  0.55739554  0.85317141  1
  S2-  S190  1  0.85442505  0.66289154  0.36377064  1
  S2-  S191  1  0.85871001  0.82270934  0.85230086  1
  S2-  S192  1  -0.00468825  0.14381836  0.46244756  1
  S2-  S193  1  0.01419207  0.13016471  0.95296010  1
  S2-  S194  1  -0.00537308  0.38808139  0.45086431  1
  S2-  S195  1  0.00940148  0.37617594  0.95484651  1
  S2-  S196  1  0.00010051  0.63759663  0.45364101  1
  S2-  S197  1  0.00772548  0.63182432  0.95779234  1
  S2-  S198  1  -0.00411973  0.88115366  0.45198025  1
  S2-  S199  1  0.00611524  0.87803516  0.95131458  1
  S2-  S200  1  0.25143958  0.14110810  0.45376766  1
  S2-  S201  1  0.25938217  0.13094344  0.95463040  1
  S2-  S202  1  0.25268867  0.38548999  0.44726106  1
  S2-  S203  1  0.25705253  0.38004806  0.96465551  1
  S2-  S204  1  0.24963252  0.63935658  0.45634588  1
  S2-  S205  1  0.25803279  0.62949144  0.95832625  1
  S2-  S206  1  0.24725191  0.88252914  0.45420366  1
  S2-  S207  1  0.26006397  0.87657208  0.96336605  1
  S2-  S208  1  0.49890372  0.13757547  0.44881187  1
  S2-  S209  1  0.50554849  0.12916809  0.94846862  1
  S2-  S210  1  0.49443334  0.38312180  0.44530635  1
  S2-  S211  1  0.50552670  0.37701855  0.96049597  1
  S2-  S212  1  0.49853963  0.63986609  0.45931706  1
  S2-  S213  1  0.50802697  0.62714032  0.95916917  1
  S2-  S214  1  0.49853056  0.88956741  0.45060755  1
  S2-  S215  1  0.50649339  0.88194554  0.95171688  1
  S2-  S216  1  0.74753603  0.13615035  0.45590000  1
  S2-  S217  1  0.75782240  0.12702803  0.95332657  1
  S2-  S218  1  0.74578992  0.38912051  0.45060938  1
  S2-  S219  1  0.76434754  0.37681033  0.95660744  1
  S2-  S220  1  0.74239213  0.63753858  0.46531169  1
  S2-  S221  1  0.76097618  0.62942850  0.95558990  1
  S2-  S222  1  0.74943454  0.88706801  0.45062226  1
  S2-  S223  1  0.75573949  0.87945279  0.95638592  1
  S2-  S224  1  0.13634523  0.00211189  0.04599754  1
  S2-  S225  1  0.11958163  0.00986167  0.54134150  1
  S2-  S226  1  0.13265455  0.25641480  0.04812990  1
  S2-  S227  1  0.12367461  0.26565510  0.54377778  1
  S2-  S228  1  0.12643890  0.50423117  0.05070081  1
  S2-  S229  1  0.12691551  0.51202762  0.54280503  1
  S2-  S230  1  0.13165068  0.75384015  0.04710246  1
  S2-  S231  1  0.12340168  0.76048600  0.54665054  1
  S2-  S232  1  0.38470722  0.00765985  0.03879007  1
  S2-  S233  1  0.37378969  0.01046651  0.54064392  1
  S2-  S234  1  0.37935716  0.25710034  0.05129615  1
  S2-  S235  1  0.37222141  0.26245973  0.55275175  1
  S2-  S236  1  0.38469973  0.49920266  0.05041859  1
  S2-  S237  1  0.37210455  0.50967284  0.53963071  1
  S2-  S238  1  0.39201139  0.75276525  0.04587617  1
  S2-  S239  1  0.36783277  0.76544281  0.54212465  1
  S2-  S240  1  0.63316628  0.00891924  0.04319950  1
  S2-  S241  1  0.62187832  0.00872810  0.55159977  1
  S2-  S242  1  0.63539746  0.25613667  0.04351533  1
  S2-  S243  1  0.62478771  0.26143137  0.54324185  1
  S2-  S244  1  0.63844795  0.49715808  0.05051641  1
  S2-  S245  1  0.62044577  0.50948869  0.54552503  1
  S2-  S246  1  0.63456379  0.74808158  0.03745105  1
  S2-  S247  1  0.62243817  0.76323242  0.54556695  1
  S2-  S248  1  0.88368290  0.00538648  0.05760379  1
  S2-  S249  1  0.87426906  0.01324540  0.54184269  1
  S2-  S250  1  0.88918330  0.25076300  0.04304279  1
  S2-  S251  1  0.87153078  0.26168624  0.55036725  1
  S2-  S252  1  0.88310477  0.50278681  0.04958268  1
  S2-  S253  1  0.86872162  0.51081159  0.54549330  1
  S2-  S254  1  0.88018369  0.75642917  0.04549879  1
  S2-  S255  1  0.87092735  0.75884511  0.54815828  1
