# generated using pymatgen
data_La6Ce7Pr13Nd19Sm19(BiS2)64
_symmetry_space_group_name_H-M   'P 1'
_cell_length_a   15.94178974
_cell_length_b   16.03366352
_cell_length_c   27.53438412
_cell_angle_alpha   90.10655380
_cell_angle_beta   89.77381664
_cell_angle_gamma   89.99813214
_symmetry_Int_Tables_number   1
_chemical_formula_structural   La6Ce7Pr13Nd19Sm19(BiS2)64
_chemical_formula_sum   'La6 Ce7 Pr13 Nd19 Sm19 Bi64 S128'
_cell_volume   7037.86729443
_cell_formula_units_Z   1
loop_
 _symmetry_equiv_pos_site_id
 _symmetry_equiv_pos_as_xyz
  1  'x, y, z'
loop_
 _atom_type_symbol
 _atom_type_oxidation_number
  La3+  3.0
  Ce3+  3.0
  Pr3+  3.0
  Nd3+  3.0
  Sm3+  3.0
  Bi2+  2.0
  S2-  -2.0
loop_
 _atom_site_type_symbol
 _atom_site_label
 _atom_site_symmetry_multiplicity
 _atom_site_fract_x
 _atom_site_fract_y
 _atom_site_fract_z
 _atom_site_occupancy
  La3+  La0  1  0.14358483  0.51277349  0.90887748  1
  La3+  La1  1  0.14204788  0.76535079  0.92551193  1
  La3+  La2  1  0.64429111  0.76376475  0.91858285  1
  La3+  La3  1  0.25307847  0.13497368  0.59792765  1
  La3+  La4  1  0.62510243  0.50996481  0.40365780  1
  La3+  La5  1  0.12817905  0.75176882  0.41920416  1
  Ce3+  Ce6  1  0.13420866  0.25846294  0.92770556  1
  Ce3+  Ce7  1  0.76182392  0.38664787  0.05948599  1
  Ce3+  Ce8  1  0.12998131  0.50443354  0.43296101  1
  Ce3+  Ce9  1  0.37907054  0.00702175  0.43525018  1
  Ce3+  Ce10  1  0.37465084  0.75156276  0.43967536  1
  Ce3+  Ce11  1  0.63767124  0.26063030  0.93549687  1
  Ce3+  Ce12  1  0.24788983  0.63036223  0.56513348  1
  Pr3+  Pr13  1  0.12688958  0.00837966  0.40488390  1
  Pr3+  Pr14  1  0.00700815  0.87838841  0.55957835  1
  Pr3+  Pr15  1  0.88615997  0.25818043  0.92870155  1
  Pr3+  Pr16  1  0.88611075  0.51331673  0.94145557  1
  Pr3+  Pr17  1  0.74851441  0.38399526  0.56238578  1
  Pr3+  Pr18  1  0.74497050  0.62883292  0.59876676  1
  Pr3+  Pr19  1  0.63434429  0.25148098  0.42625640  1
  Pr3+  Pr20  1  0.37639215  0.25042535  0.44763358  1
  Pr3+  Pr21  1  0.37264157  0.50073127  0.43356754  1
  Pr3+  Pr22  1  0.87337523  0.50792733  0.43437413  1
  Pr3+  Pr23  1  0.50090153  0.88065070  0.56008102  1
  Pr3+  Pr24  1  0.86981927  0.75919094  0.44149342  1
  Pr3+  Pr25  1  0.50838075  0.88574154  0.06249055  1
  Nd3+  Nd26  1  0.76030655  0.13902571  0.05984630  1
  Nd3+  Nd27  1  0.00307348  0.13080098  0.56076154  1
  Nd3+  Nd28  1  0.25983396  0.13499962  0.05601457  1
  Nd3+  Nd29  1  0.13627241  0.00211141  0.93434187  1
  Nd3+  Nd30  1  0.50242470  0.13268705  0.56691185  1
  Nd3+  Nd31  1  0.75846397  0.88458895  0.06985541  1
  Nd3+  Nd32  1  0.88876119  0.00496251  0.94667690  1
  Nd3+  Nd33  1  0.26095608  0.63103382  0.05321111  1
  Nd3+  Nd34  1  0.12837062  0.24920372  0.44187849  1
  Nd3+  Nd35  1  0.75054625  0.12714765  0.57116581  1
  Nd3+  Nd36  1  0.53024223  0.41339196  0.12244243  1
  Nd3+  Nd37  1  0.38490942  0.01362839  0.92812220  1
  Nd3+  Nd38  1  0.24897203  0.88247941  0.55589474  1
  Nd3+  Nd39  1  0.63557236  0.00917250  0.93995915  1
  Nd3+  Nd40  1  0.25056847  0.38311359  0.56802081  1
  Nd3+  Nd41  1  0.01181499  0.87696985  0.08191927  1
  Nd3+  Nd42  1  0.75018608  0.64163283  0.06749237  1
  Nd3+  Nd43  1  0.00123094  0.62978429  0.56481159  1
  Nd3+  Nd44  1  0.49676853  0.62882232  0.56672064  1
  Sm3+  Sm45  1  0.50423051  0.38273605  0.55303555  1
  Sm3+  Sm46  1  0.01837785  0.38677793  0.05234012  1
  Sm3+  Sm47  1  0.26215878  0.88528855  0.06728690  1
  Sm3+  Sm48  1  0.00132272  0.38094413  0.55041154  1
  Sm3+  Sm49  1  0.37802556  0.25741974  0.92814038  1
  Sm3+  Sm50  1  0.50892162  0.63506559  0.04790648  1
  Sm3+  Sm51  1  0.26248721  0.38436987  0.05648974  1
  Sm3+  Sm52  1  0.87598852  0.00261741  0.44656848  1
  Sm3+  Sm53  1  0.50729755  0.14690166  0.05944483  1
  Sm3+  Sm54  1  0.87248648  0.25186029  0.44559624  1
  Sm3+  Sm55  1  0.01387134  0.13457908  0.05474832  1
  Sm3+  Sm56  1  0.75274944  0.87933588  0.57467607  1
  Sm3+  Sm57  1  0.01388056  0.63776679  0.05279666  1
  Sm3+  Sm58  1  0.38770425  0.76158768  0.93819410  1
  Sm3+  Sm59  1  0.38732196  0.50569430  0.93606027  1
  Sm3+  Sm60  1  0.88844127  0.76224569  0.94410531  1
  Sm3+  Sm61  1  0.62522491  0.00226966  0.44219369  1
  Sm3+  Sm62  1  0.63436091  0.50812766  0.94361442  1
  Sm3+  Sm63  1  0.63087648  0.75291206  0.44208110  1
  Bi2+  Bi64  1  -0.03470766  0.15389101  0.29118815  1
  Bi2+  Bi65  1  0.00888119  0.10236819  0.79084864  1
  Bi2+  Bi66  1  -0.00974351  0.37203383  0.30220248  1
  Bi2+  Bi67  1  -0.05902012  0.29739230  0.76878637  1
  Bi2+  Bi68  1  0.00316680  0.63062593  0.26997351  1
  Bi2+  Bi69  1  -0.01309933  0.57821794  0.78746552  1
  Bi2+  Bi70  1  -0.02970999  0.87139361  0.28363081  1
  Bi2+  Bi71  1  -0.06097254  0.81402878  0.80357379  1
  Bi2+  Bi72  1  0.24863031  0.16602560  0.29642644  1
  Bi2+  Bi73  1  0.28019165  0.12497126  0.79285622  1
  Bi2+  Bi74  1  0.18289380  0.36056562  0.27181363  1
  Bi2+  Bi75  1  0.32449336  0.37050129  0.78183710  1
  Bi2+  Bi76  1  0.24755435  0.58896358  0.30294984  1
  Bi2+  Bi77  1  0.19607091  0.57446609  0.77247335  1
  Bi2+  Bi78  1  0.22808624  0.92746004  0.27154829  1
  Bi2+  Bi79  1  0.20212501  0.87604935  0.79046672  1
  Bi2+  Bi80  1  0.49284412  0.12445603  0.28683902  1
  Bi2+  Bi81  1  0.54689692  0.10255048  0.79175982  1
  Bi2+  Bi82  1  0.46652823  0.37340871  0.30073821  1
  Bi2+  Bi83  1  0.52102268  0.37748433  0.79741502  1
  Bi2+  Bi84  1  0.50370374  0.65136008  0.27335350  1
  Bi2+  Bi85  1  0.46104408  0.59646883  0.78623383  1
  Bi2+  Bi86  1  0.48773392  0.84948741  0.28559908  1
  Bi2+  Bi87  1  0.48545884  0.90851430  0.81061522  1
  Bi2+  Bi88  1  0.68057373  0.08066838  0.32206589  1
  Bi2+  Bi89  1  0.74398119  0.12844740  0.79038608  1
  Bi2+  Bi90  1  0.78579860  0.35541667  0.30195413  1
  Bi2+  Bi91  1  0.70825706  0.32703486  0.76307601  1
  Bi2+  Bi92  1  0.76398710  0.69213628  0.31336500  1
  Bi2+  Bi93  1  0.73466137  0.60413121  0.80678498  1
  Bi2+  Bi94  1  0.67068103  0.90479541  0.25847278  1
  Bi2+  Bi95  1  0.68030764  0.89344942  0.75953260  1
  Bi2+  Bi96  1  0.10371136  0.05770657  0.22743609  1
  Bi2+  Bi97  1  0.09645796  -0.02431755  0.69454266  1
  Bi2+  Bi98  1  0.10981970  0.24644725  0.18628630  1
  Bi2+  Bi99  1  0.10429588  0.22579754  0.71727606  1
  Bi2+  Bi100  1  0.13303754  0.51674413  0.20318269  1
  Bi2+  Bi101  1  0.14901837  0.43206404  0.69355388  1
  Bi2+  Bi102  1  0.10493814  0.77498134  0.21568259  1
  Bi2+  Bi103  1  0.09102566  0.75565074  0.69953014  1
  Bi2+  Bi104  1  0.40336113  0.00196551  0.20960922  1
  Bi2+  Bi105  1  0.41865198  -0.01877546  0.71680921  1
  Bi2+  Bi106  1  0.36806971  0.24320848  0.19598471  1
  Bi2+  Bi107  1  0.45052421  0.25392825  0.71620025  1
  Bi2+  Bi108  1  0.36862143  0.53338215  0.20157392  1
  Bi2+  Bi109  1  0.34361151  0.50335662  0.69432380  1
  Bi2+  Bi110  1  0.32121110  0.74997903  0.25031686  1
  Bi2+  Bi111  1  0.34717534  0.75282086  0.76123960  1
  Bi2+  Bi112  1  0.59003055  0.02122365  0.17587429  1
  Bi2+  Bi113  1  0.61149704  0.03483632  0.68706941  1
  Bi2+  Bi114  1  0.64628127  0.19042107  0.22642447  1
  Bi2+  Bi115  1  0.63179922  0.23716557  0.66121570  1
  Bi2+  Bi116  1  0.71323516  0.48160353  0.22585103  1
  Bi2+  Bi117  1  0.59611111  0.48948772  0.70780519  1
  Bi2+  Bi118  1  0.51967452  0.76233031  0.18052753  1
  Bi2+  Bi119  1  0.55263234  0.74623570  0.72819331  1
  Bi2+  Bi120  1  0.83766294  0.00909849  0.25869498  1
  Bi2+  Bi121  1  0.86935953  -0.02793933  0.75425079  1
  Bi2+  Bi122  1  0.91134474  0.28086685  0.20837683  1
  Bi2+  Bi123  1  0.82168675  0.21717507  0.69121058  1
  Bi2+  Bi124  1  0.93609310  0.47902342  0.20597253  1
  Bi2+  Bi125  1  0.88408805  0.48157175  0.70873967  1
  Bi2+  Bi126  1  0.84502340  0.75215641  0.18693506  1
  Bi2+  Bi127  1  0.82633947  0.71630405  0.72786829  1
  S2-  S128  1  0.00987841  0.10829134  0.15051932  1
  S2-  S129  1  0.00850136  0.11876723  0.65953105  1
  S2-  S130  1  0.13137088  0.38760052  0.12796965  1
  S2-  S131  1  0.00163763  0.39219094  0.64797890  1
  S2-  S132  1  -0.00140082  0.71707681  0.14004553  1
  S2-  S133  1  0.12690360  0.62911461  0.63899410  1
  S2-  S134  1  -0.12536242  0.89604555  0.14826572  1
  S2-  S135  1  -0.02429700  0.85438974  0.65803435  1
  S2-  S136  1  0.29604677  0.11470408  0.15384228  1
  S2-  S137  1  0.22115807  0.08160229  0.69820785  1
  S2-  S138  1  0.35388497  0.39493737  0.14315842  1
  S2-  S139  1  0.23241600  0.29045617  0.65224922  1
  S2-  S140  1  0.25202883  0.62121958  0.15292841  1
  S2-  S141  1  0.36402714  0.63649192  0.63824314  1
  S2-  S142  1  0.15031541  0.88537575  0.14495085  1
  S2-  S143  1  0.20877739  0.85773580  0.65442884  1
  S2-  S144  1  0.50726442  0.23912190  0.14407536  1
  S2-  S145  1  0.40841236  0.12654072  0.65153998  1
  S2-  S146  1  0.54205021  0.43487300  0.22611920  1
  S2-  S147  1  0.47386108  0.39968227  0.65036164  1
  S2-  S148  1  0.50773781  0.59133048  0.14232902  1
  S2-  S149  1  0.58879654  0.62545043  0.65412734  1
  S2-  S150  1  0.38990976  0.87092571  0.13856871  1
  S2-  S151  1  0.47689739  0.85856407  0.65875198  1
  S2-  S152  1  0.74305875  0.11299375  0.15766072  1
  S2-  S153  1  0.76213973  0.00721324  0.64422709  1
  S2-  S154  1  0.69789643  0.37243634  0.14918208  1
  S2-  S155  1  0.74721926  0.47018950  0.65151496  1
  S2-  S156  1  0.78545888  0.58320402  0.16249788  1
  S2-  S157  1  0.90266140  0.61739227  0.65065161  1
  S2-  S158  1  0.69548336  0.76654374  0.13666716  1
  S2-  S159  1  0.74020899  0.77934661  0.65504517  1
  S2-  S160  1  0.10963610  -0.13013189  0.34252861  1
  S2-  S161  1  0.07675473  -0.10937673  0.85821512  1
  S2-  S162  1  0.11033084  0.16475048  0.35457864  1
  S2-  S163  1  0.24773876  0.26294909  0.85130582  1
  S2-  S164  1  0.24683488  0.45176374  0.35983553  1
  S2-  S165  1  0.09334946  0.45139832  0.81638518  1
  S2-  S166  1  0.10053761  0.60932894  0.35465718  1
  S2-  S167  1  0.10840222  0.65561407  0.84649422  1
  S2-  S168  1  0.28343407  0.01687081  0.35151700  1
  S2-  S169  1  0.25541223  0.00368971  0.85434864  1
  S2-  S170  1  0.38469331  0.23296161  0.34779583  1
  S2-  S171  1  0.41691039  0.14023448  0.85494191  1
  S2-  S172  1  0.46692495  0.51457639  0.34737932  1
  S2-  S173  1  0.30526846  0.50841367  0.84920050  1
  S2-  S174  1  0.28956046  0.73773828  0.35550130  1
  S2-  S175  1  0.29205946  0.77487503  0.85709620  1
  S2-  S176  1  0.51270730  0.01089200  0.36460915  1
  S2-  S177  1  0.64914547  -0.08734378  0.85723074  1
  S2-  S178  1  0.61756569  0.35915433  0.34523926  1
  S2-  S179  1  0.75105055  0.26250030  0.85874633  1
  S2-  S180  1  0.60865043  0.66726959  0.35219270  1
  S2-  S181  1  0.64571716  0.48455894  0.84682389  1
  S2-  S182  1  0.73893872  0.82054142  0.36804080  1
  S2-  S183  1  0.58132269  0.69384051  0.82957878  1
  S2-  S184  1  0.92766424  0.00508317  0.35237106  1
  S2-  S185  1  0.87454585  0.04149849  0.84972868  1
  S2-  S186  1  0.78299652  0.22103110  0.36421226  1
  S2-  S187  1  1.01077166  0.24558338  0.85485503  1
  S2-  S188  1  0.78418781  0.52242534  0.34584117  1
  S2-  S189  1  0.86527728  0.50245375  0.84198682  1
  S2-  S190  1  0.92545862  0.73253695  0.34401908  1
  S2-  S191  1  0.80468940  0.74868420  0.85906129  1
  S2-  S192  1  -0.00253381  0.12793887  0.45675528  1
  S2-  S193  1  0.01263194  0.12906205  0.95260815  1
  S2-  S194  1  -0.00061129  0.37521641  0.44641733  1
  S2-  S195  1  0.01243455  0.38899065  0.94953079  1
  S2-  S196  1  -0.00202837  0.63054746  0.45803298  1
  S2-  S197  1  0.01053507  0.63863429  0.95072035  1
  S2-  S198  1  0.00396570  0.88443535  0.45379248  1
  S2-  S199  1  0.00896135  0.88092693  0.96798532  1
  S2-  S200  1  0.24906748  0.12603585  0.45694406  1
  S2-  S201  1  0.25682115  0.13184010  0.95275086  1
  S2-  S202  1  0.24910373  0.37250093  0.46392587  1
  S2-  S203  1  0.25962207  0.38654702  0.95204138  1
  S2-  S204  1  0.25148383  0.62683184  0.45830936  1
  S2-  S205  1  0.26613295  0.63382541  0.94979123  1
  S2-  S206  1  0.25094891  0.88369118  0.45196564  1
  S2-  S207  1  0.26718173  0.88727568  0.96209221  1
  S2-  S208  1  0.50802940  0.13238831  0.46072332  1
  S2-  S209  1  0.51443234  0.13602895  0.95610485  1
  S2-  S210  1  0.50453746  0.37766590  0.45108742  1
  S2-  S211  1  0.50924312  0.38119075  0.93922349  1
  S2-  S212  1  0.50050352  0.62991346  0.45753903  1
  S2-  S213  1  0.50888904  0.63262640  0.94463105  1
  S2-  S214  1  0.50331758  0.87489650  0.45483688  1
  S2-  S215  1  0.50678108  0.88767510  0.95370605  1
  S2-  S216  1  0.75141017  0.12325654  0.46569841  1
  S2-  S217  1  0.76267299  0.13063617  0.95533955  1
  S2-  S218  1  0.75147339  0.38032396  0.45568140  1
  S2-  S219  1  0.76179359  0.38815423  0.95570565  1
  S2-  S220  1  0.74895748  0.62886127  0.45272669  1
  S2-  S221  1  0.75795384  0.63324158  0.96023422  1
  S2-  S222  1  0.74912624  0.88765128  0.47182087  1
  S2-  S223  1  0.76324932  0.88583674  0.96285162  1
  S2-  S224  1  0.13565982  0.00928911  0.04353466  1
  S2-  S225  1  0.13090875  0.01206407  0.56048890  1
  S2-  S226  1  0.13531878  0.25740140  0.03482239  1
  S2-  S227  1  0.12602896  0.25423410  0.54738776  1
  S2-  S228  1  0.13503117  0.51365746  0.03312316  1
  S2-  S229  1  0.12465409  0.50024173  0.53991904  1
  S2-  S230  1  0.14078006  0.75903373  0.04092288  1
  S2-  S231  1  0.12803061  0.75545011  0.53643874  1
  S2-  S232  1  0.38781745  0.01464776  0.04081489  1
  S2-  S233  1  0.37457011  0.00855066  0.54713218  1
  S2-  S234  1  0.37901621  0.25675038  0.03259819  1
  S2-  S235  1  0.37636091  0.25727391  0.55187350  1
  S2-  S236  1  0.38787226  0.50842612  0.03835766  1
  S2-  S237  1  0.37536581  0.50038130  0.54079491  1
  S2-  S238  1  0.38489947  0.75619657  0.03991974  1
  S2-  S239  1  0.37395682  0.75876059  0.54269547  1
  S2-  S240  1  0.63376294  0.01357017  0.04504733  1
  S2-  S241  1  0.62424656  0.00606018  0.54636706  1
  S2-  S242  1  0.63831282  0.26052686  0.04043481  1
  S2-  S243  1  0.62727364  0.25545987  0.54024048  1
  S2-  S244  1  0.63140729  0.50782476  0.04737494  1
  S2-  S245  1  0.62366636  0.50672206  0.54897981  1
  S2-  S246  1  0.62614857  0.76147174  0.02966191  1
  S2-  S247  1  0.62589702  0.75451117  0.54775216  1
  S2-  S248  1  0.88613036  0.01354664  0.04975608  1
  S2-  S249  1  0.88062342  0.00484472  0.54890772  1
  S2-  S250  1  0.89094910  0.26204658  0.04436895  1
  S2-  S251  1  0.87515886  0.25531677  0.54888779  1
  S2-  S252  1  0.89045566  0.51211724  0.04895023  1
  S2-  S253  1  0.87778045  0.50298542  0.54137617  1
  S2-  S254  1  0.88073706  0.75733846  0.04451028  1
  S2-  S255  1  0.87480992  0.75619766  0.54833528  1
