# generated using pymatgen
data_La6Ce7Pr13Nd19Sm19(BiS2)64
_symmetry_space_group_name_H-M   'P 1'
_cell_length_a   16.09140970
_cell_length_b   16.14434923
_cell_length_c   27.44955572
_cell_angle_alpha   90.07234360
_cell_angle_beta   90.07747418
_cell_angle_gamma   90.02338445
_symmetry_Int_Tables_number   1
_chemical_formula_structural   La6Ce7Pr13Nd19Sm19(BiS2)64
_chemical_formula_sum   'La6 Ce7 Pr13 Nd19 Sm19 Bi64 S128'
_cell_volume   7130.97930430
_cell_formula_units_Z   1
loop_
 _symmetry_equiv_pos_site_id
 _symmetry_equiv_pos_as_xyz
  1  'x, y, z'
loop_
 _atom_type_symbol
 _atom_type_oxidation_number
  La3+  3.0
  Ce3+  3.0
  Pr3+  3.0
  Nd3+  3.0
  Sm3+  3.0
  Bi2+  2.0
  S2-  -2.0
loop_
 _atom_site_type_symbol
 _atom_site_label
 _atom_site_symmetry_multiplicity
 _atom_site_fract_x
 _atom_site_fract_y
 _atom_site_fract_z
 _atom_site_occupancy
  La3+  La0  1  0.36509093  0.23628855  0.40115083  1
  La3+  La1  1  0.11380418  0.49650276  0.43591973  1
  La3+  La2  1  0.35575598  0.74962195  0.41984011  1
  La3+  La3  1  0.63080359  0.48612060  0.89879401  1
  La3+  La4  1  0.50171384  0.61443072  0.61253801  1
  La3+  La5  1  0.84994841  0.00133406  0.43316876  1
  Ce3+  Ce6  1  0.85632260  0.24860070  0.44617747  1
  Ce3+  Ce7  1  0.23615292  0.87233709  0.55070555  1
  Ce3+  Ce8  1  0.73417407  0.87097376  0.56458144  1
  Ce3+  Ce9  1  0.37773131  0.00298990  0.94844661  1
  Ce3+  Ce10  1  0.50842666  0.87658839  0.05583560  1
  Ce3+  Ce11  1  0.62898187  0.25204848  0.94238424  1
  Ce3+  Ce12  1  0.62884299  0.74965885  0.93477886  1
  Pr3+  Pr13  1  -0.02076573  0.12388843  0.56997580  1
  Pr3+  Pr14  1  0.86032415  0.49784310  0.44396353  1
  Pr3+  Pr15  1  0.10305995  0.75290529  0.43202197  1
  Pr3+  Pr16  1  0.75163894  0.38445532  0.07069699  1
  Pr3+  Pr17  1  0.24125327  0.37448118  0.55653097  1
  Pr3+  Pr18  1  0.63308678  0.00208229  0.93581997  1
  Pr3+  Pr19  1  0.72774031  0.12710356  0.57561545  1
  Pr3+  Pr20  1  0.37856189  0.50026187  0.93801133  1
  Pr3+  Pr21  1  0.60868541  0.50105006  0.43514864  1
  Pr3+  Pr22  1  0.25504738  0.12620628  0.06793217  1
  Pr3+  Pr23  1  0.50562071  0.62952549  0.05985313  1
  Pr3+  Pr24  1  0.88083470  0.49968448  0.93376130  1
  Pr3+  Pr25  1  0.50308396  0.38285184  0.06752825  1
  Nd3+  Nd26  1  0.00267246  0.87660012  0.05582403  1
  Nd3+  Nd27  1  0.23938140  0.36788283  0.11596289  1
  Nd3+  Nd28  1  0.25328039  0.87430005  0.07030446  1
  Nd3+  Nd29  1  0.10873674  0.00567674  0.44095944  1
  Nd3+  Nd30  1  0.87883509  0.25433796  0.94585954  1
  Nd3+  Nd31  1  0.13144242  0.75229182  0.93848848  1
  Nd3+  Nd32  1  0.36381270  0.49871052  0.43556080  1
  Nd3+  Nd33  1  0.36175234  0.00234009  0.44178953  1
  Nd3+  Nd34  1  0.75797605  0.12780566  0.05723892  1
  Nd3+  Nd35  1  -0.01385887  0.87307082  0.55923831  1
  Nd3+  Nd36  1  0.25340218  0.62489708  0.06643839  1
  Nd3+  Nd37  1  0.50651580  0.12859908  0.06244298  1
  Nd3+  Nd38  1  0.23645619  0.12460718  0.57087767  1
  Nd3+  Nd39  1  0.61632164  0.24619838  0.43605659  1
  Nd3+  Nd40  1  0.11368141  0.24540726  0.44291841  1
  Nd3+  Nd41  1  0.13547872  0.49960674  0.93245481  1
  Nd3+  Nd42  1  0.75509467  0.62401352  0.05259501  1
  Nd3+  Nd43  1  -0.01341226  0.37608559  0.55850438  1
  Nd3+  Nd44  1  0.87890764  0.74958909  0.93433073  1
  Sm3+  Sm45  1  0.73474588  0.62468606  0.55603844  1
  Sm3+  Sm46  1  0.37800042  0.25354692  0.94981760  1
  Sm3+  Sm47  1  0.00954329  0.37993968  0.05436789  1
  Sm3+  Sm48  1  0.88879987  0.00623753  0.92676153  1
  Sm3+  Sm49  1  -0.01152904  0.62378466  0.55583588  1
  Sm3+  Sm50  1  0.12795833  0.00247727  0.94275163  1
  Sm3+  Sm51  1  0.00704866  0.62565254  0.04875004  1
  Sm3+  Sm52  1  0.60800930  0.74695175  0.44576379  1
  Sm3+  Sm53  1  0.13293899  0.25223889  0.94631008  1
  Sm3+  Sm54  1  0.60999914  -0.00112070  0.45240288  1
  Sm3+  Sm55  1  0.24449882  0.62664281  0.55422117  1
  Sm3+  Sm56  1  0.73059276  0.38069466  0.56207473  1
  Sm3+  Sm57  1  0.00604914  0.12851090  0.06043580  1
  Sm3+  Sm58  1  0.75820138  0.87805488  0.04773735  1
  Sm3+  Sm59  1  0.48122623  0.86404638  0.55780605  1
  Sm3+  Sm60  1  0.48167149  0.12581591  0.56819200  1
  Sm3+  Sm61  1  0.86297958  0.74970740  0.44114437  1
  Sm3+  Sm62  1  0.48488742  0.37774224  0.55010125  1
  Sm3+  Sm63  1  0.37811054  0.75267410  0.94228016  1
  Bi2+  Bi64  1  -0.03880998  0.17432883  0.29599259  1
  Bi2+  Bi65  1  0.00041532  0.15326098  0.79576047  1
  Bi2+  Bi66  1  -0.02670735  0.36909092  0.29298807  1
  Bi2+  Bi67  1  0.00782399  0.43897119  0.81070256  1
  Bi2+  Bi68  1  -0.01866886  0.66737171  0.27642006  1
  Bi2+  Bi69  1  0.04994863  0.63087792  0.81757999  1
  Bi2+  Bi70  1  -0.09497414  0.87331031  0.28518125  1
  Bi2+  Bi71  1  0.09233561  0.91885918  0.78383936  1
  Bi2+  Bi72  1  0.23015373  0.10248327  0.28939783  1
  Bi2+  Bi73  1  0.28211355  0.13253546  0.80856794  1
  Bi2+  Bi74  1  0.21791273  0.39111906  0.31592186  1
  Bi2+  Bi75  1  0.21367093  0.37469117  0.79925455  1
  Bi2+  Bi76  1  0.25220292  0.63134814  0.29389299  1
  Bi2+  Bi77  1  0.25228358  0.64900256  0.79631080  1
  Bi2+  Bi78  1  0.19873676  0.87579972  0.27782128  1
  Bi2+  Bi79  1  0.30565155  0.91159153  0.76983930  1
  Bi2+  Bi80  1  0.54194967  0.08828431  0.28068248  1
  Bi2+  Bi81  1  0.47965688  0.11801369  0.78978579  1
  Bi2+  Bi82  1  0.55241915  0.35001079  0.28661996  1
  Bi2+  Bi83  1  0.48629140  0.35090680  0.79497313  1
  Bi2+  Bi84  1  0.53182459  0.64251600  0.28474230  1
  Bi2+  Bi85  1  0.51266304  0.65297995  0.81130373  1
  Bi2+  Bi86  1  0.43009014  0.92928722  0.28397036  1
  Bi2+  Bi87  1  0.56086904  0.85289432  0.73436874  1
  Bi2+  Bi88  1  0.77414933  0.10753453  0.30302456  1
  Bi2+  Bi89  1  0.73357097  0.11865157  0.79441918  1
  Bi2+  Bi90  1  0.75021422  0.36796614  0.29377657  1
  Bi2+  Bi91  1  0.81634561  0.35204293  0.78059142  1
  Bi2+  Bi92  1  0.79143967  0.60458459  0.27773050  1
  Bi2+  Bi93  1  0.84985586  0.62084486  0.79756892  1
  Bi2+  Bi94  1  0.70951580  0.86229242  0.29746527  1
  Bi2+  Bi95  1  0.82094390  0.88597550  0.76030963  1
  Bi2+  Bi96  1  0.10411097  0.00110205  0.20648721  1
  Bi2+  Bi97  1  0.19093225  0.04966250  0.71926403  1
  Bi2+  Bi98  1  0.07915244  0.23770270  0.21198646  1
  Bi2+  Bi99  1  0.10888059  0.24969827  0.71366647  1
  Bi2+  Bi100  1  0.07764285  0.51648265  0.21011586  1
  Bi2+  Bi101  1  0.14215671  0.52077778  0.73661919  1
  Bi2+  Bi102  1  0.10618275  0.75803076  0.20290703  1
  Bi2+  Bi103  1  0.13564606  0.78639177  0.69967932  1
  Bi2+  Bi104  1  0.29626829  -0.02406017  0.18934338  1
  Bi2+  Bi105  1  0.45081075  0.00086874  0.69772211  1
  Bi2+  Bi106  1  0.36624201  0.24402773  0.21879384  1
  Bi2+  Bi107  1  0.31233880  0.24665596  0.71445485  1
  Bi2+  Bi108  1  0.37530174  0.49768787  0.21151630  1
  Bi2+  Bi109  1  0.37016470  0.48946084  0.70756046  1
  Bi2+  Bi110  1  0.37061757  0.79266211  0.20903257  1
  Bi2+  Bi111  1  0.33760917  0.75663492  0.70305822  1
  Bi2+  Bi112  1  0.58934026  -0.06234566  0.21355238  1
  Bi2+  Bi113  1  0.64992359  0.01886768  0.70506574  1
  Bi2+  Bi114  1  0.61489571  0.21727257  0.20582615  1
  Bi2+  Bi115  1  0.60717968  0.23230215  0.73407703  1
  Bi2+  Bi116  1  0.63560187  0.49797964  0.19961173  1
  Bi2+  Bi117  1  0.63341794  0.47665265  0.70910446  1
  Bi2+  Bi118  1  0.66065187  0.71564542  0.21432102  1
  Bi2+  Bi119  1  0.71241570  0.72753794  0.72659544  1
  Bi2+  Bi120  1  0.79570876  -0.01036048  0.21309220  1
  Bi2+  Bi121  1  0.94140572  0.01718592  0.71656409  1
  Bi2+  Bi122  1  0.84021643  0.26491723  0.21207204  1
  Bi2+  Bi123  1  0.90510303  0.24277390  0.70631091  1
  Bi2+  Bi124  1  0.88257919  0.45720134  0.20308243  1
  Bi2+  Bi125  1  0.90787087  0.47751796  0.70986132  1
  Bi2+  Bi126  1  0.85174563  0.73416209  0.19694956  1
  Bi2+  Bi127  1  0.95065049  0.72964387  0.71663418  1
  S2-  S128  1  0.00276894  0.12304049  0.15772392  1
  S2-  S129  1  0.10627076  0.12033916  0.64169485  1
  S2-  S130  1  0.06934817  0.37774303  0.14598234  1
  S2-  S131  1  0.00980610  0.36514556  0.65547384  1
  S2-  S132  1  0.02612709  0.62372520  0.14592006  1
  S2-  S133  1  -0.01723638  0.60553823  0.65230409  1
  S2-  S134  1  0.02144066  0.87755492  0.15394006  1
  S2-  S135  1  -0.00336661  0.87869433  0.65781531  1
  S2-  S136  1  0.23632107  0.20451548  0.15650966  1
  S2-  S137  1  0.36171840  0.12652465  0.64254010  1
  S2-  S138  1  0.24828331  0.37507404  0.22385922  1
  S2-  S139  1  0.26040134  0.37545769  0.65557434  1
  S2-  S140  1  0.24741551  0.53305100  0.15121006  1
  S2-  S141  1  0.32438840  0.61658799  0.64130923  1
  S2-  S142  1  0.25114543  0.75078119  0.14127559  1
  S2-  S143  1  0.25214974  0.87998109  0.64650235  1
  S2-  S144  1  0.48018311  0.14477938  0.16013012  1
  S2-  S145  1  0.59638579  0.15701006  0.64262746  1
  S2-  S146  1  0.40629965  0.37020636  0.15322405  1
  S2-  S147  1  0.49751529  0.43669743  0.64310045  1
  S2-  S148  1  0.49799066  0.57640365  0.15669778  1
  S2-  S149  1  0.48943011  0.59530165  0.71821373  1
  S2-  S150  1  0.50997215  0.82274340  0.14725894  1
  S2-  S151  1  0.48520965  0.78574415  0.64591717  1
  S2-  S152  1  0.74742741  0.13469060  0.15515458  1
  S2-  S153  1  0.85444897  0.11378577  0.64569467  1
  S2-  S154  1  0.62678516  0.36535857  0.14446976  1
  S2-  S155  1  0.72912719  0.37892119  0.66006585  1
  S2-  S156  1  0.77017629  0.52742185  0.13615285  1
  S2-  S157  1  0.67578751  0.61062331  0.64760805  1
  S2-  S158  1  0.77631917  0.86382599  0.14362051  1
  S2-  S159  1  0.75937540  0.83738268  0.65849600  1
  S2-  S160  1  0.14332377  -0.00195638  0.34356390  1
  S2-  S161  1  0.02902354  0.01494099  0.86290139  1
  S2-  S162  1  0.19315129  0.23411835  0.35508696  1
  S2-  S163  1  0.12053758  0.24871206  0.84869027  1
  S2-  S164  1  0.12079371  0.53558393  0.33837740  1
  S2-  S165  1  0.25566314  0.50653791  0.85994244  1
  S2-  S166  1  0.21071893  0.75237301  0.35400054  1
  S2-  S167  1  0.13676492  0.78069946  0.84140379  1
  S2-  S168  1  0.35748625  0.07868437  0.35321275  1
  S2-  S169  1  0.36126749  -0.00858544  0.85246003  1
  S2-  S170  1  0.37804612  0.31737628  0.31051722  1
  S2-  S171  1  0.36778705  0.27303770  0.85206089  1
  S2-  S172  1  0.33969692  0.51550243  0.33688997  1
  S2-  S173  1  0.47201173  0.49419392  0.85150557  1
  S2-  S174  1  0.40304626  0.71802353  0.32023180  1
  S2-  S175  1  0.36393638  0.74165543  0.84510061  1
  S2-  S176  1  0.69905428  0.00130565  0.36884436  1
  S2-  S177  1  0.60126973  0.03901123  0.84019668  1
  S2-  S178  1  0.53228129  0.21049579  0.35202649  1
  S2-  S179  1  0.62093965  0.32282481  0.85419696  1
  S2-  S180  1  0.58661170  0.49411137  0.33548919  1
  S2-  S181  1  0.64390426  0.56404907  0.80290472  1
  S2-  S182  1  0.62606600  0.74145136  0.34875228  1
  S2-  S183  1  0.61456142  0.78221124  0.83986289  1
  S2-  S184  1  0.92809559  0.01727970  0.34332989  1
  S2-  S185  1  0.80655691  -0.00788498  0.84089504  1
  S2-  S186  1  0.75325509  0.24293100  0.36720273  1
  S2-  S187  1  0.86053335  0.22255126  0.84889200  1
  S2-  S188  1  0.86221684  0.48416281  0.34502863  1
  S2-  S189  1  0.79344157  0.46979138  0.85058249  1
  S2-  S190  1  0.96651326  0.76171104  0.36182009  1
  S2-  S191  1  0.87970243  0.77553177  0.83697393  1
  S2-  S192  1  -0.01699851  0.12718882  0.45949659  1
  S2-  S193  1  0.00521487  0.13121509  0.95819068  1
  S2-  S194  1  -0.01321605  0.37117571  0.45213654  1
  S2-  S195  1  0.00809369  0.37532701  0.95063981  1
  S2-  S196  1  -0.01477342  0.62143843  0.45264591  1
  S2-  S197  1  0.00640914  0.62562799  0.94593143  1
  S2-  S198  1  -0.01721927  0.88124194  0.45565284  1
  S2-  S199  1  0.00335097  0.87559546  0.95123486  1
  S2-  S200  1  0.23817140  0.12358003  0.46331565  1
  S2-  S201  1  0.25181688  0.12641019  0.95929521  1
  S2-  S202  1  0.24178249  0.37059967  0.45013605  1
  S2-  S203  1  0.25309232  0.37185801  0.95514308  1
  S2-  S204  1  0.23574724  0.62246456  0.45183843  1
  S2-  S205  1  0.25411561  0.63224233  0.95838873  1
  S2-  S206  1  0.23386630  0.88064719  0.44766042  1
  S2-  S207  1  0.25134724  0.87833056  0.95865902  1
  S2-  S208  1  0.48862954  0.12098737  0.46272345  1
  S2-  S209  1  0.50319048  0.12744286  0.95552206  1
  S2-  S210  1  0.48495275  0.37078190  0.44560458  1
  S2-  S211  1  0.50368199  0.37303231  0.95946991  1
  S2-  S212  1  0.48502572  0.62641304  0.44008690  1
  S2-  S213  1  0.50319473  0.63171738  0.95195557  1
  S2-  S214  1  0.48747765  0.87438436  0.44948367  1
  S2-  S215  1  0.50380661  0.87773085  0.94987896  1
  S2-  S216  1  0.73232093  0.12329502  0.47053504  1
  S2-  S217  1  0.75865027  0.12516026  0.95215896  1
  S2-  S218  1  0.73361919  0.37885935  0.45788868  1
  S2-  S219  1  0.75388369  0.37600918  0.96078498  1
  S2-  S220  1  0.73806029  0.62690633  0.45073022  1
  S2-  S221  1  0.75280143  0.62433968  0.94659404  1
  S2-  S222  1  0.73496917  0.86625123  0.45940286  1
  S2-  S223  1  0.75855886  0.87752110  0.94533974  1
  S2-  S224  1  0.12825584  0.00165286  0.04766729  1
  S2-  S225  1  0.10960189  -0.00250979  0.54601511  1
  S2-  S226  1  0.12885352  0.25167887  0.04938376  1
  S2-  S227  1  0.11132573  0.25227945  0.54728729  1
  S2-  S228  1  0.12769454  0.50369447  0.03869898  1
  S2-  S229  1  0.11471642  0.50209274  0.54592952  1
  S2-  S230  1  0.12608615  0.75289953  0.04293994  1
  S2-  S231  1  0.11115557  0.74543845  0.54284161  1
  S2-  S232  1  0.38055241  -0.00010487  0.05388360  1
  S2-  S233  1  0.36469758  -0.00578167  0.54602365  1
  S2-  S234  1  0.37895353  0.24943150  0.05163553  1
  S2-  S235  1  0.36639877  0.25275439  0.54758607  1
  S2-  S236  1  0.38054247  0.50796777  0.04436157  1
  S2-  S237  1  0.36405116  0.50122296  0.53956049  1
  S2-  S238  1  0.37980113  0.75554371  0.04516587  1
  S2-  S239  1  0.35842614  0.75094522  0.53261155  1
  S2-  S240  1  0.63359568  0.00244500  0.04578930  1
  S2-  S241  1  0.60469203  -0.00872411  0.55507976  1
  S2-  S242  1  0.63168980  0.24915266  0.04641828  1
  S2-  S243  1  0.60960381  0.25926823  0.54287517  1
  S2-  S244  1  0.62820596  0.50624238  0.04214282  1
  S2-  S245  1  0.60945885  0.50432983  0.54115268  1
  S2-  S246  1  0.63605594  0.75323849  0.04228779  1
  S2-  S247  1  0.60955902  0.74418965  0.54826310  1
  S2-  S248  1  0.88239756  0.00387782  0.04164405  1
  S2-  S249  1  0.85813660  -0.00680681  0.54592163  1
  S2-  S250  1  0.88308209  0.25572307  0.05245375  1
  S2-  S251  1  0.85591623  0.25775704  0.55102102  1
  S2-  S252  1  0.88660168  0.50115195  0.03932150  1
  S2-  S253  1  0.86006654  0.50142100  0.55027005  1
  S2-  S254  1  0.88071860  0.74965470  0.04060241  1
  S2-  S255  1  0.86302611  0.74470854  0.54607896  1
