# generated using pymatgen
data_La6Ce7Pr13Nd19Sm19(BiS2)64
_symmetry_space_group_name_H-M   'P 1'
_cell_length_a   16.14931732
_cell_length_b   16.12112208
_cell_length_c   27.15377838
_cell_angle_alpha   89.98276431
_cell_angle_beta   89.98441776
_cell_angle_gamma   90.06529294
_symmetry_Int_Tables_number   1
_chemical_formula_structural   La6Ce7Pr13Nd19Sm19(BiS2)64
_chemical_formula_sum   'La6 Ce7 Pr13 Nd19 Sm19 Bi64 S128'
_cell_volume   7069.34841063
_cell_formula_units_Z   1
loop_
 _symmetry_equiv_pos_site_id
 _symmetry_equiv_pos_as_xyz
  1  'x, y, z'
loop_
 _atom_type_symbol
 _atom_type_oxidation_number
  La3+  3.0
  Ce3+  3.0
  Pr3+  3.0
  Nd3+  3.0
  Sm3+  3.0
  Bi2+  2.0
  S2-  -2.0
loop_
 _atom_site_type_symbol
 _atom_site_label
 _atom_site_symmetry_multiplicity
 _atom_site_fract_x
 _atom_site_fract_y
 _atom_site_fract_z
 _atom_site_occupancy
  La3+  La0  1  0.38105155  0.49600307  0.39823702  1
  La3+  La1  1  -0.00415151  0.87971007  0.09785207  1
  La3+  La2  1  0.74327519  0.86899053  0.56919194  1
  La3+  La3  1  0.14138976  0.73820573  0.90416854  1
  La3+  La4  1  -0.00824204  0.88204992  0.61330426  1
  La3+  La5  1  -0.00223040  0.61683744  0.09545184  1
  Ce3+  Ce6  1  0.49152028  0.12189935  0.55598957  1
  Ce3+  Ce7  1  0.25378645  0.36679327  0.06119177  1
  Ce3+  Ce8  1  0.13082140  -0.01376800  0.94233310  1
  Ce3+  Ce9  1  0.50574811  0.61197012  0.07777657  1
  Ce3+  Ce10  1  0.49356887  0.62064659  0.55261764  1
  Ce3+  Ce11  1  0.25340918  0.86677588  0.06609953  1
  Ce3+  Ce12  1  0.75671331  0.86886630  0.05721908  1
  Pr3+  Pr13  1  0.13117204  0.48940623  0.94155873  1
  Pr3+  Pr14  1  0.61845503  0.74776638  0.43081868  1
  Pr3+  Pr15  1  0.36830670  0.24640364  0.43290004  1
  Pr3+  Pr16  1  0.25604629  0.62182026  0.07482690  1
  Pr3+  Pr17  1  0.24642291  0.37347744  0.55993162  1
  Pr3+  Pr18  1  0.75673836  0.62070664  0.06018386  1
  Pr3+  Pr19  1  0.75722639  0.36626639  0.06136192  1
  Pr3+  Pr20  1  0.38061949  0.49657752  0.94598014  1
  Pr3+  Pr21  1  0.49557171  0.87433398  0.56671666  1
  Pr3+  Pr22  1  0.00670740  0.36612469  0.07091721  1
  Pr3+  Pr23  1  0.87089858  -0.00429292  0.43899053  1
  Pr3+  Pr24  1  0.86476552  0.74814694  0.43330940  1
  Pr3+  Pr25  1  0.23743635  0.86708948  0.56322982  1
  Nd3+  Nd26  1  0.11849540  0.49414878  0.43067450  1
  Nd3+  Nd27  1  0.74503787  0.62358758  0.55797583  1
  Nd3+  Nd28  1  -0.00243576  0.37508115  0.57061876  1
  Nd3+  Nd29  1  0.88049485  0.24366346  0.94070718  1
  Nd3+  Nd30  1  0.88617302  0.49545328  0.94062217  1
  Nd3+  Nd31  1  0.00572196  0.11611345  0.05139906  1
  Nd3+  Nd32  1  0.50735909  0.11692015  0.06956562  1
  Nd3+  Nd33  1  0.62949891  0.49345571  0.94450887  1
  Nd3+  Nd34  1  0.63012754  0.24194341  0.93940783  1
  Nd3+  Nd35  1  0.50280867  0.36467331  0.07145279  1
  Nd3+  Nd36  1  0.36794600  0.74929091  0.43921105  1
  Nd3+  Nd37  1  0.74797639  0.12113048  0.56482454  1
  Nd3+  Nd38  1  0.62046254  0.24607163  0.44674899  1
  Nd3+  Nd39  1  0.61962301  -0.00289611  0.44147754  1
  Nd3+  Nd40  1  0.11764574  -0.00636360  0.43809317  1
  Nd3+  Nd41  1  0.87212494  0.24842029  0.44669476  1
  Nd3+  Nd42  1  0.11546570  0.74379546  0.43026960  1
  Nd3+  Nd43  1  0.88022215  -0.01164406  0.92871316  1
  Nd3+  Nd44  1  0.88504943  0.73887100  0.93639635  1
  Sm3+  Sm45  1  0.49350273  0.37335014  0.55643049  1
  Sm3+  Sm46  1  0.12033805  0.24956790  0.44594938  1
  Sm3+  Sm47  1  0.24386339  0.12053230  0.55516630  1
  Sm3+  Sm48  1  0.37942889  0.74195821  0.94276565  1
  Sm3+  Sm49  1  0.24564841  0.61922411  0.55112657  1
  Sm3+  Sm50  1  0.38299484  0.24183839  0.94410515  1
  Sm3+  Sm51  1  0.37953756  -0.00890137  0.94169658  1
  Sm3+  Sm52  1  0.13161089  0.24438334  0.93772556  1
  Sm3+  Sm53  1  -0.00404489  0.62341091  0.56235799  1
  Sm3+  Sm54  1  0.62916985  -0.00754578  0.93387185  1
  Sm3+  Sm55  1  0.50553184  0.86842194  0.05074540  1
  Sm3+  Sm56  1  0.61881167  0.49476805  0.44091151  1
  Sm3+  Sm57  1  0.36736448  -0.00440460  0.43809194  1
  Sm3+  Sm58  1  -0.00374024  0.11890647  0.55849939  1
  Sm3+  Sm59  1  0.25442123  0.11561423  0.05160862  1
  Sm3+  Sm60  1  0.63085701  0.74259281  0.94480287  1
  Sm3+  Sm61  1  0.75703225  0.11398963  0.04964773  1
  Sm3+  Sm62  1  0.74599441  0.37229366  0.55510392  1
  Sm3+  Sm63  1  0.87162964  0.49704891  0.44337004  1
  Bi2+  Bi64  1  0.00725136  0.16486278  0.28847522  1
  Bi2+  Bi65  1  0.02673265  0.15471829  0.77714325  1
  Bi2+  Bi66  1  -0.03519752  0.36291019  0.29181928  1
  Bi2+  Bi67  1  -0.01518120  0.35061086  0.80074245  1
  Bi2+  Bi68  1  0.01090291  0.61551317  0.29981604  1
  Bi2+  Bi69  1  0.00079816  0.56965906  0.79121412  1
  Bi2+  Bi70  1  0.01965596  0.89427775  0.30752042  1
  Bi2+  Bi71  1  -0.01212425  0.88793008  0.82028816  1
  Bi2+  Bi72  1  0.33456846  0.11338371  0.32265346  1
  Bi2+  Bi73  1  0.22387095  0.14617508  0.79108158  1
  Bi2+  Bi74  1  0.22863495  0.26520136  0.28581678  1
  Bi2+  Bi75  1  0.22483398  0.34803548  0.77994531  1
  Bi2+  Bi76  1  0.24876664  0.64682667  0.28860502  1
  Bi2+  Bi77  1  0.26516346  0.61092055  0.78634268  1
  Bi2+  Bi78  1  0.26203001  0.96083488  0.26247150  1
  Bi2+  Bi79  1  0.27945073  0.87923115  0.78746624  1
  Bi2+  Bi80  1  0.52230556  0.12920289  0.29122016  1
  Bi2+  Bi81  1  0.41896211  0.15188872  0.75716618  1
  Bi2+  Bi82  1  0.49519275  0.33624811  0.28306323  1
  Bi2+  Bi83  1  0.43993970  0.37487716  0.78452526  1
  Bi2+  Bi84  1  0.53987908  0.70051981  0.30783365  1
  Bi2+  Bi85  1  0.48626787  0.59978144  0.79293818  1
  Bi2+  Bi86  1  0.51958536  0.89979998  0.29524251  1
  Bi2+  Bi87  1  0.47965752  0.86551066  0.77593816  1
  Bi2+  Bi88  1  0.74875164  0.11181696  0.29745068  1
  Bi2+  Bi89  1  0.71434717  0.16409862  0.78929445  1
  Bi2+  Bi90  1  0.74780361  0.31887063  0.28460137  1
  Bi2+  Bi91  1  0.74086579  0.38438585  0.79949955  1
  Bi2+  Bi92  1  0.73317587  0.62809786  0.29351128  1
  Bi2+  Bi93  1  0.68746230  0.61027518  0.78336216  1
  Bi2+  Bi94  1  0.69690625  0.82973325  0.25916249  1
  Bi2+  Bi95  1  0.72530971  0.88649321  0.80987596  1
  Bi2+  Bi96  1  0.13183656  0.08757456  0.21170554  1
  Bi2+  Bi97  1  0.12944153  0.02559227  0.71733635  1
  Bi2+  Bi98  1  0.08589661  0.27515211  0.18627962  1
  Bi2+  Bi99  1  0.07803573  0.28727354  0.68726447  1
  Bi2+  Bi100  1  0.12872872  0.45934801  0.22053296  1
  Bi2+  Bi101  1  0.13951830  0.47677498  0.70785636  1
  Bi2+  Bi102  1  0.15633333  0.75969651  0.20476717  1
  Bi2+  Bi103  1  0.13152875  0.73568028  0.70768768  1
  Bi2+  Bi104  1  0.41390994  0.04562640  0.20058640  1
  Bi2+  Bi105  1  0.37562512  -0.02378661  0.70242949  1
  Bi2+  Bi106  1  0.36953969  0.23982924  0.20686752  1
  Bi2+  Bi107  1  0.28217429  0.24249413  0.68689216  1
  Bi2+  Bi108  1  0.38205399  0.50430201  0.19974122  1
  Bi2+  Bi109  1  0.42126144  0.50691143  0.69815981  1
  Bi2+  Bi110  1  0.43741117  0.77001245  0.21653290  1
  Bi2+  Bi111  1  0.37620128  0.72461766  0.71229736  1
  Bi2+  Bi112  1  0.60616513  -0.00004343  0.19774511  1
  Bi2+  Bi113  1  0.60700914  -0.00173973  0.70915651  1
  Bi2+  Bi114  1  0.64379524  0.21435740  0.20783530  1
  Bi2+  Bi115  1  0.57957520  0.26646558  0.72884996  1
  Bi2+  Bi116  1  0.61001369  0.49205975  0.25698972  1
  Bi2+  Bi117  1  0.66113365  0.46241301  0.70697180  1
  Bi2+  Bi118  1  0.61975729  0.67826024  0.19809920  1
  Bi2+  Bi119  1  0.60115144  0.74165540  0.71590508  1
  Bi2+  Bi120  1  0.87765813  0.08448133  0.21483787  1
  Bi2+  Bi121  1  0.86517648  0.01022784  0.71840833  1
  Bi2+  Bi122  1  0.88744502  0.27976715  0.19163702  1
  Bi2+  Bi123  1  0.88207369  0.26620763  0.71374866  1
  Bi2+  Bi124  1  0.84822433  0.49004170  0.21319139  1
  Bi2+  Bi125  1  0.88378401  0.46774896  0.71593045  1
  Bi2+  Bi126  1  0.88033640  0.76280825  0.21300070  1
  Bi2+  Bi127  1  0.86103142  0.73613694  0.71414763  1
  S2-  S128  1  -0.00297441  0.04628785  0.14223088  1
  S2-  S129  1  -0.00832783  0.05282655  0.64986730  1
  S2-  S130  1  0.00085050  0.46888853  0.15378738  1
  S2-  S131  1  0.00080087  0.49833069  0.64062619  1
  S2-  S132  1  0.01374813  0.66602597  0.19752139  1
  S2-  S133  1  -0.00648915  0.71236856  0.64867781  1
  S2-  S134  1  0.03020702  0.86273103  0.20165089  1
  S2-  S135  1  -0.01695435  0.88142397  0.72425648  1
  S2-  S136  1  0.26827199  0.11746765  0.14975801  1
  S2-  S137  1  0.25103647  0.07563298  0.65016351  1
  S2-  S138  1  0.30075137  0.37363242  0.15494972  1
  S2-  S139  1  0.27658289  0.44294109  0.65188517  1
  S2-  S140  1  0.19570773  0.58259789  0.17282449  1
  S2-  S141  1  0.23473263  0.67017795  0.64711529  1
  S2-  S142  1  0.26010526  0.87460296  0.16497025  1
  S2-  S143  1  0.15651532  0.87090140  0.65334792  1
  S2-  S144  1  0.51521217  0.23953488  0.14200153  1
  S2-  S145  1  0.50246611  0.06671123  0.64866532  1
  S2-  S146  1  0.51992624  0.47772782  0.14870614  1
  S2-  S147  1  0.51706531  0.37652087  0.65407140  1
  S2-  S148  1  0.38783657  0.65265207  0.14706961  1
  S2-  S149  1  0.50492527  0.64679895  0.64891613  1
  S2-  S150  1  0.51210761  0.88115627  0.14883358  1
  S2-  S151  1  0.61080602  0.86463477  0.64368437  1
  S2-  S152  1  0.73589528  0.09642639  0.14660768  1
  S2-  S153  1  0.74159364  0.08350086  0.66277618  1
  S2-  S154  1  0.74719223  0.40398606  0.15988905  1
  S2-  S155  1  0.77029426  0.36576410  0.65189310  1
  S2-  S156  1  0.83255021  0.62687732  0.15087129  1
  S2-  S157  1  0.76584546  0.65492925  0.65675889  1
  S2-  S158  1  0.83435710  0.87043067  0.14443270  1
  S2-  S159  1  0.82938978  0.87539693  0.65725611  1
  S2-  S160  1  0.13253323  0.00420349  0.33878841  1
  S2-  S161  1  0.14970238  -0.08170600  0.85304515  1
  S2-  S162  1  0.09963799  0.28821838  0.35148239  1
  S2-  S163  1  0.12448716  0.35849774  0.86424466  1
  S2-  S164  1  0.14741814  0.52013668  0.33266455  1
  S2-  S165  1  0.14614823  0.57612855  0.85325705  1
  S2-  S166  1  0.14801924  0.77087259  0.33207675  1
  S2-  S167  1  0.04720430  0.73510359  0.81598129  1
  S2-  S168  1  0.36726485  -0.06719453  0.34657142  1
  S2-  S169  1  0.38680527  -0.02591629  0.84428042  1
  S2-  S170  1  0.36322114  0.33998524  0.34825136  1
  S2-  S171  1  0.39437507  0.24803565  0.84637454  1
  S2-  S172  1  0.35249333  0.52522690  0.29691905  1
  S2-  S173  1  0.36303941  0.50169377  0.84564421  1
  S2-  S174  1  0.37335674  0.71253334  0.34253761  1
  S2-  S175  1  0.29890496  0.73945786  0.85534066  1
  S2-  S176  1  0.65040954  0.00145225  0.34384944  1
  S2-  S177  1  0.62869081  0.03244656  0.83757984  1
  S2-  S178  1  0.61329392  0.26361138  0.34836961  1
  S2-  S179  1  0.62200713  0.26855200  0.84101024  1
  S2-  S180  1  0.54760976  0.48927738  0.35144033  1
  S2-  S181  1  0.61071151  0.49830894  0.84543054  1
  S2-  S182  1  0.73772114  0.76754248  0.35729186  1
  S2-  S183  1  0.63301212  0.76664388  0.84736866  1
  S2-  S184  1  0.89407603  -0.01902887  0.33881931  1
  S2-  S185  1  0.86030821  0.01279268  0.82802695  1
  S2-  S186  1  0.86073948  0.22787932  0.34829222  1
  S2-  S187  1  0.84254158  0.25882409  0.84399986  1
  S2-  S188  1  0.91379543  0.49681748  0.34761803  1
  S2-  S189  1  0.86871641  0.55318273  0.84720767  1
  S2-  S190  1  0.94621495  0.74271371  0.34145394  1
  S2-  S191  1  0.84483371  0.79115138  0.84144075  1
  S2-  S192  1  -0.00264136  0.12468125  0.45271492  1
  S2-  S193  1  0.00658011  0.11835194  0.94324111  1
  S2-  S194  1  -0.00473007  0.37306606  0.46093753  1
  S2-  S195  1  0.00233372  0.36438425  0.96249947  1
  S2-  S196  1  -0.00589631  0.61844099  0.45383390  1
  S2-  S197  1  0.00954866  0.62005739  0.95256227  1
  S2-  S198  1  -0.00423770  0.87054500  0.44629978  1
  S2-  S199  1  0.00632781  0.86347608  0.94446581  1
  S2-  S200  1  0.24110694  0.12215960  0.45058478  1
  S2-  S201  1  0.25596032  0.11818757  0.94619827  1
  S2-  S202  1  0.24399550  0.37409003  0.45150619  1
  S2-  S203  1  0.26137484  0.36347970  0.95523402  1
  S2-  S204  1  0.24874218  0.61714990  0.44497561  1
  S2-  S205  1  0.25595789  0.62201220  0.96488692  1
  S2-  S206  1  0.24302022  0.87150210  0.45352209  1
  S2-  S207  1  0.25846840  0.86616218  0.95913629  1
  S2-  S208  1  0.49280179  0.12019189  0.44914396  1
  S2-  S209  1  0.50501867  0.11560922  0.95346141  1
  S2-  S210  1  0.49528100  0.37065293  0.45313748  1
  S2-  S211  1  0.50496998  0.36642734  0.95777775  1
  S2-  S212  1  0.49375623  0.62016093  0.44780201  1
  S2-  S213  1  0.50665906  0.62117548  0.95769110  1
  S2-  S214  1  0.49398137  0.87389087  0.45520199  1
  S2-  S215  1  0.50514751  0.86729908  0.94603315  1
  S2-  S216  1  0.74596000  0.12322990  0.45683245  1
  S2-  S217  1  0.75522092  0.11579334  0.94512090  1
  S2-  S218  1  0.74514719  0.37329421  0.44956739  1
  S2-  S219  1  0.75625550  0.36942559  0.95311430  1
  S2-  S220  1  0.74276592  0.61505027  0.45107701  1
  S2-  S221  1  0.75333733  0.61911502  0.95309455  1
  S2-  S222  1  0.74231257  0.87632586  0.45948592  1
  S2-  S223  1  0.75270633  0.86915576  0.95157734  1
  S2-  S224  1  0.13020970  -0.00932734  0.04805296  1
  S2-  S225  1  0.11951145  -0.00137997  0.54471745  1
  S2-  S226  1  0.13159581  0.23934232  0.04303202  1
  S2-  S227  1  0.11995502  0.24481353  0.55045206  1
  S2-  S228  1  0.13016200  0.49340298  0.05071357  1
  S2-  S229  1  0.12241815  0.49829847  0.53978402  1
  S2-  S230  1  0.12200322  0.74755879  0.07367519  1
  S2-  S231  1  0.12280784  0.73906771  0.53807693  1
  S2-  S232  1  0.38215306  -0.00555393  0.04720937  1
  S2-  S233  1  0.36567024  -0.00586739  0.54373349  1
  S2-  S234  1  0.37889196  0.23730200  0.04725963  1
  S2-  S235  1  0.36929020  0.24662230  0.54414376  1
  S2-  S236  1  0.37904521  0.49093906  0.05073546  1
  S2-  S237  1  0.37253896  0.49654184  0.54239232  1
  S2-  S238  1  0.38309248  0.74846201  0.04553658  1
  S2-  S239  1  0.36966995  0.74848676  0.54659062  1
  S2-  S240  1  0.62898664  -0.00613774  0.04029327  1
  S2-  S241  1  0.62003498  0.00152352  0.54615753  1
  S2-  S242  1  0.63454672  0.23878430  0.04421328  1
  S2-  S243  1  0.62061741  0.24792642  0.55350307  1
  S2-  S244  1  0.63406588  0.49128687  0.04867020  1
  S2-  S245  1  0.62120070  0.49394758  0.54659069  1
  S2-  S246  1  0.62782139  0.74352665  0.05039000  1
  S2-  S247  1  0.61733209  0.74497249  0.53871318  1
  S2-  S248  1  0.88115777  -0.00757071  0.03625686  1
  S2-  S249  1  0.87275764  -0.00191362  0.54697759  1
  S2-  S250  1  0.88009858  0.23916448  0.04768644  1
  S2-  S251  1  0.87385314  0.24754342  0.55315111  1
  S2-  S252  1  0.88121920  0.49340156  0.04750125  1
  S2-  S253  1  0.86693022  0.49632378  0.54695071  1
  S2-  S254  1  0.88476246  0.74500030  0.04440264  1
  S2-  S255  1  0.86987401  0.74342650  0.54201889  1
