# generated using pymatgen
data_La6Ce7Pr13Nd19Sm19(BiS2)64
_symmetry_space_group_name_H-M   'P 1'
_cell_length_a   16.04157515
_cell_length_b   16.09142333
_cell_length_c   27.38398622
_cell_angle_alpha   89.97011902
_cell_angle_beta   89.80692201
_cell_angle_gamma   90.05113535
_symmetry_Int_Tables_number   1
_chemical_formula_structural   La6Ce7Pr13Nd19Sm19(BiS2)64
_chemical_formula_sum   'La6 Ce7 Pr13 Nd19 Sm19 Bi64 S128'
_cell_volume   7068.63308917
_cell_formula_units_Z   1
loop_
 _symmetry_equiv_pos_site_id
 _symmetry_equiv_pos_as_xyz
  1  'x, y, z'
loop_
 _atom_type_symbol
 _atom_type_oxidation_number
  La3+  3.0
  Ce3+  3.0
  Pr3+  3.0
  Nd3+  3.0
  Sm3+  3.0
  Bi2+  2.0
  S2-  -2.0
loop_
 _atom_site_type_symbol
 _atom_site_label
 _atom_site_symmetry_multiplicity
 _atom_site_fract_x
 _atom_site_fract_y
 _atom_site_fract_z
 _atom_site_occupancy
  La3+  La0  1  0.60984226  -0.00007744  0.42804683  1
  La3+  La1  1  0.60563535  0.75443698  0.88077640  1
  La3+  La2  1  0.13428457  0.74008727  0.91945446  1
  La3+  La3  1  0.14265068  0.24297671  0.92777042  1
  La3+  La4  1  0.76615748  0.62096317  0.07171746  1
  La3+  La5  1  0.62150551  0.74096757  0.38866182  1
  Ce3+  Ce6  1  0.11723479  0.50179160  0.44579583  1
  Ce3+  Ce7  1  0.73742639  0.37329176  0.55644198  1
  Ce3+  Ce8  1  0.87015586  0.74863274  0.43116759  1
  Ce3+  Ce9  1  0.49011224  0.87722177  0.55850525  1
  Ce3+  Ce10  1  0.73836765  0.62793877  0.55950208  1
  Ce3+  Ce11  1  0.64797547  -0.01119528  0.93500560  1
  Ce3+  Ce12  1  0.88901686  0.49546200  0.94284370  1
  Pr3+  Pr13  1  0.01794898  0.86659104  0.05834147  1
  Pr3+  Pr14  1  0.39252768  -0.00915292  0.93973893  1
  Pr3+  Pr15  1  0.13608523  -0.00581104  0.92464736  1
  Pr3+  Pr16  1  0.25937477  0.11910103  0.06656325  1
  Pr3+  Pr17  1  0.88902439  -0.00694026  0.93521403  1
  Pr3+  Pr18  1  -0.01303591  0.62909561  0.56590394  1
  Pr3+  Pr19  1  0.88011942  0.73798318  0.92955489  1
  Pr3+  Pr20  1  0.36380721  0.25071998  0.43779538  1
  Pr3+  Pr21  1  0.61532701  0.24986621  0.41867376  1
  Pr3+  Pr22  1  0.23808978  0.62229181  0.57072566  1
  Pr3+  Pr23  1  0.73972171  0.12561135  0.56420632  1
  Pr3+  Pr24  1  0.50659739  0.11275164  0.07050427  1
  Pr3+  Pr25  1  0.75862326  0.11682038  0.06983890  1
  Nd3+  Nd26  1  0.63889111  0.24199169  0.94433269  1
  Nd3+  Nd27  1  0.52302352  0.37099134  0.07559032  1
  Nd3+  Nd28  1  0.51554151  0.62062889  0.05934153  1
  Nd3+  Nd29  1  0.23680332  0.37398029  0.56958890  1
  Nd3+  Nd30  1  0.23590202  0.12779244  0.57957223  1
  Nd3+  Nd31  1  0.36746404  0.75230703  0.43505273  1
  Nd3+  Nd32  1  0.26395745  0.36924453  0.05281305  1
  Nd3+  Nd33  1  0.73969370  0.87674862  0.55163208  1
  Nd3+  Nd34  1  0.86424432  0.00247219  0.43527819  1
  Nd3+  Nd35  1  0.11716483  0.25093491  0.43528251  1
  Nd3+  Nd36  1  0.13871701  0.49258585  0.92419011  1
  Nd3+  Nd37  1  0.64111321  0.49954544  0.93670903  1
  Nd3+  Nd38  1  0.02022902  0.61805701  0.06082567  1
  Nd3+  Nd39  1  0.39645953  0.49452842  0.94368306  1
  Nd3+  Nd40  1  0.49000165  0.62852643  0.56224431  1
  Nd3+  Nd41  1  0.01731587  0.36909615  0.05699738  1
  Nd3+  Nd42  1  0.25713976  0.86614451  0.05942598  1
  Nd3+  Nd43  1  0.11565379  0.75041065  0.43157175  1
  Nd3+  Nd44  1  0.49169300  0.37241257  0.55709697  1
  Sm3+  Sm45  1  0.86357907  0.25185459  0.43551657  1
  Sm3+  Sm46  1  0.01679424  0.11757073  0.06089412  1
  Sm3+  Sm47  1  0.77471365  0.87130317  0.06662699  1
  Sm3+  Sm48  1  0.76166441  0.36819648  0.05740846  1
  Sm3+  Sm49  1  -0.01286322  0.12742192  0.56350358  1
  Sm3+  Sm50  1  0.36552816  0.50420050  0.44803906  1
  Sm3+  Sm51  1  -0.00987979  0.87582165  0.55321468  1
  Sm3+  Sm52  1  0.36242584  0.00315347  0.44783997  1
  Sm3+  Sm53  1  -0.01047342  0.37299198  0.55654972  1
  Sm3+  Sm54  1  0.38811605  0.74373002  0.94600112  1
  Sm3+  Sm55  1  0.26384857  0.61569156  0.05081430  1
  Sm3+  Sm56  1  0.88877143  0.24224939  0.95176626  1
  Sm3+  Sm57  1  0.23954689  0.87201716  0.56092377  1
  Sm3+  Sm58  1  0.51712055  0.86619437  0.05922616  1
  Sm3+  Sm59  1  0.61461731  0.50532841  0.44274220  1
  Sm3+  Sm60  1  0.11669081  0.00407672  0.44593401  1
  Sm3+  Sm61  1  0.49250853  0.12579184  0.56237251  1
  Sm3+  Sm62  1  0.39496439  0.24249548  0.94849531  1
  Sm3+  Sm63  1  0.86533015  0.50525194  0.44533826  1
  Bi2+  Bi64  1  0.00575457  0.12181095  0.29370333  1
  Bi2+  Bi65  1  0.01879202  0.12653243  0.79678431  1
  Bi2+  Bi66  1  -0.01201394  0.30300632  0.32816806  1
  Bi2+  Bi67  1  -0.02369958  0.42945209  0.82196101  1
  Bi2+  Bi68  1  -0.00822721  0.59305602  0.29379573  1
  Bi2+  Bi69  1  0.00798906  0.62041324  0.79459037  1
  Bi2+  Bi70  1  0.06471149  0.85306550  0.28802384  1
  Bi2+  Bi71  1  0.04479565  0.87681457  0.77636721  1
  Bi2+  Bi72  1  0.23660801  0.12651882  0.28768150  1
  Bi2+  Bi73  1  0.29997653  0.14532326  0.79111656  1
  Bi2+  Bi74  1  0.16634690  0.37188766  0.30387021  1
  Bi2+  Bi75  1  0.16089914  0.36221136  0.81263436  1
  Bi2+  Bi76  1  0.22627270  0.67290009  0.30760285  1
  Bi2+  Bi77  1  0.24135015  0.64148049  0.75854941  1
  Bi2+  Bi78  1  0.24617727  0.85972620  0.33360955  1
  Bi2+  Bi79  1  0.22271523  0.87380185  0.82183850  1
  Bi2+  Bi80  1  0.49062605  0.12858973  0.28934158  1
  Bi2+  Bi81  1  0.54826577  0.13456674  0.74251829  1
  Bi2+  Bi82  1  0.55337643  0.38021381  0.29856456  1
  Bi2+  Bi83  1  0.50329837  0.34847387  0.80163203  1
  Bi2+  Bi84  1  0.47861246  0.58935468  0.29052524  1
  Bi2+  Bi85  1  0.49258024  0.59064041  0.78625848  1
  Bi2+  Bi86  1  0.45349118  0.88534533  0.29276785  1
  Bi2+  Bi87  1  0.47213162  0.95639745  0.76436304  1
  Bi2+  Bi88  1  0.76677219  0.12849417  0.29281617  1
  Bi2+  Bi89  1  0.76986664  0.14355059  0.78900390  1
  Bi2+  Bi90  1  0.74594469  0.37159743  0.27283149  1
  Bi2+  Bi91  1  0.69249700  0.37819524  0.79991847  1
  Bi2+  Bi92  1  0.74762567  0.61035343  0.28058280  1
  Bi2+  Bi93  1  0.75786271  0.64017528  0.78499219  1
  Bi2+  Bi94  1  0.74447469  0.87575366  0.28371558  1
  Bi2+  Bi95  1  0.72320060  0.90185954  0.78753263  1
  Bi2+  Bi96  1  0.12221278  -0.01315195  0.20639227  1
  Bi2+  Bi97  1  0.20432198  0.00297374  0.73353171  1
  Bi2+  Bi98  1  0.14779159  0.24573201  0.21180500  1
  Bi2+  Bi99  1  0.11614196  0.25135483  0.71025286  1
  Bi2+  Bi100  1  0.14613230  0.48864209  0.19477618  1
  Bi2+  Bi101  1  0.10084245  0.46461573  0.71317864  1
  Bi2+  Bi102  1  0.12011680  0.73171299  0.20452954  1
  Bi2+  Bi103  1  0.13345604  0.76675746  0.69301406  1
  Bi2+  Bi104  1  0.32169382  -0.00463991  0.21769329  1
  Bi2+  Bi105  1  0.38027930  0.07836687  0.68465132  1
  Bi2+  Bi106  1  0.34683403  0.24573082  0.20921563  1
  Bi2+  Bi107  1  0.38488335  0.27614112  0.71476961  1
  Bi2+  Bi108  1  0.30716800  0.51258546  0.25789892  1
  Bi2+  Bi109  1  0.29413123  0.45204968  0.74024694  1
  Bi2+  Bi110  1  0.31924495  0.79425671  0.22895277  1
  Bi2+  Bi111  1  0.36582397  0.79220519  0.76213786  1
  Bi2+  Bi112  1  0.63446969  -0.02061731  0.20500240  1
  Bi2+  Bi113  1  0.70638836  0.03037086  0.70111944  1
  Bi2+  Bi114  1  0.61509796  0.26053536  0.21442232  1
  Bi2+  Bi115  1  0.65033413  0.28923571  0.69128706  1
  Bi2+  Bi116  1  0.56851833  0.48842989  0.20145760  1
  Bi2+  Bi117  1  0.59524238  0.49872696  0.70679152  1
  Bi2+  Bi118  1  0.59811506  0.73369672  0.17934798  1
  Bi2+  Bi119  1  0.61446030  0.75983116  0.67565009  1
  Bi2+  Bi120  1  0.92833749  0.02393705  0.20221735  1
  Bi2+  Bi121  1  0.96011221  0.04761685  0.70012054  1
  Bi2+  Bi122  1  0.88527875  0.22111504  0.21763147  1
  Bi2+  Bi123  1  0.90139340  0.28129109  0.75419324  1
  Bi2+  Bi124  1  0.92826131  0.41899775  0.23921528  1
  Bi2+  Bi125  1  0.83533820  0.46898011  0.73964871  1
  Bi2+  Bi126  1  0.86882107  0.74531131  0.19354087  1
  Bi2+  Bi127  1  0.87546071  0.76276258  0.69204412  1
  S2-  S128  1  0.12637735  0.12573809  0.13730079  1
  S2-  S129  1  0.09076522  0.11999205  0.64307163  1
  S2-  S130  1  0.01891895  0.39058655  0.15439010  1
  S2-  S131  1  0.00800360  0.35834440  0.65335042  1
  S2-  S132  1  -0.01912186  0.64516434  0.15713570  1
  S2-  S133  1  -0.00671223  0.65507319  0.66566936  1
  S2-  S134  1  -0.08833138  0.87481044  0.13964577  1
  S2-  S135  1  -0.03067625  0.88826698  0.65020555  1
  S2-  S136  1  0.37129500  0.11152806  0.14461962  1
  S2-  S137  1  0.24845280  0.26173345  0.64653383  1
  S2-  S138  1  0.24632033  0.36215187  0.15096134  1
  S2-  S139  1  0.23550851  0.49127142  0.64542873  1
  S2-  S140  1  0.21280588  0.61653699  0.14339184  1
  S2-  S141  1  0.27357127  0.70423599  0.65753550  1
  S2-  S142  1  0.14104656  0.85986569  0.13376092  1
  S2-  S143  1  0.21628826  0.90561951  0.65591922  1
  S2-  S144  1  0.58284265  0.11837212  0.16223198  1
  S2-  S145  1  0.61014661  0.13687142  0.63580939  1
  S2-  S146  1  0.46136927  0.34900152  0.16895374  1
  S2-  S147  1  0.50186032  0.37365375  0.65666403  1
  S2-  S148  1  0.47544855  0.60469116  0.15640493  1
  S2-  S149  1  0.50451088  0.62085145  0.66238857  1
  S2-  S150  1  0.51099494  0.87930809  0.15760393  1
  S2-  S151  1  0.49501973  0.86949696  0.65627890  1
  S2-  S152  1  0.77633661  0.05037100  0.16184667  1
  S2-  S153  1  0.86635991  0.13557765  0.63827180  1
  S2-  S154  1  0.67470289  0.37981519  0.14095859  1
  S2-  S155  1  0.74321061  0.41620264  0.65171097  1
  S2-  S156  1  0.75457791  0.61267959  0.17408271  1
  S2-  S157  1  0.76334297  0.65764841  0.65553373  1
  S2-  S158  1  0.72338187  0.83841679  0.16347748  1
  S2-  S159  1  0.74295555  0.88199341  0.65314769  1
  S2-  S160  1  0.11921282  0.03793370  0.34989529  1
  S2-  S161  1  -0.00020574  -0.01495274  0.85417010  1
  S2-  S162  1  0.24105093  0.24911544  0.36314462  1
  S2-  S163  1  0.15855488  0.12569119  0.85465958  1
  S2-  S164  1  0.10880473  0.52929518  0.34876306  1
  S2-  S165  1  0.15695212  0.60721754  0.84772295  1
  S2-  S166  1  -0.00066646  0.74085590  0.35620731  1
  S2-  S167  1  0.00041307  0.75483832  0.84925089  1
  S2-  S168  1  0.41419709  0.02364920  0.35422506  1
  S2-  S169  1  0.36010159  -0.00041086  0.84142769  1
  S2-  S170  1  0.47010437  0.25662027  0.35430686  1
  S2-  S171  1  0.40511402  0.23940775  0.85095595  1
  S2-  S172  1  0.37751429  0.49007700  0.35081189  1
  S2-  S173  1  0.41666234  0.48530909  0.84462149  1
  S2-  S174  1  0.45586680  0.73599357  0.34883091  1
  S2-  S175  1  0.43488452  0.72775025  0.85128915  1
  S2-  S176  1  0.61199909  -0.10010116  0.34262218  1
  S2-  S177  1  0.58296186  -0.07358134  0.84819457  1
  S2-  S178  1  0.62246394  0.11352116  0.34823412  1
  S2-  S179  1  0.64831683  0.22139746  0.84642599  1
  S2-  S180  1  0.62608367  0.57209626  0.35241885  1
  S2-  S181  1  0.63195714  0.58407603  0.84884283  1
  S2-  S182  1  0.63601604  0.73602156  0.27177758  1
  S2-  S183  1  0.62464630  0.75369295  0.77108083  1
  S2-  S184  1  0.84211917  -0.00622156  0.33625882  1
  S2-  S185  1  0.77030790  0.01020452  0.85843203  1
  S2-  S186  1  0.76161375  0.26567366  0.35589437  1
  S2-  S187  1  0.89272774  0.21747740  0.85526512  1
  S2-  S188  1  0.86257903  0.53117302  0.34790079  1
  S2-  S189  1  0.86992704  0.58219983  0.85844931  1
  S2-  S190  1  0.78555234  0.74458348  0.34460177  1
  S2-  S191  1  0.77594088  0.77682842  0.84912773  1
  S2-  S192  1  -0.01039359  0.12806404  0.45388053  1
  S2-  S193  1  0.01359159  0.12324990  0.95778005  1
  S2-  S194  1  -0.01168066  0.37828260  0.45244769  1
  S2-  S195  1  0.01409221  0.36640507  0.95164614  1
  S2-  S196  1  -0.00741077  0.62448455  0.45934076  1
  S2-  S197  1  0.01666837  0.61230042  0.95392934  1
  S2-  S198  1  -0.00575431  0.88041450  0.44931430  1
  S2-  S199  1  0.01455484  0.86590366  0.95366773  1
  S2-  S200  1  0.23902884  0.12359853  0.46518039  1
  S2-  S201  1  0.27214254  0.12016737  0.95832147  1
  S2-  S202  1  0.24198243  0.38030066  0.46186076  1
  S2-  S203  1  0.27002772  0.36974881  0.94671089  1
  S2-  S204  1  0.24115890  0.62861564  0.45836195  1
  S2-  S205  1  0.26951714  0.61609949  0.94799123  1
  S2-  S206  1  0.23853602  0.87689873  0.45694686  1
  S2-  S207  1  0.26373186  0.86593558  0.95363326  1
  S2-  S208  1  0.48749244  0.12573208  0.46017635  1
  S2-  S209  1  0.51672312  0.11540085  0.95783559  1
  S2-  S210  1  0.49100504  0.38187377  0.45321245  1
  S2-  S211  1  0.51838315  0.36949108  0.95908574  1
  S2-  S212  1  0.48991104  0.62637877  0.45654836  1
  S2-  S213  1  0.51649439  0.62414308  0.95493214  1
  S2-  S214  1  0.48393596  0.87766352  0.45353359  1
  S2-  S215  1  0.51522683  0.86178868  0.95564890  1
  S2-  S216  1  0.74415531  0.12642060  0.45586959  1
  S2-  S217  1  0.76484167  0.12325521  0.96297789  1
  S2-  S218  1  0.74031315  0.38360075  0.45177571  1
  S2-  S219  1  0.76392268  0.36811408  0.95307627  1
  S2-  S220  1  0.74006037  0.62755614  0.45486090  1
  S2-  S221  1  0.76335982  0.61417688  0.96361994  1
  S2-  S222  1  0.74193362  0.87460948  0.44747979  1
  S2-  S223  1  0.76677367  0.87027650  0.96236707  1
  S2-  S224  1  0.13864252  -0.00375966  0.03436163  1
  S2-  S225  1  0.11531486  -0.00211368  0.54764762  1
  S2-  S226  1  0.13887101  0.24642074  0.03704645  1
  S2-  S227  1  0.11228236  0.25141353  0.54157131  1
  S2-  S228  1  0.14048351  0.49280225  0.03517651  1
  S2-  S229  1  0.10811641  0.50020221  0.54995389  1
  S2-  S230  1  0.14187299  0.73615962  0.03241671  1
  S2-  S231  1  0.11503691  0.75176848  0.54410881  1
  S2-  S232  1  0.38637136  -0.01578113  0.04638701  1
  S2-  S233  1  0.36214437  0.00193220  0.55199997  1
  S2-  S234  1  0.39281382  0.24956556  0.05051463  1
  S2-  S235  1  0.36828871  0.24724159  0.54696429  1
  S2-  S236  1  0.39102735  0.49268440  0.04928813  1
  S2-  S237  1  0.36895395  0.50000986  0.55131825  1
  S2-  S238  1  0.38548377  0.74358754  0.05104024  1
  S2-  S239  1  0.36431062  0.75159135  0.54379929  1
  S2-  S240  1  0.63852766  -0.01065054  0.04820027  1
  S2-  S241  1  0.61343860  0.00016792  0.53987768  1
  S2-  S242  1  0.63629289  0.24155877  0.04941926  1
  S2-  S243  1  0.61494038  0.25169553  0.53405854  1
  S2-  S244  1  0.63949513  0.49607327  0.04340427  1
  S2-  S245  1  0.61368863  0.50154977  0.54743659  1
  S2-  S246  1  0.64052340  0.74586309  0.05694165  1
  S2-  S247  1  0.61416921  0.75280758  0.55134805  1
  S2-  S248  1  0.89115288  0.00152938  0.04337930  1
  S2-  S249  1  0.86767059  -0.00112378  0.54067405  1
  S2-  S250  1  0.88894801  0.24424603  0.05708005  1
  S2-  S251  1  0.86571769  0.25404645  0.53913350  1
  S2-  S252  1  0.88841350  0.49011877  0.05211215  1
  S2-  S253  1  0.86587218  0.49908707  0.55001592  1
  S2-  S254  1  0.89154136  0.73977804  0.04215811  1
  S2-  S255  1  0.86555417  0.75299179  0.54082627  1
