# generated using pymatgen
data_La6Ce7Pr13Nd19Sm19(BiS2)64
_symmetry_space_group_name_H-M   'P 1'
_cell_length_a   16.07786341
_cell_length_b   16.05282218
_cell_length_c   27.31966821
_cell_angle_alpha   90.22447626
_cell_angle_beta   90.09967695
_cell_angle_gamma   90.07534131
_symmetry_Int_Tables_number   1
_chemical_formula_structural   La6Ce7Pr13Nd19Sm19(BiS2)64
_chemical_formula_sum   'La6 Ce7 Pr13 Nd19 Sm19 Bi64 S128'
_cell_volume   7051.00107220
_cell_formula_units_Z   1
loop_
 _symmetry_equiv_pos_site_id
 _symmetry_equiv_pos_as_xyz
  1  'x, y, z'
loop_
 _atom_type_symbol
 _atom_type_oxidation_number
  La3+  3.0
  Ce3+  3.0
  Pr3+  3.0
  Nd3+  3.0
  Sm3+  3.0
  Bi2+  2.0
  S2-  -2.0
loop_
 _atom_site_type_symbol
 _atom_site_label
 _atom_site_symmetry_multiplicity
 _atom_site_fract_x
 _atom_site_fract_y
 _atom_site_fract_z
 _atom_site_occupancy
  La3+  La0  1  0.24560700  0.63058537  0.10842071  1
  La3+  La1  1  0.12737005  0.00101223  0.92798441  1
  La3+  La2  1  0.88048644  0.24192451  0.92105005  1
  La3+  La3  1  0.51436420  0.34640522  0.56751868  1
  La3+  La4  1  0.51111909  0.63593673  0.08160835  1
  La3+  La5  1  0.61341570  0.74886207  0.91155351  1
  Ce3+  Ce6  1  0.75676876  0.84196618  0.55761839  1
  Ce3+  Ce7  1  0.87848817  0.50205867  0.94158973  1
  Ce3+  Ce8  1  0.75608815  0.59010500  0.55534752  1
  Ce3+  Ce9  1  0.50358510  0.87938361  0.06865524  1
  Ce3+  Ce10  1  0.88463911  0.71776749  0.43923587  1
  Ce3+  Ce11  1  0.87698226  0.75255868  0.93030335  1
  Ce3+  Ce12  1  0.26079882  0.83437273  0.57146789  1
  Pr3+  Pr13  1  0.37834476  0.74912375  0.95171464  1
  Pr3+  Pr14  1  -0.00150044  0.12652202  0.07014350  1
  Pr3+  Pr15  1  0.13435954  0.46017938  0.43261816  1
  Pr3+  Pr16  1  0.63508940  -0.03530327  0.41725575  1
  Pr3+  Pr17  1  0.00975525  0.59232234  0.56471208  1
  Pr3+  Pr18  1  0.63917540  0.21841131  0.42595077  1
  Pr3+  Pr19  1  0.75041679  0.63025652  0.05354099  1
  Pr3+  Pr20  1  0.63801696  0.46741172  0.42064002  1
  Pr3+  Pr21  1  0.88702614  0.46358862  0.43470337  1
  Pr3+  Pr22  1  0.00434921  0.87806832  0.06293915  1
  Pr3+  Pr23  1  0.37745569  0.25656236  0.94525522  1
  Pr3+  Pr24  1  0.51673060  0.83279979  0.57105817  1
  Pr3+  Pr25  1  0.01083021  0.83968038  0.56540133  1
  Nd3+  Nd26  1  0.50280727  0.38380840  0.06840110  1
  Nd3+  Nd27  1  0.00894791  0.08415073  0.56705740  1
  Nd3+  Nd28  1  0.75507522  0.13112724  0.06293152  1
  Nd3+  Nd29  1  0.51060899  0.09653573  0.56530110  1
  Nd3+  Nd30  1  0.88820739  -0.03341504  0.43304263  1
  Nd3+  Nd31  1  0.63204025  0.25804904  0.92736973  1
  Nd3+  Nd32  1  0.38118813  0.46513894  0.41824799  1
  Nd3+  Nd33  1  0.13438093  -0.03671222  0.43327979  1
  Nd3+  Nd34  1  0.00689390  0.33394170  0.57297239  1
  Nd3+  Nd35  1  0.38787343  0.21626969  0.43523495  1
  Nd3+  Nd36  1  0.62526303  0.00215558  0.94276075  1
  Nd3+  Nd37  1  0.64051852  0.71659038  0.42389618  1
  Nd3+  Nd38  1  0.12882476  0.75295946  0.93328629  1
  Nd3+  Nd39  1  0.62524815  0.50339349  0.93393319  1
  Nd3+  Nd40  1  0.76140396  0.34075737  0.56219368  1
  Nd3+  Nd41  1  0.26036238  0.34342889  0.56152194  1
  Nd3+  Nd42  1  0.26340154  0.58620389  0.56213897  1
  Nd3+  Nd43  1  0.75085589  0.87802413  0.05192724  1
  Nd3+  Nd44  1  0.87515610  -0.00613433  0.93354932  1
  Sm3+  Sm45  1  0.12368499  0.24797999  0.93022259  1
  Sm3+  Sm46  1  0.25015798  0.13063849  0.05730730  1
  Sm3+  Sm47  1  0.13389450  0.21705529  0.44326181  1
  Sm3+  Sm48  1  0.00374323  0.63677240  0.06436898  1
  Sm3+  Sm49  1  0.25736574  0.08989999  0.55788488  1
  Sm3+  Sm50  1  0.00362181  0.38026561  0.05708995  1
  Sm3+  Sm51  1  0.38588981  -0.03434200  0.45372352  1
  Sm3+  Sm52  1  0.37624078  0.50485076  0.95039998  1
  Sm3+  Sm53  1  0.25090187  0.87752493  0.06065595  1
  Sm3+  Sm54  1  0.24962356  0.38358849  0.06055352  1
  Sm3+  Sm55  1  0.38050547  0.00327907  0.95021654  1
  Sm3+  Sm56  1  0.12736676  0.50470228  0.94488268  1
  Sm3+  Sm57  1  0.75786116  0.08902438  0.55593773  1
  Sm3+  Sm58  1  0.13927528  0.71517492  0.44102794  1
  Sm3+  Sm59  1  0.50355743  0.13304418  0.05501010  1
  Sm3+  Sm60  1  0.38860473  0.71829829  0.44236525  1
  Sm3+  Sm61  1  0.88481169  0.21379984  0.44250958  1
  Sm3+  Sm62  1  0.51226400  0.58762451  0.55237590  1
  Sm3+  Sm63  1  0.75506642  0.37913205  0.05770014  1
  Bi2+  Bi64  1  0.07254050  0.12826364  0.31417387  1
  Bi2+  Bi65  1  0.00668246  0.13458375  0.79271565  1
  Bi2+  Bi66  1  -0.02264935  0.40037745  0.31311602  1
  Bi2+  Bi67  1  0.02513881  0.39864031  0.78136554  1
  Bi2+  Bi68  1  -0.01259905  0.59043040  0.28852786  1
  Bi2+  Bi69  1  0.06843743  0.65550601  0.79711890  1
  Bi2+  Bi70  1  -0.03753782  0.89351143  0.27195604  1
  Bi2+  Bi71  1  0.01330321  0.91871323  0.78783237  1
  Bi2+  Bi72  1  0.27888634  0.11502624  0.31485980  1
  Bi2+  Bi73  1  0.21947927  0.14172649  0.76351938  1
  Bi2+  Bi74  1  0.23556292  0.34973177  0.29364212  1
  Bi2+  Bi75  1  0.24492731  0.33554435  0.77988808  1
  Bi2+  Bi76  1  0.23449101  0.65121972  0.30589192  1
  Bi2+  Bi77  1  0.25586201  0.59246703  0.79205030  1
  Bi2+  Bi78  1  0.23530665  0.91920392  0.30461813  1
  Bi2+  Bi79  1  0.23407671  0.87619660  0.76797228  1
  Bi2+  Bi80  1  0.48032536  0.15070681  0.28943274  1
  Bi2+  Bi81  1  0.49302151  0.16890643  0.78873635  1
  Bi2+  Bi82  1  0.49160935  0.34905932  0.27856221  1
  Bi2+  Bi83  1  0.47809349  0.38283668  0.79231331  1
  Bi2+  Bi84  1  0.49868841  0.66622096  0.29282494  1
  Bi2+  Bi85  1  0.48617900  0.63060526  0.79445658  1
  Bi2+  Bi86  1  0.48508297  0.95054691  0.26853175  1
  Bi2+  Bi87  1  0.50410566  0.90899975  0.81184262  1
  Bi2+  Bi88  1  0.73977486  0.08520372  0.28411864  1
  Bi2+  Bi89  1  0.71998260  0.13103529  0.75643278  1
  Bi2+  Bi90  1  0.74386025  0.33403896  0.28402157  1
  Bi2+  Bi91  1  0.74567422  0.37879589  0.79409816  1
  Bi2+  Bi92  1  0.76308961  0.59322796  0.28697406  1
  Bi2+  Bi93  1  0.78994155  0.61009968  0.77638901  1
  Bi2+  Bi94  1  0.72274564  0.84268962  0.29075673  1
  Bi2+  Bi95  1  0.75533039  0.93283942  0.78915318  1
  Bi2+  Bi96  1  0.11266588  -0.00362775  0.22547340  1
  Bi2+  Bi97  1  0.10894209  0.03538971  0.69116019  1
  Bi2+  Bi98  1  0.12415290  0.22802605  0.21964142  1
  Bi2+  Bi99  1  0.12808521  0.35771035  0.68543000  1
  Bi2+  Bi100  1  0.10751484  0.47097099  0.21415360  1
  Bi2+  Bi101  1  0.06626273  0.54947624  0.69220662  1
  Bi2+  Bi102  1  0.07823937  0.74851624  0.21087930  1
  Bi2+  Bi103  1  0.13335645  0.76149404  0.69562155  1
  Bi2+  Bi104  1  0.33490102  0.01892729  0.20471666  1
  Bi2+  Bi105  1  0.37888294  0.01803263  0.74550961  1
  Bi2+  Bi106  1  0.32429702  0.22581907  0.21759546  1
  Bi2+  Bi107  1  0.34568619  0.26639926  0.68813743  1
  Bi2+  Bi108  1  0.36377017  0.49387742  0.22584586  1
  Bi2+  Bi109  1  0.36514262  0.46640062  0.71394166  1
  Bi2+  Bi110  1  0.33556871  0.82425175  0.21852222  1
  Bi2+  Bi111  1  0.35049074  0.72898969  0.73245058  1
  Bi2+  Bi112  1  0.61717549  -0.00367690  0.19049419  1
  Bi2+  Bi113  1  0.56428472  0.04442816  0.70461976  1
  Bi2+  Bi114  1  0.64399477  0.19147628  0.20851005  1
  Bi2+  Bi115  1  0.60379538  0.28171861  0.71834725  1
  Bi2+  Bi116  1  0.62072061  0.48154465  0.19591264  1
  Bi2+  Bi117  1  0.61807083  0.52831759  0.68595640  1
  Bi2+  Bi118  1  0.64640948  0.77277629  0.19778083  1
  Bi2+  Bi119  1  0.61863106  0.78102197  0.70709309  1
  Bi2+  Bi120  1  0.87150279  0.01603097  0.19754293  1
  Bi2+  Bi121  1  0.83719432  0.00112617  0.69632612  1
  Bi2+  Bi122  1  0.91345458  0.22408141  0.27298785  1
  Bi2+  Bi123  1  0.92367083  0.26068044  0.71990407  1
  Bi2+  Bi124  1  0.88613945  0.47060783  0.21104676  1
  Bi2+  Bi125  1  0.88221379  0.49501076  0.70471417  1
  Bi2+  Bi126  1  0.87895259  0.72814053  0.22834292  1
  Bi2+  Bi127  1  0.91167598  0.75845923  0.76337835  1
  S2-  S128  1  0.01379022  -0.00564476  0.14102936  1
  S2-  S129  1  0.01877840  0.19137524  0.64791051  1
  S2-  S130  1  0.00315911  0.37689846  0.15575449  1
  S2-  S131  1  -0.12408553  0.35413841  0.64058149  1
  S2-  S132  1  0.08924565  0.60674670  0.15174765  1
  S2-  S133  1  0.00230347  0.71569635  0.64050615  1
  S2-  S134  1  -0.03427368  0.76153441  0.13655225  1
  S2-  S135  1  -0.01059370  0.95919239  0.64154827  1
  S2-  S136  1  0.21080972  0.12091272  0.15228569  1
  S2-  S137  1  0.25292185  0.13513029  0.65253499  1
  S2-  S138  1  0.25034016  0.45339729  0.15067276  1
  S2-  S139  1  0.25402936  0.46449910  0.63586386  1
  S2-  S140  1  0.30199464  0.65104370  0.20734851  1
  S2-  S141  1  0.27698863  0.70065652  0.64125003  1
  S2-  S142  1  0.21100127  0.81173648  0.14857998  1
  S2-  S143  1  0.21915614  0.91096780  0.65705305  1
  S2-  S144  1  0.51637126  0.12815587  0.15187747  1
  S2-  S145  1  0.49762812  0.21477363  0.64054845  1
  S2-  S146  1  0.51778261  0.36320321  0.16804764  1
  S2-  S147  1  0.48478762  0.48512219  0.63540863  1
  S2-  S148  1  0.47769709  0.56322972  0.17173743  1
  S2-  S149  1  0.54851356  0.68663636  0.64020950  1
  S2-  S150  1  0.49989538  0.78635513  0.15071393  1
  S2-  S151  1  0.50898597  0.89173224  0.66834119  1
  S2-  S152  1  0.86471825  0.14871819  0.14025397  1
  S2-  S153  1  0.76233652  0.13271545  0.65217772  1
  S2-  S154  1  0.75678484  0.39268633  0.15623310  1
  S2-  S155  1  0.65720519  0.38021321  0.64076931  1
  S2-  S156  1  0.67649976  0.62866236  0.14479007  1
  S2-  S157  1  0.76558693  0.60213279  0.65465973  1
  S2-  S158  1  0.75491958  0.89675537  0.15178771  1
  S2-  S159  1  0.74727375  0.85343912  0.65707169  1
  S2-  S160  1  0.01265751  -0.02680814  0.35989284  1
  S2-  S161  1  0.15060520  0.12434017  0.85730069  1
  S2-  S162  1  0.11515136  0.32092514  0.36469974  1
  S2-  S163  1  0.01097992  0.28161640  0.85397770  1
  S2-  S164  1  0.23552749  0.50035559  0.35173374  1
  S2-  S165  1  0.12708947  0.50542729  0.84626591  1
  S2-  S166  1  0.12993604  0.75328989  0.34458732  1
  S2-  S167  1  0.13573977  0.86844731  0.85491740  1
  S2-  S168  1  0.37996778  -0.03145210  0.35527605  1
  S2-  S169  1  0.37693243  -0.00769361  0.85297941  1
  S2-  S170  1  0.37910064  0.32239683  0.35514500  1
  S2-  S171  1  0.37800084  0.26080573  0.84512653  1
  S2-  S172  1  0.43845016  0.52547598  0.32155081  1
  S2-  S173  1  0.38864350  0.51535188  0.85176540  1
  S2-  S174  1  0.37586138  0.73176575  0.34315474  1
  S2-  S175  1  0.45074080  0.76211213  0.85940534  1
  S2-  S176  1  0.60356434  0.09956766  0.35183392  1
  S2-  S177  1  0.63548635  0.01998031  0.84450234  1
  S2-  S178  1  0.61221321  0.33945843  0.34809903  1
  S2-  S179  1  0.60966387  0.38730964  0.85658305  1
  S2-  S180  1  0.62352257  0.59879888  0.34639994  1
  S2-  S181  1  0.61544302  0.60509330  0.85057037  1
  S2-  S182  1  0.59208988  0.83126975  0.35109288  1
  S2-  S183  1  0.65543517  0.80788111  0.81280303  1
  S2-  S184  1  0.78057069  -0.03390088  0.35268130  1
  S2-  S185  1  0.89190033  0.09562692  0.85505582  1
  S2-  S186  1  0.79975077  0.21662036  0.35607308  1
  S2-  S187  1  0.74943341  0.24776382  0.84918947  1
  S2-  S188  1  0.78387620  0.46020809  0.35143485  1
  S2-  S189  1  0.85050970  0.50104935  0.84424404  1
  S2-  S190  1  0.80134362  0.72297222  0.35450752  1
  S2-  S191  1  0.88537518  0.86636745  0.85518476  1
  S2-  S192  1  0.01184633  0.09455088  0.45986807  1
  S2-  S193  1  0.00716321  0.12544358  0.96103607  1
  S2-  S194  1  0.00503445  0.33567794  0.46436959  1
  S2-  S195  1  0.00582640  0.38051074  0.95449414  1
  S2-  S196  1  0.01258327  0.59272607  0.44995187  1
  S2-  S197  1  0.00389740  0.62958741  0.95250763  1
  S2-  S198  1  0.01312991  0.83745822  0.45681589  1
  S2-  S199  1  0.00328252  0.87406901  0.95673431  1
  S2-  S200  1  0.25747400  0.09068608  0.45285679  1
  S2-  S201  1  0.25746503  0.12838871  0.95597850  1
  S2-  S202  1  0.25949279  0.33816358  0.45728794  1
  S2-  S203  1  0.24815243  0.37820259  0.95370271  1
  S2-  S204  1  0.26263646  0.59547623  0.45552608  1
  S2-  S205  1  0.25135808  0.62682088  0.94602927  1
  S2-  S206  1  0.26061535  0.84128069  0.45795231  1
  S2-  S207  1  0.25772741  0.87891213  0.95672102  1
  S2-  S208  1  0.50685346  0.08924304  0.45950096  1
  S2-  S209  1  0.50397456  0.13184624  0.95041382  1
  S2-  S210  1  0.51029906  0.33937069  0.45476756  1
  S2-  S211  1  0.49988556  0.37974421  0.96122030  1
  S2-  S212  1  0.50586512  0.59207410  0.44825175  1
  S2-  S213  1  0.50133123  0.62371767  0.96422942  1
  S2-  S214  1  0.50711120  0.84527305  0.46154066  1
  S2-  S215  1  0.50133642  0.87957076  0.96202764  1
  S2-  S216  1  0.76001780  0.08901749  0.45400641  1
  S2-  S217  1  0.74822991  0.12592686  0.95697793  1
  S2-  S218  1  0.76445354  0.33970460  0.45689776  1
  S2-  S219  1  0.75521643  0.37885538  0.95415585  1
  S2-  S220  1  0.76429742  0.59091474  0.45187551  1
  S2-  S221  1  0.75250350  0.62960573  0.94776982  1
  S2-  S222  1  0.75970746  0.84460228  0.45410119  1
  S2-  S223  1  0.74293399  0.87157480  0.94676526  1
  S2-  S224  1  0.13407786  0.00319434  0.04036960  1
  S2-  S225  1  0.13793783  -0.03466698  0.53982048  1
  S2-  S226  1  0.12801155  0.25599137  0.04631245  1
  S2-  S227  1  0.13754563  0.21613377  0.54558610  1
  S2-  S228  1  0.12706263  0.50679993  0.04714970  1
  S2-  S229  1  0.12760381  0.46436491  0.54027097  1
  S2-  S230  1  0.13110566  0.75011570  0.03937693  1
  S2-  S231  1  0.13729706  0.71333809  0.54338528  1
  S2-  S232  1  0.37671499  0.00665042  0.05510928  1
  S2-  S233  1  0.38476797  -0.03167231  0.55813767  1
  S2-  S234  1  0.37519570  0.25660784  0.05385287  1
  S2-  S235  1  0.37882813  0.21545826  0.54026347  1
  S2-  S236  1  0.37480121  0.50698675  0.05404457  1
  S2-  S237  1  0.38483446  0.46599634  0.53108451  1
  S2-  S238  1  0.36911161  0.74875395  0.05651166  1
  S2-  S239  1  0.39001079  0.71395574  0.54432531  1
  S2-  S240  1  0.62669498  0.00775682  0.04838113  1
  S2-  S241  1  0.63223855  -0.03060789  0.55220995  1
  S2-  S242  1  0.62831992  0.25626086  0.04549499  1
  S2-  S243  1  0.63856152  0.21429928  0.54052303  1
  S2-  S244  1  0.62874388  0.49959601  0.04416329  1
  S2-  S245  1  0.63727151  0.46909089  0.53135755  1
  S2-  S246  1  0.62630374  0.75709102  0.04066480  1
  S2-  S247  1  0.63812353  0.71535103  0.53326084  1
  S2-  S248  1  0.87418811  0.00175177  0.03924059  1
  S2-  S249  1  0.88078923  -0.03484826  0.53978900  1
  S2-  S250  1  0.87922452  0.25977767  0.03840343  1
  S2-  S251  1  0.88404626  0.20931843  0.54481130  1
  S2-  S252  1  0.88053734  0.50621464  0.04956083  1
  S2-  S253  1  0.88682925  0.47026554  0.54163577  1
  S2-  S254  1  0.87369459  0.75332590  0.03474224  1
  S2-  S255  1  0.88119364  0.71661608  0.54298261  1
