# generated using pymatgen
data_La6Ce7Pr13Nd19Sm19(BiS2)64
_symmetry_space_group_name_H-M   'P 1'
_cell_length_a   16.11132093
_cell_length_b   16.06194192
_cell_length_c   27.23002053
_cell_angle_alpha   89.64476824
_cell_angle_beta   89.75448052
_cell_angle_gamma   89.91140141
_symmetry_Int_Tables_number   1
_chemical_formula_structural   La6Ce7Pr13Nd19Sm19(BiS2)64
_chemical_formula_sum   'La6 Ce7 Pr13 Nd19 Sm19 Bi64 S128'
_cell_volume   7046.35197150
_cell_formula_units_Z   1
loop_
 _symmetry_equiv_pos_site_id
 _symmetry_equiv_pos_as_xyz
  1  'x, y, z'
loop_
 _atom_type_symbol
 _atom_type_oxidation_number
  La3+  3.0
  Ce3+  3.0
  Pr3+  3.0
  Nd3+  3.0
  Sm3+  3.0
  Bi2+  2.0
  S2-  -2.0
loop_
 _atom_site_type_symbol
 _atom_site_label
 _atom_site_symmetry_multiplicity
 _atom_site_fract_x
 _atom_site_fract_y
 _atom_site_fract_z
 _atom_site_occupancy
  La3+  La0  1  0.86910666  0.00771210  0.91150768  1
  La3+  La1  1  0.88157385  0.51360182  0.42253892  1
  La3+  La2  1  0.11353251  0.24242555  0.42318326  1
  La3+  La3  1  0.49768706  0.61952319  0.09584105  1
  La3+  La4  1  0.74416097  0.87388613  0.06002829  1
  La3+  La5  1  0.61787525  0.73584005  0.89891636  1
  Ce3+  Ce6  1  0.25053723  0.62652805  0.56322294  1
  Ce3+  Ce7  1  0.13467005  0.00784645  0.90730676  1
  Ce3+  Ce8  1  0.37626761  0.00703765  0.44897691  1
  Ce3+  Ce9  1  -0.00220616  0.62664788  0.55966665  1
  Ce3+  Ce10  1  0.74899017  0.12557088  0.05198027  1
  Ce3+  Ce11  1  0.11914464  0.74778255  0.92961707  1
  Ce3+  Ce12  1  0.24829432  0.37482943  0.54588444  1
  Pr3+  Pr13  1  0.37639226  0.25391320  0.93381426  1
  Pr3+  Pr14  1  0.37796979  -0.00208140  0.93756534  1
  Pr3+  Pr15  1  0.25085122  0.87342119  0.57284810  1
  Pr3+  Pr16  1  0.74588006  0.87144791  0.58185644  1
  Pr3+  Pr17  1  0.87732196  0.76340967  0.43614110  1
  Pr3+  Pr18  1  0.49881160  0.87187331  0.05836809  1
  Pr3+  Pr19  1  0.13056225  0.25770552  0.91540900  1
  Pr3+  Pr20  1  0.74778231  0.62664150  0.56213282  1
  Pr3+  Pr21  1  0.74834768  0.38454285  0.56331828  1
  Pr3+  Pr22  1  0.74817071  0.37412339  0.06759903  1
  Pr3+  Pr23  1  0.25186893  0.14009966  0.58047355  1
  Pr3+  Pr24  1  0.12668286  0.50611046  0.43383464  1
  Pr3+  Pr25  1  0.37618363  0.50531963  0.43632287  1
  Nd3+  Nd26  1  0.75122102  0.12642793  0.56384445  1
  Nd3+  Nd27  1  0.24407306  0.87577344  0.04880556  1
  Nd3+  Nd28  1  0.62520776  -0.00314196  0.93405536  1
  Nd3+  Nd29  1  0.00023423  0.86821440  0.57950205  1
  Nd3+  Nd30  1  -0.00092108  0.62538194  0.06351778  1
  Nd3+  Nd31  1  0.24210152  0.12541003  0.05219109  1
  Nd3+  Nd32  1  -0.00023295  0.13973378  0.57927091  1
  Nd3+  Nd33  1  -0.00295027  0.87617517  0.04628815  1
  Nd3+  Nd34  1  0.49876206  0.87844517  0.56473824  1
  Nd3+  Nd35  1  -0.00098872  0.12528572  0.04510207  1
  Nd3+  Nd36  1  0.37701953  0.50842048  0.94547839  1
  Nd3+  Nd37  1  0.86594868  0.25718929  0.92358765  1
  Nd3+  Nd38  1  0.12541084  0.00784536  0.46089902  1
  Nd3+  Nd39  1  0.63195809  0.51018861  0.42074713  1
  Nd3+  Nd40  1  0.49442686  0.36975881  0.07079435  1
  Nd3+  Nd41  1  0.62744754  0.25463112  0.44239461  1
  Nd3+  Nd42  1  0.24552920  0.62334796  0.06714586  1
  Nd3+  Nd43  1  0.49848838  0.12719293  0.06298141  1
  Nd3+  Nd44  1  0.12860195  0.76001897  0.44094428  1
  Sm3+  Sm45  1  -0.00045509  0.38132199  0.55512054  1
  Sm3+  Sm46  1  0.87562505  0.75141910  0.93234480  1
  Sm3+  Sm47  1  0.86941801  0.50397252  0.94535079  1
  Sm3+  Sm48  1  0.37772526  0.75841844  0.44194776  1
  Sm3+  Sm49  1  0.62715984  0.75749945  0.43482563  1
  Sm3+  Sm50  1  0.12046815  0.49793695  0.93464902  1
  Sm3+  Sm51  1  0.62238645  0.50533028  0.95060194  1
  Sm3+  Sm52  1  0.74992179  0.62621010  0.06223327  1
  Sm3+  Sm53  1  0.50235284  0.12996940  0.55914141  1
  Sm3+  Sm54  1  0.87202876  0.25357570  0.44310439  1
  Sm3+  Sm55  1  0.24589873  0.37421669  0.05461495  1
  Sm3+  Sm56  1  0.50071027  0.37905512  0.55006671  1
  Sm3+  Sm57  1  -0.00158477  0.37372529  0.05278775  1
  Sm3+  Sm58  1  0.37541343  0.74627186  0.94562634  1
  Sm3+  Sm59  1  0.62220348  0.25347954  0.93676151  1
  Sm3+  Sm60  1  0.50159280  0.62527584  0.55227924  1
  Sm3+  Sm61  1  0.62824758  -0.00186562  0.44207670  1
  Sm3+  Sm62  1  0.87668487  -0.00169593  0.45553145  1
  Sm3+  Sm63  1  0.37621190  0.25175408  0.43618794  1
  Bi2+  Bi64  1  0.06039788  0.15942478  0.28822896  1
  Bi2+  Bi65  1  0.00314589  0.08099732  0.78451578  1
  Bi2+  Bi66  1  -0.00956136  0.36527997  0.28106421  1
  Bi2+  Bi67  1  -0.03562070  0.40561844  0.77427702  1
  Bi2+  Bi68  1  0.04925455  0.61833095  0.28506861  1
  Bi2+  Bi69  1  0.02810988  0.59331278  0.79334991  1
  Bi2+  Bi70  1  0.03280101  0.92853180  0.30234176  1
  Bi2+  Bi71  1  0.00114360  0.82844213  0.77194838  1
  Bi2+  Bi72  1  0.25877239  0.09109674  0.25247453  1
  Bi2+  Bi73  1  0.29257566  0.15734194  0.78424882  1
  Bi2+  Bi74  1  0.18715250  0.37090178  0.26818121  1
  Bi2+  Bi75  1  0.23117114  0.41155337  0.78624930  1
  Bi2+  Bi76  1  0.22694120  0.55065905  0.31448090  1
  Bi2+  Bi77  1  0.20991724  0.61252156  0.83122615  1
  Bi2+  Bi78  1  0.20980245  0.84092113  0.30399814  1
  Bi2+  Bi79  1  0.25644353  0.78939565  0.79332840  1
  Bi2+  Bi80  1  0.51696715  0.07339348  0.30918861  1
  Bi2+  Bi81  1  0.49755299  0.20511989  0.82747999  1
  Bi2+  Bi82  1  0.47240593  0.37518670  0.27743676  1
  Bi2+  Bi83  1  0.50994382  0.38621458  0.78453939  1
  Bi2+  Bi84  1  0.50952876  0.62310384  0.29419185  1
  Bi2+  Bi85  1  0.47161603  0.59942734  0.79316158  1
  Bi2+  Bi86  1  0.49591061  0.87707644  0.29860785  1
  Bi2+  Bi87  1  0.40737528  0.91365475  0.81213991  1
  Bi2+  Bi88  1  0.72373646  0.08133135  0.30240888  1
  Bi2+  Bi89  1  0.76705819  0.19235601  0.76911439  1
  Bi2+  Bi90  1  0.72599093  0.33970121  0.28087556  1
  Bi2+  Bi91  1  0.70939352  0.40550800  0.79186439  1
  Bi2+  Bi92  1  0.77500220  0.60023666  0.28851098  1
  Bi2+  Bi93  1  0.75544959  0.59970970  0.79079290  1
  Bi2+  Bi94  1  0.77265915  0.85501913  0.29635134  1
  Bi2+  Bi95  1  0.75507267  0.87057017  0.78283528  1
  Bi2+  Bi96  1  0.13070684  0.01015439  0.17674944  1
  Bi2+  Bi97  1  0.16993955  -0.02242241  0.71716889  1
  Bi2+  Bi98  1  0.12730976  0.26217909  0.17560524  1
  Bi2+  Bi99  1  0.12213074  0.24963826  0.70148726  1
  Bi2+  Bi100  1  0.14286058  0.57622514  0.18639065  1
  Bi2+  Bi101  1  0.12475011  0.49357322  0.69496355  1
  Bi2+  Bi102  1  0.11608839  0.77010652  0.19856795  1
  Bi2+  Bi103  1  0.13685371  0.69643051  0.71235248  1
  Bi2+  Bi104  1  0.34606931  -0.08152713  0.22906139  1
  Bi2+  Bi105  1  0.44142308  -0.00554769  0.71067968  1
  Bi2+  Bi106  1  0.42584342  0.19829678  0.23837698  1
  Bi2+  Bi107  1  0.37358473  0.35633792  0.70251511  1
  Bi2+  Bi108  1  0.32997648  0.48408616  0.20398813  1
  Bi2+  Bi109  1  0.31877467  0.54229692  0.69664841  1
  Bi2+  Bi110  1  0.29244836  0.69685653  0.24144354  1
  Bi2+  Bi111  1  0.38800808  0.72313421  0.71550268  1
  Bi2+  Bi112  1  0.60524413  0.01905842  0.20767656  1
  Bi2+  Bi113  1  0.56480303  0.02925137  0.80309475  1
  Bi2+  Bi114  1  0.64938404  0.20846129  0.19733177  1
  Bi2+  Bi115  1  0.58966062  0.20800863  0.72353254  1
  Bi2+  Bi116  1  0.63665835  0.51679939  0.20463979  1
  Bi2+  Bi117  1  0.59965446  0.50414947  0.70127455  1
  Bi2+  Bi118  1  0.66500187  0.77927520  0.20652052  1
  Bi2+  Bi119  1  0.61248255  0.75010344  0.70750893  1
  Bi2+  Bi120  1  0.87697784  0.00093785  0.24699631  1
  Bi2+  Bi121  1  0.87353835  0.02030257  0.69506263  1
  Bi2+  Bi122  1  0.85459369  0.19851216  0.24348494  1
  Bi2+  Bi123  1  0.81799174  0.34543013  0.70171571  1
  Bi2+  Bi124  1  0.90168391  0.48461187  0.20825728  1
  Bi2+  Bi125  1  0.93156679  0.49629035  0.66745849  1
  Bi2+  Bi126  1  0.91701596  0.77517922  0.21114583  1
  Bi2+  Bi127  1  0.87446760  0.66946520  0.71236627  1
  S2-  S128  1  0.02674703  0.13189402  0.14486256  1
  S2-  S129  1  0.02786481  0.11164068  0.68051091  1
  S2-  S130  1  0.00688816  0.37200971  0.15076721  1
  S2-  S131  1  0.00980116  0.29078417  0.63845212  1
  S2-  S132  1  -0.07105236  0.62597801  0.15547109  1
  S2-  S133  1  -0.00263342  0.71843560  0.64210449  1
  S2-  S134  1  0.01530521  0.88852665  0.14609830  1
  S2-  S135  1  0.01515960  0.91098980  0.67796181  1
  S2-  S136  1  0.25697264  0.13172014  0.15231631  1
  S2-  S137  1  0.24080992  0.12075435  0.68410074  1
  S2-  S138  1  0.27616885  0.35864823  0.15160567  1
  S2-  S139  1  0.24697830  0.30392058  0.63498369  1
  S2-  S140  1  0.34406151  0.64011212  0.14869301  1
  S2-  S141  1  0.25570106  0.73192438  0.64148985  1
  S2-  S142  1  0.25082036  0.88025743  0.14815865  1
  S2-  S143  1  0.29452067  0.93164757  0.66542108  1
  S2-  S144  1  0.49728196  0.23652506  0.14089930  1
  S2-  S145  1  0.47984949  0.14098016  0.65616847  1
  S2-  S146  1  0.49972564  0.46520129  0.15464395  1
  S2-  S147  1  0.52469427  0.38150674  0.64711432  1
  S2-  S148  1  0.53500729  0.66463978  0.19909910  1
  S2-  S149  1  0.51109793  0.64273816  0.64995606  1
  S2-  S150  1  0.55425137  0.88234272  0.15455938  1
  S2-  S151  1  0.54089663  0.88248430  0.66055443  1
  S2-  S152  1  0.74010790  0.08632241  0.14646419  1
  S2-  S153  1  0.79043050  0.14916966  0.65945505  1
  S2-  S154  1  0.75943081  0.40383371  0.16719364  1
  S2-  S155  1  0.72617300  0.50439200  0.63655085  1
  S2-  S156  1  0.72102170  0.63373972  0.15999734  1
  S2-  S157  1  0.74838629  0.72885255  0.64614189  1
  S2-  S158  1  0.79678891  0.84672580  0.15538688  1
  S2-  S159  1  0.74492119  0.93251136  0.68036418  1
  S2-  S160  1  0.09602186  0.04486972  0.36453812  1
  S2-  S161  1  0.12407348  -0.08135754  0.81901440  1
  S2-  S162  1  0.19547810  0.24008998  0.33329248  1
  S2-  S163  1  0.12154532  0.14603902  0.83613589  1
  S2-  S164  1  0.02192305  0.49048023  0.35217804  1
  S2-  S165  1  0.10018943  0.39708904  0.85185201  1
  S2-  S166  1  0.06521569  0.76709376  0.34804651  1
  S2-  S167  1  -0.00219077  0.73117909  0.85820563  1
  S2-  S168  1  0.38114501  -0.01066474  0.35229711  1
  S2-  S169  1  0.29526475  0.02963336  0.85008733  1
  S2-  S170  1  0.42305152  0.25466177  0.34187932  1
  S2-  S171  1  0.28173876  0.27634972  0.84924755  1
  S2-  S172  1  0.39943520  0.50342517  0.33675480  1
  S2-  S173  1  0.35222345  0.50168667  0.84644482  1
  S2-  S174  1  0.42175598  0.74848590  0.34620316  1
  S2-  S175  1  0.44831791  0.71604049  0.85872464  1
  S2-  S176  1  0.63982059  -0.11544986  0.36549690  1
  S2-  S177  1  0.71933317  0.00046630  0.84886071  1
  S2-  S178  1  0.66683474  0.22881692  0.34738850  1
  S2-  S179  1  0.72687245  0.27579399  0.85856782  1
  S2-  S180  1  0.60230917  0.43797770  0.32808215  1
  S2-  S181  1  0.61897255  0.56998567  0.85798175  1
  S2-  S182  1  0.63678315  0.65045332  0.35231723  1
  S2-  S183  1  0.60963084  0.80889193  0.79955940  1
  S2-  S184  1  0.87926444  -0.09406472  0.37147308  1
  S2-  S185  1  0.90823304  -0.06095664  0.81786306  1
  S2-  S186  1  0.96327810  0.24165298  0.36002650  1
  S2-  S187  1  0.89259589  0.15719311  0.84067549  1
  S2-  S188  1  0.80585705  0.45327383  0.33812069  1
  S2-  S189  1  0.86085827  0.48590956  0.84731995  1
  S2-  S190  1  0.86991126  0.65965941  0.35292300  1
  S2-  S191  1  0.77852568  0.73968440  0.85070597  1
  S2-  S192  1  -0.00884124  0.12522718  0.47026594  1
  S2-  S193  1  -0.00106738  0.13049107  0.94179819  1
  S2-  S194  1  -0.00079720  0.37645228  0.45353169  1
  S2-  S195  1  -0.00968253  0.37690132  0.94952041  1
  S2-  S196  1  0.00658728  0.63528897  0.45501194  1
  S2-  S197  1  -0.00262347  0.61863707  0.95694325  1
  S2-  S198  1  0.00629388  0.88227946  0.47075514  1
  S2-  S199  1  -0.00189597  0.88166423  0.94196360  1
  S2-  S200  1  0.25241567  0.13202395  0.45892626  1
  S2-  S201  1  0.25068387  0.12833196  0.94964866  1
  S2-  S202  1  0.25077055  0.37556735  0.44040525  1
  S2-  S203  1  0.24994531  0.38389514  0.95229461  1
  S2-  S204  1  0.25315560  0.63422684  0.45352138  1
  S2-  S205  1  0.24593179  0.62593895  0.95907236  1
  S2-  S206  1  0.25305911  0.88156187  0.46169098  1
  S2-  S207  1  0.25020514  0.87023779  0.94369608  1
  S2-  S208  1  0.50536541  0.12780760  0.45367035  1
  S2-  S209  1  0.50170128  0.12621876  0.95574976  1
  S2-  S210  1  0.50081592  0.37708438  0.44629203  1
  S2-  S211  1  0.50056983  0.37937306  0.95566715  1
  S2-  S212  1  0.50019653  0.63204017  0.44938013  1
  S2-  S213  1  0.50135099  0.62685757  0.96638872  1
  S2-  S214  1  0.49942731  0.88037042  0.45875981  1
  S2-  S215  1  0.50343882  0.86891422  0.95075802  1
  S2-  S216  1  0.75227288  0.12349193  0.45682965  1
  S2-  S217  1  0.74540903  0.12909791  0.94900548  1
  S2-  S218  1  0.75060512  0.37821715  0.45418467  1
  S2-  S219  1  0.74604265  0.38190522  0.96022542  1
  S2-  S220  1  0.74951778  0.63394735  0.45490746  1
  S2-  S221  1  0.74788981  0.62681204  0.95787514  1
  S2-  S222  1  0.74798345  0.88127535  0.47205336  1
  S2-  S223  1  0.74581873  0.87034612  0.95113578  1
  S2-  S224  1  0.12232324  0.00022886  0.03208753  1
  S2-  S225  1  0.12647047  0.00781777  0.56553033  1
  S2-  S226  1  0.12274923  0.25355385  0.03301388  1
  S2-  S227  1  0.12444696  0.24998807  0.53658141  1
  S2-  S228  1  0.12178571  0.49816065  0.04290541  1
  S2-  S229  1  0.12594183  0.50183215  0.54342761  1
  S2-  S230  1  0.12215345  0.74859929  0.04131714  1
  S2-  S231  1  0.12640686  0.75209031  0.54563398  1
  S2-  S232  1  0.37299412  0.00157003  0.04625100  1
  S2-  S233  1  0.37488369  0.00913528  0.55439383  1
  S2-  S234  1  0.36890001  0.24979809  0.04059186  1
  S2-  S235  1  0.38058763  0.25266194  0.54192769  1
  S2-  S236  1  0.37041586  0.49735058  0.05002939  1
  S2-  S237  1  0.37620377  0.50096081  0.54415075  1
  S2-  S238  1  0.37086162  0.75113324  0.04861192  1
  S2-  S239  1  0.38029662  0.75150310  0.54569307  1
  S2-  S240  1  0.62010539  0.00272851  0.04144196  1
  S2-  S241  1  0.62435270  0.00494813  0.54974032  1
  S2-  S242  1  0.62446633  0.25204954  0.04165506  1
  S2-  S243  1  0.62674520  0.25364943  0.54962485  1
  S2-  S244  1  0.62458956  0.50039710  0.05427987  1
  S2-  S245  1  0.61994711  0.50298587  0.53108853  1
  S2-  S246  1  0.62162692  0.74359198  0.05875712  1
  S2-  S247  1  0.61901674  0.75334306  0.54315306  1
  S2-  S248  1  0.87359416  0.00047905  0.03772043  1
  S2-  S249  1  0.87824729  0.00160832  0.56037466  1
  S2-  S250  1  0.87400978  0.25228017  0.04140641  1
  S2-  S251  1  0.87053864  0.25692220  0.54657261  1
  S2-  S252  1  0.87369708  0.49917030  0.04990440  1
  S2-  S253  1  0.87616416  0.50332673  0.53579011  1
  S2-  S254  1  0.87475509  0.74749106  0.04047411  1
  S2-  S255  1  0.87431989  0.75503923  0.54418578  1
