# generated using pymatgen
data_La6Ce7Pr13Nd19Sm19(BiS2)64
_symmetry_space_group_name_H-M   'P 1'
_cell_length_a   16.04594064
_cell_length_b   16.06598289
_cell_length_c   27.37734232
_cell_angle_alpha   90.22327924
_cell_angle_beta   90.04783891
_cell_angle_gamma   90.00911389
_symmetry_Int_Tables_number   1
_chemical_formula_structural   La6Ce7Pr13Nd19Sm19(BiS2)64
_chemical_formula_sum   'La6 Ce7 Pr13 Nd19 Sm19 Bi64 S128'
_cell_volume   7057.65317992
_cell_formula_units_Z   1
loop_
 _symmetry_equiv_pos_site_id
 _symmetry_equiv_pos_as_xyz
  1  'x, y, z'
loop_
 _atom_type_symbol
 _atom_type_oxidation_number
  La3+  3.0
  Ce3+  3.0
  Pr3+  3.0
  Nd3+  3.0
  Sm3+  3.0
  Bi2+  2.0
  S2-  -2.0
loop_
 _atom_site_type_symbol
 _atom_site_label
 _atom_site_symmetry_multiplicity
 _atom_site_fract_x
 _atom_site_fract_y
 _atom_site_fract_z
 _atom_site_occupancy
  La3+  La0  1  0.51277639  0.12078425  0.06582097  1
  La3+  La1  1  0.88708547  -0.01655670  0.92025704  1
  La3+  La2  1  0.13717437  0.25177080  0.90519747  1
  La3+  La3  1  0.50961323  0.61195347  0.07389561  1
  La3+  La4  1  -0.01111697  0.12266426  0.60619887  1
  La3+  La5  1  0.25591710  0.12376467  0.11090749  1
  Ce3+  Ce6  1  0.87587002  -0.00720733  0.44159668  1
  Ce3+  Ce7  1  0.38765739  0.24325598  0.93402491  1
  Ce3+  Ce8  1  0.63449851  0.49893624  0.93434842  1
  Ce3+  Ce9  1  0.25864429  0.35978831  0.06017935  1
  Ce3+  Ce10  1  0.50087595  0.61825268  0.57190041  1
  Ce3+  Ce11  1  0.26030243  0.62359283  0.07015437  1
  Ce3+  Ce12  1  0.12853024  0.49142120  0.44898719  1
  Pr3+  Pr13  1  0.50079500  0.36800769  0.57034150  1
  Pr3+  Pr14  1  0.51098003  0.86909940  0.06650285  1
  Pr3+  Pr15  1  0.00252152  0.87044879  0.55693756  1
  Pr3+  Pr16  1  0.25580525  0.62188646  0.57168152  1
  Pr3+  Pr17  1  0.74963620  0.86942776  0.56588741  1
  Pr3+  Pr18  1  0.88232182  0.49020109  0.43884921  1
  Pr3+  Pr19  1  0.00841332  0.11600606  0.05941718  1
  Pr3+  Pr20  1  0.25563823  0.36521440  0.56977776  1
  Pr3+  Pr21  1  0.25222536  0.87073068  0.54406537  1
  Pr3+  Pr22  1  0.38433525  0.74472706  0.94329424  1
  Pr3+  Pr23  1  0.00941565  0.86713688  0.05729509  1
  Pr3+  Pr24  1  0.88656421  0.48669488  0.93413512  1
  Pr3+  Pr25  1  0.75161023  0.62107541  0.59073321  1
  Nd3+  Nd26  1  0.87959722  0.24039296  0.44563736  1
  Nd3+  Nd27  1  0.01049102  0.61864946  0.05399022  1
  Nd3+  Nd28  1  0.49629182  0.11397688  0.56719695  1
  Nd3+  Nd29  1  0.38562465  -0.00088210  0.41668879  1
  Nd3+  Nd30  1  0.13716357  0.74276179  0.92750134  1
  Nd3+  Nd31  1  0.13298729  -0.00775134  0.93078728  1
  Nd3+  Nd32  1  0.63605974  -0.01140430  0.93027563  1
  Nd3+  Nd33  1  0.24749190  0.11085494  0.56336324  1
  Nd3+  Nd34  1  0.38128907  -0.00033513  0.94458858  1
  Nd3+  Nd35  1  0.38303874  0.49001584  0.44067201  1
  Nd3+  Nd36  1  0.12592202  0.24043830  0.44621998  1
  Nd3+  Nd37  1  0.63125128  0.74107712  0.93431009  1
  Nd3+  Nd38  1  0.37544957  0.73193835  0.42658160  1
  Nd3+  Nd39  1  0.49981826  0.86558765  0.55175466  1
  Nd3+  Nd40  1  0.00146911  0.61836888  0.56112457  1
  Nd3+  Nd41  1  0.62801442  0.49250862  0.44609906  1
  Nd3+  Nd42  1  0.12619958  0.74105525  0.43627197  1
  Nd3+  Nd43  1  0.11750809  -0.00466011  0.42680190  1
  Nd3+  Nd44  1  0.62629687  0.73904876  0.44231385  1
  Sm3+  Sm45  1  0.75904315  0.60871854  0.06950832  1
  Sm3+  Sm46  1  0.75941579  0.36873226  0.05619543  1
  Sm3+  Sm47  1  0.51029310  0.36517287  0.05534639  1
  Sm3+  Sm48  1  0.01286684  0.36407179  0.05627410  1
  Sm3+  Sm49  1  0.74736705  0.11035896  0.56513304  1
  Sm3+  Sm50  1  0.88456021  0.73788599  0.93666295  1
  Sm3+  Sm51  1  0.75437539  0.36572565  0.55803273  1
  Sm3+  Sm52  1  0.38293665  0.49389127  0.94648346  1
  Sm3+  Sm53  1  0.13719391  0.49099991  0.94525230  1
  Sm3+  Sm54  1  0.88111181  0.23786542  0.93881874  1
  Sm3+  Sm55  1  0.87435611  0.74052077  0.44391848  1
  Sm3+  Sm56  1  0.62984015  0.24272507  0.92950556  1
  Sm3+  Sm57  1  0.62665805  0.24036430  0.44801088  1
  Sm3+  Sm58  1  0.37802335  0.23916462  0.44338247  1
  Sm3+  Sm59  1  0.62942034  -0.00956398  0.43504625  1
  Sm3+  Sm60  1  0.76034766  0.86495002  0.05489876  1
  Sm3+  Sm61  1  0.25563817  0.86844192  0.06389249  1
  Sm3+  Sm62  1  0.76457665  0.11641198  0.05487065  1
  Sm3+  Sm63  1  0.00777897  0.36714975  0.57427864  1
  Bi2+  Bi64  1  -0.01311993  0.15482454  0.29856565  1
  Bi2+  Bi65  1  -0.05512074  0.14017532  0.80203694  1
  Bi2+  Bi66  1  -0.04696753  0.40278497  0.29893520  1
  Bi2+  Bi67  1  0.00972366  0.48513480  0.78255905  1
  Bi2+  Bi68  1  0.00861968  0.62047932  0.30540291  1
  Bi2+  Bi69  1  0.02939247  0.68106261  0.80893122  1
  Bi2+  Bi70  1  -0.06556951  0.88275485  0.28824755  1
  Bi2+  Bi71  1  0.00409640  0.86966192  0.79405690  1
  Bi2+  Bi72  1  0.23493162  0.10861858  0.31680489  1
  Bi2+  Bi73  1  0.27514989  0.11190378  0.78874571  1
  Bi2+  Bi74  1  0.24637589  0.37451926  0.24779456  1
  Bi2+  Bi75  1  0.26269313  0.39290804  0.79380984  1
  Bi2+  Bi76  1  0.25384418  0.59298280  0.27655199  1
  Bi2+  Bi77  1  0.22240397  0.63379282  0.80439839  1
  Bi2+  Bi78  1  0.25036172  0.83733257  0.29554381  1
  Bi2+  Bi79  1  0.26517302  0.82671238  0.78153112  1
  Bi2+  Bi80  1  0.51648429  0.14168983  0.28893087  1
  Bi2+  Bi81  1  0.49821314  0.15718437  0.77504321  1
  Bi2+  Bi82  1  0.51015136  0.37045045  0.29355230  1
  Bi2+  Bi83  1  0.59476896  0.39983946  0.81457503  1
  Bi2+  Bi84  1  0.50284978  0.63976908  0.30731555  1
  Bi2+  Bi85  1  0.51152592  0.65520361  0.78382573  1
  Bi2+  Bi86  1  0.59035366  0.88897459  0.28780285  1
  Bi2+  Bi87  1  0.50281957  0.90429544  0.80914943  1
  Bi2+  Bi88  1  0.73067507  0.12467344  0.30012539  1
  Bi2+  Bi89  1  0.70465883  0.16978601  0.72386989  1
  Bi2+  Bi90  1  0.70002762  0.32410925  0.25237972  1
  Bi2+  Bi91  1  0.74959348  0.28342035  0.81448798  1
  Bi2+  Bi92  1  0.76261979  0.60870810  0.27388301  1
  Bi2+  Bi93  1  0.74368779  0.59562227  0.77849402  1
  Bi2+  Bi94  1  0.76207219  0.93695168  0.33110018  1
  Bi2+  Bi95  1  0.70418247  0.97501974  0.77810055  1
  Bi2+  Bi96  1  0.12311812  -0.00696284  0.21232783  1
  Bi2+  Bi97  1  0.12364001  -0.02417807  0.70276085  1
  Bi2+  Bi98  1  0.09958432  0.26524537  0.20744361  1
  Bi2+  Bi99  1  0.11494189  0.25669140  0.71216788  1
  Bi2+  Bi100  1  0.11015919  0.50885189  0.21710097  1
  Bi2+  Bi101  1  0.16824782  0.52032748  0.71263148  1
  Bi2+  Bi102  1  0.07463905  0.74016431  0.20054174  1
  Bi2+  Bi103  1  0.17813792  0.71415425  0.70030634  1
  Bi2+  Bi104  1  0.38367243  -0.01679486  0.21355534  1
  Bi2+  Bi105  1  0.36049237  -0.02035278  0.70765229  1
  Bi2+  Bi106  1  0.48844921  0.26957215  0.19483529  1
  Bi2+  Bi107  1  0.35272496  0.24357626  0.70937297  1
  Bi2+  Bi108  1  0.40013067  0.48792963  0.22367144  1
  Bi2+  Bi109  1  0.44380745  0.47908417  0.75553122  1
  Bi2+  Bi110  1  0.34773183  0.73726888  0.20943565  1
  Bi2+  Bi111  1  0.39064698  0.75826807  0.70139405  1
  Bi2+  Bi112  1  0.63360582  0.03682035  0.21152432  1
  Bi2+  Bi113  1  0.55378378  0.01086074  0.68931834  1
  Bi2+  Bi114  1  0.66366101  0.20995297  0.15464666  1
  Bi2+  Bi115  1  0.54703578  0.25944334  0.68025316  1
  Bi2+  Bi116  1  0.64897669  0.49607945  0.20628006  1
  Bi2+  Bi117  1  0.62554866  0.44911909  0.70515872  1
  Bi2+  Bi118  1  0.63893566  0.76242270  0.21028350  1
  Bi2+  Bi119  1  0.63691095  0.74042531  0.71433735  1
  Bi2+  Bi120  1  0.86282561  0.04081592  0.22894904  1
  Bi2+  Bi121  1  0.85068017  -0.01922367  0.69655461  1
  Bi2+  Bi122  1  0.85094974  0.24203768  0.19636737  1
  Bi2+  Bi123  1  0.87694230  0.35166117  0.73474123  1
  Bi2+  Bi124  1  0.89977404  0.51503590  0.20979790  1
  Bi2+  Bi125  1  0.87126691  0.53819805  0.69502487  1
  Bi2+  Bi126  1  0.83427035  0.76297785  0.21737881  1
  Bi2+  Bi127  1  0.87639211  0.72791980  0.73193228  1
  S2-  S128  1  0.08977010  0.11440319  0.15153736  1
  S2-  S129  1  -0.01604201  0.07737254  0.71321415  1
  S2-  S130  1  -0.01464514  0.33203012  0.15247728  1
  S2-  S131  1  -0.02351901  0.28140405  0.65841743  1
  S2-  S132  1  -0.03706302  0.64480933  0.14849331  1
  S2-  S133  1  -0.01879458  0.65458503  0.65694785  1
  S2-  S134  1  0.02029957  0.87920062  0.15840628  1
  S2-  S135  1  -0.00821700  0.90129361  0.65521166  1
  S2-  S136  1  0.25778001  0.10792854  0.22323985  1
  S2-  S137  1  0.15060058  0.11817274  0.64986706  1
  S2-  S138  1  0.25383638  0.29366218  0.15067909  1
  S2-  S139  1  0.14507144  0.37591977  0.64982232  1
  S2-  S140  1  0.21610862  0.74407970  0.14038178  1
  S2-  S141  1  0.38022168  0.62345129  0.64425997  1
  S2-  S142  1  0.25072009  0.95587515  0.14978209  1
  S2-  S143  1  0.24556092  0.90328333  0.64290047  1
  S2-  S144  1  0.42375696  0.11417844  0.15275527  1
  S2-  S145  1  0.37027618  0.10380740  0.63757726  1
  S2-  S146  1  0.51558405  0.43103908  0.14648140  1
  S2-  S147  1  0.38011115  0.37344739  0.64589796  1
  S2-  S148  1  0.38238743  0.61316357  0.14732748  1
  S2-  S149  1  0.61042252  0.60656646  0.65148557  1
  S2-  S150  1  0.46255206  0.85208719  0.16383553  1
  S2-  S151  1  0.52283782  0.84680611  0.65120406  1
  S2-  S152  1  0.87471331  0.10530683  0.13232327  1
  S2-  S153  1  0.82310374  0.13896633  0.65255783  1
  S2-  S154  1  0.77454331  0.47259115  0.13626454  1
  S2-  S155  1  0.76382312  0.38384807  0.65581903  1
  S2-  S156  1  0.63763326  0.63610198  0.14261903  1
  S2-  S157  1  0.76631601  0.76781815  0.65067132  1
  S2-  S158  1  0.74664020  0.86629768  0.15386570  1
  S2-  S159  1  0.70565763  0.98498048  0.63876280  1
  S2-  S160  1  0.14683171  -0.04815434  0.32737428  1
  S2-  S161  1  0.01803540  0.01148524  0.85111865  1
  S2-  S162  1  0.11621345  0.23042237  0.34590785  1
  S2-  S163  1  0.11112126  0.18661457  0.81059559  1
  S2-  S164  1  0.07342090  0.47505195  0.35806599  1
  S2-  S165  1  0.12535358  0.41857392  0.85564119  1
  S2-  S166  1  0.14910507  0.70702407  0.33970171  1
  S2-  S167  1  0.15893197  0.86425750  0.85583579  1
  S2-  S168  1  0.34478914  -0.02824805  0.31709360  1
  S2-  S169  1  0.36167333  0.00222277  0.84335180  1
  S2-  S170  1  0.37764192  0.18561888  0.35070095  1
  S2-  S171  1  0.29537027  0.25876248  0.84963863  1
  S2-  S172  1  0.35882225  0.58520879  0.36018615  1
  S2-  S173  1  0.36815638  0.50329723  0.84850032  1
  S2-  S174  1  0.40862366  0.77439493  0.33048548  1
  S2-  S175  1  0.42415353  0.76392307  0.84569716  1
  S2-  S176  1  0.53149685  0.00805554  0.35590217  1
  S2-  S177  1  0.58463147  0.05313800  0.84106839  1
  S2-  S178  1  0.61950697  0.24909134  0.35020338  1
  S2-  S179  1  0.50858999  0.25812290  0.85821418  1
  S2-  S180  1  0.56714662  0.49660348  0.35305093  1
  S2-  S181  1  0.62958429  0.61700327  0.86180361  1
  S2-  S182  1  0.63216430  0.72479331  0.34303535  1
  S2-  S183  1  0.63655998  0.85590224  0.85583183  1
  S2-  S184  1  0.96814936  0.01471113  0.36032582  1
  S2-  S185  1  0.80357697  0.05642658  0.83994408  1
  S2-  S186  1  0.88552405  0.26520995  0.34650427  1
  S2-  S187  1  0.92000186  0.29655315  0.85004723  1
  S2-  S188  1  0.82840683  0.49955484  0.34323942  1
  S2-  S189  1  0.86749452  0.53892695  0.83955927  1
  S2-  S190  1  0.91776319  0.73612496  0.34845799  1
  S2-  S191  1  0.87848520  0.83105504  0.85384825  1
  S2-  S192  1  0.00172967  0.12032475  0.45790811  1
  S2-  S193  1  0.01001194  0.12550931  0.95065810  1
  S2-  S194  1  0.00293439  0.36616218  0.46607064  1
  S2-  S195  1  0.01271039  0.36497461  0.95480138  1
  S2-  S196  1  0.00169560  0.61890707  0.45608517  1
  S2-  S197  1  0.01238746  0.61535718  0.94819325  1
  S2-  S198  1  0.00049747  0.86304246  0.45082704  1
  S2-  S199  1  0.01075769  0.85857829  0.95256092  1
  S2-  S200  1  0.25235747  0.11389791  0.45250601  1
  S2-  S201  1  0.25386291  0.12055792  0.94118448  1
  S2-  S202  1  0.25574463  0.36521293  0.45471954  1
  S2-  S203  1  0.25985182  0.36940628  0.95595073  1
  S2-  S204  1  0.24974262  0.61646991  0.46253742  1
  S2-  S205  1  0.25830203  0.61773708  0.95723328  1
  S2-  S206  1  0.25318975  0.86742492  0.43875591  1
  S2-  S207  1  0.26184836  0.86970025  0.95806698  1
  S2-  S208  1  0.50381171  0.12008360  0.45939697  1
  S2-  S209  1  0.51376743  0.11705538  0.95740096  1
  S2-  S210  1  0.50268591  0.36273873  0.45959578  1
  S2-  S211  1  0.50988652  0.37493868  0.95395751  1
  S2-  S212  1  0.50275601  0.61648934  0.46188831  1
  S2-  S213  1  0.50481761  0.61683253  0.96225841  1
  S2-  S214  1  0.50096038  0.86366510  0.44651137  1
  S2-  S215  1  0.50822281  0.87171034  0.95916102  1
  S2-  S216  1  0.74978667  0.11745033  0.45604555  1
  S2-  S217  1  0.75355774  0.12100720  0.95260625  1
  S2-  S218  1  0.75103431  0.36574010  0.45319323  1
  S2-  S219  1  0.75659670  0.36716609  0.95091866  1
  S2-  S220  1  0.75369840  0.61561827  0.45235476  1
  S2-  S221  1  0.76479825  0.61565349  0.96026139  1
  S2-  S222  1  0.75062899  0.86470681  0.45781773  1
  S2-  S223  1  0.75948947  0.86254427  0.95383528  1
  S2-  S224  1  0.13329336  -0.00924583  0.03952470  1
  S2-  S225  1  0.12426932  -0.00720012  0.53611724  1
  S2-  S226  1  0.13393015  0.24110184  0.04799479  1
  S2-  S227  1  0.12532582  0.24163429  0.55011242  1
  S2-  S228  1  0.13500460  0.49251774  0.05112705  1
  S2-  S229  1  0.12873631  0.49639445  0.55335540  1
  S2-  S230  1  0.13184757  0.74216084  0.03460333  1
  S2-  S231  1  0.12759170  0.74231948  0.54523372  1
  S2-  S232  1  0.38323329  -0.00761829  0.04876457  1
  S2-  S233  1  0.37923916  -0.00906363  0.53157902  1
  S2-  S234  1  0.38699333  0.24244493  0.04289609  1
  S2-  S235  1  0.37628494  0.23991127  0.54516249  1
  S2-  S236  1  0.38073082  0.48686347  0.04906650  1
  S2-  S237  1  0.37656607  0.49277967  0.54427478  1
  S2-  S238  1  0.38462094  0.74666027  0.04849797  1
  S2-  S239  1  0.37575751  0.74321827  0.53774384  1
  S2-  S240  1  0.63998963  -0.00721991  0.04672897  1
  S2-  S241  1  0.61924949  -0.00611156  0.53619224  1
  S2-  S242  1  0.63761791  0.24641789  0.03531530  1
  S2-  S243  1  0.62807054  0.24020965  0.55243025  1
  S2-  S244  1  0.63507893  0.48939185  0.03972746  1
  S2-  S245  1  0.63115902  0.48945256  0.55052964  1
  S2-  S246  1  0.63607776  0.74408812  0.04191127  1
  S2-  S247  1  0.62883318  0.73958481  0.54726495  1
  S2-  S248  1  0.88205999  -0.01224320  0.03364023  1
  S2-  S249  1  0.87879846  -0.00264400  0.54801790  1
  S2-  S250  1  0.88247316  0.24831911  0.04123841  1
  S2-  S251  1  0.87613614  0.24345743  0.54945809  1
  S2-  S252  1  0.89024886  0.49027497  0.04042555  1
  S2-  S253  1  0.87640368  0.49256844  0.54997922  1
  S2-  S254  1  0.88065484  0.73885502  0.04294031  1
  S2-  S255  1  0.87601303  0.74080685  0.54696093  1
