# generated using pymatgen
data_La6Ce7Pr13Nd19Sm19(BiS2)64
_symmetry_space_group_name_H-M   'P 1'
_cell_length_a   16.00184882
_cell_length_b   16.05927363
_cell_length_c   27.45052540
_cell_angle_alpha   90.38379183
_cell_angle_beta   89.72624169
_cell_angle_gamma   90.13493310
_symmetry_Int_Tables_number   1
_chemical_formula_structural   La6Ce7Pr13Nd19Sm19(BiS2)64
_chemical_formula_sum   'La6 Ce7 Pr13 Nd19 Sm19 Bi64 S128'
_cell_volume   7053.92519210
_cell_formula_units_Z   1
loop_
 _symmetry_equiv_pos_site_id
 _symmetry_equiv_pos_as_xyz
  1  'x, y, z'
loop_
 _atom_type_symbol
 _atom_type_oxidation_number
  La3+  3.0
  Ce3+  3.0
  Pr3+  3.0
  Nd3+  3.0
  Sm3+  3.0
  Bi2+  2.0
  S2-  -2.0
loop_
 _atom_site_type_symbol
 _atom_site_label
 _atom_site_symmetry_multiplicity
 _atom_site_fract_x
 _atom_site_fract_y
 _atom_site_fract_z
 _atom_site_occupancy
  La3+  La0  1  0.00065254  0.86909627  0.60646865  1
  La3+  La1  1  0.75558871  0.12183178  0.59010833  1
  La3+  La2  1  0.49703746  0.36789796  0.56729734  1
  La3+  La3  1  0.12125470  0.23065629  0.40861378  1
  La3+  La4  1  0.87987386  0.01377793  0.90432093  1
  La3+  La5  1  0.62630927  0.77088400  0.91789121  1
  Ce3+  Ce6  1  0.87906302  0.48234423  0.44122426  1
  Ce3+  Ce7  1  0.87551612  0.76248185  0.92655922  1
  Ce3+  Ce8  1  0.37130311  0.51362200  0.94522599  1
  Ce3+  Ce9  1  0.24582041  0.39311847  0.07189347  1
  Ce3+  Ce10  1  0.74697262  0.86366709  0.57401360  1
  Ce3+  Ce11  1  0.75132654  0.13969710  0.05692789  1
  Ce3+  Ce12  1  0.37294037  -0.01188204  0.43182457  1
  Pr3+  Pr13  1  0.63297391  0.74146679  0.43100775  1
  Pr3+  Pr14  1  0.49752268  0.11379426  0.56152505  1
  Pr3+  Pr15  1  0.88090209  0.50865937  0.92918390  1
  Pr3+  Pr16  1  0.37457119  0.48490706  0.42259916  1
  Pr3+  Pr17  1  -0.01076845  0.39506338  0.08323391  1
  Pr3+  Pr18  1  0.87132495  0.22904693  0.42936923  1
  Pr3+  Pr19  1  0.24577904  0.64226622  0.07295754  1
  Pr3+  Pr20  1  0.87882606  0.74141511  0.43531133  1
  Pr3+  Pr21  1  0.62714050  0.48377391  0.43711281  1
  Pr3+  Pr22  1  0.25289343  0.36606394  0.55534249  1
  Pr3+  Pr23  1  0.62815594  -0.01238844  0.44766610  1
  Pr3+  Pr24  1  0.36978947  0.02091354  0.93283225  1
  Pr3+  Pr25  1  0.75194976  0.62037415  0.55622515  1
  Nd3+  Nd26  1  0.00015984  0.36222855  0.55750707  1
  Nd3+  Nd27  1  0.37607843  0.23467623  0.42864303  1
  Nd3+  Nd28  1  0.49789168  0.14088495  0.06241499  1
  Nd3+  Nd29  1  0.49990597  0.39199561  0.05888561  1
  Nd3+  Nd30  1  0.61740849  0.01610511  0.93327100  1
  Nd3+  Nd31  1  0.00213031  0.61945556  0.56288186  1
  Nd3+  Nd32  1  0.12088059  0.01658517  0.94723768  1
  Nd3+  Nd33  1  0.12154155  0.73964552  0.42901236  1
  Nd3+  Nd34  1  -0.00795340  0.64623070  0.06752456  1
  Nd3+  Nd35  1  0.88026411  0.26246781  0.92161597  1
  Nd3+  Nd36  1  0.37003226  0.75999632  0.92718974  1
  Nd3+  Nd37  1  0.49606940  0.89059415  0.05348175  1
  Nd3+  Nd38  1  0.74563695  0.36723653  0.57025543  1
  Nd3+  Nd39  1  0.11882669  0.26396192  0.95147780  1
  Nd3+  Nd40  1  0.75001726  0.39253341  0.06136856  1
  Nd3+  Nd41  1  0.49947380  0.64546869  0.05491001  1
  Nd3+  Nd42  1  0.24768950  0.11275401  0.56278948  1
  Nd3+  Nd43  1  0.12103666  0.76185366  0.93250328  1
  Nd3+  Nd44  1  0.87823790  -0.00851891  0.45483825  1
  Sm3+  Sm45  1  0.50140120  0.86508774  0.55921195  1
  Sm3+  Sm46  1  0.11895989  0.51292633  0.95035383  1
  Sm3+  Sm47  1  0.74798303  0.89115762  0.04995758  1
  Sm3+  Sm48  1  0.25158611  0.61821167  0.54345223  1
  Sm3+  Sm49  1  0.37059684  0.26583984  0.94965596  1
  Sm3+  Sm50  1  0.63084605  0.23590025  0.44344296  1
  Sm3+  Sm51  1  0.12521469  0.48478102  0.44076484  1
  Sm3+  Sm52  1  0.74751395  0.64420856  0.05066604  1
  Sm3+  Sm53  1  0.38494286  0.73762930  0.41112859  1
  Sm3+  Sm54  1  0.62565782  0.26208801  0.93974959  1
  Sm3+  Sm55  1  -0.00579299  0.14079995  0.06444035  1
  Sm3+  Sm56  1  0.00559000  0.12003340  0.56797134  1
  Sm3+  Sm57  1  0.62469304  0.51241845  0.94154021  1
  Sm3+  Sm58  1  -0.00242398  0.88711728  0.05888279  1
  Sm3+  Sm59  1  0.12594749  -0.01065349  0.44598313  1
  Sm3+  Sm60  1  0.49806191  0.61792569  0.54855189  1
  Sm3+  Sm61  1  0.24841854  0.89158286  0.05346373  1
  Sm3+  Sm62  1  0.24702979  0.14735660  0.07607153  1
  Sm3+  Sm63  1  0.24747809  0.86164880  0.55361716  1
  Bi2+  Bi64  1  -0.01533299  0.10332287  0.29445436  1
  Bi2+  Bi65  1  0.07717952  0.13817703  0.78846484  1
  Bi2+  Bi66  1  0.00524953  0.39462421  0.29396922  1
  Bi2+  Bi67  1  -0.00075793  0.38268784  0.79915022  1
  Bi2+  Bi68  1  -0.01847290  0.65890350  0.26462193  1
  Bi2+  Bi69  1  0.02368148  0.60870175  0.77949311  1
  Bi2+  Bi70  1  -0.09832066  0.85522542  0.31236687  1
  Bi2+  Bi71  1  0.04310166  0.86968334  0.79888243  1
  Bi2+  Bi72  1  0.25717245  0.06506533  0.29249697  1
  Bi2+  Bi73  1  0.26428075  0.10111796  0.81843815  1
  Bi2+  Bi74  1  0.26274072  0.38997424  0.28387863  1
  Bi2+  Bi75  1  0.20047263  0.38486763  0.78866924  1
  Bi2+  Bi76  1  0.21040434  0.69163207  0.29132853  1
  Bi2+  Bi77  1  0.29920977  0.64392081  0.78416825  1
  Bi2+  Bi78  1  0.18100714  0.88068131  0.30982154  1
  Bi2+  Bi79  1  0.27350614  0.90531044  0.79904042  1
  Bi2+  Bi80  1  0.52028301  0.20922103  0.28685975  1
  Bi2+  Bi81  1  0.46562466  0.15066198  0.79416017  1
  Bi2+  Bi82  1  0.53245484  0.40685040  0.29383795  1
  Bi2+  Bi83  1  0.39734445  0.38472170  0.78249562  1
  Bi2+  Bi84  1  0.47851026  0.66101702  0.27399850  1
  Bi2+  Bi85  1  0.52467250  0.61914642  0.79125298  1
  Bi2+  Bi86  1  0.47427450  0.90750410  0.28733510  1
  Bi2+  Bi87  1  0.46941628  0.88240108  0.78086576  1
  Bi2+  Bi88  1  0.75243139  0.12453057  0.29425303  1
  Bi2+  Bi89  1  0.69707242  0.09840586  0.81583744  1
  Bi2+  Bi90  1  0.73439688  0.38465073  0.29000808  1
  Bi2+  Bi91  1  0.80619090  0.41060472  0.75222975  1
  Bi2+  Bi92  1  0.71179177  0.64199077  0.24320327  1
  Bi2+  Bi93  1  0.75385063  0.58623693  0.79044115  1
  Bi2+  Bi94  1  0.66976098  0.87111717  0.30140656  1
  Bi2+  Bi95  1  0.72740040  0.84035260  0.77599219  1
  Bi2+  Bi96  1  0.03761946  -0.06348298  0.24073807  1
  Bi2+  Bi97  1  0.19601088  0.00072725  0.70640279  1
  Bi2+  Bi98  1  0.13714213  0.21510168  0.20979185  1
  Bi2+  Bi99  1  0.19266757  0.23258861  0.71623857  1
  Bi2+  Bi100  1  0.11890986  0.53271956  0.21865780  1
  Bi2+  Bi101  1  0.14821351  0.50563639  0.70586295  1
  Bi2+  Bi102  1  0.12358812  0.72017378  0.18524559  1
  Bi2+  Bi103  1  0.15849783  0.72214535  0.70703832  1
  Bi2+  Bi104  1  0.33227410  -0.06546316  0.20877887  1
  Bi2+  Bi105  1  0.37516138  0.05015534  0.66665055  1
  Bi2+  Bi106  1  0.37882430  0.19301157  0.20781237  1
  Bi2+  Bi107  1  0.39233126  0.24031937  0.69945826  1
  Bi2+  Bi108  1  0.34235291  0.53894461  0.23032716  1
  Bi2+  Bi109  1  0.37246138  0.52035203  0.69752157  1
  Bi2+  Bi110  1  0.32471517  0.73120157  0.19752021  1
  Bi2+  Bi111  1  0.35266702  0.78569047  0.71122103  1
  Bi2+  Bi112  1  0.58865124  0.04183566  0.23979514  1
  Bi2+  Bi113  1  0.54662140  -0.01335547  0.69875941  1
  Bi2+  Bi114  1  0.63955130  0.28992136  0.20401574  1
  Bi2+  Bi115  1  0.64177888  0.24859782  0.70876571  1
  Bi2+  Bi116  1  0.60540118  0.49329151  0.19261253  1
  Bi2+  Bi117  1  0.60969283  0.46319616  0.73825165  1
  Bi2+  Bi118  1  0.59436578  0.77914357  0.18963148  1
  Bi2+  Bi119  1  0.60283833  0.70503673  0.70144752  1
  Bi2+  Bi120  1  0.84148138  -0.01941564  0.22997153  1
  Bi2+  Bi121  1  0.87355566  -0.01121124  0.72486704  1
  Bi2+  Bi122  1  0.88792663  0.24604259  0.19451156  1
  Bi2+  Bi123  1  0.91450143  0.23819350  0.71399501  1
  Bi2+  Bi124  1  0.85929946  0.51438124  0.21451605  1
  Bi2+  Bi125  1  0.95058829  0.49157169  0.68439393  1
  Bi2+  Bi126  1  0.84521673  0.77878814  0.20525339  1
  Bi2+  Bi127  1  0.87506947  0.67501944  0.71580109  1
  S2-  S128  1  0.00818667  0.13023909  0.16277203  1
  S2-  S129  1  -0.09055840  0.11029948  0.65229672  1
  S2-  S130  1  0.04110736  0.33474545  0.18018642  1
  S2-  S131  1  0.01510272  0.33189424  0.65581234  1
  S2-  S132  1  -0.01179513  0.53980482  0.14775578  1
  S2-  S133  1  0.00932914  0.70934497  0.64826388  1
  S2-  S134  1  -0.02395692  0.78095720  0.13499625  1
  S2-  S135  1  0.02214746  0.93450634  0.70470880  1
  S2-  S136  1  0.25090900  0.08371256  0.16792464  1
  S2-  S137  1  0.13537530  0.12081284  0.64150515  1
  S2-  S138  1  0.25852051  0.28358604  0.14893954  1
  S2-  S139  1  0.36175763  0.37942893  0.63513955  1
  S2-  S140  1  0.24976944  0.51406137  0.14544835  1
  S2-  S141  1  0.24737644  0.60799911  0.64096260  1
  S2-  S142  1  0.21216152  0.86363418  0.14696724  1
  S2-  S143  1  0.17813892  0.85529700  0.64271728  1
  S2-  S144  1  0.49520547  0.11040948  0.15934656  1
  S2-  S145  1  0.59437537  0.13621633  0.64462359  1
  S2-  S146  1  0.50095895  0.36924555  0.15687000  1
  S2-  S147  1  0.61140580  0.38500329  0.64576002  1
  S2-  S148  1  0.51635460  0.62625747  0.15247358  1
  S2-  S149  1  0.49501742  0.60502729  0.64661254  1
  S2-  S150  1  0.47807019  0.87840432  0.15113324  1
  S2-  S151  1  0.60245722  0.85286798  0.64063884  1
  S2-  S152  1  0.75107371  0.17036643  0.15385809  1
  S2-  S153  1  0.72524826  0.09483942  0.72365080  1
  S2-  S154  1  0.84039334  0.38138257  0.14633464  1
  S2-  S155  1  0.78179820  0.27007779  0.65024664  1
  S2-  S156  1  0.75674600  0.60189875  0.14568064  1
  S2-  S157  1  0.73587456  0.63086501  0.65620067  1
  S2-  S158  1  0.72363951  0.86382250  0.14624394  1
  S2-  S159  1  0.83553725  0.87139049  0.65864892  1
  S2-  S160  1  0.11658304  0.06820279  0.35833488  1
  S2-  S161  1  0.04808651  0.01168101  0.85694724  1
  S2-  S162  1  0.19219317  0.25180861  0.31067150  1
  S2-  S163  1  0.03837915  0.25609148  0.86385386  1
  S2-  S164  1  0.13579562  0.47077469  0.34322875  1
  S2-  S165  1  0.03081024  0.51640909  0.86523195  1
  S2-  S166  1  -0.00116977  0.72097311  0.35669952  1
  S2-  S167  1  0.24190730  0.74947442  0.85780578  1
  S2-  S168  1  0.37182410  0.10424937  0.35716740  1
  S2-  S169  1  0.48777919  0.03113075  0.85733621  1
  S2-  S170  1  0.38433109  0.35544879  0.35322408  1
  S2-  S171  1  0.35113332  0.25139727  0.85337301  1
  S2-  S172  1  0.37044157  0.60339975  0.34534050  1
  S2-  S173  1  0.37727710  0.52192686  0.84850573  1
  S2-  S174  1  0.35164332  0.87417851  0.35340004  1
  S2-  S175  1  0.49171751  0.75682779  0.85093613  1
  S2-  S176  1  0.63648190  0.02368487  0.34968886  1
  S2-  S177  1  0.66036912  -0.07345297  0.84734747  1
  S2-  S178  1  0.73246641  0.25321933  0.36194972  1
  S2-  S179  1  0.61127890  0.23926552  0.84261869  1
  S2-  S180  1  0.64798929  0.51252260  0.33863747  1
  S2-  S181  1  0.62354336  0.49806360  0.84446583  1
  S2-  S182  1  0.52983342  0.75173084  0.34953101  1
  S2-  S183  1  0.75673148  0.73383005  0.84934027  1
  S2-  S184  1  0.86689274  0.07354777  0.36607638  1
  S2-  S185  1  0.87286943  -0.09209761  0.81925501  1
  S2-  S186  1  0.97812577  0.25775566  0.34635044  1
  S2-  S187  1  0.84791353  0.15006332  0.84335285  1
  S2-  S188  1  0.89456663  0.48179176  0.34302312  1
  S2-  S189  1  0.85096997  0.38929669  0.85414487  1
  S2-  S190  1  0.76051332  0.76238674  0.35831177  1
  S2-  S191  1  1.00325248  0.74545208  0.85665807  1
  S2-  S192  1  0.00512050  0.11620025  0.46309427  1
  S2-  S193  1  -0.00845899  0.13411708  0.96126386  1
  S2-  S194  1  0.00468539  0.36031992  0.45277063  1
  S2-  S195  1  -0.00277231  0.38773549  0.96690703  1
  S2-  S196  1  0.00260395  0.60812496  0.45695285  1
  S2-  S197  1  -0.00211099  0.63946565  0.96230644  1
  S2-  S198  1  0.00287265  0.86964291  0.44802064  1
  S2-  S199  1  -0.00415076  0.89145773  0.95680212  1
  S2-  S200  1  0.24713936  0.11534008  0.45776326  1
  S2-  S201  1  0.24658430  0.14199789  0.96576376  1
  S2-  S202  1  0.24502729  0.35854048  0.44926000  1
  S2-  S203  1  0.24463956  0.38903689  0.95985028  1
  S2-  S204  1  0.24718496  0.61565960  0.44195885  1
  S2-  S205  1  0.24556984  0.63471234  0.96159687  1
  S2-  S206  1  0.24676341  0.85961844  0.45206669  1
  S2-  S207  1  0.24783475  0.89330287  0.95072390  1
  S2-  S208  1  0.50415757  0.11510876  0.45530692  1
  S2-  S209  1  0.49612311  0.14589248  0.95810297  1
  S2-  S210  1  0.50468533  0.35812413  0.45485890  1
  S2-  S211  1  0.49954463  0.38640476  0.95174955  1
  S2-  S212  1  0.50208743  0.61282883  0.44595445  1
  S2-  S213  1  0.50046399  0.63678199  0.95070282  1
  S2-  S214  1  0.49868162  0.86272458  0.45538723  1
  S2-  S215  1  0.49125604  0.88989083  0.95017130  1
  S2-  S216  1  0.74825896  0.11359268  0.46933132  1
  S2-  S217  1  0.74832165  0.13728983  0.95194761  1
  S2-  S218  1  0.75241308  0.36424572  0.46259729  1
  S2-  S219  1  0.74486474  0.38634871  0.95629928  1
  S2-  S220  1  0.75448762  0.60993125  0.45064688  1
  S2-  S221  1  0.74933129  0.63185059  0.94909516  1
  S2-  S222  1  0.75384210  0.86692819  0.46485153  1
  S2-  S223  1  0.75609013  0.89735184  0.94884592  1
  S2-  S224  1  0.12130682  0.01526024  0.05346667  1
  S2-  S225  1  0.12005443  -0.01691474  0.54770701  1
  S2-  S226  1  0.11761975  0.26454798  0.05526137  1
  S2-  S227  1  0.12822402  0.24323101  0.54471488  1
  S2-  S228  1  0.11857400  0.51695241  0.05079151  1
  S2-  S229  1  0.12660026  0.49159691  0.54546224  1
  S2-  S230  1  0.12534055  0.76644800  0.03953838  1
  S2-  S231  1  0.12620182  0.73793230  0.53538837  1
  S2-  S232  1  0.36954105  0.01802035  0.04594918  1
  S2-  S233  1  0.37347097  -0.01590800  0.54063334  1
  S2-  S234  1  0.37492678  0.26603849  0.05135743  1
  S2-  S235  1  0.37298375  0.23573773  0.53927180  1
  S2-  S236  1  0.37636370  0.51757088  0.04942138  1
  S2-  S237  1  0.37506923  0.49527093  0.53043519  1
  S2-  S238  1  0.36952992  0.76518616  0.04153877  1
  S2-  S239  1  0.37574650  0.74238613  0.54421821  1
  S2-  S240  1  0.62192448  0.01511166  0.04352954  1
  S2-  S241  1  0.62688668  -0.00861298  0.55151083  1
  S2-  S242  1  0.62398127  0.26542507  0.04638461  1
  S2-  S243  1  0.62517655  0.24237537  0.54477683  1
  S2-  S244  1  0.62407484  0.51699924  0.04511737  1
  S2-  S245  1  0.62413383  0.49640032  0.54264261  1
  S2-  S246  1  0.62368944  0.76779859  0.03372067  1
  S2-  S247  1  0.62233749  0.73907290  0.53816476  1
  S2-  S248  1  0.87486933  0.01026951  0.06111317  1
  S2-  S249  1  0.88026733  -0.01189318  0.55676565  1
  S2-  S250  1  0.87409631  0.26332708  0.04438560  1
  S2-  S251  1  0.87796747  0.23978529  0.54390512  1
  S2-  S252  1  0.86868201  0.51871109  0.03980973  1
  S2-  S253  1  0.87561434  0.49079170  0.54905213  1
  S2-  S254  1  0.86717452  0.76746075  0.03495836  1
  S2-  S255  1  0.87984452  0.74468880  0.54580219  1
