# generated using pymatgen
data_La6Ce7Pr13Nd19Sm19(BiS2)64
_symmetry_space_group_name_H-M   'P 1'
_cell_length_a   16.10480693
_cell_length_b   16.11128178
_cell_length_c   27.35555260
_cell_angle_alpha   90.15135815
_cell_angle_beta   89.64186708
_cell_angle_gamma   90.03620725
_symmetry_Int_Tables_number   1
_chemical_formula_structural   La6Ce7Pr13Nd19Sm19(BiS2)64
_chemical_formula_sum   'La6 Ce7 Pr13 Nd19 Sm19 Bi64 S128'
_cell_volume   7097.75536588
_cell_formula_units_Z   1
loop_
 _symmetry_equiv_pos_site_id
 _symmetry_equiv_pos_as_xyz
  1  'x, y, z'
loop_
 _atom_type_symbol
 _atom_type_oxidation_number
  La3+  3.0
  Ce3+  3.0
  Pr3+  3.0
  Nd3+  3.0
  Sm3+  3.0
  Bi2+  2.0
  S2-  -2.0
loop_
 _atom_site_type_symbol
 _atom_site_label
 _atom_site_symmetry_multiplicity
 _atom_site_fract_x
 _atom_site_fract_y
 _atom_site_fract_z
 _atom_site_occupancy
  La3+  La0  1  0.87839296  -0.00213871  0.39449807  1
  La3+  La1  1  0.38215630  0.50804003  0.39897179  1
  La3+  La2  1  0.13329107  -0.00438877  0.43123273  1
  La3+  La3  1  0.49622674  0.62794057  0.07068060  1
  La3+  La4  1  0.00884264  0.63437575  0.60817822  1
  La3+  La5  1  0.38684143  0.24982523  0.42953508  1
  Ce3+  Ce6  1  0.00565477  0.87630418  0.55723062  1
  Ce3+  Ce7  1  0.74821437  0.37642068  0.05303089  1
  Ce3+  Ce8  1  0.24350949  0.12862140  0.06466957  1
  Ce3+  Ce9  1  0.38288141  0.74694633  0.44036536  1
  Ce3+  Ce10  1  0.87584227  0.49929970  0.93430318  1
  Ce3+  Ce11  1  0.25990939  0.62382360  0.56141417  1
  Ce3+  Ce12  1  0.12855226  0.75218396  0.44004962  1
  Pr3+  Pr13  1  0.24290000  0.87800492  0.06160637  1
  Pr3+  Pr14  1  0.37309393  0.74949882  0.93988538  1
  Pr3+  Pr15  1  0.12239829  0.75753425  0.92612244  1
  Pr3+  Pr16  1  0.13568170  0.48926332  0.90670869  1
  Pr3+  Pr17  1  0.63284435  0.74978218  0.44604286  1
  Pr3+  Pr18  1  0.13891590  0.24315903  0.42722600  1
  Pr3+  Pr19  1  0.88667087  0.24810041  0.43442804  1
  Pr3+  Pr20  1  0.50829040  0.87336480  0.56132530  1
  Pr3+  Pr21  1  0.87508411  0.24965857  0.94017757  1
  Pr3+  Pr22  1  0.00935864  0.13007053  0.56513576  1
  Pr3+  Pr23  1  -0.00355077  0.38041660  0.06181608  1
  Pr3+  Pr24  1  0.26190998  0.37884381  0.55566621  1
  Pr3+  Pr25  1  0.74663564  0.87093201  0.06402894  1
  Nd3+  Nd26  1  0.49386062  0.38163448  0.07878364  1
  Nd3+  Nd27  1  -0.01258116  0.11881711  0.08793788  1
  Nd3+  Nd28  1  0.01290018  0.37602863  0.56694285  1
  Nd3+  Nd29  1  0.12702817  0.50138477  0.43485837  1
  Nd3+  Nd30  1  0.74754997  0.12533808  0.06241550  1
  Nd3+  Nd31  1  0.00032280  0.87350771  0.06799784  1
  Nd3+  Nd32  1  0.38010899  0.49281968  0.93488109  1
  Nd3+  Nd33  1  0.24315634  0.62419860  0.05146512  1
  Nd3+  Nd34  1  0.63163077  0.00027790  0.43884840  1
  Nd3+  Nd35  1  0.87393328  0.75187907  0.94166166  1
  Nd3+  Nd36  1  0.49595892  0.87380770  0.06824352  1
  Nd3+  Nd37  1  0.49488692  0.12908135  0.06217347  1
  Nd3+  Nd38  1  0.25425247  0.87177892  0.56039626  1
  Nd3+  Nd39  1  0.76289644  0.62226562  0.56058780  1
  Nd3+  Nd40  1  0.62801778  0.25186999  0.43548812  1
  Nd3+  Nd41  1  0.88552007  0.50046414  0.43615184  1
  Nd3+  Nd42  1  0.23876747  0.38762030  0.07567049  1
  Nd3+  Nd43  1  0.50368987  0.37542387  0.56259983  1
  Nd3+  Nd44  1  0.62180824  0.75422633  0.93528982  1
  Sm3+  Sm45  1  0.37221566  0.25321348  0.95259301  1
  Sm3+  Sm46  1  0.50348646  0.62329616  0.56490210  1
  Sm3+  Sm47  1  0.12185149  0.00153616  0.94206483  1
  Sm3+  Sm48  1  0.62141777  0.24979961  0.94898437  1
  Sm3+  Sm49  1  0.87927771  0.75225752  0.44390205  1
  Sm3+  Sm50  1  0.75802101  0.87784589  0.56057577  1
  Sm3+  Sm51  1  0.62153431  0.00089804  0.95087222  1
  Sm3+  Sm52  1  0.87393084  0.00096072  0.94372707  1
  Sm3+  Sm53  1  0.37268271  0.00217453  0.95135709  1
  Sm3+  Sm54  1  0.25634791  0.12675793  0.56274521  1
  Sm3+  Sm55  1  0.74718287  0.62559643  0.04998238  1
  Sm3+  Sm56  1  0.61866767  0.49989394  0.94259971  1
  Sm3+  Sm57  1  -0.00001816  0.62519849  0.04625201  1
  Sm3+  Sm58  1  0.75766123  0.37400501  0.55120398  1
  Sm3+  Sm59  1  0.38429601  0.00000542  0.44648707  1
  Sm3+  Sm60  1  0.62822553  0.50119040  0.44644111  1
  Sm3+  Sm61  1  0.50046755  0.12710636  0.56697735  1
  Sm3+  Sm62  1  0.12370730  0.25144536  0.94836942  1
  Sm3+  Sm63  1  0.75603951  0.12529594  0.55106962  1
  Bi2+  Bi64  1  0.00308164  0.16579094  0.29316257  1
  Bi2+  Bi65  1  0.01503529  0.10135151  0.79836871  1
  Bi2+  Bi66  1  -0.04453004  0.39247705  0.28251543  1
  Bi2+  Bi67  1  -0.01441403  0.35475931  0.79996535  1
  Bi2+  Bi68  1  0.01938238  0.64041041  0.29702961  1
  Bi2+  Bi69  1  -0.01865520  0.61906548  0.81139902  1
  Bi2+  Bi70  1  0.01410387  0.84095616  0.28240981  1
  Bi2+  Bi71  1  -0.01459350  0.87843331  0.79777546  1
  Bi2+  Bi72  1  0.25438604  0.12045887  0.28646302  1
  Bi2+  Bi73  1  0.21579060  0.13776575  0.79410152  1
  Bi2+  Bi74  1  0.21921313  0.38143188  0.29793537  1
  Bi2+  Bi75  1  0.27654686  0.34465843  0.79811051  1
  Bi2+  Bi76  1  0.21479513  0.65548471  0.27352560  1
  Bi2+  Bi77  1  0.28417159  0.63361088  0.78642746  1
  Bi2+  Bi78  1  0.25326548  0.84960929  0.28347119  1
  Bi2+  Bi79  1  0.24798839  0.93721369  0.79137911  1
  Bi2+  Bi80  1  0.49548870  0.06259676  0.31235401  1
  Bi2+  Bi81  1  0.52348837  0.14250824  0.78859290  1
  Bi2+  Bi82  1  0.55311166  0.37258177  0.29360470  1
  Bi2+  Bi83  1  0.52473707  0.38004523  0.79899112  1
  Bi2+  Bi84  1  0.52028211  0.63910491  0.28986430  1
  Bi2+  Bi85  1  0.51440702  0.66305089  0.79907129  1
  Bi2+  Bi86  1  0.52434445  0.86812442  0.29532799  1
  Bi2+  Bi87  1  0.51431034  0.93751528  0.79499926  1
  Bi2+  Bi88  1  0.68224252  0.10062517  0.28035928  1
  Bi2+  Bi89  1  0.74230881  0.15654999  0.79399259  1
  Bi2+  Bi90  1  0.75582810  0.36946293  0.30408947  1
  Bi2+  Bi91  1  0.71570405  0.33057488  0.74004879  1
  Bi2+  Bi92  1  0.78853984  0.57145130  0.29766939  1
  Bi2+  Bi93  1  0.69500745  0.60518798  0.76262299  1
  Bi2+  Bi94  1  0.74544742  0.83642616  0.29125720  1
  Bi2+  Bi95  1  0.69754874  0.86993006  0.77727779  1
  Bi2+  Bi96  1  0.13760152  0.01307942  0.19859494  1
  Bi2+  Bi97  1  0.11181339  -0.00296931  0.71429171  1
  Bi2+  Bi98  1  0.15817665  0.27850403  0.21293365  1
  Bi2+  Bi99  1  0.12130804  0.23658121  0.70541005  1
  Bi2+  Bi100  1  0.11600527  0.52938173  0.20340786  1
  Bi2+  Bi101  1  0.14319660  0.48247004  0.70591011  1
  Bi2+  Bi102  1  0.06484393  0.73917757  0.18480922  1
  Bi2+  Bi103  1  0.13746709  0.75535011  0.71086340  1
  Bi2+  Bi104  1  0.39259660  -0.06447835  0.21833498  1
  Bi2+  Bi105  1  0.36930969  0.05971331  0.73080582  1
  Bi2+  Bi106  1  0.40170219  0.21790270  0.21335858  1
  Bi2+  Bi107  1  0.40118616  0.26371145  0.71136670  1
  Bi2+  Bi108  1  0.36977306  0.49084041  0.20707206  1
  Bi2+  Bi109  1  0.40422854  0.52350827  0.71776886  1
  Bi2+  Bi110  1  0.37874322  0.73743837  0.22250338  1
  Bi2+  Bi111  1  0.38637941  0.78064821  0.70511418  1
  Bi2+  Bi112  1  0.58988414  -0.01226136  0.20321748  1
  Bi2+  Bi113  1  0.64668618  0.03797857  0.71663415  1
  Bi2+  Bi114  1  0.66306836  0.26063440  0.21804796  1
  Bi2+  Bi115  1  0.58566414  0.21561090  0.67913963  1
  Bi2+  Bi116  1  0.64898957  0.56829501  0.21656257  1
  Bi2+  Bi117  1  0.59107210  0.47581059  0.70230196  1
  Bi2+  Bi118  1  0.64133614  0.79829255  0.19439309  1
  Bi2+  Bi119  1  0.59650905  0.74618402  0.70488161  1
  Bi2+  Bi120  1  0.85919063  0.00784632  0.21404383  1
  Bi2+  Bi121  1  0.91592495  -0.00959121  0.71211441  1
  Bi2+  Bi122  1  0.85925810  0.28299238  0.20408725  1
  Bi2+  Bi123  1  0.88128121  0.18228312  0.71096459  1
  Bi2+  Bi124  1  0.84900236  0.48253208  0.19962701  1
  Bi2+  Bi125  1  0.85596648  0.48585749  0.70994516  1
  Bi2+  Bi126  1  0.87934441  0.71803572  0.23077648  1
  Bi2+  Bi127  1  0.86105786  0.77399221  0.70717687  1
  S2-  S128  1  0.05657750  0.16609894  0.17759363  1
  S2-  S129  1  -0.01180843  0.25276916  0.64138100  1
  S2-  S130  1  0.09742700  0.38855032  0.14339316  1
  S2-  S131  1  -0.00030395  0.47362954  0.65183744  1
  S2-  S132  1  -0.00736643  0.59090147  0.14163615  1
  S2-  S133  1  0.01420792  0.64993694  0.71985213  1
  S2-  S134  1  -0.00899379  0.97309874  0.14905930  1
  S2-  S135  1  0.01074802  0.80537616  0.64701266  1
  S2-  S136  1  0.26150634  0.10032801  0.16116246  1
  S2-  S137  1  0.14169383  0.11173888  0.63815574  1
  S2-  S138  1  0.30546863  0.34166726  0.16577081  1
  S2-  S139  1  0.18521437  0.36190162  0.64799564  1
  S2-  S140  1  0.25883149  0.55475851  0.14289427  1
  S2-  S141  1  0.17520710  0.62413943  0.64878143  1
  S2-  S142  1  0.18051140  0.86015292  0.15377132  1
  S2-  S143  1  0.26009948  0.85779818  0.66008220  1
  S2-  S144  1  0.49156776  0.11279013  0.16061331  1
  S2-  S145  1  0.37468309  0.13148869  0.63837748  1
  S2-  S146  1  0.51118277  0.31720730  0.17376606  1
  S2-  S147  1  0.40078738  0.39044941  0.64334320  1
  S2-  S148  1  0.49567755  0.51723712  0.14882391  1
  S2-  S149  1  0.39315422  0.63803021  0.64169627  1
  S2-  S150  1  0.49541940  0.75780372  0.14257879  1
  S2-  S151  1  0.49676884  0.87719312  0.66163657  1
  S2-  S152  1  0.83703569  0.13222474  0.14691934  1
  S2-  S153  1  0.74417101  0.13811593  0.64842439  1
  S2-  S154  1  0.72938968  0.38754601  0.14871486  1
  S2-  S155  1  0.78540943  0.38844880  0.64788335  1
  S2-  S156  1  0.72395738  0.66101613  0.14439886  1
  S2-  S157  1  0.83748641  0.62814066  0.64954403  1
  S2-  S158  1  0.78535993  0.89780309  0.16055122  1
  S2-  S159  1  0.74826866  0.84542140  0.65700298  1
  S2-  S160  1  0.12771091  0.10364302  0.35237422  1
  S2-  S161  1  0.12783269  -0.09954055  0.86207597  1
  S2-  S162  1  0.06895647  0.30289752  0.34060138  1
  S2-  S163  1  0.12746026  0.32255901  0.85932859  1
  S2-  S164  1  0.22136934  0.52242707  0.34896353  1
  S2-  S165  1  0.08699293  0.49381192  0.80595110  1
  S2-  S166  1  0.13535873  0.85901281  0.35963398  1
  S2-  S167  1  0.14190757  0.68146854  0.83552300  1
  S2-  S168  1  0.34392181  0.01678902  0.35193550  1
  S2-  S169  1  0.37803473  -0.00692264  0.85488731  1
  S2-  S170  1  0.28160600  0.24188412  0.34909059  1
  S2-  S171  1  0.39279185  0.29396187  0.85792700  1
  S2-  S172  1  0.38763131  0.42336004  0.30451850  1
  S2-  S173  1  0.28678823  0.49283158  0.85064924  1
  S2-  S174  1  0.39500250  0.66811649  0.35410742  1
  S2-  S175  1  0.37945694  0.74773556  0.83931083  1
  S2-  S176  1  0.71661448  -0.01769584  0.35163542  1
  S2-  S177  1  0.64478823  -0.02365461  0.85606678  1
  S2-  S178  1  0.52127405  0.24167267  0.35702460  1
  S2-  S179  1  0.62893433  0.25080627  0.85125008  1
  S2-  S180  1  0.55558177  0.50628955  0.35817731  1
  S2-  S181  1  0.51411908  0.49940453  0.86474714  1
  S2-  S182  1  0.63579875  0.73902186  0.34635197  1
  S2-  S183  1  0.66597261  0.73067797  0.84070400  1
  S2-  S184  1  0.95986880  0.00033562  0.29976953  1
  S2-  S185  1  0.89814152  0.00173831  0.84689295  1
  S2-  S186  1  0.87041083  0.16145690  0.34775136  1
  S2-  S187  1  0.89505287  0.23894030  0.84105509  1
  S2-  S188  1  0.99730507  0.50345838  0.35825356  1
  S2-  S189  1  0.87794025  0.47857517  0.83699728  1
  S2-  S190  1  0.87735247  0.82601113  0.35504423  1
  S2-  S191  1  0.89078893  0.76576930  0.84397621  1
  S2-  S192  1  0.00036107  0.11791574  0.45536907  1
  S2-  S193  1  -0.00000814  0.12437279  0.95298998  1
  S2-  S194  1  0.00652578  0.37286001  0.45804105  1
  S2-  S195  1  -0.00052505  0.37639762  0.95474035  1
  S2-  S196  1  0.00169556  0.63302988  0.45076630  1
  S2-  S197  1  0.00133624  0.62405500  0.94241183  1
  S2-  S198  1  -0.00291412  0.87911376  0.45408437  1
  S2-  S199  1  -0.00466639  0.87862026  0.96052203  1
  S2-  S200  1  0.26273845  0.12051049  0.45850190  1
  S2-  S201  1  0.24811025  0.12616533  0.95575226  1
  S2-  S202  1  0.26199387  0.38231534  0.44715279  1
  S2-  S203  1  0.24801926  0.37236257  0.96289589  1
  S2-  S204  1  0.25439271  0.62970329  0.45430956  1
  S2-  S205  1  0.24841822  0.62448032  0.94791115  1
  S2-  S206  1  0.26377770  0.87333347  0.45531244  1
  S2-  S207  1  0.25102106  0.87875683  0.95618765  1
  S2-  S208  1  0.50839385  0.12093913  0.46261093  1
  S2-  S209  1  0.49769416  0.12635162  0.95573409  1
  S2-  S210  1  0.50734961  0.37950013  0.45695674  1
  S2-  S211  1  0.50157374  0.37107974  0.96796983  1
  S2-  S212  1  0.50863616  0.62536054  0.46153179  1
  S2-  S213  1  0.50040199  0.62927963  0.95961748  1
  S2-  S214  1  0.50752641  0.87554978  0.45311742  1
  S2-  S215  1  0.49739356  0.87786911  0.95993794  1
  S2-  S216  1  0.75217625  0.12574601  0.44865977  1
  S2-  S217  1  0.74680446  0.12421363  0.95617045  1
  S2-  S218  1  0.75425446  0.37608595  0.44725787  1
  S2-  S219  1  0.74454069  0.37542284  0.94633590  1
  S2-  S220  1  0.75762599  0.62278304  0.45326082  1
  S2-  S221  1  0.74547314  0.62417793  0.94562001  1
  S2-  S222  1  0.75607758  0.87812628  0.45824312  1
  S2-  S223  1  0.74867771  0.87708606  0.95598597  1
  S2-  S224  1  0.11798278  0.00505908  0.04596511  1
  S2-  S225  1  0.13322128  -0.00492978  0.54083028  1
  S2-  S226  1  0.11638649  0.24692698  0.05115329  1
  S2-  S227  1  0.13669468  0.25026512  0.53606939  1
  S2-  S228  1  0.11955729  0.50339791  0.03619391  1
  S2-  S229  1  0.13233471  0.50203146  0.54164814  1
  S2-  S230  1  0.12072034  0.75034108  0.03745117  1
  S2-  S231  1  0.12913282  0.74923464  0.54452059  1
  S2-  S232  1  0.37301839  0.00030267  0.05565279  1
  S2-  S233  1  0.38174029  -0.00402659  0.54966169  1
  S2-  S234  1  0.37049060  0.25342296  0.05563139  1
  S2-  S235  1  0.38414204  0.24972741  0.53899873  1
  S2-  S236  1  0.37103510  0.49969464  0.04224844  1
  S2-  S237  1  0.38631603  0.50345331  0.54164491  1
  S2-  S238  1  0.36565864  0.75250325  0.04674430  1
  S2-  S239  1  0.38423613  0.75233334  0.54438118  1
  S2-  S240  1  0.62080612  0.00038566  0.05507212  1
  S2-  S241  1  0.63063328  0.00223540  0.54958577  1
  S2-  S242  1  0.62232269  0.25040848  0.05374172  1
  S2-  S243  1  0.63011099  0.25035993  0.54203515  1
  S2-  S244  1  0.62466681  0.50200531  0.04543278  1
  S2-  S245  1  0.63172660  0.50040616  0.55122357  1
  S2-  S246  1  0.62342123  0.75115803  0.04058467  1
  S2-  S247  1  0.63398178  0.74640402  0.55244749  1
  S2-  S248  1  0.87088304  -0.00194687  0.04615170  1
  S2-  S249  1  0.87849141  0.00238134  0.56021661  1
  S2-  S250  1  0.87479235  0.25006973  0.04631252  1
  S2-  S251  1  0.87547935  0.24977448  0.54044307  1
  S2-  S252  1  0.87114365  0.50400047  0.04100984  1
  S2-  S253  1  0.88036049  0.49579746  0.54059504  1
  S2-  S254  1  0.87466250  0.74858722  0.04815887  1
  S2-  S255  1  0.87868483  0.75271576  0.54655366  1
