# generated using pymatgen
data_La6Ce7Pr13Nd19Sm19(BiS2)64
_symmetry_space_group_name_H-M   'P 1'
_cell_length_a   16.08590745
_cell_length_b   16.11835837
_cell_length_c   27.32982263
_cell_angle_alpha   90.05851863
_cell_angle_beta   90.12846663
_cell_angle_gamma   89.97058021
_symmetry_Int_Tables_number   1
_chemical_formula_structural   La6Ce7Pr13Nd19Sm19(BiS2)64
_chemical_formula_sum   'La6 Ce7 Pr13 Nd19 Sm19 Bi64 S128'
_cell_volume   7086.01082317
_cell_formula_units_Z   1
loop_
 _symmetry_equiv_pos_site_id
 _symmetry_equiv_pos_as_xyz
  1  'x, y, z'
loop_
 _atom_type_symbol
 _atom_type_oxidation_number
  La3+  3.0
  Ce3+  3.0
  Pr3+  3.0
  Nd3+  3.0
  Sm3+  3.0
  Bi2+  2.0
  S2-  -2.0
loop_
 _atom_site_type_symbol
 _atom_site_label
 _atom_site_symmetry_multiplicity
 _atom_site_fract_x
 _atom_site_fract_y
 _atom_site_fract_z
 _atom_site_occupancy
  La3+  La0  1  0.51478133  0.12053183  0.58562806  1
  La3+  La1  1  0.13096098  0.24836146  0.43334075  1
  La3+  La2  1  0.75687944  0.13016058  0.11049736  1
  La3+  La3  1  0.11723048  -0.00214036  0.89374176  1
  La3+  La4  1  0.09855584  0.50524288  0.37994402  1
  La3+  La5  1  0.60943943  0.25185476  0.41405756  1
  Ce3+  Ce6  1  0.75090085  0.87386773  0.55329408  1
  Ce3+  Ce7  1  0.12549698  0.00228273  0.43927514  1
  Ce3+  Ce8  1  0.87416628  -0.00126354  0.43835868  1
  Ce3+  Ce9  1  0.25302955  0.12264550  0.04775576  1
  Ce3+  Ce10  1  0.74403992  0.12340997  0.54497595  1
  Ce3+  Ce11  1  0.00300273  0.61981908  0.56178399  1
  Ce3+  Ce12  1  0.37767065  0.49890530  0.93225014  1
  Pr3+  Pr13  1  0.01548030  0.12401633  0.06984304  1
  Pr3+  Pr14  1  0.37621388  0.74890703  0.93213851  1
  Pr3+  Pr15  1  0.87312370  0.49557056  0.44396868  1
  Pr3+  Pr16  1  0.38043576  0.23877290  0.91965598  1
  Pr3+  Pr17  1  0.36951904  0.49808270  0.43522592  1
  Pr3+  Pr18  1  0.12589683  0.24947062  0.92846222  1
  Pr3+  Pr19  1  0.50006091  0.87099665  0.57648694  1
  Pr3+  Pr20  1  0.87953056  0.00219614  0.94625599  1
  Pr3+  Pr21  1  0.63094975  0.25224649  0.93435035  1
  Pr3+  Pr22  1  0.50445372  0.37398026  0.56862192  1
  Pr3+  Pr23  1  0.00346324  0.37247108  0.55685673  1
  Pr3+  Pr24  1  0.75174740  0.62060148  0.06604671  1
  Pr3+  Pr25  1  0.11975604  0.49843828  0.92305901  1
  Nd3+  Nd26  1  0.24438912  0.87793195  0.56733190  1
  Nd3+  Nd27  1  0.23876318  0.13280170  0.58782070  1
  Nd3+  Nd28  1  0.62567940  0.00038129  0.93732254  1
  Nd3+  Nd29  1  0.61103516  -0.01276513  0.42729104  1
  Nd3+  Nd30  1  0.75277961  0.87680404  0.06569478  1
  Nd3+  Nd31  1  0.87584689  0.75038041  0.94813345  1
  Nd3+  Nd32  1  0.25578352  0.62227432  0.05635896  1
  Nd3+  Nd33  1  0.37806831  -0.00662525  0.92748836  1
  Nd3+  Nd34  1  0.37626370  -0.00133041  0.45900221  1
  Nd3+  Nd35  1  0.87934664  0.24597091  0.95093646  1
  Nd3+  Nd36  1  -0.00449925  0.87536912  0.56115590  1
  Nd3+  Nd37  1  0.87953365  0.74580874  0.43754217  1
  Nd3+  Nd38  1  0.75311104  0.37623727  0.06641033  1
  Nd3+  Nd39  1  0.00489584  0.87707422  0.06126105  1
  Nd3+  Nd40  1  0.50489870  0.62668283  0.56679338  1
  Nd3+  Nd41  1  0.62030481  0.50202707  0.43290883  1
  Nd3+  Nd42  1  0.62397607  0.49664407  0.92855591  1
  Nd3+  Nd43  1  0.12665490  0.75086515  0.93775010  1
  Nd3+  Nd44  1  0.62954426  0.74859942  0.94698842  1
  Sm3+  Sm45  1  0.26058973  0.37547819  0.56576393  1
  Sm3+  Sm46  1  0.75190329  0.62358919  0.55258287  1
  Sm3+  Sm47  1  -0.00154324  0.12586767  0.56032274  1
  Sm3+  Sm48  1  0.87848459  0.49948577  0.94350024  1
  Sm3+  Sm49  1  0.25439284  0.87354274  0.05143797  1
  Sm3+  Sm50  1  0.50705028  0.11749543  0.06440304  1
  Sm3+  Sm51  1  0.00614472  0.62314180  0.06095891  1
  Sm3+  Sm52  1  0.24919133  0.62325417  0.55755630  1
  Sm3+  Sm53  1  0.00930333  0.37188513  0.06163512  1
  Sm3+  Sm54  1  0.74271293  0.37169844  0.55521631  1
  Sm3+  Sm55  1  0.37249537  0.74935861  0.44798490  1
  Sm3+  Sm56  1  0.50325447  0.62108516  0.05275718  1
  Sm3+  Sm57  1  0.12677062  0.74557334  0.44243018  1
  Sm3+  Sm58  1  0.50558113  0.36821460  0.05415609  1
  Sm3+  Sm59  1  0.25555855  0.37305763  0.04904625  1
  Sm3+  Sm60  1  0.87416030  0.24941147  0.44134902  1
  Sm3+  Sm61  1  0.38098343  0.24324577  0.45748630  1
  Sm3+  Sm62  1  0.62341054  0.74677830  0.44124602  1
  Sm3+  Sm63  1  0.50178902  0.87694034  0.06098499  1
  Bi2+  Bi64  1  0.02214884  0.18048576  0.30938907  1
  Bi2+  Bi65  1  -0.03422945  0.12438336  0.78705788  1
  Bi2+  Bi66  1  -0.02823967  0.39231590  0.28266379  1
  Bi2+  Bi67  1  -0.01890696  0.35216717  0.79906985  1
  Bi2+  Bi68  1  0.00505215  0.73074525  0.27229437  1
  Bi2+  Bi69  1  0.10770256  0.61517357  0.80748616  1
  Bi2+  Bi70  1  0.02347398  0.91609738  0.29838520  1
  Bi2+  Bi71  1  -0.03509174  0.86182721  0.78333129  1
  Bi2+  Bi72  1  0.25191437  0.10024317  0.27339444  1
  Bi2+  Bi73  1  0.25999075  0.15726876  0.79059918  1
  Bi2+  Bi74  1  0.29051872  0.38614627  0.26461618  1
  Bi2+  Bi75  1  0.19758519  0.44513534  0.76985958  1
  Bi2+  Bi76  1  0.25668850  0.64410449  0.29275293  1
  Bi2+  Bi77  1  0.30493574  0.62428520  0.82743781  1
  Bi2+  Bi78  1  0.22118896  0.89932501  0.29636108  1
  Bi2+  Bi79  1  0.24495865  0.80834946  0.79405349  1
  Bi2+  Bi80  1  0.50002769  0.11844932  0.30703097  1
  Bi2+  Bi81  1  0.51143749  0.08893312  0.77965915  1
  Bi2+  Bi82  1  0.48177535  0.42412976  0.28079896  1
  Bi2+  Bi83  1  0.52094666  0.34461060  0.80604954  1
  Bi2+  Bi84  1  0.44715690  0.60597124  0.31891638  1
  Bi2+  Bi85  1  0.51933800  0.61085791  0.78624978  1
  Bi2+  Bi86  1  0.45352710  0.86448318  0.30013442  1
  Bi2+  Bi87  1  0.50643123  0.84686846  0.78969253  1
  Bi2+  Bi88  1  0.77191092  0.11884204  0.31157240  1
  Bi2+  Bi89  1  0.77148677  0.08862998  0.73541966  1
  Bi2+  Bi90  1  0.75061068  0.48082678  0.30307270  1
  Bi2+  Bi91  1  0.75293232  0.37398379  0.76911331  1
  Bi2+  Bi92  1  0.64037267  0.63996089  0.32129348  1
  Bi2+  Bi93  1  0.71628091  0.60523664  0.81008354  1
  Bi2+  Bi94  1  0.73367140  0.81257947  0.29289155  1
  Bi2+  Bi95  1  0.76457794  0.83707120  0.79840561  1
  Bi2+  Bi96  1  0.12042951  0.00132682  0.20919442  1
  Bi2+  Bi97  1  0.16027661  -0.01029724  0.70645654  1
  Bi2+  Bi98  1  0.10461332  0.24730289  0.19021797  1
  Bi2+  Bi99  1  0.08747892  0.24887942  0.70874656  1
  Bi2+  Bi100  1  0.10482061  0.50204257  0.17705957  1
  Bi2+  Bi101  1  0.06719635  0.51712764  0.69487060  1
  Bi2+  Bi102  1  0.17143691  0.76303031  0.21361910  1
  Bi2+  Bi103  1  0.11624767  0.70664741  0.70716603  1
  Bi2+  Bi104  1  0.35608511  -0.03352700  0.21301716  1
  Bi2+  Bi105  1  0.39667757  -0.04560105  0.71888018  1
  Bi2+  Bi106  1  0.38636846  0.22872608  0.23398749  1
  Bi2+  Bi107  1  0.35072742  0.27762062  0.70999901  1
  Bi2+  Bi108  1  0.36784410  0.52265697  0.19764575  1
  Bi2+  Bi109  1  0.36084599  0.50937017  0.72327098  1
  Bi2+  Bi110  1  0.41461017  0.71272304  0.21678610  1
  Bi2+  Bi111  1  0.36752782  0.70525745  0.72103766  1
  Bi2+  Bi112  1  0.60404010  0.00478732  0.20849125  1
  Bi2+  Bi113  1  0.67399166  -0.08047709  0.70417329  1
  Bi2+  Bi114  1  0.59210260  0.28349280  0.21238028  1
  Bi2+  Bi115  1  0.64709835  0.24571834  0.70447203  1
  Bi2+  Bi116  1  0.63695709  0.53926227  0.21550122  1
  Bi2+  Bi117  1  0.62750164  0.49959014  0.71393931  1
  Bi2+  Bi118  1  0.58253265  0.81372844  0.20685267  1
  Bi2+  Bi119  1  0.63730766  0.72675234  0.70285139  1
  Bi2+  Bi120  1  0.86544003  -0.11470602  0.21778217  1
  Bi2+  Bi121  1  0.92008839  -0.02205729  0.69460306  1
  Bi2+  Bi122  1  0.86701469  0.27156653  0.21544191  1
  Bi2+  Bi123  1  0.87749294  0.25220152  0.70548180  1
  Bi2+  Bi124  1  0.84866109  0.57542294  0.21675952  1
  Bi2+  Bi125  1  0.88634616  0.52109831  0.76721944  1
  Bi2+  Bi126  1  0.75932156  0.73542612  0.17877912  1
  Bi2+  Bi127  1  0.84551451  0.70295563  0.73155107  1
  S2-  S128  1  -0.02921018  0.15506357  0.16669850  1
  S2-  S129  1  0.08587292  0.11509509  0.64566446  1
  S2-  S130  1  -0.02189791  0.38168247  0.15904946  1
  S2-  S131  1  -0.01271954  0.37129547  0.65724389  1
  S2-  S132  1  -0.01507805  0.62738834  0.15843952  1
  S2-  S133  1  -0.03345013  0.65336727  0.65569012  1
  S2-  S134  1  0.00392934  0.90463748  0.15967371  1
  S2-  S135  1  0.05323784  0.88061809  0.65428849  1
  S2-  S136  1  0.17857293  0.13095483  0.13761565  1
  S2-  S137  1  0.29419589  0.09299037  0.68366404  1
  S2-  S138  1  0.20592257  0.37054233  0.14303748  1
  S2-  S139  1  0.21344986  0.28695912  0.64651247  1
  S2-  S140  1  0.22872225  0.61657520  0.15377454  1
  S2-  S141  1  0.24684796  0.62757380  0.65689511  1
  S2-  S142  1  0.26790124  0.86082750  0.15010837  1
  S2-  S143  1  0.27334709  0.87429937  0.66559188  1
  S2-  S144  1  0.59266697  0.14243415  0.15075412  1
  S2-  S145  1  0.48396636  0.20553277  0.67637731  1
  S2-  S146  1  0.49625374  0.36458895  0.15279522  1
  S2-  S147  1  0.38707698  0.40401248  0.64531669  1
  S2-  S148  1  0.50546859  0.60516286  0.15039196  1
  S2-  S149  1  0.49301865  0.73474693  0.64552052  1
  S2-  S150  1  0.47874138  0.98291662  0.13759224  1
  S2-  S151  1  0.52362878  0.98050185  0.65473779  1
  S2-  S152  1  0.79280750  0.12521879  0.21651749  1
  S2-  S153  1  0.68277729  0.12835317  0.63472829  1
  S2-  S154  1  0.73880877  0.29331372  0.15358822  1
  S2-  S155  1  0.64181916  0.37459363  0.63586545  1
  S2-  S156  1  0.74918734  0.50297830  0.14002809  1
  S2-  S157  1  0.70269153  0.60289759  0.64482252  1
  S2-  S158  1  0.74158004  0.96417166  0.15087945  1
  S2-  S159  1  0.81206583  0.87035230  0.64448464  1
  S2-  S160  1  0.14439072  0.11281537  0.36239677  1
  S2-  S161  1  0.21142087  -0.00532919  0.80100226  1
  S2-  S162  1  0.09802292  0.32672581  0.34373628  1
  S2-  S163  1  0.11677399  0.15409966  0.84264435  1
  S2-  S164  1  0.09457339  0.50458691  0.27153466  1
  S2-  S165  1  0.13065853  0.37061282  0.85250493  1
  S2-  S166  1  0.11254713  0.67659240  0.35234208  1
  S2-  S167  1  0.10979501  0.83285735  0.84985480  1
  S2-  S168  1  0.41950300  -0.00246422  0.36196853  1
  S2-  S169  1  0.38636929  0.10329617  0.84922420  1
  S2-  S170  1  0.44436154  0.23859375  0.36516533  1
  S2-  S171  1  0.36204236  0.30919437  0.82453039  1
  S2-  S172  1  0.27126443  0.48462780  0.35106967  1
  S2-  S173  1  0.49159596  0.49354971  0.85741495  1
  S2-  S174  1  0.32918515  0.76727593  0.35284410  1
  S2-  S175  1  0.38259781  0.86430455  0.85543176  1
  S2-  S176  1  0.64928705  0.02057601  0.32951300  1
  S2-  S177  1  0.58563028  -0.02186599  0.84004924  1
  S2-  S178  1  0.64603031  0.22143400  0.31006746  1
  S2-  S179  1  0.58114163  0.19461500  0.83970659  1
  S2-  S180  1  0.61409815  0.40394773  0.35225354  1
  S2-  S181  1  0.66660979  0.37663991  0.85843924  1
  S2-  S182  1  0.58717295  0.83865980  0.36253086  1
  S2-  S183  1  0.62119017  0.74827683  0.84829488  1
  S2-  S184  1  0.92074588  0.03102706  0.34582560  1
  S2-  S185  1  0.95057670  -0.00198006  0.85325807  1
  S2-  S186  1  0.87659035  0.26299273  0.34291938  1
  S2-  S187  1  0.88952443  0.24598860  0.85085852  1
  S2-  S188  1  0.92350476  0.51137166  0.34885714  1
  S2-  S189  1  0.97135595  0.51826610  0.86103396  1
  S2-  S190  1  0.87235141  0.74445747  0.33799338  1
  S2-  S191  1  0.89044644  0.75208457  0.84970517  1
  S2-  S192  1  -0.00424565  0.12542830  0.45710145  1
  S2-  S193  1  0.00657342  0.12325303  0.95918653  1
  S2-  S194  1  -0.00123307  0.37370834  0.45140319  1
  S2-  S195  1  -0.00017154  0.37449530  0.95779480  1
  S2-  S196  1  0.00381422  0.61905691  0.45510443  1
  S2-  S197  1  0.00270213  0.62928220  0.95816860  1
  S2-  S198  1  0.00209336  0.87188034  0.45216674  1
  S2-  S199  1  0.00274652  0.87335419  0.95691655  1
  S2-  S200  1  0.25575745  0.12312370  0.46697052  1
  S2-  S201  1  0.24843354  0.11806117  0.94431254  1
  S2-  S202  1  0.25995959  0.36491760  0.46130755  1
  S2-  S203  1  0.26008228  0.37195701  0.94621031  1
  S2-  S204  1  0.24920671  0.62619657  0.45515595  1
  S2-  S205  1  0.24975310  0.62296973  0.95133195  1
  S2-  S206  1  0.24671565  0.87362621  0.45951985  1
  S2-  S207  1  0.24708352  0.87624103  0.94903660  1
  S2-  S208  1  0.50450104  0.11682875  0.46568956  1
  S2-  S209  1  0.50290156  0.12167112  0.95748892  1
  S2-  S210  1  0.49714112  0.37809230  0.46054121  1
  S2-  S211  1  0.49714103  0.36744599  0.95153386  1
  S2-  S212  1  0.49717008  0.62745420  0.45824629  1
  S2-  S213  1  0.50309830  0.62710540  0.94967442  1
  S2-  S214  1  0.49457635  0.86734291  0.46888090  1
  S2-  S215  1  0.50464264  0.87134635  0.95764664  1
  S2-  S216  1  0.74581878  0.12489071  0.44067843  1
  S2-  S217  1  0.75249224  0.12246433  0.93973275  1
  S2-  S218  1  0.74740834  0.37097754  0.45158227  1
  S2-  S219  1  0.76062720  0.37672828  0.96053312  1
  S2-  S220  1  0.74988944  0.62434185  0.44865934  1
  S2-  S221  1  0.75253493  0.62057460  0.95732951  1
  S2-  S222  1  0.75177746  0.87056650  0.44746751  1
  S2-  S223  1  0.75200836  0.87540823  0.95718201  1
  S2-  S224  1  0.13195687  -0.00665892  0.04733770  1
  S2-  S225  1  0.12058840  -0.00010818  0.54467074  1
  S2-  S226  1  0.13067786  0.25303630  0.03646407  1
  S2-  S227  1  0.12235771  0.24696128  0.54167233  1
  S2-  S228  1  0.12899734  0.49866081  0.03788290  1
  S2-  S229  1  0.13141332  0.49507798  0.55666678  1
  S2-  S230  1  0.12910809  0.74856600  0.04658831  1
  S2-  S231  1  0.12356602  0.74862524  0.54825104  1
  S2-  S232  1  0.37564877  -0.00279336  0.03515099  1
  S2-  S233  1  0.37057147  0.00217568  0.56257555  1
  S2-  S234  1  0.37916796  0.24612002  0.04688096  1
  S2-  S235  1  0.37974373  0.24295840  0.55879425  1
  S2-  S236  1  0.38086451  0.49628551  0.04161302  1
  S2-  S237  1  0.37693594  0.50706520  0.54385326  1
  S2-  S238  1  0.38117291  0.74877769  0.04358520  1
  S2-  S239  1  0.36833494  0.74948524  0.55122889  1
  S2-  S240  1  0.62792387  -0.00284248  0.04275210  1
  S2-  S241  1  0.62689714  -0.00830501  0.53889280  1
  S2-  S242  1  0.62859945  0.24677684  0.04275234  1
  S2-  S243  1  0.62415183  0.24984254  0.53427217  1
  S2-  S244  1  0.62252552  0.49669132  0.03846160  1
  S2-  S245  1  0.62573738  0.50324467  0.53848486  1
  S2-  S246  1  0.62457044  0.74993013  0.05278278  1
  S2-  S247  1  0.62943779  0.74775874  0.54503465  1
  S2-  S248  1  0.87852477  0.00398381  0.05306261  1
  S2-  S249  1  0.87523356  0.00272726  0.54451007  1
  S2-  S250  1  0.88145888  0.24768903  0.05548975  1
  S2-  S251  1  0.87108480  0.24902774  0.54713895  1
  S2-  S252  1  0.88654307  0.49929628  0.04669090  1
  S2-  S253  1  0.87077427  0.49511165  0.55145165  1
  S2-  S254  1  0.88024678  0.74828148  0.05320138  1
  S2-  S255  1  0.87645659  0.74508386  0.54312121  1
