# generated using pymatgen
data_La6Ce7Pr13Nd19Sm19(BiS2)64
_symmetry_space_group_name_H-M   'P 1'
_cell_length_a   15.97545736
_cell_length_b   16.05138934
_cell_length_c   27.41649362
_cell_angle_alpha   89.95462168
_cell_angle_beta   89.95842681
_cell_angle_gamma   89.94585305
_symmetry_Int_Tables_number   1
_chemical_formula_structural   La6Ce7Pr13Nd19Sm19(BiS2)64
_chemical_formula_sum   'La6 Ce7 Pr13 Nd19 Sm19 Bi64 S128'
_cell_volume   7030.35727324
_cell_formula_units_Z   1
loop_
 _symmetry_equiv_pos_site_id
 _symmetry_equiv_pos_as_xyz
  1  'x, y, z'
loop_
 _atom_type_symbol
 _atom_type_oxidation_number
  La3+  3.0
  Ce3+  3.0
  Pr3+  3.0
  Nd3+  3.0
  Sm3+  3.0
  Bi2+  2.0
  S2-  -2.0
loop_
 _atom_site_type_symbol
 _atom_site_label
 _atom_site_symmetry_multiplicity
 _atom_site_fract_x
 _atom_site_fract_y
 _atom_site_fract_z
 _atom_site_occupancy
  La3+  La0  1  0.74183204  0.61690335  0.07530205  1
  La3+  La1  1  0.00592815  0.37187358  0.07849667  1
  La3+  La2  1  0.36405655  -0.00638595  0.92160990  1
  La3+  La3  1  0.62169383  0.73332981  0.89306267  1
  La3+  La4  1  0.62746525  0.23664356  0.93497527  1
  La3+  La5  1  0.61872482  0.48766446  0.38640979  1
  Ce3+  Ce6  1  0.12897537  0.50797449  0.42743332  1
  Ce3+  Ce7  1  0.25899695  0.87947003  0.57810341  1
  Ce3+  Ce8  1  0.87034610  0.48439610  0.93388127  1
  Ce3+  Ce9  1  0.36933193  0.24089168  0.94100969  1
  Ce3+  Ce10  1  0.75832663  0.63148561  0.55092639  1
  Ce3+  Ce11  1  0.88622588  0.25809084  0.43863378  1
  Ce3+  Ce12  1  0.00734614  0.63142717  0.55738874  1
  Pr3+  Pr13  1  0.24046821  0.10908381  0.07814033  1
  Pr3+  Pr14  1  0.86736481  0.73784471  0.93937630  1
  Pr3+  Pr15  1  0.89450502  0.76786259  0.42016399  1
  Pr3+  Pr16  1  0.24625126  0.61273632  0.59490554  1
  Pr3+  Pr17  1  0.38032998  0.48415816  0.91251549  1
  Pr3+  Pr18  1  0.01179649  0.38504401  0.55911153  1
  Pr3+  Pr19  1  0.74434905  0.86564561  0.06911509  1
  Pr3+  Pr20  1  0.38345043  0.00346302  0.44904037  1
  Pr3+  Pr21  1  0.49465756  0.11219731  0.05224413  1
  Pr3+  Pr22  1  0.01221851  0.13318821  0.56384618  1
  Pr3+  Pr23  1  0.50989719  0.62068944  0.57426942  1
  Pr3+  Pr24  1  0.63372134  0.75284682  0.43557789  1
  Pr3+  Pr25  1  0.49535485  0.61635087  0.05487440  1
  Nd3+  Nd26  1  0.13723041  0.00559722  0.44313500  1
  Nd3+  Nd27  1  0.75795971  0.87911776  0.57163721  1
  Nd3+  Nd28  1  0.11816590  -0.00706371  0.93228773  1
  Nd3+  Nd29  1  0.12929193  0.25134478  0.40744142  1
  Nd3+  Nd30  1  0.12062120  0.24607288  0.93605643  1
  Nd3+  Nd31  1  0.38401433  0.75083631  0.45773601  1
  Nd3+  Nd32  1  -0.00249466  0.86360973  0.05624196  1
  Nd3+  Nd33  1  0.62688001  0.48758981  0.92860549  1
  Nd3+  Nd34  1  0.86910652  -0.00842314  0.94354216  1
  Nd3+  Nd35  1  0.12534567  0.73049334  0.92401062  1
  Nd3+  Nd36  1  0.49719366  0.36536278  0.05764978  1
  Nd3+  Nd37  1  0.73668052  0.12271528  0.08313374  1
  Nd3+  Nd38  1  0.38976927  0.25880750  0.43572316  1
  Nd3+  Nd39  1  0.26088770  0.13400920  0.56268764  1
  Nd3+  Nd40  1  0.37069582  0.73923844  0.92521320  1
  Nd3+  Nd41  1  0.51417485  0.37332988  0.57247796  1
  Nd3+  Nd42  1  0.88758651  0.00596643  0.44584318  1
  Nd3+  Nd43  1  0.25206308  0.61471563  0.05440470  1
  Nd3+  Nd44  1  0.62992725  -0.01309470  0.93196603  1
  Sm3+  Sm45  1  0.74888958  0.37194904  0.06802680  1
  Sm3+  Sm46  1  0.38674179  0.50672512  0.44832038  1
  Sm3+  Sm47  1  0.50681411  0.87473666  0.57706700  1
  Sm3+  Sm48  1  0.25006410  0.36375115  0.05834704  1
  Sm3+  Sm49  1  0.88190553  0.50924857  0.42939427  1
  Sm3+  Sm50  1  0.63589285  -0.00311009  0.44104478  1
  Sm3+  Sm51  1  0.63579137  0.25532717  0.44084876  1
  Sm3+  Sm52  1  0.76039455  0.12874700  0.55655037  1
  Sm3+  Sm53  1  0.00956170  0.87977746  0.57388022  1
  Sm3+  Sm54  1  0.25816108  0.38094135  0.54751426  1
  Sm3+  Sm55  1  0.51328114  0.13300308  0.55856704  1
  Sm3+  Sm56  1  -0.00161395  0.61529251  0.05287835  1
  Sm3+  Sm57  1  0.87265146  0.24650499  0.95396026  1
  Sm3+  Sm58  1  -0.00216286  0.11680194  0.05780335  1
  Sm3+  Sm59  1  0.76103223  0.38295870  0.55562402  1
  Sm3+  Sm60  1  0.12335025  0.48555192  0.93410950  1
  Sm3+  Sm61  1  0.13638526  0.75664490  0.44787007  1
  Sm3+  Sm62  1  0.24740496  0.86700483  0.05230267  1
  Sm3+  Sm63  1  0.49874943  0.86493184  0.04482609  1
  Bi2+  Bi64  1  0.03414252  0.08746975  0.24736067  1
  Bi2+  Bi65  1  0.05345649  0.16618920  0.81060308  1
  Bi2+  Bi66  1  0.03915534  0.38079686  0.28898501  1
  Bi2+  Bi67  1  0.00545882  0.46870062  0.80988435  1
  Bi2+  Bi68  1  -0.01582557  0.57509784  0.25666700  1
  Bi2+  Bi69  1  0.00558972  0.79025547  0.81818642  1
  Bi2+  Bi70  1  0.05823504  0.92372589  0.32158997  1
  Bi2+  Bi71  1  -0.02731651  0.98838208  0.82469589  1
  Bi2+  Bi72  1  0.26400232  0.14821595  0.29748450  1
  Bi2+  Bi73  1  0.32980128  0.16609926  0.81486233  1
  Bi2+  Bi74  1  0.21496048  0.51640039  0.30149869  1
  Bi2+  Bi75  1  0.20664166  0.30954929  0.77444192  1
  Bi2+  Bi76  1  0.20376080  0.70810987  0.31817822  1
  Bi2+  Bi77  1  0.21570599  0.64015831  0.78062736  1
  Bi2+  Bi78  1  0.27855287  0.88781250  0.32451965  1
  Bi2+  Bi79  1  0.17724151  0.90170774  0.79584258  1
  Bi2+  Bi80  1  0.49985952  0.07753713  0.28409603  1
  Bi2+  Bi81  1  0.54962941  0.14015085  0.80082958  1
  Bi2+  Bi82  1  0.47627888  0.36611379  0.29045132  1
  Bi2+  Bi83  1  0.51390850  0.35423347  0.79027653  1
  Bi2+  Bi84  1  0.47016839  0.64958441  0.29650262  1
  Bi2+  Bi85  1  0.48787744  0.61141948  0.77248458  1
  Bi2+  Bi86  1  0.47222859  0.85776966  0.24772902  1
  Bi2+  Bi87  1  0.50230611  0.85707801  0.76925106  1
  Bi2+  Bi88  1  0.68981279  0.06356069  0.31802448  1
  Bi2+  Bi89  1  0.75241784  0.15184428  0.78872575  1
  Bi2+  Bi90  1  0.81250690  0.22368323  0.31384857  1
  Bi2+  Bi91  1  0.75527875  0.40683794  0.78516775  1
  Bi2+  Bi92  1  0.74132256  0.60732404  0.28273971  1
  Bi2+  Bi93  1  0.88021806  0.62730609  0.81112291  1
  Bi2+  Bi94  1  0.75496828  0.87133109  0.29815249  1
  Bi2+  Bi95  1  0.76235718  0.91025367  0.79589081  1
  Bi2+  Bi96  1  0.17646467  -0.05968249  0.23042354  1
  Bi2+  Bi97  1  0.06410593  0.00710534  0.72205890  1
  Bi2+  Bi98  1  0.12203101  0.24609635  0.19473312  1
  Bi2+  Bi99  1  0.09767475  0.21402115  0.69836618  1
  Bi2+  Bi100  1  0.14658251  0.54364999  0.19349435  1
  Bi2+  Bi101  1  0.08568553  0.45172732  0.70420153  1
  Bi2+  Bi102  1  0.13695233  0.74089782  0.20816932  1
  Bi2+  Bi103  1  0.07085935  0.72922411  0.71338509  1
  Bi2+  Bi104  1  0.36230505  0.04017321  0.20129731  1
  Bi2+  Bi105  1  0.41139620  0.04408272  0.73339453  1
  Bi2+  Bi106  1  0.45968189  0.21198155  0.19259201  1
  Bi2+  Bi107  1  0.35265137  0.23026434  0.70496049  1
  Bi2+  Bi108  1  0.35784018  0.54828619  0.22533195  1
  Bi2+  Bi109  1  0.33894288  0.47635164  0.71403908  1
  Bi2+  Bi110  1  0.33444525  0.74362673  0.20085718  1
  Bi2+  Bi111  1  0.26340990  0.81347288  0.70768145  1
  Bi2+  Bi112  1  0.61938251  -0.01731895  0.20500237  1
  Bi2+  Bi113  1  0.60848658  0.00788718  0.71358703  1
  Bi2+  Bi114  1  0.65970112  0.22320682  0.24085820  1
  Bi2+  Bi115  1  0.62428081  0.24122399  0.70768601  1
  Bi2+  Bi116  1  0.60676230  0.45357698  0.18069578  1
  Bi2+  Bi117  1  0.63940919  0.50702196  0.68473034  1
  Bi2+  Bi118  1  0.61832800  0.74658700  0.19939006  1
  Bi2+  Bi119  1  0.68133404  0.73837853  0.70474389  1
  Bi2+  Bi120  1  0.88308294  -0.04145622  0.22279847  1
  Bi2+  Bi121  1  0.83856433  0.02953785  0.71077291  1
  Bi2+  Bi122  1  0.85974151  0.15268526  0.20967552  1
  Bi2+  Bi123  1  0.90392372  0.27546444  0.77309278  1
  Bi2+  Bi124  1  0.82011704  0.36829970  0.22000327  1
  Bi2+  Bi125  1  0.88351905  0.51463614  0.71619064  1
  Bi2+  Bi126  1  0.92094250  0.73696534  0.20424979  1
  Bi2+  Bi127  1  0.88310314  0.78568386  0.72362100  1
  S2-  S128  1  0.08411803  0.10864270  0.14211383  1
  S2-  S129  1  -0.03555632  0.12291346  0.66010445  1
  S2-  S130  1  -0.03963376  0.33229993  0.17678378  1
  S2-  S131  1  -0.04670418  0.38583698  0.65432111  1
  S2-  S132  1  -0.02087170  0.59067576  0.14985540  1
  S2-  S133  1  0.08642740  0.60504933  0.64408834  1
  S2-  S134  1  -0.01225570  0.86665627  0.15540498  1
  S2-  S135  1  -0.11840435  0.89315668  0.64546716  1
  S2-  S136  1  0.27841416  0.19785477  0.16594452  1
  S2-  S137  1  0.23768903  0.12110705  0.66049877  1
  S2-  S138  1  0.16011087  0.38890848  0.14083144  1
  S2-  S139  1  0.23670174  0.43505757  0.64124850  1
  S2-  S140  1  0.36718022  0.61934127  0.13107211  1
  S2-  S141  1  0.31836566  0.63812235  0.68635952  1
  S2-  S142  1  0.25751267  0.95748038  0.13564613  1
  S2-  S143  1  0.12853620  0.89329881  0.64805240  1
  S2-  S144  1  0.57928135  0.11120467  0.14014419  1
  S2-  S145  1  0.49761212  0.23306768  0.63922270  1
  S2-  S146  1  0.45243749  0.37015173  0.15555439  1
  S2-  S147  1  0.48775002  0.46814244  0.65574657  1
  S2-  S148  1  0.58925067  0.61180830  0.14422829  1
  S2-  S149  1  0.54383357  0.67289430  0.67057533  1
  S2-  S150  1  0.51835475  0.86673323  0.14398322  1
  S2-  S151  1  0.38295017  0.88296077  0.65098403  1
  S2-  S152  1  0.75679570  -0.01587322  0.14648516  1
  S2-  S153  1  0.71940439  0.11653660  0.65101355  1
  S2-  S154  1  0.72002522  0.27120740  0.14936139  1
  S2-  S155  1  0.70421507  0.36868689  0.64919133  1
  S2-  S156  1  0.76735880  0.48518569  0.14749752  1
  S2-  S157  1  0.77722173  0.61225628  0.64947827  1
  S2-  S158  1  0.76401092  0.74878707  0.15004991  1
  S2-  S159  1  0.63407046  0.88162173  0.64646780  1
  S2-  S160  1  0.14267414  0.09731829  0.35683690  1
  S2-  S161  1  0.22405701  0.03188508  0.85537843  1
  S2-  S162  1  0.18086119  0.30436184  0.31371773  1
  S2-  S163  1  0.12621563  0.36541500  0.86049414  1
  S2-  S164  1  0.00669652  0.51572283  0.35558168  1
  S2-  S165  1  0.10963362  0.59318559  0.85424354  1
  S2-  S166  1  0.05040867  0.76468464  0.36073286  1
  S2-  S167  1  0.24697763  0.76102284  0.85105393  1
  S2-  S168  1  0.36612066  0.03112034  0.35067467  1
  S2-  S169  1  0.40821165  -0.05120580  0.82297729  1
  S2-  S170  1  0.38407475  0.25558209  0.33665010  1
  S2-  S171  1  0.37896444  0.32641889  0.85577830  1
  S2-  S172  1  0.44251126  0.49687469  0.35593234  1
  S2-  S173  1  0.32087750  0.53210577  0.81555584  1
  S2-  S174  1  0.39974163  0.76428275  0.35835418  1
  S2-  S175  1  0.46378537  0.73058792  0.83818316  1
  S2-  S176  1  0.62744837  -0.11485071  0.36564642  1
  S2-  S177  1  0.61407791  -0.10806423  0.84434781  1
  S2-  S178  1  0.59670722  0.31833792  0.35301298  1
  S2-  S179  1  0.64133613  0.33404468  0.85065830  1
  S2-  S180  1  0.61152575  0.48240367  0.27324458  1
  S2-  S181  1  0.52015559  0.50125414  0.84564029  1
  S2-  S182  1  0.61525086  0.65589209  0.34968630  1
  S2-  S183  1  0.63714637  0.66630740  0.79002414  1
  S2-  S184  1  0.89189886  -0.07639933  0.35932835  1
  S2-  S185  1  0.76264304  0.03972419  0.86756065  1
  S2-  S186  1  0.97696273  0.25770077  0.35364011  1
  S2-  S187  1  0.88134909  0.33681635  0.86930548  1
  S2-  S188  1  0.78367868  0.49327991  0.34670491  1
  S2-  S189  1  0.75787922  0.51784277  0.85785384  1
  S2-  S190  1  0.83002505  0.72008114  0.32660581  1
  S2-  S191  1  0.78513928  0.76356965  0.85194479  1
  S2-  S192  1  0.01227769  0.13253113  0.45723327  1
  S2-  S193  1  -0.00498109  0.12128077  0.95358325  1
  S2-  S194  1  0.01276359  0.37825413  0.45307997  1
  S2-  S195  1  0.00080897  0.36646960  0.96793549  1
  S2-  S196  1  0.00779957  0.63551981  0.45520882  1
  S2-  S197  1  -0.00477820  0.61249209  0.95151339  1
  S2-  S198  1  0.01431548  0.88349092  0.46802808  1
  S2-  S199  1  -0.00126008  0.86312763  0.95095375  1
  S2-  S200  1  0.26042298  0.13826889  0.45692037  1
  S2-  S201  1  0.24188298  0.12191329  0.96080728  1
  S2-  S202  1  0.25828665  0.37944905  0.44338440  1
  S2-  S203  1  0.25108766  0.36801031  0.95624572  1
  S2-  S204  1  0.25812441  0.62823664  0.44849535  1
  S2-  S205  1  0.25132765  0.60911067  0.95002479  1
  S2-  S206  1  0.25880190  0.87953906  0.46706427  1
  S2-  S207  1  0.24090577  0.86720406  0.95092585  1
  S2-  S208  1  0.51319754  0.12887544  0.45293643  1
  S2-  S209  1  0.49724837  0.11279846  0.94457586  1
  S2-  S210  1  0.51067160  0.38116524  0.46218071  1
  S2-  S211  1  0.49975197  0.36299886  0.95369052  1
  S2-  S212  1  0.50842665  0.62695821  0.46359483  1
  S2-  S213  1  0.49910991  0.61730490  0.94758288  1
  S2-  S214  1  0.50623752  0.87962665  0.47014317  1
  S2-  S215  1  0.49618331  0.86501331  0.94334242  1
  S2-  S216  1  0.75807894  0.12794396  0.45235717  1
  S2-  S217  1  0.75222359  0.12247692  0.97271086  1
  S2-  S218  1  0.75792652  0.38001764  0.45118544  1
  S2-  S219  1  0.74601692  0.36455643  0.96462199  1
  S2-  S220  1  0.77180041  0.64155486  0.44855108  1
  S2-  S221  1  0.74099758  0.61827500  0.95841607  1
  S2-  S222  1  0.76327418  0.88163349  0.46411333  1
  S2-  S223  1  0.74865311  0.86681991  0.96027819  1
  S2-  S224  1  0.11862192  -0.01104946  0.03803893  1
  S2-  S225  1  0.13575775  0.00876922  0.54810948  1
  S2-  S226  1  0.12385972  0.24155108  0.04344747  1
  S2-  S227  1  0.13672142  0.25934082  0.55378228  1
  S2-  S228  1  0.12623623  0.49554723  0.03882517  1
  S2-  S229  1  0.13546143  0.50682368  0.53464140  1
  S2-  S230  1  0.12495488  0.73937135  0.04356959  1
  S2-  S231  1  0.13736269  0.75098052  0.55131102  1
  S2-  S232  1  0.37107285  -0.01118119  0.03357161  1
  S2-  S233  1  0.38940428  0.01152784  0.55453857  1
  S2-  S234  1  0.36956800  0.23823284  0.04634346  1
  S2-  S235  1  0.38316220  0.25797541  0.54178850  1
  S2-  S236  1  0.37049944  0.48492062  0.03738663  1
  S2-  S237  1  0.37772018  0.50592212  0.55027796  1
  S2-  S238  1  0.37021101  0.74723536  0.03317636  1
  S2-  S239  1  0.37780552  0.74249611  0.56111119  1
  S2-  S240  1  0.62137815  -0.01069477  0.03825918  1
  S2-  S241  1  0.63229817  0.00757999  0.54528297  1
  S2-  S242  1  0.61897061  0.24256617  0.04211565  1
  S2-  S243  1  0.63999181  0.25321936  0.54294019  1
  S2-  S244  1  0.62107838  0.48667131  0.04121928  1
  S2-  S245  1  0.63694003  0.50198085  0.55165820  1
  S2-  S246  1  0.61922516  0.74398982  0.04495089  1
  S2-  S247  1  0.63003514  0.75334403  0.54672763  1
  S2-  S248  1  0.87787035  -0.00704356  0.04818653  1
  S2-  S249  1  0.88562136  0.00862923  0.54878299  1
  S2-  S250  1  0.87598292  0.24212174  0.05744361  1
  S2-  S251  1  0.88216719  0.25551445  0.54640409  1
  S2-  S252  1  0.87717218  0.49019093  0.04371021  1
  S2-  S253  1  0.88380306  0.50555313  0.53878838  1
  S2-  S254  1  0.87540145  0.73863201  0.04539791  1
  S2-  S255  1  0.88640420  0.75704126  0.54945458  1
