# generated using pymatgen
data_La6Ce7Pr13Nd19Sm19(BiS2)64
_symmetry_space_group_name_H-M   'P 1'
_cell_length_a   16.00932501
_cell_length_b   15.99398965
_cell_length_c   27.47993921
_cell_angle_alpha   89.98965179
_cell_angle_beta   89.56664364
_cell_angle_gamma   90.01938590
_symmetry_Int_Tables_number   1
_chemical_formula_structural   La6Ce7Pr13Nd19Sm19(BiS2)64
_chemical_formula_sum   'La6 Ce7 Pr13 Nd19 Sm19 Bi64 S128'
_cell_volume   7036.11850254
_cell_formula_units_Z   1
loop_
 _symmetry_equiv_pos_site_id
 _symmetry_equiv_pos_as_xyz
  1  'x, y, z'
loop_
 _atom_type_symbol
 _atom_type_oxidation_number
  La3+  3.0
  Ce3+  3.0
  Pr3+  3.0
  Nd3+  3.0
  Sm3+  3.0
  Bi2+  2.0
  S2-  -2.0
loop_
 _atom_site_type_symbol
 _atom_site_label
 _atom_site_symmetry_multiplicity
 _atom_site_fract_x
 _atom_site_fract_y
 _atom_site_fract_z
 _atom_site_occupancy
  La3+  La0  1  0.24945498  0.88564574  0.57500602  1
  La3+  La1  1  0.75774533  0.37782392  0.61783704  1
  La3+  La2  1  0.12911792  0.25333395  0.38966622  1
  La3+  La3  1  0.90956632  0.24536343  0.91468230  1
  La3+  La4  1  0.53774713  0.12191217  0.10720426  1
  La3+  La5  1  0.49470537  0.38262201  0.57414994  1
  Ce3+  Ce6  1  0.28366817  0.86608823  0.06807395  1
  Ce3+  Ce7  1  0.62739010  0.00080156  0.44088058  1
  Ce3+  Ce8  1  0.40565619  -0.01120953  0.93962092  1
  Ce3+  Ce9  1  0.92159416  0.73803979  0.92331299  1
  Ce3+  Ce10  1  0.25584939  0.37491892  0.54833675  1
  Ce3+  Ce11  1  0.27971332  0.35558567  0.06578662  1
  Ce3+  Ce12  1  0.37591186  0.00250838  0.43121344  1
  Pr3+  Pr13  1  0.28061156  0.10785058  0.06795757  1
  Pr3+  Pr14  1  0.41064665  0.47786678  0.92232295  1
  Pr3+  Pr15  1  0.16611667  0.73818117  0.93971609  1
  Pr3+  Pr16  1  0.78299757  0.61646659  0.04756770  1
  Pr3+  Pr17  1  0.53324312  0.86717665  0.06502899  1
  Pr3+  Pr18  1  0.38600027  0.50257299  0.41917816  1
  Pr3+  Pr19  1  0.49765525  0.87937359  0.56644469  1
  Pr3+  Pr20  1  0.52938155  0.37069455  0.07080337  1
  Pr3+  Pr21  1  0.00180823  0.12884528  0.56333901  1
  Pr3+  Pr22  1  0.87783264  0.75313525  0.44585909  1
  Pr3+  Pr23  1  0.74865115  0.12683021  0.56693524  1
  Pr3+  Pr24  1  0.02849952  0.36408567  0.06776878  1
  Pr3+  Pr25  1  0.50093531  0.62999699  0.55959318  1
  Nd3+  Nd26  1  0.28249801  0.61052978  0.06222345  1
  Nd3+  Nd27  1  0.38669549  0.25138017  0.41974078  1
  Nd3+  Nd28  1  0.91549903  0.49057962  0.93149250  1
  Nd3+  Nd29  1  0.91614304  -0.01212564  0.92451899  1
  Nd3+  Nd30  1  0.12985839  0.49839503  0.43808960  1
  Nd3+  Nd31  1  0.37736000  0.75620766  0.43266201  1
  Nd3+  Nd32  1  0.16317806  -0.01169350  0.93678244  1
  Nd3+  Nd33  1  0.16340502  0.48946941  0.93740584  1
  Nd3+  Nd34  1  0.02675869  0.86463909  0.06414550  1
  Nd3+  Nd35  1  0.87946030  0.25185038  0.43915763  1
  Nd3+  Nd36  1  0.88109705  0.00347703  0.44495406  1
  Nd3+  Nd37  1  0.25170449  0.62689597  0.55641630  1
  Nd3+  Nd38  1  0.15678445  0.23988099  0.93724327  1
  Nd3+  Nd39  1  0.77804238  0.36112754  0.05591962  1
  Nd3+  Nd40  1  0.78038512  0.86494524  0.04309877  1
  Nd3+  Nd41  1  0.00097485  0.62523562  0.55592798  1
  Nd3+  Nd42  1  0.02688811  0.11551117  0.06235609  1
  Nd3+  Nd43  1  0.62721656  0.49950930  0.44327413  1
  Nd3+  Nd44  1  0.74996408  0.62401851  0.56711497  1
  Sm3+  Sm45  1  0.41100799  0.73836789  0.93761427  1
  Sm3+  Sm46  1  0.63022809  0.75362318  0.44819564  1
  Sm3+  Sm47  1  0.03180851  0.61387717  0.06507823  1
  Sm3+  Sm48  1  0.53023056  0.61302934  0.06352277  1
  Sm3+  Sm49  1  0.00599735  0.87545921  0.57156116  1
  Sm3+  Sm50  1  0.65478277  0.23935866  0.93845153  1
  Sm3+  Sm51  1  0.77738340  0.11365249  0.04969516  1
  Sm3+  Sm52  1  0.12735033  0.00011316  0.43498551  1
  Sm3+  Sm53  1  0.65273146  0.73921929  0.93107803  1
  Sm3+  Sm54  1  0.65691657  -0.00844444  0.93526297  1
  Sm3+  Sm55  1  0.25017201  0.12844572  0.54844636  1
  Sm3+  Sm56  1  0.49895359  0.12875417  0.55859818  1
  Sm3+  Sm57  1  0.62612625  0.25349281  0.44684116  1
  Sm3+  Sm58  1  0.12853093  0.75698336  0.43830369  1
  Sm3+  Sm59  1  0.41050683  0.23811338  0.95092605  1
  Sm3+  Sm60  1  0.65432685  0.48892960  0.94124828  1
  Sm3+  Sm61  1  -0.00033623  0.37432200  0.55998727  1
  Sm3+  Sm62  1  0.75862903  0.88065583  0.57759540  1
  Sm3+  Sm63  1  0.87719362  0.49810848  0.44734057  1
  Bi2+  Bi64  1  -0.03360422  0.11789290  0.28897391  1
  Bi2+  Bi65  1  -0.00446438  0.09472283  0.79766247  1
  Bi2+  Bi66  1  -0.03140456  0.40754066  0.28858877  1
  Bi2+  Bi67  1  0.02218638  0.37265162  0.79401575  1
  Bi2+  Bi68  1  0.00911074  0.66129695  0.29354286  1
  Bi2+  Bi69  1  -0.11393178  0.61187597  0.79438011  1
  Bi2+  Bi70  1  -0.03897525  0.87012939  0.30769765  1
  Bi2+  Bi71  1  -0.10204707  0.77466465  0.73003988  1
  Bi2+  Bi72  1  0.23833902  0.09647233  0.27952099  1
  Bi2+  Bi73  1  0.25734724  0.14655797  0.78642432  1
  Bi2+  Bi74  1  0.24950580  0.47986427  0.28979098  1
  Bi2+  Bi75  1  0.26386883  0.35236098  0.80917097  1
  Bi2+  Bi76  1  0.20070038  0.66462868  0.31584673  1
  Bi2+  Bi77  1  0.15247730  0.60841739  0.80474934  1
  Bi2+  Bi78  1  0.23542162  0.85652843  0.28768014  1
  Bi2+  Bi79  1  0.18070402  0.86260753  0.81437395  1
  Bi2+  Bi80  1  0.50665909  0.12600982  0.29429476  1
  Bi2+  Bi81  1  0.45797624  0.13294943  0.77477018  1
  Bi2+  Bi82  1  0.50695469  0.38934024  0.29416461  1
  Bi2+  Bi83  1  0.45513909  0.41476826  0.78105680  1
  Bi2+  Bi84  1  0.46100781  0.66833362  0.26944992  1
  Bi2+  Bi85  1  0.48736439  0.65894532  0.77747958  1
  Bi2+  Bi86  1  0.50792726  0.87611081  0.29896133  1
  Bi2+  Bi87  1  0.44654532  0.93924624  0.80236691  1
  Bi2+  Bi88  1  0.77952277  0.20696381  0.30248688  1
  Bi2+  Bi89  1  0.72189872  0.10022823  0.80152476  1
  Bi2+  Bi90  1  0.74039640  0.40046725  0.29604489  1
  Bi2+  Bi91  1  0.71129304  0.41737438  0.81720254  1
  Bi2+  Bi92  1  0.72664503  0.64388223  0.30248231  1
  Bi2+  Bi93  1  0.68965057  0.62386207  0.79057303  1
  Bi2+  Bi94  1  0.68164912  0.81272216  0.24797954  1
  Bi2+  Bi95  1  0.69929641  0.82933363  0.78849071  1
  Bi2+  Bi96  1  0.10844686  0.00068115  0.21822415  1
  Bi2+  Bi97  1  0.09863557  0.00368496  0.69996480  1
  Bi2+  Bi98  1  0.13367475  0.30287332  0.19946821  1
  Bi2+  Bi99  1  0.15181186  0.26767866  0.72220509  1
  Bi2+  Bi100  1  0.11120010  0.54639604  0.21605819  1
  Bi2+  Bi101  1  0.16069786  0.46814341  0.71175782  1
  Bi2+  Bi102  1  0.09339568  0.80290477  0.21465185  1
  Bi2+  Bi103  1  0.13739862  0.71006175  0.70975231  1
  Bi2+  Bi104  1  0.39614969  -0.05226882  0.21059518  1
  Bi2+  Bi105  1  0.35210740  0.00974245  0.70523098  1
  Bi2+  Bi106  1  0.37085287  0.27634334  0.20699413  1
  Bi2+  Bi107  1  0.36743189  0.25745023  0.70274093  1
  Bi2+  Bi108  1  0.38537264  0.53357580  0.20122815  1
  Bi2+  Bi109  1  0.34978225  0.52421209  0.70735793  1
  Bi2+  Bi110  1  0.34961444  0.76116706  0.18621151  1
  Bi2+  Bi111  1  0.33687051  0.78546700  0.76343898  1
  Bi2+  Bi112  1  0.68418674  0.00103223  0.21164228  1
  Bi2+  Bi113  1  0.60136074  -0.08129321  0.70503166  1
  Bi2+  Bi114  1  0.66763289  0.25579650  0.21400094  1
  Bi2+  Bi115  1  0.63489780  0.24561671  0.72998533  1
  Bi2+  Bi116  1  0.67458398  0.52549580  0.21482284  1
  Bi2+  Bi117  1  0.60517802  0.50591475  0.70885272  1
  Bi2+  Bi118  1  0.54736187  0.73647909  0.17446788  1
  Bi2+  Bi119  1  0.51376815  0.75303598  0.67762699  1
  Bi2+  Bi120  1  0.88226716  0.00465289  0.20967792  1
  Bi2+  Bi121  1  0.82758772  -0.01883678  0.72235865  1
  Bi2+  Bi122  1  0.87303705  0.29886738  0.21225653  1
  Bi2+  Bi123  1  0.88557610  0.23740623  0.71659588  1
  Bi2+  Bi124  1  0.86431784  0.59566894  0.22147436  1
  Bi2+  Bi125  1  0.96720089  0.50895391  0.71072444  1
  Bi2+  Bi126  1  0.87504715  0.79605434  0.20140797  1
  Bi2+  Bi127  1  0.71544822  0.74013417  0.68263060  1
  S2-  S128  1  0.02094004  0.23701459  0.14285753  1
  S2-  S129  1  -0.01330815  0.11343394  0.66481974  1
  S2-  S130  1  0.02137385  0.49464393  0.14079992  1
  S2-  S131  1  -0.07019487  0.36361710  0.64974082  1
  S2-  S132  1  0.00706422  0.73826733  0.13533966  1
  S2-  S133  1  -0.00111230  0.65124418  0.65330940  1
  S2-  S134  1  0.01080105  0.99301860  0.13606581  1
  S2-  S135  1  -0.10579923  0.88117578  0.64945621  1
  S2-  S136  1  0.25285375  0.21374556  0.14843453  1
  S2-  S137  1  0.22477566  0.05318756  0.63761721  1
  S2-  S138  1  0.28070273  0.40710622  0.16005886  1
  S2-  S139  1  0.33898442  0.37713307  0.63399864  1
  S2-  S140  1  0.24191300  0.62877293  0.15948491  1
  S2-  S141  1  0.26606354  0.65361116  0.65438448  1
  S2-  S142  1  0.27409532  0.97789305  0.14241950  1
  S2-  S143  1  0.12247106  0.85895378  0.64795607  1
  S2-  S144  1  0.43336118  0.12319698  0.19783649  1
  S2-  S145  1  0.46830357  0.12628624  0.65588925  1
  S2-  S146  1  0.52781097  0.28310596  0.15829848  1
  S2-  S147  1  0.59166083  0.35189892  0.65872997  1
  S2-  S148  1  0.51993182  0.50668218  0.14214643  1
  S2-  S149  1  0.48216668  0.53350725  0.64217764  1
  S2-  S150  1  0.54744669  0.96115666  0.15132028  1
  S2-  S151  1  0.37986149  0.87651538  0.64358234  1
  S2-  S152  1  0.70841907  0.12501508  0.14175860  1
  S2-  S153  1  0.75434938  0.21022212  0.65679813  1
  S2-  S154  1  0.75516869  0.37964303  0.15374631  1
  S2-  S155  1  0.76565180  0.36441117  0.73224282  1
  S2-  S156  1  0.75340056  0.63110356  0.14650155  1
  S2-  S157  1  0.74828352  0.54429263  0.65507414  1
  S2-  S158  1  0.78451588  0.89943728  0.14018727  1
  S2-  S159  1  0.72290008  1.00377419  0.64605245  1
  S2-  S160  1  0.11299926  0.08872793  0.34881079  1
  S2-  S161  1  0.05868134  -0.02247604  0.85505890  1
  S2-  S162  1  0.19822927  0.25180027  0.28897536  1
  S2-  S163  1  0.05832881  0.23045299  0.85438245  1
  S2-  S164  1  0.11610364  0.42597664  0.34835530  1
  S2-  S165  1  0.05098608  0.50159209  0.85985059  1
  S2-  S166  1  0.11476385  0.87126845  0.36396151  1
  S2-  S167  1  0.06687982  0.74152204  0.85494103  1
  S2-  S168  1  0.36997852  -0.11954877  0.35895333  1
  S2-  S169  1  0.29434485  -0.02202987  0.86265973  1
  S2-  S170  1  0.37268417  0.11520766  0.35035650  1
  S2-  S171  1  0.40981832  0.31831960  0.86329764  1
  S2-  S172  1  0.36459989  0.37682332  0.34519939  1
  S2-  S173  1  0.27373849  0.50870899  0.85619520  1
  S2-  S174  1  0.37143921  0.64363387  0.35393244  1
  S2-  S175  1  0.29183590  0.74802236  0.86222969  1
  S2-  S176  1  0.59771028  0.01345355  0.34399365  1
  S2-  S177  1  0.61642535  -0.03373825  0.84081168  1
  S2-  S178  1  0.54630197  0.25472367  0.35756085  1
  S2-  S179  1  0.64626933  0.25238731  0.83974476  1
  S2-  S180  1  0.54192590  0.50167679  0.35646669  1
  S2-  S181  1  0.55777210  0.48137830  0.85912395  1
  S2-  S182  1  0.61513812  0.75639209  0.35135688  1
  S2-  S183  1  0.52995512  0.73592710  0.86262268  1
  S2-  S184  1  0.86880283  -0.00235915  0.34616823  1
  S2-  S185  1  0.85608957  -0.00229001  0.82816022  1
  S2-  S186  1  0.96480796  0.25807401  0.35100390  1
  S2-  S187  1  0.85432991  0.19694319  0.81742845  1
  S2-  S188  1  0.86961983  0.48895278  0.34907009  1
  S2-  S189  1  0.87343556  0.39261560  0.85189859  1
  S2-  S190  1  0.86054590  0.74584944  0.34679083  1
  S2-  S191  1  0.85491212  0.77240866  0.83458489  1
  S2-  S192  1  0.00504627  0.12917110  0.45652669  1
  S2-  S193  1  0.03081711  0.11432882  0.95605412  1
  S2-  S194  1  0.00306150  0.37670293  0.45729590  1
  S2-  S195  1  0.03274276  0.36320055  0.95870229  1
  S2-  S196  1  0.00392173  0.62453070  0.45003357  1
  S2-  S197  1  0.03720627  0.61405262  0.96190173  1
  S2-  S198  1  0.00068041  0.87661935  0.46486459  1
  S2-  S199  1  0.03489814  0.86419837  0.95816348  1
  S2-  S200  1  0.24526358  0.13276074  0.44736118  1
  S2-  S201  1  0.28363941  0.11875981  0.95821452  1
  S2-  S202  1  0.24813637  0.36802172  0.44595345  1
  S2-  S203  1  0.28203235  0.35971166  0.95990181  1
  S2-  S204  1  0.24750921  0.62868543  0.45206556  1
  S2-  S205  1  0.29191258  0.61224292  0.95891068  1
  S2-  S206  1  0.24964658  0.87794136  0.46180477  1
  S2-  S207  1  0.28838344  0.86365152  0.96545874  1
  S2-  S208  1  0.50463434  0.12535174  0.45530639  1
  S2-  S209  1  0.53174017  0.11570023  0.93801279  1
  S2-  S210  1  0.50252506  0.37562338  0.46067340  1
  S2-  S211  1  0.53569564  0.36152844  0.96284628  1
  S2-  S212  1  0.50681281  0.63263836  0.45514363  1
  S2-  S213  1  0.53142255  0.61137525  0.96033255  1
  S2-  S214  1  0.50528775  0.87586873  0.45894932  1
  S2-  S215  1  0.53390128  0.86807095  0.95739465  1
  S2-  S216  1  0.75152269  0.12795400  0.45510167  1
  S2-  S217  1  0.78230653  0.11600091  0.94490963  1
  S2-  S218  1  0.75224513  0.37503367  0.44606963  1
  S2-  S219  1  0.77727716  0.36334610  0.95240731  1
  S2-  S220  1  0.75319208  0.62520809  0.45856163  1
  S2-  S221  1  0.78040416  0.61488687  0.94082375  1
  S2-  S222  1  0.75367556  0.87854536  0.46049869  1
  S2-  S223  1  0.77923829  0.86438644  0.93976303  1
  S2-  S224  1  0.15400557  -0.01248432  0.04124526  1
  S2-  S225  1  0.12119180  0.00263516  0.53942542  1
  S2-  S226  1  0.15374610  0.23624512  0.04101050  1
  S2-  S227  1  0.12782349  0.25406362  0.56111056  1
  S2-  S228  1  0.15891575  0.48731035  0.04482176  1
  S2-  S229  1  0.12562360  0.49934356  0.54679217  1
  S2-  S230  1  0.15997125  0.73946775  0.04786214  1
  S2-  S231  1  0.12497779  0.75002836  0.54191386  1
  S2-  S232  1  0.41530799  -0.00459460  0.04560784  1
  S2-  S233  1  0.37657851  0.00733776  0.53887528  1
  S2-  S234  1  0.41220287  0.23270343  0.05297627  1
  S2-  S235  1  0.37667889  0.24650647  0.53655289  1
  S2-  S236  1  0.40342453  0.48734856  0.04170657  1
  S2-  S237  1  0.37411806  0.50686357  0.53135134  1
  S2-  S238  1  0.40854545  0.73826067  0.04657985  1
  S2-  S239  1  0.37400553  0.75197216  0.54065140  1
  S2-  S240  1  0.65568893  -0.00759108  0.03832147  1
  S2-  S241  1  0.62256917  0.00191228  0.54528808  1
  S2-  S242  1  0.65119649  0.23683726  0.04303664  1
  S2-  S243  1  0.62346021  0.25111648  0.54860267  1
  S2-  S244  1  0.65715873  0.49147752  0.04325620  1
  S2-  S245  1  0.62891114  0.50042617  0.54715076  1
  S2-  S246  1  0.65349906  0.73892200  0.03637582  1
  S2-  S247  1  0.63099614  0.75758972  0.55170908  1
  S2-  S248  1  0.90060283  -0.00889524  0.03216483  1
  S2-  S249  1  0.87810950  0.00146831  0.54924914  1
  S2-  S250  1  0.89942495  0.23725117  0.04034196  1
  S2-  S251  1  0.87439086  0.25335507  0.54482289  1
  S2-  S252  1  0.90208832  0.48788736  0.03865272  1
  S2-  S253  1  0.87542209  0.49890480  0.54988112  1
  S2-  S254  1  0.90497611  0.74075713  0.03154158  1
  S2-  S255  1  0.87629194  0.75176399  0.55131621  1
