# generated using pymatgen
data_La6Ce7Pr13Nd19Sm19(BiS2)64
_symmetry_space_group_name_H-M   'P 1'
_cell_length_a   16.12057509
_cell_length_b   16.12573512
_cell_length_c   27.28895053
_cell_angle_alpha   89.90974922
_cell_angle_beta   89.94217608
_cell_angle_gamma   90.00078566
_symmetry_Int_Tables_number   1
_chemical_formula_structural   La6Ce7Pr13Nd19Sm19(BiS2)64
_chemical_formula_sum   'La6 Ce7 Pr13 Nd19 Sm19 Bi64 S128'
_cell_volume   7093.91738973
_cell_formula_units_Z   1
loop_
 _symmetry_equiv_pos_site_id
 _symmetry_equiv_pos_as_xyz
  1  'x, y, z'
loop_
 _atom_type_symbol
 _atom_type_oxidation_number
  La3+  3.0
  Ce3+  3.0
  Pr3+  3.0
  Nd3+  3.0
  Sm3+  3.0
  Bi2+  2.0
  S2-  -2.0
loop_
 _atom_site_type_symbol
 _atom_site_label
 _atom_site_symmetry_multiplicity
 _atom_site_fract_x
 _atom_site_fract_y
 _atom_site_fract_z
 _atom_site_occupancy
  La3+  La0  1  0.50253469  0.14232884  0.08743707  1
  La3+  La1  1  0.25052540  0.63076088  0.60759409  1
  La3+  La2  1  0.87498778  0.50540655  0.92527800  1
  La3+  La3  1  0.10664584  0.26244470  0.42340321  1
  La3+  La4  1  0.37794352  -0.01374436  0.38413788  1
  La3+  La5  1  -0.00144900  0.88372773  0.57196807  1
  Ce3+  Ce6  1  0.36682613  0.25540654  0.94232355  1
  Ce3+  Ce7  1  0.24406222  0.88001912  0.06351521  1
  Ce3+  Ce8  1  0.36870171  0.51044989  0.94088440  1
  Ce3+  Ce9  1  -0.00608916  0.13228906  0.56930747  1
  Ce3+  Ce10  1  0.36475856  0.49967820  0.42935762  1
  Ce3+  Ce11  1  0.61491043  0.01121624  0.43627736  1
  Ce3+  Ce12  1  0.49474193  0.63397832  0.05512671  1
  Pr3+  Pr13  1  0.49447903  0.86932059  0.07975392  1
  Pr3+  Pr14  1  -0.00526570  0.88217597  0.06174765  1
  Pr3+  Pr15  1  0.74468405  0.88245769  0.06198084  1
  Pr3+  Pr16  1  0.24468277  0.38454513  0.06358399  1
  Pr3+  Pr17  1  0.61970341  0.25732814  0.43983233  1
  Pr3+  Pr18  1  0.61016820  0.26152222  0.92538512  1
  Pr3+  Pr19  1  0.61858224  0.01245105  0.94983285  1
  Pr3+  Pr20  1  0.48733369  0.13481503  0.56305593  1
  Pr3+  Pr21  1  0.12369236  0.76728149  0.92792572  1
  Pr3+  Pr22  1  0.38053489  0.77310441  0.92514996  1
  Pr3+  Pr23  1  0.62215616  0.76158645  0.93859745  1
  Pr3+  Pr24  1  0.73630229  0.13049230  0.56721118  1
  Pr3+  Pr25  1  -0.00354957  0.13411905  0.07166952  1
  Nd3+  Nd26  1  0.49632329  0.38450310  0.06079261  1
  Nd3+  Nd27  1  -0.00346147  0.38384731  0.05276853  1
  Nd3+  Nd28  1  0.48845577  0.88195542  0.55329652  1
  Nd3+  Nd29  1  0.74425949  0.38294220  0.05378205  1
  Nd3+  Nd30  1  0.74392692  0.63565691  0.56916689  1
  Nd3+  Nd31  1  0.24308381  0.13540710  0.07551676  1
  Nd3+  Nd32  1  0.48855050  0.38767651  0.55634134  1
  Nd3+  Nd33  1  0.12335314  0.01166644  0.43204392  1
  Nd3+  Nd34  1  0.61752842  0.75911518  0.43455954  1
  Nd3+  Nd35  1  -0.00398246  0.63358541  0.05338171  1
  Nd3+  Nd36  1  0.62408688  0.50851910  0.44047177  1
  Nd3+  Nd37  1  0.87236996  0.76223353  0.93492917  1
  Nd3+  Nd38  1  0.10816896  0.50933115  0.43339048  1
  Nd3+  Nd39  1  0.61975337  0.50791841  0.93356146  1
  Nd3+  Nd40  1  0.74398740  0.38377235  0.56795871  1
  Nd3+  Nd41  1  0.12407390  0.51119830  0.93475803  1
  Nd3+  Nd42  1  0.87530309  0.00876397  0.43816449  1
  Nd3+  Nd43  1  0.11729109  0.75589896  0.44449576  1
  Nd3+  Nd44  1  0.24538769  0.88156670  0.55244807  1
  Sm3+  Sm45  1  0.87096550  0.75917610  0.44751540  1
  Sm3+  Sm46  1  0.36717305  0.25493705  0.43147440  1
  Sm3+  Sm47  1  0.87283891  0.25692499  0.94412001  1
  Sm3+  Sm48  1  0.23921947  0.38902325  0.55499698  1
  Sm3+  Sm49  1  0.74725293  0.63120654  0.04858946  1
  Sm3+  Sm50  1  0.24446892  0.63565453  0.05125340  1
  Sm3+  Sm51  1  0.87208077  0.01276388  0.94713820  1
  Sm3+  Sm52  1  -0.00980552  0.63576356  0.57648227  1
  Sm3+  Sm53  1  0.24663285  0.13649275  0.55520439  1
  Sm3+  Sm54  1  0.86444754  0.51194847  0.44047159  1
  Sm3+  Sm55  1  0.12521458  0.25504394  0.93766737  1
  Sm3+  Sm56  1  0.36559372  0.75286609  0.43805776  1
  Sm3+  Sm57  1  0.48986359  0.63166581  0.54853519  1
  Sm3+  Sm58  1  0.12244334  0.01103872  0.94365518  1
  Sm3+  Sm59  1  0.74020882  0.88343658  0.54844115  1
  Sm3+  Sm60  1  0.86788689  0.25718219  0.45098070  1
  Sm3+  Sm61  1  -0.00463247  0.38726239  0.56154780  1
  Sm3+  Sm62  1  0.74377091  0.13532014  0.05644275  1
  Sm3+  Sm63  1  0.37447624  0.00934108  0.95733245  1
  Bi2+  Bi64  1  -0.01119950  0.12637061  0.29709006  1
  Bi2+  Bi65  1  0.06147352  0.12961196  0.83073516  1
  Bi2+  Bi66  1  -0.01638324  0.39158676  0.29841658  1
  Bi2+  Bi67  1  0.07737134  0.31352712  0.78050755  1
  Bi2+  Bi68  1  -0.00127631  0.64766412  0.29252010  1
  Bi2+  Bi69  1  -0.01332067  0.61111176  0.80502062  1
  Bi2+  Bi70  1  -0.01657233  0.86351265  0.29547329  1
  Bi2+  Bi71  1  0.01146052  0.95019050  0.78689472  1
  Bi2+  Bi72  1  0.24778098  0.11625259  0.27804260  1
  Bi2+  Bi73  1  0.25329341  0.10448568  0.80777450  1
  Bi2+  Bi74  1  0.25023413  0.38998104  0.28191459  1
  Bi2+  Bi75  1  0.28957968  0.36762642  0.78822755  1
  Bi2+  Bi76  1  0.21534739  0.58578720  0.28728732  1
  Bi2+  Bi77  1  0.24005590  0.59699242  0.80358706  1
  Bi2+  Bi78  1  0.19414438  0.86395241  0.27209263  1
  Bi2+  Bi79  1  0.26244770  0.87837736  0.80415836  1
  Bi2+  Bi80  1  0.50108007  0.12872279  0.28486970  1
  Bi2+  Bi81  1  0.51885594  0.12384623  0.79334202  1
  Bi2+  Bi82  1  0.50798269  0.39176241  0.28658180  1
  Bi2+  Bi83  1  0.46991945  0.30049998  0.75626691  1
  Bi2+  Bi84  1  0.50273875  0.58356836  0.29910172  1
  Bi2+  Bi85  1  0.50745715  0.64424644  0.73198998  1
  Bi2+  Bi86  1  0.53200827  0.85053105  0.28538681  1
  Bi2+  Bi87  1  0.50821095  0.89997157  0.79372343  1
  Bi2+  Bi88  1  0.79435627  0.06404146  0.28968577  1
  Bi2+  Bi89  1  0.75811868  0.06942767  0.79501804  1
  Bi2+  Bi90  1  0.73540957  0.33798998  0.31201855  1
  Bi2+  Bi91  1  0.75052414  0.35278416  0.80689832  1
  Bi2+  Bi92  1  0.72708696  0.60706235  0.28419923  1
  Bi2+  Bi93  1  0.67144498  0.67452547  0.80002498  1
  Bi2+  Bi94  1  0.79665360  0.87226005  0.26614438  1
  Bi2+  Bi95  1  0.73797925  0.86788351  0.75702714  1
  Bi2+  Bi96  1  0.07515488  -0.00748947  0.20815457  1
  Bi2+  Bi97  1  0.15325497  0.02102402  0.72018505  1
  Bi2+  Bi98  1  0.08244398  0.27834790  0.20395567  1
  Bi2+  Bi99  1  0.08972761  0.19837069  0.68564615  1
  Bi2+  Bi100  1  0.08391730  0.52408575  0.20635240  1
  Bi2+  Bi101  1  0.11127369  0.45979400  0.70551719  1
  Bi2+  Bi102  1  0.13560420  0.73849709  0.18849583  1
  Bi2+  Bi103  1  0.10768247  0.75198666  0.71259302  1
  Bi2+  Bi104  1  0.37750815  -0.02004836  0.18255109  1
  Bi2+  Bi105  1  0.37448501  0.05021782  0.72592879  1
  Bi2+  Bi106  1  0.36924684  0.29614643  0.20966981  1
  Bi2+  Bi107  1  0.27919589  0.24302413  0.70092763  1
  Bi2+  Bi108  1  0.36432409  0.52823648  0.21258222  1
  Bi2+  Bi109  1  0.41731559  0.46302139  0.69604943  1
  Bi2+  Bi110  1  0.36260316  0.71021717  0.26308556  1
  Bi2+  Bi111  1  0.34516579  0.81450237  0.71227350  1
  Bi2+  Bi112  1  0.66248051  0.00910118  0.19971815  1
  Bi2+  Bi113  1  0.59841605  -0.03168034  0.69787560  1
  Bi2+  Bi114  1  0.64456334  0.29179568  0.21028359  1
  Bi2+  Bi115  1  0.67854795  0.23056399  0.69913869  1
  Bi2+  Bi116  1  0.55432441  0.48768118  0.18777811  1
  Bi2+  Bi117  1  0.63840386  0.50449208  0.74723224  1
  Bi2+  Bi118  1  0.60510961  0.67517308  0.20205788  1
  Bi2+  Bi119  1  0.66898874  0.72288961  0.68509912  1
  Bi2+  Bi120  1  0.90017819  0.07170104  0.18925805  1
  Bi2+  Bi121  1  0.87663191  0.01320266  0.70986851  1
  Bi2+  Bi122  1  0.85879873  0.24946210  0.22803147  1
  Bi2+  Bi123  1  0.91991630  0.20151254  0.75159755  1
  Bi2+  Bi124  1  0.82511721  0.45464627  0.23713569  1
  Bi2+  Bi125  1  0.85319533  0.49035375  0.71653449  1
  Bi2+  Bi126  1  0.86000927  0.69871108  0.21504811  1
  Bi2+  Bi127  1  0.86595334  0.72784702  0.72927359  1
  S2-  S128  1  0.11126648  0.14024384  0.14683448  1
  S2-  S129  1  0.00238055  0.01368719  0.64131339  1
  S2-  S130  1  0.00027335  0.39084440  0.15188136  1
  S2-  S131  1  -0.02292210  0.40585657  0.66053608  1
  S2-  S132  1  -0.01487383  0.62562332  0.15226776  1
  S2-  S133  1  0.09231160  0.60869292  0.65484661  1
  S2-  S134  1  0.01273404  0.85515025  0.16002013  1
  S2-  S135  1  -0.01758352  0.78118522  0.65510990  1
  S2-  S136  1  0.31754621  0.14006017  0.16740108  1
  S2-  S137  1  0.35714347  0.13704479  0.63580419  1
  S2-  S138  1  0.22404409  0.35082220  0.16134288  1
  S2-  S139  1  0.25506192  0.45951148  0.64534929  1
  S2-  S140  1  0.21913639  0.60897171  0.14741778  1
  S2-  S141  1  0.26015066  0.66368657  0.71330580  1
  S2-  S142  1  0.26516801  0.84665663  0.15911505  1
  S2-  S143  1  0.21856433  0.83617412  0.64871810  1
  S2-  S144  1  0.51027083  0.09075938  0.18687618  1
  S2-  S145  1  0.60214683  0.12371919  0.64252629  1
  S2-  S146  1  0.50050114  0.29236230  0.14480562  1
  S2-  S147  1  0.50987374  0.34768656  0.65337498  1
  S2-  S148  1  0.47607918  0.71403076  0.13878473  1
  S2-  S149  1  0.42614389  0.61769304  0.63854967  1
  S2-  S150  1  0.53172322  0.89582218  0.18058510  1
  S2-  S151  1  0.47768868  0.87991083  0.65254673  1
  S2-  S152  1  0.68852041  0.15788296  0.14674292  1
  S2-  S153  1  0.81209903  0.16139793  0.65868799  1
  S2-  S154  1  0.72807571  0.40347349  0.15178163  1
  S2-  S155  1  0.73988218  0.38981033  0.66793418  1
  S2-  S156  1  0.75225770  0.64072965  0.14578023  1
  S2-  S157  1  0.85427270  0.60805335  0.64691044  1
  S2-  S158  1  0.76150012  0.88629174  0.16132069  1
  S2-  S159  1  0.73581887  0.89466231  0.64574065  1
  S2-  S160  1  0.21379486  -0.01119374  0.34454057  1
  S2-  S161  1  0.12625996  -0.09025058  0.86388908  1
  S2-  S162  1  0.13998450  0.18120006  0.33346520  1
  S2-  S163  1  0.25100166  0.25324354  0.86761867  1
  S2-  S164  1  0.12712260  0.39642613  0.35376686  1
  S2-  S165  1  0.10273800  0.48875282  0.83731192  1
  S2-  S166  1  0.12003180  0.77534780  0.34288978  1
  S2-  S167  1  0.11021998  0.70685825  0.83028523  1
  S2-  S168  1  0.38487412  -0.00183279  0.27652200  1
  S2-  S169  1  0.38506485  -0.06852259  0.86931199  1
  S2-  S170  1  0.37120083  0.15818636  0.34819347  1
  S2-  S171  1  0.46971412  0.23589584  0.86178139  1
  S2-  S172  1  0.36893347  0.38024732  0.35674406  1
  S2-  S173  1  0.36416749  0.49172271  0.84310374  1
  S2-  S174  1  0.38864706  0.81510713  0.34677532  1
  S2-  S175  1  0.32828770  0.72124615  0.83294735  1
  S2-  S176  1  0.55401845  -0.00649784  0.34504976  1
  S2-  S177  1  0.61643284  -0.00045183  0.84973300  1
  S2-  S178  1  0.61834150  0.22305755  0.34114807  1
  S2-  S179  1  0.67967578  0.21535856  0.83469450  1
  S2-  S180  1  0.74050611  0.50556596  0.36616442  1
  S2-  S181  1  0.61169674  0.43270539  0.84485726  1
  S2-  S182  1  0.63405014  0.76188896  0.33525614  1
  S2-  S183  1  0.53771711  0.76738415  0.85132284  1
  S2-  S184  1  0.99211968  -0.00347087  0.36437169  1
  S2-  S185  1  0.87195993  -0.01176636  0.85072933  1
  S2-  S186  1  0.94179258  0.25822482  0.36243846  1
  S2-  S187  1  0.88818736  0.27800313  0.84775597  1
  S2-  S188  1  0.97205326  0.52796568  0.36166164  1
  S2-  S189  1  0.85338324  0.49883366  0.82521384  1
  S2-  S190  1  0.88572277  0.74736365  0.35030087  1
  S2-  S191  1  0.88846171  0.73721549  0.83734267  1
  S2-  S192  1  -0.00683548  0.13390916  0.46330152  1
  S2-  S193  1  -0.00269317  0.13473168  0.96245945  1
  S2-  S194  1  -0.01509287  0.38608544  0.45997376  1
  S2-  S195  1  0.00144861  0.37926738  0.94692819  1
  S2-  S196  1  -0.01118312  0.63717443  0.46497585  1
  S2-  S197  1  -0.00341277  0.63564593  0.94710549  1
  S2-  S198  1  -0.00467410  0.87970352  0.46301651  1
  S2-  S199  1  -0.00787282  0.88759496  0.95544701  1
  S2-  S200  1  0.23722378  0.14288846  0.45338374  1
  S2-  S201  1  0.24491203  0.12603961  0.96682330  1
  S2-  S202  1  0.23765733  0.38250683  0.45382754  1
  S2-  S203  1  0.24208843  0.38751197  0.95746351  1
  S2-  S204  1  0.24227546  0.63020523  0.43591349  1
  S2-  S205  1  0.24607331  0.63876505  0.94690584  1
  S2-  S206  1  0.24630417  0.87776938  0.44862591  1
  S2-  S207  1  0.24733934  0.88794658  0.96077500  1
  S2-  S208  1  0.49312836  0.13552978  0.45543440  1
  S2-  S209  1  0.49382084  0.13192469  0.96850448  1
  S2-  S210  1  0.49914987  0.38472870  0.45067357  1
  S2-  S211  1  0.49206751  0.38710633  0.95572067  1
  S2-  S212  1  0.49390364  0.63046850  0.44398044  1
  S2-  S213  1  0.49687759  0.63347570  0.94846232  1
  S2-  S214  1  0.49093358  0.88035877  0.44867696  1
  S2-  S215  1  0.50061382  0.88533983  0.97005880  1
  S2-  S216  1  0.74691296  0.13122918  0.45277155  1
  S2-  S217  1  0.74811592  0.13600855  0.95223679  1
  S2-  S218  1  0.74549883  0.38009497  0.46239897  1
  S2-  S219  1  0.74817620  0.38133013  0.94795479  1
  S2-  S220  1  0.74331414  0.64029802  0.46128232  1
  S2-  S221  1  0.74763290  0.63311756  0.94352519  1
  S2-  S222  1  0.74515063  0.88402583  0.44313993  1
  S2-  S223  1  0.74842722  0.88671994  0.95368812  1
  S2-  S224  1  0.11995345  0.00589428  0.04860499  1
  S2-  S225  1  0.12717814  0.01102190  0.54230348  1
  S2-  S226  1  0.12008285  0.25985257  0.04221681  1
  S2-  S227  1  0.11871687  0.26150313  0.54943332  1
  S2-  S228  1  0.11988423  0.50985920  0.04223032  1
  S2-  S229  1  0.11485488  0.50894795  0.54247228  1
  S2-  S230  1  0.11961249  0.75740764  0.04011321  1
  S2-  S231  1  0.12433994  0.74911262  0.54844487  1
  S2-  S232  1  0.37440769  0.00557515  0.06140101  1
  S2-  S233  1  0.36611917  0.00556383  0.54436563  1
  S2-  S234  1  0.36669069  0.25828717  0.04882806  1
  S2-  S235  1  0.36506241  0.26747628  0.53845396  1
  S2-  S236  1  0.36916890  0.50996357  0.04943945  1
  S2-  S237  1  0.36510640  0.50993635  0.53513318  1
  S2-  S238  1  0.36638986  0.75723484  0.03769434  1
  S2-  S239  1  0.36550524  0.75226077  0.54259743  1
  S2-  S240  1  0.61979629  0.00821747  0.05627971  1
  S2-  S241  1  0.61547873  0.00364554  0.54023858  1
  S2-  S242  1  0.62251659  0.26111551  0.03791383  1
  S2-  S243  1  0.61798514  0.26285415  0.54611042  1
  S2-  S244  1  0.62189042  0.50923974  0.04100098  1
  S2-  S245  1  0.61866938  0.51063703  0.54849884  1
  S2-  S246  1  0.62508748  0.75496874  0.04535857  1
  S2-  S247  1  0.61554889  0.75644815  0.54223264  1
  S2-  S248  1  0.86866976  0.01119591  0.05155355  1
  S2-  S249  1  0.86252454  0.00719599  0.54393040  1
  S2-  S250  1  0.87011832  0.25822786  0.05034577  1
  S2-  S251  1  0.86993376  0.26122077  0.55397088  1
  S2-  S252  1  0.87095135  0.50758556  0.03701797  1
  S2-  S253  1  0.86699321  0.50639531  0.54558447  1
  S2-  S254  1  0.86927378  0.75673955  0.04257652  1
  S2-  S255  1  0.86382334  0.76129299  0.55082857  1
