# generated using pymatgen
data_La6Ce7Pr13Nd19Sm19(BiS2)64
_symmetry_space_group_name_H-M   'P 1'
_cell_length_a   16.03455668
_cell_length_b   16.03695849
_cell_length_c   27.43285225
_cell_angle_alpha   89.71002258
_cell_angle_beta   90.48024555
_cell_angle_gamma   89.94078057
_symmetry_Int_Tables_number   1
_chemical_formula_structural   La6Ce7Pr13Nd19Sm19(BiS2)64
_chemical_formula_sum   'La6 Ce7 Pr13 Nd19 Sm19 Bi64 S128'
_cell_volume   7053.89283052
_cell_formula_units_Z   1
loop_
 _symmetry_equiv_pos_site_id
 _symmetry_equiv_pos_as_xyz
  1  'x, y, z'
loop_
 _atom_type_symbol
 _atom_type_oxidation_number
  La3+  3.0
  Ce3+  3.0
  Pr3+  3.0
  Nd3+  3.0
  Sm3+  3.0
  Bi2+  2.0
  S2-  -2.0
loop_
 _atom_site_type_symbol
 _atom_site_label
 _atom_site_symmetry_multiplicity
 _atom_site_fract_x
 _atom_site_fract_y
 _atom_site_fract_z
 _atom_site_occupancy
  La3+  La0  1  0.37235461  0.00087071  0.42011489  1
  La3+  La1  1  0.13088479  0.76709407  0.92537641  1
  La3+  La2  1  0.12212377  0.49788278  0.39072616  1
  La3+  La3  1  0.01423784  0.87292665  0.10615496  1
  La3+  La4  1  0.22213597  0.60957861  0.61264807  1
  La3+  La5  1  0.74278201  0.62404557  0.57985286  1
  Ce3+  Ce6  1  0.37668795  0.51615548  0.93844265  1
  Ce3+  Ce7  1  0.12576554  0.51899566  0.93125235  1
  Ce3+  Ce8  1  -0.00408566  0.37676919  0.55172095  1
  Ce3+  Ce9  1  0.24409371  0.11710575  0.56029372  1
  Ce3+  Ce10  1  0.74638739  0.87071488  0.57108059  1
  Ce3+  Ce11  1  0.62012580  0.50396658  0.44180503  1
  Ce3+  Ce12  1  0.00013546  0.62589509  0.54749061  1
  Pr3+  Pr13  1  0.63174314  0.76493845  0.93352501  1
  Pr3+  Pr14  1  0.74471422  0.37666774  0.57105169  1
  Pr3+  Pr15  1  0.24141459  0.37200845  0.55945908  1
  Pr3+  Pr16  1  0.12907359  0.01630604  0.93243028  1
  Pr3+  Pr17  1  0.86214168  0.00101634  0.44054102  1
  Pr3+  Pr18  1  0.38451327  0.77308011  0.91667847  1
  Pr3+  Pr19  1  0.86232409  0.74856767  0.43353777  1
  Pr3+  Pr20  1  0.01054124  0.13477134  0.06672663  1
  Pr3+  Pr21  1  0.62924849  0.01618676  0.94074471  1
  Pr3+  Pr22  1  0.86159916  0.25175493  0.43382740  1
  Pr3+  Pr23  1  0.88414662  0.01556870  0.93935212  1
  Pr3+  Pr24  1  0.63149434  0.26674207  0.94390782  1
  Pr3+  Pr25  1  0.11219890  0.75351272  0.41744413  1
  Nd3+  Nd26  1  0.11128515  0.24948001  0.42761032  1
  Nd3+  Nd27  1  0.75571090  0.64228068  0.06957545  1
  Nd3+  Nd28  1  0.48683695  0.62727181  0.56970971  1
  Nd3+  Nd29  1  0.50273440  0.89285584  0.06776618  1
  Nd3+  Nd30  1  0.36542424  0.25133972  0.42928163  1
  Nd3+  Nd31  1  0.87942940  0.52170212  0.94140949  1
  Nd3+  Nd32  1  0.25732389  0.38909295  0.05553429  1
  Nd3+  Nd33  1  0.61494270  0.25531612  0.43496447  1
  Nd3+  Nd34  1  0.38008745  0.01814309  0.93365900  1
  Nd3+  Nd35  1  0.38039124  0.26383231  0.92904804  1
  Nd3+  Nd36  1  0.63127487  0.51573450  0.94473785  1
  Nd3+  Nd37  1  0.74291452  0.12729352  0.57022697  1
  Nd3+  Nd38  1  0.75659608  0.38880880  0.06340479  1
  Nd3+  Nd39  1  0.00837167  0.62936330  0.07412199  1
  Nd3+  Nd40  1  0.86483648  0.50097308  0.43468426  1
  Nd3+  Nd41  1  0.49042960  0.37586940  0.56142080  1
  Nd3+  Nd42  1  0.50356674  0.13819436  0.06842797  1
  Nd3+  Nd43  1  -0.00731848  0.12512576  0.55955399  1
  Nd3+  Nd44  1  0.36186343  0.50561471  0.44290720  1
  Sm3+  Sm45  1  0.49070358  0.12237039  0.55741311  1
  Sm3+  Sm46  1  0.24310694  0.87086583  0.56001508  1
  Sm3+  Sm47  1  0.25498932  0.64400659  0.05238685  1
  Sm3+  Sm48  1  0.75795525  0.89123111  0.05719891  1
  Sm3+  Sm49  1  0.76017791  0.13883919  0.05630377  1
  Sm3+  Sm50  1  0.50453342  0.64273597  0.05272814  1
  Sm3+  Sm51  1  0.36395279  0.75176736  0.43892084  1
  Sm3+  Sm52  1  0.25653194  0.88886008  0.06019937  1
  Sm3+  Sm53  1  -0.00333802  0.87049876  0.55298535  1
  Sm3+  Sm54  1  0.12636963  0.26981469  0.92797939  1
  Sm3+  Sm55  1  0.00972244  0.39110403  0.05945626  1
  Sm3+  Sm56  1  0.25471163  0.13907605  0.05286775  1
  Sm3+  Sm57  1  0.48978108  0.87415048  0.56031194  1
  Sm3+  Sm58  1  0.61460354  0.00133649  0.44815832  1
  Sm3+  Sm59  1  0.88225571  0.76490853  0.95224325  1
  Sm3+  Sm60  1  0.61897495  0.74924004  0.44481020  1
  Sm3+  Sm61  1  0.88121366  0.26779121  0.94807852  1
  Sm3+  Sm62  1  0.11720580  0.00035232  0.44105960  1
  Sm3+  Sm63  1  0.50468127  0.38879579  0.05227604  1
  Bi2+  Bi64  1  -0.01136553  0.11535973  0.28920831  1
  Bi2+  Bi65  1  0.03393930  0.05310217  0.79400437  1
  Bi2+  Bi66  1  0.00952162  0.35853383  0.28104908  1
  Bi2+  Bi67  1  -0.00720514  0.26823028  0.77622438  1
  Bi2+  Bi68  1  -0.02709119  0.61721659  0.27799043  1
  Bi2+  Bi69  1  0.02205700  0.50877490  0.79185106  1
  Bi2+  Bi70  1  0.02288828  0.88037911  0.29884765  1
  Bi2+  Bi71  1  -0.06401718  0.89630659  0.75335169  1
  Bi2+  Bi72  1  0.21277687  0.16880380  0.27525075  1
  Bi2+  Bi73  1  0.25262866  0.14594261  0.78146853  1
  Bi2+  Bi74  1  0.29182401  0.34768615  0.28137595  1
  Bi2+  Bi75  1  0.32642307  0.34828019  0.80561221  1
  Bi2+  Bi76  1  0.35478682  0.60962881  0.28990627  1
  Bi2+  Bi77  1  0.23299504  0.57578279  0.81128277  1
  Bi2+  Bi78  1  0.29080627  0.90643866  0.27476414  1
  Bi2+  Bi79  1  0.24087142  0.88553780  0.78843741  1
  Bi2+  Bi80  1  0.46970951  0.14402485  0.29514970  1
  Bi2+  Bi81  1  0.51886381  0.14051790  0.80082118  1
  Bi2+  Bi82  1  0.54034468  0.43155309  0.31693798  1
  Bi2+  Bi83  1  0.51861761  0.33747132  0.78556405  1
  Bi2+  Bi84  1  0.52133878  0.62906399  0.34836166  1
  Bi2+  Bi85  1  0.53348009  0.64633108  0.77472924  1
  Bi2+  Bi86  1  0.51039580  0.81017143  0.29655712  1
  Bi2+  Bi87  1  0.48634085  0.93049687  0.77210098  1
  Bi2+  Bi88  1  0.71019288  0.15022833  0.27186405  1
  Bi2+  Bi89  1  0.77590434  0.08792569  0.77326871  1
  Bi2+  Bi90  1  0.70362537  0.34685991  0.27517895  1
  Bi2+  Bi91  1  0.76817661  0.36742577  0.80896753  1
  Bi2+  Bi92  1  0.72576304  0.62240408  0.29633161  1
  Bi2+  Bi93  1  0.71642319  0.64378476  0.81834159  1
  Bi2+  Bi94  1  0.76772028  0.88859396  0.30051216  1
  Bi2+  Bi95  1  0.69010209  0.86492439  0.79117963  1
  Bi2+  Bi96  1  0.14762715  0.02387321  0.20832953  1
  Bi2+  Bi97  1  0.12829935  -0.01891049  0.70410678  1
  Bi2+  Bi98  1  0.06547326  0.23169879  0.19745229  1
  Bi2+  Bi99  1  0.19402171  0.21083061  0.67783664  1
  Bi2+  Bi100  1  0.16564337  0.50379647  0.20075892  1
  Bi2+  Bi101  1  0.12057507  0.37892825  0.71970719  1
  Bi2+  Bi102  1  0.16600409  0.74705652  0.21388074  1
  Bi2+  Bi103  1  0.09013965  0.74056097  0.70662624  1
  Bi2+  Bi104  1  0.39898006  0.00235777  0.20210438  1
  Bi2+  Bi105  1  0.37379364  0.05056820  0.70681026  1
  Bi2+  Bi106  1  0.35740662  0.24729790  0.19059343  1
  Bi2+  Bi107  1  0.37944796  0.26038579  0.70514954  1
  Bi2+  Bi108  1  0.43133001  0.47141272  0.22288409  1
  Bi2+  Bi109  1  0.38902876  0.46495135  0.70944312  1
  Bi2+  Bi110  1  0.38848096  0.74662034  0.21000603  1
  Bi2+  Bi111  1  0.35378493  0.73951076  0.71334499  1
  Bi2+  Bi112  1  0.60553940  -0.02245140  0.26811001  1
  Bi2+  Bi113  1  0.63879334  -0.00808639  0.69944674  1
  Bi2+  Bi114  1  0.55893259  0.22618058  0.20686928  1
  Bi2+  Bi115  1  0.64217690  0.20095447  0.71610565  1
  Bi2+  Bi116  1  0.62744309  0.51330968  0.21939914  1
  Bi2+  Bi117  1  0.63497209  0.50672707  0.71589000  1
  Bi2+  Bi118  1  0.59944386  0.71615198  0.20743446  1
  Bi2+  Bi119  1  0.61598307  0.77571906  0.69673980  1
  Bi2+  Bi120  1  0.84659476  -0.00402318  0.19887537  1
  Bi2+  Bi121  1  0.82629085  -0.00578416  0.67238852  1
  Bi2+  Bi122  1  0.86655411  0.24507513  0.20884656  1
  Bi2+  Bi123  1  0.89267634  0.17626522  0.69368046  1
  Bi2+  Bi124  1  0.89321008  0.48339162  0.21070658  1
  Bi2+  Bi125  1  0.88243881  0.42606051  0.72290605  1
  Bi2+  Bi126  1  0.79332269  0.75529473  0.21455265  1
  Bi2+  Bi127  1  0.83496099  0.72944455  0.74722344  1
  S2-  S128  1  -0.00066357  0.03529283  0.14918473  1
  S2-  S129  1  0.04643259  0.11526064  0.65448838  1
  S2-  S130  1  0.02501263  0.48567623  0.14118843  1
  S2-  S131  1  -0.01585770  0.36723916  0.64924513  1
  S2-  S132  1  0.04312996  0.71318894  0.15806403  1
  S2-  S133  1  0.04535575  0.62762538  0.64316383  1
  S2-  S134  1  -0.05712770  0.86314609  0.20603900  1
  S2-  S135  1  0.01755781  0.86853222  0.65132949  1
  S2-  S136  1  0.27627393  0.10781449  0.14932885  1
  S2-  S137  1  0.26022504  -0.00260435  0.63398757  1
  S2-  S138  1  0.24304573  0.37994057  0.15398956  1
  S2-  S139  1  0.24291295  0.44179471  0.65303775  1
  S2-  S140  1  0.24216686  0.62793169  0.15144258  1
  S2-  S141  1  0.21524153  0.62599030  0.72200021  1
  S2-  S142  1  0.17248041  0.88509377  0.15099091  1
  S2-  S143  1  0.22929013  0.78046718  0.64634422  1
  S2-  S144  1  0.52345307  0.01911743  0.14069409  1
  S2-  S145  1  0.51325614  0.12092172  0.65495085  1
  S2-  S146  1  0.49174592  0.35781725  0.14748176  1
  S2-  S147  1  0.52577193  0.40503668  0.65809721  1
  S2-  S148  1  0.48445191  0.63326530  0.14896743  1
  S2-  S149  1  0.38862192  0.61582436  0.65402778  1
  S2-  S150  1  0.37692437  0.86960241  0.13696291  1
  S2-  S151  1  0.46155569  0.83935291  0.65556398  1
  S2-  S152  1  0.76454210  0.13876097  0.15348958  1
  S2-  S153  1  0.74569399  0.24834680  0.64349480  1
  S2-  S154  1  0.78334432  0.38246066  0.16050614  1
  S2-  S155  1  0.76649603  0.48984816  0.65091878  1
  S2-  S156  1  0.83841601  0.62414681  0.15595169  1
  S2-  S157  1  0.60331395  0.62309906  0.64786028  1
  S2-  S158  1  0.73565840  0.89692997  0.15387053  1
  S2-  S159  1  0.77317572  0.76004933  0.64768375  1
  S2-  S160  1  0.10607965  0.01055876  0.34322879  1
  S2-  S161  1  0.12304813  -0.10124327  0.85202142  1
  S2-  S162  1  0.14673527  0.34289301  0.34265709  1
  S2-  S163  1  0.12922559  0.14498518  0.85845134  1
  S2-  S164  1  0.12675257  0.57625842  0.29390123  1
  S2-  S165  1  0.11574115  0.40124140  0.85773645  1
  S2-  S166  1  0.16499921  0.80077827  0.31889817  1
  S2-  S167  1  0.08760090  0.63843357  0.85693772  1
  S2-  S168  1  0.32923872  0.13293189  0.35264381  1
  S2-  S169  1  0.37955214  -0.08151260  0.85079473  1
  S2-  S170  1  0.49438596  0.27363664  0.35872723  1
  S2-  S171  1  0.38144155  0.13986623  0.85811928  1
  S2-  S172  1  0.30602130  0.47674962  0.34835859  1
  S2-  S173  1  0.38824848  0.50790215  0.84131042  1
  S2-  S174  1  0.37071606  0.85674615  0.35802677  1
  S2-  S175  1  0.28209430  0.73482862  0.83485783  1
  S2-  S176  1  0.53562169  0.01543278  0.36052048  1
  S2-  S177  1  0.60794886  -0.00510246  0.84265208  1
  S2-  S178  1  0.73410143  0.24495780  0.35977552  1
  S2-  S179  1  0.64295155  0.25425310  0.84501784  1
  S2-  S180  1  0.73280134  0.50071977  0.36606594  1
  S2-  S181  1  0.65209038  0.48481357  0.84851028  1
  S2-  S182  1  0.72634905  0.76011228  0.36531847  1
  S2-  S183  1  0.52610106  0.74914252  0.85195908  1
  S2-  S184  1  0.87302779  0.00815335  0.34033159  1
  S2-  S185  1  0.87954684  -0.00255805  0.83900306  1
  S2-  S186  1  0.97287040  0.23557265  0.35419411  1
  S2-  S187  1  0.87775487  0.25567833  0.85060834  1
  S2-  S188  1  0.95411631  0.48924747  0.34526824  1
  S2-  S189  1  0.87952311  0.49137010  0.84377511  1
  S2-  S190  1  0.96770334  0.74549839  0.34991729  1
  S2-  S191  1  0.84845858  0.73496543  0.85685667  1
  S2-  S192  1  -0.00900438  0.12190055  0.45471955  1
  S2-  S193  1  0.00410324  0.14593522  0.95891330  1
  S2-  S194  1  -0.00584525  0.37728414  0.44879545  1
  S2-  S195  1  0.00015670  0.39201369  0.95753646  1
  S2-  S196  1  -0.00205313  0.61931671  0.44461781  1
  S2-  S197  1  0.00066461  0.64149268  0.96567730  1
  S2-  S198  1  -0.00994989  0.87863031  0.44918955  1
  S2-  S199  1  0.00128078  0.88715870  0.95071554  1
  S2-  S200  1  0.23723654  0.12592145  0.45506524  1
  S2-  S201  1  0.25243105  0.14763254  0.95301102  1
  S2-  S202  1  0.24108715  0.37357351  0.45331658  1
  S2-  S203  1  0.25730374  0.38674297  0.95097193  1
  S2-  S204  1  0.23931009  0.63101937  0.42926833  1
  S2-  S205  1  0.25798528  0.64278707  0.94980723  1
  S2-  S206  1  0.23826504  0.87654119  0.45198217  1
  S2-  S207  1  0.25757464  0.89250102  0.95490513  1
  S2-  S208  1  0.49196378  0.12911069  0.45662825  1
  S2-  S209  1  0.50688251  0.14250196  0.96042620  1
  S2-  S210  1  0.48742692  0.38139621  0.45753673  1
  S2-  S211  1  0.50420314  0.39066559  0.94815268  1
  S2-  S212  1  0.48959245  0.62929902  0.46221268  1
  S2-  S213  1  0.50543708  0.63729221  0.95049323  1
  S2-  S214  1  0.49701927  0.87204067  0.45677888  1
  S2-  S215  1  0.50882095  0.89037537  0.95899646  1
  S2-  S216  1  0.73702698  0.12323871  0.46233545  1
  S2-  S217  1  0.75779711  0.14139517  0.95153250  1
  S2-  S218  1  0.74011697  0.37514782  0.46434505  1
  S2-  S219  1  0.75788355  0.39145690  0.95810213  1
  S2-  S220  1  0.74070620  0.62697930  0.46671611  1
  S2-  S221  1  0.75315714  0.64178368  0.96371903  1
  S2-  S222  1  0.73780726  0.87941278  0.46354400  1
  S2-  S223  1  0.75600061  0.88957241  0.95209705  1
  S2-  S224  1  0.13424003  0.01391844  0.04221375  1
  S2-  S225  1  0.11420268  -0.00273388  0.54357031  1
  S2-  S226  1  0.13055184  0.26568654  0.04273566  1
  S2-  S227  1  0.11738584  0.24661341  0.53984380  1
  S2-  S228  1  0.13564920  0.51394328  0.03870400  1
  S2-  S229  1  0.12135418  0.50019012  0.54790809  1
  S2-  S230  1  0.13220595  0.76497821  0.04324451  1
  S2-  S231  1  0.11935047  0.75253000  0.53362255  1
  S2-  S232  1  0.37959865  0.01875389  0.03971386  1
  S2-  S233  1  0.37259377  -0.00264680  0.53432500  1
  S2-  S234  1  0.38200007  0.26297331  0.03974968  1
  S2-  S235  1  0.36817773  0.24616412  0.54535458  1
  S2-  S236  1  0.38229035  0.51517997  0.04601444  1
  S2-  S237  1  0.36361767  0.50156696  0.54722372  1
  S2-  S238  1  0.38199548  0.76192592  0.03611625  1
  S2-  S239  1  0.36722610  0.75310928  0.54115283  1
  S2-  S240  1  0.63716967  0.01740457  0.04469357  1
  S2-  S241  1  0.61741144  -0.00119279  0.55238979  1
  S2-  S242  1  0.63146835  0.26282515  0.05052311  1
  S2-  S243  1  0.61206702  0.24824527  0.54508104  1
  S2-  S244  1  0.62944405  0.51469160  0.05247409  1
  S2-  S245  1  0.61464881  0.49894203  0.54668188  1
  S2-  S246  1  0.63073875  0.76655926  0.04767590  1
  S2-  S247  1  0.61548205  0.75414823  0.54765219  1
  S2-  S248  1  0.87991533  0.01284224  0.04567498  1
  S2-  S249  1  0.86962611  -0.00177432  0.54715363  1
  S2-  S250  1  0.88511355  0.26553357  0.05261312  1
  S2-  S251  1  0.86904444  0.24884183  0.54174832  1
  S2-  S252  1  0.87863453  0.51182106  0.04729013  1
  S2-  S253  1  0.87226824  0.50192765  0.54252209  1
  S2-  S254  1  0.88283830  0.76765970  0.05674191  1
  S2-  S255  1  0.87273147  0.75086240  0.54036844  1
