# generated using pymatgen
data_La6Ce7Pr13Nd19Sm19(BiS2)64
_symmetry_space_group_name_H-M   'P 1'
_cell_length_a   16.11129522
_cell_length_b   16.10294587
_cell_length_c   27.32374649
_cell_angle_alpha   90.22433203
_cell_angle_beta   89.87114459
_cell_angle_gamma   90.00943492
_symmetry_Int_Tables_number   1
_chemical_formula_structural   La6Ce7Pr13Nd19Sm19(BiS2)64
_chemical_formula_sum   'La6 Ce7 Pr13 Nd19 Sm19 Bi64 S128'
_cell_volume   7088.78172152
_cell_formula_units_Z   1
loop_
 _symmetry_equiv_pos_site_id
 _symmetry_equiv_pos_as_xyz
  1  'x, y, z'
loop_
 _atom_type_symbol
 _atom_type_oxidation_number
  La3+  3.0
  Ce3+  3.0
  Pr3+  3.0
  Nd3+  3.0
  Sm3+  3.0
  Bi2+  2.0
  S2-  -2.0
loop_
 _atom_site_type_symbol
 _atom_site_label
 _atom_site_symmetry_multiplicity
 _atom_site_fract_x
 _atom_site_fract_y
 _atom_site_fract_z
 _atom_site_occupancy
  La3+  La0  1  0.85516818  0.24509038  0.90730954  1
  La3+  La1  1  0.47879104  0.62382257  0.08093920  1
  La3+  La2  1  -0.01472601  0.86599174  0.08597001  1
  La3+  La3  1  0.88460146  0.24154851  0.42843310  1
  La3+  La4  1  0.37782165  0.24196908  0.42470977  1
  La3+  La5  1  0.12849678  0.27025122  0.88448048  1
  Ce3+  Ce6  1  0.63079734  0.24380015  0.42038879  1
  Ce3+  Ce7  1  -0.01285131  0.36624369  0.05369777  1
  Ce3+  Ce8  1  0.36046682  0.49322983  0.93610587  1
  Ce3+  Ce9  1  0.13049165  -0.00181904  0.44760944  1
  Ce3+  Ce10  1  0.60912472  0.49469738  0.94731977  1
  Ce3+  Ce11  1  0.73877939  0.86987146  0.06189682  1
  Ce3+  Ce12  1  0.37933582  0.49497931  0.43575142  1
  Pr3+  Pr13  1  0.36278733  -0.00442808  0.93326055  1
  Pr3+  Pr14  1  0.47683707  0.12196509  0.06968795  1
  Pr3+  Pr15  1  0.38728852  0.74549069  0.42018419  1
  Pr3+  Pr16  1  0.26655070  0.37318540  0.57465130  1
  Pr3+  Pr17  1  0.63411529  0.74642383  0.43271398  1
  Pr3+  Pr18  1  -0.00849233  0.11034400  0.59138309  1
  Pr3+  Pr19  1  -0.01638423  0.62043748  0.06076723  1
  Pr3+  Pr20  1  0.88286243  0.74687764  0.43838697  1
  Pr3+  Pr21  1  0.73886574  0.37071234  0.06440287  1
  Pr3+  Pr22  1  0.12624218  0.74668023  0.42762643  1
  Pr3+  Pr23  1  0.63260860  0.49345944  0.44075883  1
  Pr3+  Pr24  1  0.25813833  0.62478319  0.55338806  1
  Pr3+  Pr25  1  0.25454368  0.12373453  0.56972444  1
  Nd3+  Nd26  1  0.50628704  0.87132144  0.55714027  1
  Nd3+  Nd27  1  0.50795610  0.36799958  0.55271133  1
  Nd3+  Nd28  1  0.23773850  0.36883520  0.06008711  1
  Nd3+  Nd29  1  0.86448099  0.74435141  0.93054813  1
  Nd3+  Nd30  1  0.48195162  0.87093291  0.06849559  1
  Nd3+  Nd31  1  0.50590594  0.62210051  0.55810000  1
  Nd3+  Nd32  1  -0.00136247  0.37734737  0.58007535  1
  Nd3+  Nd33  1  0.86311007  -0.00651918  0.94007483  1
  Nd3+  Nd34  1  0.48443821  0.36937554  0.05683549  1
  Nd3+  Nd35  1  0.36401870  0.23944061  0.92979204  1
  Nd3+  Nd36  1  0.61285061  -0.00479889  0.94713258  1
  Nd3+  Nd37  1  0.00701599  0.62329555  0.56312482  1
  Nd3+  Nd38  1  0.13194072  0.49299189  0.44967966  1
  Nd3+  Nd39  1  0.50562606  0.12254206  0.55790608  1
  Nd3+  Nd40  1  0.75701902  0.87190900  0.55525574  1
  Nd3+  Nd41  1  0.23852372  0.62407557  0.05699095  1
  Nd3+  Nd42  1  0.10719028  0.00352138  0.93249870  1
  Nd3+  Nd43  1  -0.01347640  0.12117371  0.05646469  1
  Nd3+  Nd44  1  0.36988205  0.74822166  0.92653484  1
  Sm3+  Sm45  1  0.75505665  0.62176447  0.55322317  1
  Sm3+  Sm46  1  0.38040163  -0.00279791  0.44717223  1
  Sm3+  Sm47  1  0.11094795  0.74652986  0.93947281  1
  Sm3+  Sm48  1  0.61580778  0.24414813  0.94686452  1
  Sm3+  Sm49  1  0.88400573  0.49212359  0.44494201  1
  Sm3+  Sm50  1  0.23459213  0.87030208  0.04966580  1
  Sm3+  Sm51  1  0.86417180  0.49631134  0.93219252  1
  Sm3+  Sm52  1  0.23391804  0.11901173  0.05599650  1
  Sm3+  Sm53  1  0.63224329  -0.00222396  0.44486635  1
  Sm3+  Sm54  1  0.88705602  -0.00111622  0.44005148  1
  Sm3+  Sm55  1  0.60825323  0.74349123  0.94679008  1
  Sm3+  Sm56  1  0.11284822  0.49505606  0.94448843  1
  Sm3+  Sm57  1  0.25731181  0.86935971  0.55352563  1
  Sm3+  Sm58  1  0.75808139  0.12346930  0.55466787  1
  Sm3+  Sm59  1  0.12925862  0.24723342  0.44541204  1
  Sm3+  Sm60  1  0.73821622  0.62044960  0.05447579  1
  Sm3+  Sm61  1  0.73714397  0.12079749  0.06201862  1
  Sm3+  Sm62  1  0.75831113  0.36794984  0.55652652  1
  Sm3+  Sm63  1  0.00718464  0.86827045  0.56114236  1
  Bi2+  Bi64  1  0.00297823  0.12865130  0.29574955  1
  Bi2+  Bi65  1  -0.00897472  0.08399687  0.79425094  1
  Bi2+  Bi66  1  0.00814355  0.38440999  0.29299811  1
  Bi2+  Bi67  1  -0.00416104  0.38701666  0.78295447  1
  Bi2+  Bi68  1  0.07104331  0.64460176  0.30398951  1
  Bi2+  Bi69  1  0.00140226  0.65626720  0.78885644  1
  Bi2+  Bi70  1  0.03684549  0.88584657  0.29018880  1
  Bi2+  Bi71  1  0.01265979  0.86391451  0.84265260  1
  Bi2+  Bi72  1  0.26148369  0.13611551  0.28973100  1
  Bi2+  Bi73  1  0.26946945  0.14304917  0.78332612  1
  Bi2+  Bi74  1  0.24081850  0.40322460  0.29268291  1
  Bi2+  Bi75  1  0.24902259  0.42176158  0.78197417  1
  Bi2+  Bi76  1  0.23973914  0.62108248  0.24115200  1
  Bi2+  Bi77  1  0.28819987  0.68808507  0.79257782  1
  Bi2+  Bi78  1  0.27378703  0.95003117  0.23287248  1
  Bi2+  Bi79  1  0.26762459  0.87481411  0.75966127  1
  Bi2+  Bi80  1  0.47366774  0.09503903  0.28873411  1
  Bi2+  Bi81  1  0.52247745  0.15392361  0.80164119  1
  Bi2+  Bi82  1  0.54996591  0.36400442  0.27852373  1
  Bi2+  Bi83  1  0.49175830  0.39402815  0.77813310  1
  Bi2+  Bi84  1  0.47270236  0.61326264  0.30221285  1
  Bi2+  Bi85  1  0.51316551  0.60960342  0.79347318  1
  Bi2+  Bi86  1  0.53906919  0.90040546  0.28395870  1
  Bi2+  Bi87  1  0.49968463  0.87833091  0.79961567  1
  Bi2+  Bi88  1  0.73747051  0.10276988  0.28854780  1
  Bi2+  Bi89  1  0.72247017  0.13380990  0.78737110  1
  Bi2+  Bi90  1  0.74555868  0.37760564  0.29178601  1
  Bi2+  Bi91  1  0.75335332  0.42164852  0.76817379  1
  Bi2+  Bi92  1  0.73125276  0.63664884  0.29814366  1
  Bi2+  Bi93  1  0.72655181  0.61601911  0.79599832  1
  Bi2+  Bi94  1  0.78399445  0.82043381  0.31110288  1
  Bi2+  Bi95  1  0.82564906  0.86774421  0.81557804  1
  Bi2+  Bi96  1  0.13265753  0.07263724  0.19783751  1
  Bi2+  Bi97  1  0.08046988  -0.09725727  0.73791465  1
  Bi2+  Bi98  1  0.13491831  0.25910700  0.23725238  1
  Bi2+  Bi99  1  0.14566789  0.24720268  0.68175151  1
  Bi2+  Bi100  1  0.08861037  0.50706661  0.20867933  1
  Bi2+  Bi101  1  0.15507227  0.61531447  0.72088246  1
  Bi2+  Bi102  1  0.13128468  0.77682704  0.20106229  1
  Bi2+  Bi103  1  0.04137809  0.74546369  0.67200236  1
  Bi2+  Bi104  1  0.45680508  -0.01150944  0.18783234  1
  Bi2+  Bi105  1  0.46585129  0.02181811  0.72110932  1
  Bi2+  Bi106  1  0.38483612  0.24092951  0.19855511  1
  Bi2+  Bi107  1  0.37352689  0.25443888  0.69376122  1
  Bi2+  Bi108  1  0.38990014  0.47777462  0.19487483  1
  Bi2+  Bi109  1  0.41792950  0.52486325  0.70287511  1
  Bi2+  Bi110  1  0.38128820  0.78665817  0.22359894  1
  Bi2+  Bi111  1  0.38569233  0.76559110  0.68628638  1
  Bi2+  Bi112  1  0.65004752  -0.06488542  0.18629168  1
  Bi2+  Bi113  1  0.65883683  -0.00382342  0.71301842  1
  Bi2+  Bi114  1  0.65002764  0.22945930  0.21708962  1
  Bi2+  Bi115  1  0.62537283  0.27831517  0.73109134  1
  Bi2+  Bi116  1  0.67565422  0.51253018  0.20899856  1
  Bi2+  Bi117  1  0.63176509  0.53230400  0.70253086  1
  Bi2+  Bi118  1  0.63364687  0.75541367  0.22500393  1
  Bi2+  Bi119  1  0.66760352  0.79861515  0.76289133  1
  Bi2+  Bi120  1  0.82571226  -0.04068859  0.23425965  1
  Bi2+  Bi121  1  0.85640328  -0.03208366  0.71062988  1
  Bi2+  Bi122  1  0.88719896  0.25535636  0.18948499  1
  Bi2+  Bi123  1  0.87256223  0.23980804  0.70187901  1
  Bi2+  Bi124  1  0.91297578  0.55054884  0.25424428  1
  Bi2+  Bi125  1  0.88327299  0.55320289  0.71212638  1
  Bi2+  Bi126  1  0.86403076  0.72938057  0.20943065  1
  Bi2+  Bi127  1  0.85258519  0.75592388  0.70923297  1
  S2-  S128  1  -0.02075267  0.13308210  0.15730826  1
  S2-  S129  1  0.02098747  0.13405817  0.69469530  1
  S2-  S130  1  -0.01677608  0.37538790  0.15161980  1
  S2-  S131  1  0.00781755  0.33963424  0.67946698  1
  S2-  S132  1  0.00116624  0.71430531  0.14459873  1
  S2-  S133  1  -0.00216241  0.52587424  0.64359167  1
  S2-  S134  1  0.05150172  0.91784996  0.17817658  1
  S2-  S135  1  -0.00832908  0.95199523  0.64572979  1
  S2-  S136  1  0.33358524  0.12972966  0.13640510  1
  S2-  S137  1  0.26493263  0.11168759  0.67213914  1
  S2-  S138  1  0.27635999  0.35896402  0.15761377  1
  S2-  S139  1  0.23283464  0.39232856  0.67514334  1
  S2-  S140  1  0.32258678  0.60655283  0.14370810  1
  S2-  S141  1  0.28881262  0.61764905  0.65233941  1
  S2-  S142  1  0.26760903  0.84661841  0.14520278  1
  S2-  S143  1  0.26212668  0.86045687  0.65109165  1
  S2-  S144  1  0.54848357  0.14054750  0.16243089  1
  S2-  S145  1  0.49370490  0.15750506  0.65432264  1
  S2-  S146  1  0.49268087  0.35446819  0.15558090  1
  S2-  S147  1  0.42590424  0.37955224  0.63933738  1
  S2-  S148  1  0.53288146  0.56428725  0.17490537  1
  S2-  S149  1  0.51996377  0.64774510  0.65578040  1
  S2-  S150  1  0.48317330  0.76608862  0.14804816  1
  S2-  S151  1  0.49112141  0.87944873  0.65562365  1
  S2-  S152  1  0.76520525  0.13973940  0.15871776  1
  S2-  S153  1  0.82909320  0.11251610  0.64302347  1
  S2-  S154  1  0.75048633  0.36465317  0.16500235  1
  S2-  S155  1  0.80410106  0.35714205  0.65017040  1
  S2-  S156  1  0.78174348  0.60984462  0.14828331  1
  S2-  S157  1  0.75604969  0.62462631  0.65051008  1
  S2-  S158  1  0.83637406  0.86442365  0.14356899  1
  S2-  S159  1  0.73671554  0.87125437  0.65290610  1
  S2-  S160  1  0.08971775  0.01055711  0.35207759  1
  S2-  S161  1  0.14297912  0.09435071  0.84546470  1
  S2-  S162  1  0.02161585  0.25247550  0.36642776  1
  S2-  S163  1  0.14207938  0.28446192  0.77656571  1
  S2-  S164  1  0.12939009  0.48988806  0.35000661  1
  S2-  S165  1  0.11183852  0.44667905  0.84943488  1
  S2-  S166  1  0.15361646  0.79757926  0.33136037  1
  S2-  S167  1  0.14056035  0.69680549  0.84617856  1
  S2-  S168  1  0.36280253  0.02682676  0.35197750  1
  S2-  S169  1  0.37275397  0.11142087  0.85477935  1
  S2-  S170  1  0.24141311  0.25602229  0.36155035  1
  S2-  S171  1  0.29710638  0.30456952  0.84518808  1
  S2-  S172  1  0.37701021  0.47225237  0.33822535  1
  S2-  S173  1  0.33432581  0.53701924  0.84224613  1
  S2-  S174  1  0.34107029  0.70050901  0.32250415  1
  S2-  S175  1  0.35484279  0.87995331  0.85513208  1
  S2-  S176  1  0.63098304  0.01157024  0.34710300  1
  S2-  S177  1  0.58661075  0.00526219  0.84932894  1
  S2-  S178  1  0.50629670  0.23898943  0.34986723  1
  S2-  S179  1  0.69358689  0.24838138  0.85931449  1
  S2-  S180  1  0.61785368  0.48285399  0.34028345  1
  S2-  S181  1  0.57839459  0.47919103  0.85104617  1
  S2-  S182  1  0.52749022  0.73997757  0.35391135  1
  S2-  S183  1  0.51515833  0.73550118  0.86379179  1
  S2-  S184  1  0.88053156  0.07397466  0.35187305  1
  S2-  S185  1  0.85354073  0.07830768  0.85250295  1
  S2-  S186  1  0.75755543  0.24887645  0.35181179  1
  S2-  S187  1  0.97692878  0.24114598  0.83334160  1
  S2-  S188  1  0.87943372  0.45510814  0.34977506  1
  S2-  S189  1  0.86039750  0.40359625  0.84796340  1
  S2-  S190  1  0.95191260  0.76816187  0.34775460  1
  S2-  S191  1  0.86600906  0.62291620  0.85749154  1
  S2-  S192  1  0.00788798  0.11930604  0.46675192  1
  S2-  S193  1  -0.01682852  0.12035452  0.95224124  1
  S2-  S194  1  0.00642298  0.37419270  0.46741013  1
  S2-  S195  1  -0.00874229  0.36946422  0.94928032  1
  S2-  S196  1  0.00527819  0.61877021  0.45527575  1
  S2-  S197  1  -0.00828428  0.61901421  0.95453062  1
  S2-  S198  1  0.00588963  0.87307810  0.45644661  1
  S2-  S199  1  -0.01281318  0.86976716  0.95904474  1
  S2-  S200  1  0.25385699  0.11990540  0.46192260  1
  S2-  S201  1  0.23447080  0.12257006  0.95488888  1
  S2-  S202  1  0.25523233  0.37107139  0.46314589  1
  S2-  S203  1  0.23417684  0.36987285  0.95438184  1
  S2-  S204  1  0.25566544  0.62430607  0.44563251  1
  S2-  S205  1  0.23700552  0.62209096  0.95253711  1
  S2-  S206  1  0.25921408  0.86999868  0.44747250  1
  S2-  S207  1  0.22964878  0.87259973  0.94731414  1
  S2-  S208  1  0.50673878  0.11717487  0.45339701  1
  S2-  S209  1  0.49249976  0.12120131  0.96158009  1
  S2-  S210  1  0.50541706  0.37035910  0.44929896  1
  S2-  S211  1  0.48718223  0.36450434  0.95032351  1
  S2-  S212  1  0.50713421  0.61871712  0.45242028  1
  S2-  S213  1  0.48441576  0.61809832  0.96160971  1
  S2-  S214  1  0.50698661  0.87587196  0.45108592  1
  S2-  S215  1  0.48910415  0.87216150  0.96172426  1
  S2-  S216  1  0.75537172  0.11799468  0.45356486  1
  S2-  S217  1  0.73704950  0.11904930  0.95817357  1
  S2-  S218  1  0.75687639  0.36999453  0.45355784  1
  S2-  S219  1  0.73831168  0.37305894  0.95775770  1
  S2-  S220  1  0.75943814  0.61906682  0.44824734  1
  S2-  S221  1  0.73220317  0.62092048  0.95107057  1
  S2-  S222  1  0.75892240  0.87566889  0.44951361  1
  S2-  S223  1  0.73514169  0.86590288  0.95275603  1
  S2-  S224  1  0.11151490  -0.00617373  0.04530148  1
  S2-  S225  1  0.13306922  -0.00667662  0.55380036  1
  S2-  S226  1  0.11554447  0.24327180  0.05844239  1
  S2-  S227  1  0.12737805  0.24902955  0.55791967  1
  S2-  S228  1  0.11391178  0.49713960  0.04997469  1
  S2-  S229  1  0.13648820  0.49593040  0.55382271  1
  S2-  S230  1  0.11254642  0.74670137  0.04365956  1
  S2-  S231  1  0.13202214  0.74841518  0.53825399  1
  S2-  S232  1  0.35771649  -0.00862845  0.04112936  1
  S2-  S233  1  0.38005560  -0.00408993  0.55165417  1
  S2-  S234  1  0.35980028  0.24729869  0.03705460  1
  S2-  S235  1  0.38082635  0.24369911  0.53946100  1
  S2-  S236  1  0.36172670  0.49336708  0.04268907  1
  S2-  S237  1  0.38375082  0.49900293  0.54165571  1
  S2-  S238  1  0.35970404  0.74946278  0.03644003  1
  S2-  S239  1  0.38376687  0.74876628  0.53607582  1
  S2-  S240  1  0.61087519  -0.00400575  0.05277737  1
  S2-  S241  1  0.63241572  -0.00178148  0.54978961  1
  S2-  S242  1  0.61336533  0.24539105  0.05065721  1
  S2-  S243  1  0.63361960  0.24485059  0.54631421  1
  S2-  S244  1  0.61156077  0.49706781  0.05320920  1
  S2-  S245  1  0.63275692  0.49461231  0.54835047  1
  S2-  S246  1  0.61441462  0.74464557  0.05004660  1
  S2-  S247  1  0.63208708  0.74653998  0.54137922  1
  S2-  S248  1  0.86166022  -0.00330476  0.04729700  1
  S2-  S249  1  0.87921670  -0.00612252  0.54222232  1
  S2-  S250  1  0.86032743  0.24377057  0.04849063  1
  S2-  S251  1  0.88268465  0.24577412  0.54489618  1
  S2-  S252  1  0.86242036  0.49582384  0.04098091  1
  S2-  S253  1  0.87457527  0.49774164  0.54702371  1
  S2-  S254  1  0.86068590  0.74311372  0.03763945  1
  S2-  S255  1  0.88022275  0.74602031  0.54632899  1
