# generated using pymatgen
data_La6Ce7Pr13Nd19Sm19(BiS2)64
_symmetry_space_group_name_H-M   'P 1'
_cell_length_a   16.00177807
_cell_length_b   16.03732514
_cell_length_c   27.50831682
_cell_angle_alpha   89.71567439
_cell_angle_beta   89.91339529
_cell_angle_gamma   90.03307907
_symmetry_Int_Tables_number   1
_chemical_formula_structural   La6Ce7Pr13Nd19Sm19(BiS2)64
_chemical_formula_sum   'La6 Ce7 Pr13 Nd19 Sm19 Bi64 S128'
_cell_volume   7059.24535298
_cell_formula_units_Z   1
loop_
 _symmetry_equiv_pos_site_id
 _symmetry_equiv_pos_as_xyz
  1  'x, y, z'
loop_
 _atom_type_symbol
 _atom_type_oxidation_number
  La3+  3.0
  Ce3+  3.0
  Pr3+  3.0
  Nd3+  3.0
  Sm3+  3.0
  Bi2+  2.0
  S2-  -2.0
loop_
 _atom_site_type_symbol
 _atom_site_label
 _atom_site_symmetry_multiplicity
 _atom_site_fract_x
 _atom_site_fract_y
 _atom_site_fract_z
 _atom_site_occupancy
  La3+  La0  1  0.02750196  0.64729388  0.57475251  1
  La3+  La1  1  0.85204985  0.24080140  0.87814712  1
  La3+  La2  1  0.52231552  0.60877300  0.11164248  1
  La3+  La3  1  0.28252428  0.90213209  0.58019780  1
  La3+  La4  1  0.73651663  0.39027078  0.61300707  1
  La3+  La5  1  0.89330808  0.77126500  0.39112783  1
  Ce3+  Ce6  1  0.38577136  0.24863161  0.93724035  1
  Ce3+  Ce7  1  0.76654350  0.12314675  0.06663491  1
  Ce3+  Ce8  1  0.64605953  0.02344952  0.42474489  1
  Ce3+  Ce9  1  0.63871687  0.24821683  0.94539716  1
  Ce3+  Ce10  1  0.27492616  0.14575157  0.55793121  1
  Ce3+  Ce11  1  0.77226958  0.64028980  0.55828739  1
  Ce3+  Ce12  1  0.39746862  0.01816539  0.44032052  1
  Pr3+  Pr13  1  0.14622930  0.50348552  0.93112013  1
  Pr3+  Pr14  1  0.52247439  0.86960642  0.06243706  1
  Pr3+  Pr15  1  0.26882920  0.62292202  0.06897201  1
  Pr3+  Pr16  1  0.13616555  0.24865957  0.93620076  1
  Pr3+  Pr17  1  0.14617453  -0.00056444  0.93495303  1
  Pr3+  Pr18  1  0.01423370  0.37365176  0.05481180  1
  Pr3+  Pr19  1  0.65092110  0.52664468  0.43266681  1
  Pr3+  Pr20  1  0.90442470  0.27215397  0.42397461  1
  Pr3+  Pr21  1  0.02196228  0.14747886  0.55766688  1
  Pr3+  Pr22  1  0.89972876  0.52532246  0.44176016  1
  Pr3+  Pr23  1  0.14648893  0.76742297  0.43390301  1
  Pr3+  Pr24  1  0.64287872  0.00420900  0.92959479  1
  Pr3+  Pr25  1  0.01801521  0.39455648  0.56600990  1
  Nd3+  Nd26  1  0.53444254  0.90495977  0.56740678  1
  Nd3+  Nd27  1  0.26930772  0.37456284  0.05966094  1
  Nd3+  Nd28  1  0.64503686  0.74472497  0.94102118  1
  Nd3+  Nd29  1  0.27859318  0.65052921  0.56953878  1
  Nd3+  Nd30  1  0.39457289  -0.00176629  0.93459292  1
  Nd3+  Nd31  1  0.26661094  0.12070258  0.06870686  1
  Nd3+  Nd32  1  0.15167886  0.27388870  0.43422192  1
  Nd3+  Nd33  1  0.77162332  0.89633959  0.55321362  1
  Nd3+  Nd34  1  0.77290175  0.15444352  0.54981449  1
  Nd3+  Nd35  1  0.89725723  0.00512804  0.94388931  1
  Nd3+  Nd36  1  0.51758473  0.12046018  0.06782832  1
  Nd3+  Nd37  1  0.39777155  0.77936151  0.43937433  1
  Nd3+  Nd38  1  0.39564014  0.74821117  0.94373366  1
  Nd3+  Nd39  1  0.64616882  0.77315360  0.43475118  1
  Nd3+  Nd40  1  0.01580368  0.13191619  0.07223221  1
  Nd3+  Nd41  1  0.51828046  0.37629295  0.05763803  1
  Nd3+  Nd42  1  0.01632593  0.87537637  0.06451440  1
  Nd3+  Nd43  1  0.89849909  0.02385114  0.42875395  1
  Nd3+  Nd44  1  0.26919480  0.39347919  0.56990307  1
  Sm3+  Sm45  1  0.14746357  0.01795714  0.44414584  1
  Sm3+  Sm46  1  0.14869862  0.52702281  0.44582216  1
  Sm3+  Sm47  1  0.76631924  0.87151071  0.05256318  1
  Sm3+  Sm48  1  0.02147858  0.89421163  0.55477092  1
  Sm3+  Sm49  1  0.52143106  0.64581090  0.56424192  1
  Sm3+  Sm50  1  0.39137340  0.27575341  0.43149323  1
  Sm3+  Sm51  1  0.89374288  0.74579678  0.93702065  1
  Sm3+  Sm52  1  0.14269054  0.74981943  0.94956843  1
  Sm3+  Sm53  1  0.89911958  0.50063188  0.91687535  1
  Sm3+  Sm54  1  0.39099836  0.50155519  0.93849856  1
  Sm3+  Sm55  1  0.64411059  0.49941815  0.94210724  1
  Sm3+  Sm56  1  0.39716655  0.52748493  0.44347983  1
  Sm3+  Sm57  1  0.77229378  0.62223535  0.06671590  1
  Sm3+  Sm58  1  0.64759360  0.27548432  0.42236517  1
  Sm3+  Sm59  1  0.77024172  0.37506371  0.04840241  1
  Sm3+  Sm60  1  0.27122705  0.87053495  0.05948804  1
  Sm3+  Sm61  1  0.52716889  0.15401853  0.54914581  1
  Sm3+  Sm62  1  0.52057140  0.39548794  0.54652729  1
  Sm3+  Sm63  1  0.01364756  0.62242658  0.05988925  1
  Bi2+  Bi64  1  0.01778994  0.14943188  0.29324159  1
  Bi2+  Bi65  1  -0.00123071  0.10128141  0.79542051  1
  Bi2+  Bi66  1  -0.06483946  0.39777003  0.30085863  1
  Bi2+  Bi67  1  -0.00326817  0.37321134  0.79051597  1
  Bi2+  Bi68  1  0.04947364  0.64509412  0.28872098  1
  Bi2+  Bi69  1  -0.00142907  0.64637968  0.79452302  1
  Bi2+  Bi70  1  0.00379083  0.89337327  0.27038848  1
  Bi2+  Bi71  1  -0.03704793  0.85935711  0.75479194  1
  Bi2+  Bi72  1  0.25031620  0.11935997  0.29476531  1
  Bi2+  Bi73  1  0.24989768  0.12854456  0.78508105  1
  Bi2+  Bi74  1  0.19125540  0.39073122  0.30132947  1
  Bi2+  Bi75  1  0.24507251  0.37497850  0.79455681  1
  Bi2+  Bi76  1  0.27863078  0.65324607  0.28810248  1
  Bi2+  Bi77  1  0.26516028  0.56451476  0.76055980  1
  Bi2+  Bi78  1  0.22976652  0.83219334  0.25246550  1
  Bi2+  Bi79  1  0.20284255  0.87090336  0.81455250  1
  Bi2+  Bi80  1  0.45025200  0.06823432  0.31431102  1
  Bi2+  Bi81  1  0.44170242  0.15866482  0.76009763  1
  Bi2+  Bi82  1  0.46979816  0.26752006  0.30148216  1
  Bi2+  Bi83  1  0.44631436  0.34207329  0.80675076  1
  Bi2+  Bi84  1  0.52866892  0.57378973  0.30940092  1
  Bi2+  Bi85  1  0.48188880  0.53861010  0.80621504  1
  Bi2+  Bi86  1  0.48094753  0.84169856  0.30379508  1
  Bi2+  Bi87  1  0.47287066  0.86141988  0.80612291  1
  Bi2+  Bi88  1  0.75490093  0.13321556  0.27280184  1
  Bi2+  Bi89  1  0.66191831  0.03185497  0.79438465  1
  Bi2+  Bi90  1  0.74644416  0.32742598  0.30136409  1
  Bi2+  Bi91  1  0.64257542  0.36150386  0.80405869  1
  Bi2+  Bi92  1  0.77417546  0.53077803  0.30400799  1
  Bi2+  Bi93  1  0.72320075  0.66287822  0.78861446  1
  Bi2+  Bi94  1  0.74303162  0.91810998  0.28518933  1
  Bi2+  Bi95  1  0.76026092  0.86667700  0.81254139  1
  Bi2+  Bi96  1  0.11571069  0.02694947  0.22366770  1
  Bi2+  Bi97  1  0.12874918  -0.01395897  0.69636494  1
  Bi2+  Bi98  1  0.14387750  0.26778292  0.20708849  1
  Bi2+  Bi99  1  0.14359168  0.25705456  0.71587378  1
  Bi2+  Bi100  1  0.08115157  0.48318707  0.22223544  1
  Bi2+  Bi101  1  0.09351196  0.51789558  0.70381443  1
  Bi2+  Bi102  1  0.16560029  0.65840479  0.19385375  1
  Bi2+  Bi103  1  0.13194697  0.74063087  0.73005830  1
  Bi2+  Bi104  1  0.35344080  0.00776641  0.21995658  1
  Bi2+  Bi105  1  0.34561663  -0.03643752  0.72112836  1
  Bi2+  Bi106  1  0.36181585  0.24778013  0.20312871  1
  Bi2+  Bi107  1  0.32623189  0.22897067  0.67627760  1
  Bi2+  Bi108  1  0.36447032  0.42214308  0.25485591  1
  Bi2+  Bi109  1  0.35276060  0.42055438  0.69457615  1
  Bi2+  Bi110  1  0.38650984  0.76379511  0.19113928  1
  Bi2+  Bi111  1  0.42060236  0.69396016  0.73771656  1
  Bi2+  Bi112  1  0.57308680  0.03187669  0.22506483  1
  Bi2+  Bi113  1  0.56833713  -0.06909988  0.71257982  1
  Bi2+  Bi114  1  0.56742113  0.22891703  0.20238039  1
  Bi2+  Bi115  1  0.59810381  0.23454494  0.70141981  1
  Bi2+  Bi116  1  0.63933565  0.41064359  0.21383104  1
  Bi2+  Bi117  1  0.52496347  0.52953265  0.69380166  1
  Bi2+  Bi118  1  0.64064310  0.76513264  0.20541358  1
  Bi2+  Bi119  1  0.61056807  0.71300028  0.69943482  1
  Bi2+  Bi120  1  0.86040451  0.00198379  0.20822562  1
  Bi2+  Bi121  1  0.81651030  -0.01413789  0.72548263  1
  Bi2+  Bi122  1  0.87633509  0.27433810  0.20658370  1
  Bi2+  Bi123  1  0.90728083  0.22898325  0.68041192  1
  Bi2+  Bi124  1  0.87563896  0.50013292  0.20775778  1
  Bi2+  Bi125  1  0.84890061  0.51536949  0.71491878  1
  Bi2+  Bi126  1  0.86812500  0.75867454  0.19933893  1
  Bi2+  Bi127  1  0.79878712  0.78658514  0.70601047  1
  S2-  S128  1  -0.11561660  0.12262164  0.14405827  1
  S2-  S129  1  0.05067807  0.13409299  0.65726384  1
  S2-  S130  1  0.01491953  0.29999971  0.14815278  1
  S2-  S131  1  -0.09240759  0.38702465  0.64839333  1
  S2-  S132  1  -0.09451225  0.62493930  0.13635936  1
  S2-  S133  1  -0.04495598  0.61258219  0.67103785  1
  S2-  S134  1  -0.00097074  0.85460033  0.16286211  1
  S2-  S135  1  0.01192642  0.90036489  0.65390628  1
  S2-  S136  1  0.14411255  0.12323319  0.14388142  1
  S2-  S137  1  0.27228573  0.05634533  0.64252025  1
  S2-  S138  1  0.26081883  0.37668819  0.15814869  1
  S2-  S139  1  0.14038111  0.38586052  0.64277014  1
  S2-  S140  1  0.35768578  0.61260361  0.15360750  1
  S2-  S141  1  0.16395607  0.64012201  0.64605563  1
  S2-  S142  1  0.26383640  0.89030376  0.15602262  1
  S2-  S143  1  0.23041948  0.84625643  0.67553135  1
  S2-  S144  1  0.39080687  0.10688351  0.14018246  1
  S2-  S145  1  0.52336594  0.12747351  0.64636858  1
  S2-  S146  1  0.51979824  0.44269830  0.14966773  1
  S2-  S147  1  0.56108714  0.37501666  0.64071101  1
  S2-  S148  1  0.52010424  0.65665722  0.21908323  1
  S2-  S149  1  0.40687351  0.64638612  0.64096304  1
  S2-  S150  1  0.52296651  0.87435729  0.16247685  1
  S2-  S151  1  0.43127628  0.89425290  0.64807268  1
  S2-  S152  1  0.64233760  0.10149445  0.13986156  1
  S2-  S153  1  0.74612192  0.21607166  0.64148179  1
  S2-  S154  1  0.77764753  0.38487399  0.14735006  1
  S2-  S155  1  0.72149204  0.38366978  0.72284892  1
  S2-  S156  1  0.68434309  0.63544674  0.15235062  1
  S2-  S157  1  0.74394812  0.56074346  0.64555371  1
  S2-  S158  1  0.75906442  0.87061985  0.15099394  1
  S2-  S159  1  0.67063267  0.92665564  0.63322210  1
  S2-  S160  1  0.12939154  0.03426755  0.34687919  1
  S2-  S161  1  0.06876860  -0.03880797  0.84483576  1
  S2-  S162  1  0.04321434  0.28543273  0.35471336  1
  S2-  S163  1  0.03077849  0.23714668  0.85342230  1
  S2-  S164  1  0.17151490  0.62019812  0.36291555  1
  S2-  S165  1  0.04156303  0.50346631  0.84836657  1
  S2-  S166  1  0.05309984  0.79082119  0.34640186  1
  S2-  S167  1  0.12281983  0.73070001  0.85367327  1
  S2-  S168  1  0.37334550  -0.09201144  0.36399442  1
  S2-  S169  1  0.27682985  0.00782877  0.85916686  1
  S2-  S170  1  0.27104415  0.27291883  0.35853684  1
  S2-  S171  1  0.26660969  0.24127715  0.86375214  1
  S2-  S172  1  0.39236615  0.48680716  0.34811331  1
  S2-  S173  1  0.28011659  0.51620944  0.86131670  1
  S2-  S174  1  0.42337007  0.70219319  0.34869554  1
  S2-  S175  1  0.34737751  0.77693400  0.84951817  1
  S2-  S176  1  0.62529714  -0.10934922  0.35778974  1
  S2-  S177  1  0.51489348  0.00725358  0.85853899  1
  S2-  S178  1  0.65068568  0.14665717  0.35235946  1
  S2-  S179  1  0.67829811  0.20688942  0.85320119  1
  S2-  S180  1  0.62291405  0.43208014  0.34640024  1
  S2-  S181  1  0.64955652  0.52643490  0.84452432  1
  S2-  S182  1  0.65004784  0.65141083  0.35797404  1
  S2-  S183  1  0.61592370  0.76923282  0.84366204  1
  S2-  S184  1  0.88908071  -0.06956500  0.34411446  1
  S2-  S185  1  0.87368717  0.06537582  0.85278914  1
  S2-  S186  1  0.88791884  0.14269682  0.35057113  1
  S2-  S187  1  0.87453456  0.22068922  0.77132184  1
  S2-  S188  1  0.90996982  0.60526374  0.35135811  1
  S2-  S189  1  0.85939490  0.40627035  0.83655647  1
  S2-  S190  1  0.80977600  0.76175610  0.28939024  1
  S2-  S191  1  0.87321085  0.64731630  0.85672261  1
  S2-  S192  1  0.02748013  0.14360958  0.45318622  1
  S2-  S193  1  0.02409112  0.11708196  0.96479511  1
  S2-  S194  1  0.02881080  0.40254349  0.45573171  1
  S2-  S195  1  0.01999071  0.38316394  0.95164463  1
  S2-  S196  1  0.02403803  0.65004296  0.46188657  1
  S2-  S197  1  0.01774311  0.62608497  0.95781650  1
  S2-  S198  1  0.01949800  0.89647237  0.45234886  1
  S2-  S199  1  0.01532544  0.86930521  0.95757357  1
  S2-  S200  1  0.27288637  0.14172870  0.45378987  1
  S2-  S201  1  0.26951476  0.12199213  0.96423477  1
  S2-  S202  1  0.27317753  0.40329057  0.45996356  1
  S2-  S203  1  0.26760306  0.37724267  0.95658698  1
  S2-  S204  1  0.27767443  0.64963903  0.46343123  1
  S2-  S205  1  0.26749476  0.62900085  0.96255591  1
  S2-  S206  1  0.26670294  0.89597965  0.46471018  1
  S2-  S207  1  0.26789974  0.86993341  0.95815785  1
  S2-  S208  1  0.51568438  0.15373820  0.44633145  1
  S2-  S209  1  0.51381584  0.12690695  0.96016444  1
  S2-  S210  1  0.51643324  0.39485625  0.44598504  1
  S2-  S211  1  0.51472074  0.37737490  0.95054036  1
  S2-  S212  1  0.51940290  0.64777815  0.46085760  1
  S2-  S213  1  0.51782439  0.62172944  0.94458124  1
  S2-  S214  1  0.52456365  0.89980750  0.46148147  1
  S2-  S215  1  0.52171520  0.87136360  0.95592021  1
  S2-  S216  1  0.77256222  0.15130900  0.44843643  1
  S2-  S217  1  0.76674957  0.12538809  0.95814159  1
  S2-  S218  1  0.77548707  0.39502995  0.43667970  1
  S2-  S219  1  0.76678506  0.37331861  0.94567128  1
  S2-  S220  1  0.78040226  0.65729908  0.45429938  1
  S2-  S221  1  0.76906447  0.62104050  0.95820948  1
  S2-  S222  1  0.77747693  0.89384416  0.44987960  1
  S2-  S223  1  0.77037007  0.87359531  0.94850129  1
  S2-  S224  1  0.14521846  -0.00900257  0.04674425  1
  S2-  S225  1  0.14507611  0.01850429  0.54686477  1
  S2-  S226  1  0.14585897  0.25182645  0.04305635  1
  S2-  S227  1  0.15029077  0.26943760  0.54095840  1
  S2-  S228  1  0.14080210  0.50119179  0.05009191  1
  S2-  S229  1  0.15239447  0.52105332  0.54622827  1
  S2-  S230  1  0.14030291  0.74825760  0.05404345  1
  S2-  S231  1  0.14977537  0.77712381  0.54754179  1
  S2-  S232  1  0.39429859  -0.00910568  0.04232045  1
  S2-  S233  1  0.40558436  0.02722791  0.54311089  1
  S2-  S234  1  0.39369291  0.25101738  0.04486650  1
  S2-  S235  1  0.39616775  0.27327505  0.53859494  1
  S2-  S236  1  0.39535874  0.50162648  0.04270129  1
  S2-  S237  1  0.39636552  0.51617918  0.54653359  1
  S2-  S238  1  0.39739981  0.74557659  0.04999758  1
  S2-  S239  1  0.40375616  0.77597346  0.54521791  1
  S2-  S240  1  0.64403640  -0.00569489  0.03685728  1
  S2-  S241  1  0.64998476  0.03160207  0.53133061  1
  S2-  S242  1  0.64236902  0.25298222  0.04912844  1
  S2-  S243  1  0.64881007  0.27808644  0.53044871  1
  S2-  S244  1  0.64380080  0.50178715  0.04582141  1
  S2-  S245  1  0.64196530  0.51921753  0.53979382  1
  S2-  S246  1  0.64535546  0.74374516  0.04572288  1
  S2-  S247  1  0.64653552  0.76606021  0.54472205  1
  S2-  S248  1  0.89085243  -0.00565350  0.04824369  1
  S2-  S249  1  0.89586451  0.02122313  0.54390337  1
  S2-  S250  1  0.88828716  0.25081378  0.04477481  1
  S2-  S251  1  0.90049999  0.27137009  0.53455473  1
  S2-  S252  1  0.89181950  0.49931613  0.03764552  1
  S2-  S253  1  0.90088579  0.52402615  0.54619574  1
  S2-  S254  1  0.89237706  0.75087166  0.04007510  1
  S2-  S255  1  0.89511079  0.77250101  0.56165666  1
