# generated using pymatgen
data_La6Ce7Pr13Nd19Sm19(BiS2)64
_symmetry_space_group_name_H-M   'P 1'
_cell_length_a   16.00051371
_cell_length_b   16.01816793
_cell_length_c   27.50399668
_cell_angle_alpha   89.69056894
_cell_angle_beta   89.86215278
_cell_angle_gamma   89.99891043
_symmetry_Int_Tables_number   1
_chemical_formula_structural   La6Ce7Pr13Nd19Sm19(BiS2)64
_chemical_formula_sum   'La6 Ce7 Pr13 Nd19 Sm19 Bi64 S128'
_cell_volume   7049.12132110
_cell_formula_units_Z   1
loop_
 _symmetry_equiv_pos_site_id
 _symmetry_equiv_pos_as_xyz
  1  'x, y, z'
loop_
 _atom_type_symbol
 _atom_type_oxidation_number
  La3+  3.0
  Ce3+  3.0
  Pr3+  3.0
  Nd3+  3.0
  Sm3+  3.0
  Bi2+  2.0
  S2-  -2.0
loop_
 _atom_site_type_symbol
 _atom_site_label
 _atom_site_symmetry_multiplicity
 _atom_site_fract_x
 _atom_site_fract_y
 _atom_site_fract_z
 _atom_site_occupancy
  La3+  La0  1  0.23645041  0.85696527  0.11636678  1
  La3+  La1  1  0.51271742  0.89492456  0.59465182  1
  La3+  La2  1  0.73291713  0.12679314  0.06974206  1
  La3+  La3  1  0.40709477  0.01013044  0.41874568  1
  La3+  La4  1  0.15503351  0.75298177  0.42297506  1
  La3+  La5  1  0.65766659  0.52362173  0.40722193  1
  Ce3+  Ce6  1  0.52563731  0.64212468  0.56184952  1
  Ce3+  Ce7  1  0.11164772  0.49385243  0.94074025  1
  Ce3+  Ce8  1  0.60881263  0.00748730  0.92816644  1
  Ce3+  Ce9  1  0.23765579  0.36837224  0.06820078  1
  Ce3+  Ce10  1  0.36232353  0.74640704  0.93892672  1
  Ce3+  Ce11  1  0.85977791  0.50071732  0.94584516  1
  Ce3+  Ce12  1  0.78100935  0.64199271  0.57318484  1
  Pr3+  Pr13  1  0.90431467  0.76158574  0.43666372  1
  Pr3+  Pr14  1  0.23847918  0.62184976  0.05835016  1
  Pr3+  Pr15  1  0.39610866  0.26372435  0.42487218  1
  Pr3+  Pr16  1  0.77443879  0.38833455  0.55434837  1
  Pr3+  Pr17  1  0.77682864  0.13053385  0.57480421  1
  Pr3+  Pr18  1  0.03362538  0.64161132  0.56898271  1
  Pr3+  Pr19  1  0.65301426  0.01296316  0.43977086  1
  Pr3+  Pr20  1  0.40379148  0.75135198  0.43109247  1
  Pr3+  Pr21  1  0.02757431  0.88554734  0.55191453  1
  Pr3+  Pr22  1  0.85807340  -0.00264238  0.94423798  1
  Pr3+  Pr23  1  0.36076713  -0.00471759  0.94034293  1
  Pr3+  Pr24  1  0.73573501  0.62129477  0.07015042  1
  Pr3+  Pr25  1  0.36151098  0.48875751  0.92933456  1
  Nd3+  Nd26  1  0.86012130  0.74906013  0.94632246  1
  Nd3+  Nd27  1  0.73218816  0.87876327  0.06761068  1
  Nd3+  Nd28  1  0.90139338  0.51444946  0.44202741  1
  Nd3+  Nd29  1  0.27552109  0.89094903  0.55731494  1
  Nd3+  Nd30  1  0.85865947  0.25119723  0.94155554  1
  Nd3+  Nd31  1  0.15180614  0.01563791  0.43395794  1
  Nd3+  Nd32  1  -0.01455661  0.37126265  0.05982502  1
  Nd3+  Nd33  1  0.64742270  0.26054282  0.43131951  1
  Nd3+  Nd34  1  0.02171208  0.13987023  0.55682324  1
  Nd3+  Nd35  1  0.28747360  0.63725226  0.58074621  1
  Nd3+  Nd36  1  0.02744043  0.38567777  0.55377410  1
  Nd3+  Nd37  1  0.36079109  0.25029068  0.94658233  1
  Nd3+  Nd38  1  0.28233363  0.38498635  0.57034882  1
  Nd3+  Nd39  1  0.23601499  0.11840457  0.07092037  1
  Nd3+  Nd40  1  0.28296878  0.13029456  0.56239612  1
  Nd3+  Nd41  1  0.11302722  -0.00549625  0.93838831  1
  Nd3+  Nd42  1  0.61187395  0.25632838  0.93511259  1
  Nd3+  Nd43  1  0.65960364  0.76301973  0.43781600  1
  Nd3+  Nd44  1  0.89413391  0.26373996  0.42717796  1
  Sm3+  Sm45  1  0.53027954  0.38708575  0.55142360  1
  Sm3+  Sm46  1  0.77129810  0.88371180  0.56616636  1
  Sm3+  Sm47  1  0.48502207  0.87351577  0.06268642  1
  Sm3+  Sm48  1  0.15292287  0.26343179  0.44145240  1
  Sm3+  Sm49  1  0.11328302  0.74519076  0.94223305  1
  Sm3+  Sm50  1  -0.00866326  0.87179478  0.06270436  1
  Sm3+  Sm51  1  0.72873861  0.37288078  0.07993263  1
  Sm3+  Sm52  1  0.48779488  0.12254168  0.05753834  1
  Sm3+  Sm53  1  0.61381465  0.49639848  0.94146003  1
  Sm3+  Sm54  1  -0.01118412  0.11922357  0.05314413  1
  Sm3+  Sm55  1  0.48627570  0.38221199  0.07024022  1
  Sm3+  Sm56  1  0.15580172  0.51272158  0.44763422  1
  Sm3+  Sm57  1  0.11129053  0.24687332  0.94219615  1
  Sm3+  Sm58  1  0.48513247  0.62199173  0.05129978  1
  Sm3+  Sm59  1  0.52978078  0.13689507  0.56080520  1
  Sm3+  Sm60  1  0.61069632  0.75249825  0.93451620  1
  Sm3+  Sm61  1  0.89721037  0.01620450  0.43837077  1
  Sm3+  Sm62  1  -0.01211654  0.62423187  0.06050493  1
  Sm3+  Sm63  1  0.40257706  0.51305883  0.44620524  1
  Bi2+  Bi64  1  -0.05862798  0.11716669  0.30752394  1
  Bi2+  Bi65  1  0.01085178  0.22024962  0.79174848  1
  Bi2+  Bi66  1  0.03487807  0.29302306  0.32114223  1
  Bi2+  Bi67  1  -0.03143102  0.44044766  0.77831831  1
  Bi2+  Bi68  1  0.03339550  0.51104319  0.29565877  1
  Bi2+  Bi69  1  0.04966164  0.61830635  0.75635473  1
  Bi2+  Bi70  1  -0.03716814  0.90605464  0.28329326  1
  Bi2+  Bi71  1  -0.00716525  0.83788798  0.80688533  1
  Bi2+  Bi72  1  0.23647022  0.17315667  0.28873556  1
  Bi2+  Bi73  1  0.27086515  0.16474571  0.78135664  1
  Bi2+  Bi74  1  0.29508482  0.41922094  0.29134444  1
  Bi2+  Bi75  1  0.24486289  0.36135700  0.78953601  1
  Bi2+  Bi76  1  0.27945828  0.61808649  0.29322607  1
  Bi2+  Bi77  1  0.23844418  0.60243460  0.78610629  1
  Bi2+  Bi78  1  0.20744255  0.89341127  0.31666009  1
  Bi2+  Bi79  1  0.25715660  0.90214771  0.81745843  1
  Bi2+  Bi80  1  0.49743132  0.14582583  0.28691107  1
  Bi2+  Bi81  1  0.44995007  0.14660339  0.73192705  1
  Bi2+  Bi82  1  0.48407063  0.36855171  0.27206715  1
  Bi2+  Bi83  1  0.50646180  0.28274983  0.80548819  1
  Bi2+  Bi84  1  0.52850101  0.59819771  0.28120653  1
  Bi2+  Bi85  1  0.49279903  0.61938888  0.77096176  1
  Bi2+  Bi86  1  0.51133244  0.78613873  0.24004361  1
  Bi2+  Bi87  1  0.50542061  0.86798030  0.79930351  1
  Bi2+  Bi88  1  0.71643894  0.13034232  0.30092491  1
  Bi2+  Bi89  1  0.71801376  0.15492200  0.78207685  1
  Bi2+  Bi90  1  0.86770518  0.39654869  0.29887988  1
  Bi2+  Bi91  1  0.74389317  0.35498079  0.80399277  1
  Bi2+  Bi92  1  0.76794527  0.66321184  0.28734559  1
  Bi2+  Bi93  1  0.77393619  0.62594460  0.79117008  1
  Bi2+  Bi94  1  0.75650052  0.89757352  0.28273003  1
  Bi2+  Bi95  1  0.78104587  0.89078023  0.78098553  1
  Bi2+  Bi96  1  0.09829911  0.01639488  0.20973064  1
  Bi2+  Bi97  1  0.07667443  -0.01354778  0.74457885  1
  Bi2+  Bi98  1  0.10078525  0.28692049  0.21205164  1
  Bi2+  Bi99  1  0.12374890  0.16585137  0.70167462  1
  Bi2+  Bi100  1  0.16108581  0.47561963  0.21017870  1
  Bi2+  Bi101  1  0.13091166  0.45360795  0.70919332  1
  Bi2+  Bi102  1  0.10247931  0.73822769  0.21729580  1
  Bi2+  Bi103  1  0.14393379  0.79187933  0.70788703  1
  Bi2+  Bi104  1  0.36391149  -0.02987501  0.22793565  1
  Bi2+  Bi105  1  0.33725039  -0.01435151  0.70533076  1
  Bi2+  Bi106  1  0.35886281  0.25101157  0.21141367  1
  Bi2+  Bi107  1  0.29791749  0.25001231  0.67587962  1
  Bi2+  Bi108  1  0.34889041  0.44162367  0.17535769  1
  Bi2+  Bi109  1  0.38619465  0.41712848  0.71555169  1
  Bi2+  Bi110  1  0.39612800  0.64201742  0.19785063  1
  Bi2+  Bi111  1  0.34177515  0.72181444  0.71556623  1
  Bi2+  Bi112  1  0.61255973  -0.03427151  0.20962155  1
  Bi2+  Bi113  1  0.65903726  0.02015498  0.70551571  1
  Bi2+  Bi114  1  0.62187746  0.19880388  0.19690170  1
  Bi2+  Bi115  1  0.62660349  0.29182171  0.70393145  1
  Bi2+  Bi116  1  0.67963715  0.41912557  0.22567081  1
  Bi2+  Bi117  1  0.64270899  0.51078578  0.73451335  1
  Bi2+  Bi118  1  0.66880366  0.70374104  0.18846606  1
  Bi2+  Bi119  1  0.64854230  0.72728047  0.72331339  1
  Bi2+  Bi120  1  0.87412121  0.03900487  0.20988262  1
  Bi2+  Bi121  1  0.88604033  0.04790813  0.75403490  1
  Bi2+  Bi122  1  0.88868487  0.25356540  0.21989874  1
  Bi2+  Bi123  1  0.89852574  0.27178141  0.70170677  1
  Bi2+  Bi124  1  0.90472170  0.52460934  0.20653564  1
  Bi2+  Bi125  1  0.83601742  0.51489100  0.70224068  1
  Bi2+  Bi126  1  0.84329849  0.78522729  0.20350176  1
  Bi2+  Bi127  1  0.89276006  0.78334477  0.70149104  1
  S2-  S128  1  0.01320405  0.11211992  0.15013744  1
  S2-  S129  1  -0.07960704  0.15088890  0.63799035  1
  S2-  S130  1  -0.03093611  0.37775556  0.15817846  1
  S2-  S131  1  0.02013584  0.36756451  0.65127706  1
  S2-  S132  1  -0.01777455  0.64758678  0.15757219  1
  S2-  S133  1  -0.08250869  0.63353645  0.64687868  1
  S2-  S134  1  0.06375819  0.87008829  0.15179373  1
  S2-  S135  1  0.01568292  0.87582841  0.65239771  1
  S2-  S136  1  0.24102967  0.02387789  0.15578569  1
  S2-  S137  1  0.23583295  0.01471190  0.63452085  1
  S2-  S138  1  0.22717774  0.24870505  0.14150036  1
  S2-  S139  1  0.27630326  0.49072112  0.64934167  1
  S2-  S140  1  0.22035240  0.68563678  0.15070341  1
  S2-  S141  1  0.15508292  0.67378219  0.64360662  1
  S2-  S142  1  0.23175217  0.83938854  0.22692827  1
  S2-  S143  1  0.35947780  0.84881838  0.64515927  1
  S2-  S144  1  0.50843788  0.09170251  0.15399494  1
  S2-  S145  1  0.46445565  0.05467981  0.64166772  1
  S2-  S146  1  0.58952995  0.34951859  0.14683348  1
  S2-  S147  1  0.50143615  0.36733503  0.64836416  1
  S2-  S148  1  0.48903127  0.53834571  0.13725069  1
  S2-  S149  1  0.43215375  0.64374247  0.64487193  1
  S2-  S150  1  0.40177257  0.86448397  0.15172548  1
  S2-  S151  1  0.56424078  0.86727016  0.69559169  1
  S2-  S152  1  0.74177045  0.00845719  0.14593755  1
  S2-  S153  1  0.64454282  0.16046480  0.64150920  1
  S2-  S154  1  0.76761276  0.24429660  0.14662886  1
  S2-  S155  1  0.77329227  0.36116493  0.65344728  1
  S2-  S156  1  0.75057066  0.50337952  0.14767407  1
  S2-  S157  1  0.75600071  0.76456097  0.64336834  1
  S2-  S158  1  0.60729922  0.85762742  0.13577566  1
  S2-  S159  1  0.77758225  0.98812477  0.64457514  1
  S2-  S160  1  0.14407823  0.05675831  0.33630880  1
  S2-  S161  1  0.13866258  0.02311716  0.84147883  1
  S2-  S162  1  0.24853197  0.30000728  0.36185549  1
  S2-  S163  1  0.10876597  0.31606421  0.85316405  1
  S2-  S164  1  0.14606923  0.58798066  0.35959197  1
  S2-  S165  1  0.10445579  0.55316506  0.85053833  1
  S2-  S166  1  0.05178431  0.79614191  0.33784012  1
  S2-  S167  1  0.13180405  0.78439516  0.84694654  1
  S2-  S168  1  0.37411328  -0.06130876  0.32098115  1
  S2-  S169  1  0.40094952  -0.00867922  0.84177075  1
  S2-  S170  1  0.36834530  0.13802962  0.35149805  1
  S2-  S171  1  0.37293936  0.34392440  0.86312343  1
  S2-  S172  1  0.41404908  0.59310315  0.35912496  1
  S2-  S173  1  0.37883916  0.55889300  0.83634000  1
  S2-  S174  1  0.28768606  0.75583649  0.35320559  1
  S2-  S175  1  0.36831286  0.78392712  0.84385361  1
  S2-  S176  1  0.57391064  0.04305115  0.34690732  1
  S2-  S177  1  0.63725615  -0.07378326  0.84308691  1
  S2-  S178  1  0.52821298  0.27203294  0.35381254  1
  S2-  S179  1  0.60014495  0.14692455  0.85675127  1
  S2-  S180  1  0.62761716  0.45112824  0.31441989  1
  S2-  S181  1  0.60790952  0.39193062  0.86315130  1
  S2-  S182  1  0.62904021  0.67174936  0.35107688  1
  S2-  S183  1  0.58389215  0.72307107  0.83908733  1
  S2-  S184  1  0.78352312  0.01221600  0.36446222  1
  S2-  S185  1  0.88930863  -0.02365854  0.84715017  1
  S2-  S186  1  0.76695580  0.25689114  0.35511595  1
  S2-  S187  1  0.84960408  0.22983399  0.84390148  1
  S2-  S188  1  0.81950622  0.53941518  0.35554756  1
  S2-  S189  1  0.84397157  0.47577284  0.85012122  1
  S2-  S190  1  0.79714803  0.77925798  0.35930205  1
  S2-  S191  1  0.87573869  0.72237936  0.84946088  1
  S2-  S192  1  0.02332799  0.14208590  0.45029909  1
  S2-  S193  1  -0.01358012  0.12359352  0.94879389  1
  S2-  S194  1  0.02790962  0.38862835  0.44841285  1
  S2-  S195  1  -0.01483146  0.37246825  0.95416600  1
  S2-  S196  1  0.02643870  0.63509883  0.45904279  1
  S2-  S197  1  -0.01271646  0.62430081  0.95672151  1
  S2-  S198  1  0.02339144  0.89324679  0.44662211  1
  S2-  S199  1  -0.01155635  0.87056680  0.95751851  1
  S2-  S200  1  0.27258662  0.13940563  0.45759510  1
  S2-  S201  1  0.23567199  0.12500337  0.95604486  1
  S2-  S202  1  0.27800577  0.39058400  0.46452535  1
  S2-  S203  1  0.23211623  0.37047441  0.96163214  1
  S2-  S204  1  0.27850057  0.63147586  0.46563797  1
  S2-  S205  1  0.23751567  0.62086228  0.95146777  1
  S2-  S206  1  0.27469733  0.89039638  0.44872552  1
  S2-  S207  1  0.23559571  0.87032521  0.95106403  1
  S2-  S208  1  0.52368012  0.13948649  0.45674882  1
  S2-  S209  1  0.48202410  0.12651433  0.95423421  1
  S2-  S210  1  0.53252694  0.39867821  0.44904247  1
  S2-  S211  1  0.48836185  0.37610002  0.96574292  1
  S2-  S212  1  0.53426428  0.63171644  0.45930659  1
  S2-  S213  1  0.48953350  0.61923745  0.94824614  1
  S2-  S214  1  0.52941406  0.87895588  0.43316057  1
  S2-  S215  1  0.48892814  0.87215486  0.95532916  1
  S2-  S216  1  0.77706554  0.13970558  0.46318378  1
  S2-  S217  1  0.73709407  0.12574434  0.95797085  1
  S2-  S218  1  0.77130972  0.39359858  0.44994901  1
  S2-  S219  1  0.73812905  0.37556809  0.96522382  1
  S2-  S220  1  0.77670762  0.63552841  0.46515147  1
  S2-  S221  1  0.73247254  0.62521336  0.95577077  1
  S2-  S222  1  0.78008829  0.88801032  0.46336548  1
  S2-  S223  1  0.73409505  0.87200466  0.95726656  1
  S2-  S224  1  0.11158130  -0.00361136  0.04429995  1
  S2-  S225  1  0.14430142  0.01684018  0.53596043  1
  S2-  S226  1  0.10863456  0.24454142  0.04468614  1
  S2-  S227  1  0.15357946  0.25967328  0.54622216  1
  S2-  S228  1  0.11006240  0.49749637  0.05038267  1
  S2-  S229  1  0.15273095  0.50994238  0.54946846  1
  S2-  S230  1  0.11154433  0.74787977  0.04601700  1
  S2-  S231  1  0.15504221  0.76551223  0.53596861  1
  S2-  S232  1  0.36404916  -0.00040133  0.04671706  1
  S2-  S233  1  0.40344723  0.00843723  0.53304440  1
  S2-  S234  1  0.36732343  0.24844775  0.05053338  1
  S2-  S235  1  0.40419774  0.26135459  0.54253617  1
  S2-  S236  1  0.35975240  0.49636259  0.03769748  1
  S2-  S237  1  0.40566550  0.50879970  0.54760499  1
  S2-  S238  1  0.36382642  0.74725741  0.04554913  1
  S2-  S239  1  0.40463151  0.76709038  0.53798172  1
  S2-  S240  1  0.60962499  0.00016487  0.03753335  1
  S2-  S241  1  0.64075974  0.00266546  0.54608848  1
  S2-  S242  1  0.60751247  0.25039381  0.04274069  1
  S2-  S243  1  0.65025491  0.26339528  0.53803979  1
  S2-  S244  1  0.61365215  0.49902951  0.04266418  1
  S2-  S245  1  0.64998133  0.51475793  0.56363062  1
  S2-  S246  1  0.61075751  0.74197466  0.03935285  1
  S2-  S247  1  0.63849488  0.77257517  0.54663185  1
  S2-  S248  1  0.86596078  -0.00461422  0.04865540  1
  S2-  S249  1  0.90227285  0.00999407  0.54022575  1
  S2-  S250  1  0.86618339  0.24579923  0.04533204  1
  S2-  S251  1  0.90076457  0.26618885  0.53399574  1
  S2-  S252  1  0.86396110  0.49930058  0.04898276  1
  S2-  S253  1  0.90447637  0.51129978  0.54647078  1
  S2-  S254  1  0.86113482  0.74976400  0.05227716  1
  S2-  S255  1  0.90194736  0.76337466  0.54270041  1
