# generated using pymatgen
data_La6Ce7Pr13Nd19Sm19(BiS2)64
_symmetry_space_group_name_H-M   'P 1'
_cell_length_a   16.07277092
_cell_length_b   16.09308684
_cell_length_c   27.26121808
_cell_angle_alpha   89.95301859
_cell_angle_beta   90.10177328
_cell_angle_gamma   89.93485600
_symmetry_Int_Tables_number   1
_chemical_formula_structural   La6Ce7Pr13Nd19Sm19(BiS2)64
_chemical_formula_sum   'La6 Ce7 Pr13 Nd19 Sm19 Bi64 S128'
_cell_volume   7051.38218309
_cell_formula_units_Z   1
loop_
 _symmetry_equiv_pos_site_id
 _symmetry_equiv_pos_as_xyz
  1  'x, y, z'
loop_
 _atom_type_symbol
 _atom_type_oxidation_number
  La3+  3.0
  Ce3+  3.0
  Pr3+  3.0
  Nd3+  3.0
  Sm3+  3.0
  Bi2+  2.0
  S2-  -2.0
loop_
 _atom_site_type_symbol
 _atom_site_label
 _atom_site_symmetry_multiplicity
 _atom_site_fract_x
 _atom_site_fract_y
 _atom_site_fract_z
 _atom_site_occupancy
  La3+  La0  1  0.75432897  0.11418888  0.60790661  1
  La3+  La1  1  0.10966623  0.73279597  0.92004692  1
  La3+  La2  1  -0.00891387  0.85191642  0.06836421  1
  La3+  La3  1  0.75513035  0.38986086  0.60733895  1
  La3+  La4  1  0.12232858  -0.00125608  0.39652507  1
  La3+  La5  1  0.49695627  0.86833491  0.08847982  1
  Ce3+  Ce6  1  0.25270311  0.37539763  0.55601107  1
  Ce3+  Ce7  1  0.73837877  0.86072051  0.05786132  1
  Ce3+  Ce8  1  0.75323987  0.62445091  0.55504474  1
  Ce3+  Ce9  1  0.88191612  0.75255997  0.43876360  1
  Ce3+  Ce10  1  0.12833725  0.24655137  0.43432312  1
  Ce3+  Ce11  1  0.36224213  0.23740941  0.93895123  1
  Ce3+  Ce12  1  0.88348644  0.00178153  0.44329216  1
  Pr3+  Pr13  1  0.36496468  -0.02056313  0.92913027  1
  Pr3+  Pr14  1  -0.01211324  0.10467162  0.06794707  1
  Pr3+  Pr15  1  0.73963162  0.11170530  0.04781363  1
  Pr3+  Pr16  1  0.75468405  0.87660028  0.55981467  1
  Pr3+  Pr17  1  0.48752179  0.61035620  0.06566529  1
  Pr3+  Pr18  1  0.50173364  0.87714601  0.56082178  1
  Pr3+  Pr19  1  0.85702009  -0.01739281  0.93095743  1
  Pr3+  Pr20  1  0.39144490  0.00294500  0.40160797  1
  Pr3+  Pr21  1  0.00769233  0.87534270  0.56054619  1
  Pr3+  Pr22  1  0.62613868  0.75002850  0.43667917  1
  Pr3+  Pr23  1  0.36616992  0.73591713  0.93716436  1
  Pr3+  Pr24  1  0.73704743  0.60849834  0.06242122  1
  Pr3+  Pr25  1  0.48656523  0.35857563  0.06127142  1
  Nd3+  Nd26  1  -0.00864586  0.35937172  0.05739049  1
  Nd3+  Nd27  1  0.11068371  -0.01718004  0.94132069  1
  Nd3+  Nd28  1  0.13048778  0.50136454  0.43351917  1
  Nd3+  Nd29  1  0.23874017  0.61185736  0.06299309  1
  Nd3+  Nd30  1  0.50533197  0.12622173  0.56496409  1
  Nd3+  Nd31  1  0.86291007  0.73295928  0.93775689  1
  Nd3+  Nd32  1  0.87832114  0.23302836  0.92183956  1
  Nd3+  Nd33  1  0.61037325  0.73473722  0.94224685  1
  Nd3+  Nd34  1  0.36322797  0.49062115  0.93251515  1
  Nd3+  Nd35  1  0.37839266  0.24563810  0.44083158  1
  Nd3+  Nd36  1  0.74048827  0.35490951  0.05698371  1
  Nd3+  Nd37  1  0.50641102  0.62322793  0.56203567  1
  Nd3+  Nd38  1  0.60400569  0.23755361  0.92733255  1
  Nd3+  Nd39  1  0.00771318  0.12715693  0.56665269  1
  Nd3+  Nd40  1  0.00543603  0.62549372  0.55500441  1
  Nd3+  Nd41  1  0.60998996  -0.01393591  0.93226740  1
  Nd3+  Nd42  1  0.61607347  0.48291247  0.94278630  1
  Nd3+  Nd43  1  0.37967756  0.74855229  0.43476191  1
  Nd3+  Nd44  1  0.24271709  0.85535905  0.06653914  1
  Sm3+  Sm45  1  0.23852969  0.35965208  0.05586550  1
  Sm3+  Sm46  1  0.24923981  0.12438137  0.55443836  1
  Sm3+  Sm47  1  -0.00093995  0.37517122  0.55666724  1
  Sm3+  Sm48  1  0.62804869  0.00162073  0.44273574  1
  Sm3+  Sm49  1  0.11543522  0.23346416  0.94544543  1
  Sm3+  Sm50  1  0.50860616  0.37217283  0.56107284  1
  Sm3+  Sm51  1  -0.00960777  0.61024545  0.06172200  1
  Sm3+  Sm52  1  0.38238616  0.49743479  0.44830262  1
  Sm3+  Sm53  1  0.11375210  0.48861666  0.93854710  1
  Sm3+  Sm54  1  0.87701232  0.24789954  0.44898066  1
  Sm3+  Sm55  1  0.25508875  0.87829525  0.54534554  1
  Sm3+  Sm56  1  0.86299820  0.48384327  0.94401885  1
  Sm3+  Sm57  1  0.63101845  0.49580007  0.44032422  1
  Sm3+  Sm58  1  0.87707647  0.49755144  0.44082084  1
  Sm3+  Sm59  1  0.63320476  0.24833399  0.45216356  1
  Sm3+  Sm60  1  0.13131328  0.74721563  0.43182499  1
  Sm3+  Sm61  1  0.25511947  0.62598853  0.55974283  1
  Sm3+  Sm62  1  0.24272055  0.10440169  0.05680809  1
  Sm3+  Sm63  1  0.48819828  0.10978300  0.05931467  1
  Bi2+  Bi64  1  -0.01408202  0.14813980  0.29011724  1
  Bi2+  Bi65  1  0.07741770  0.11783499  0.78345076  1
  Bi2+  Bi66  1  0.00774033  0.43295132  0.29804503  1
  Bi2+  Bi67  1  0.07742530  0.37722667  0.80262910  1
  Bi2+  Bi68  1  -0.00493732  0.63448442  0.29426588  1
  Bi2+  Bi69  1  -0.01716960  0.63829746  0.78877341  1
  Bi2+  Bi70  1  -0.00044680  0.88019807  0.28872057  1
  Bi2+  Bi71  1  0.03677154  0.89534593  0.80548562  1
  Bi2+  Bi72  1  0.26921478  0.21622961  0.28429365  1
  Bi2+  Bi73  1  0.26581227  0.19825069  0.79228059  1
  Bi2+  Bi74  1  0.18918028  0.38199713  0.32831983  1
  Bi2+  Bi75  1  0.27727336  0.39712734  0.82391583  1
  Bi2+  Bi76  1  0.24830373  0.59946970  0.28209744  1
  Bi2+  Bi77  1  0.24275836  0.58669932  0.78539910  1
  Bi2+  Bi78  1  0.24378290  0.85986744  0.26711449  1
  Bi2+  Bi79  1  0.27924835  0.88454100  0.77179869  1
  Bi2+  Bi80  1  0.52958277  0.19160684  0.29071402  1
  Bi2+  Bi81  1  0.51651636  0.12716564  0.78883713  1
  Bi2+  Bi82  1  0.40075686  0.38042649  0.31352211  1
  Bi2+  Bi83  1  0.47353090  0.38338878  0.79231192  1
  Bi2+  Bi84  1  0.50230915  0.63932410  0.30822834  1
  Bi2+  Bi85  1  0.48880993  0.60342404  0.79072958  1
  Bi2+  Bi86  1  0.49927891  0.87394806  0.29008941  1
  Bi2+  Bi87  1  0.50480530  0.86413211  0.79508177  1
  Bi2+  Bi88  1  0.76869122  0.16697428  0.29054080  1
  Bi2+  Bi89  1  0.78191740  0.10211089  0.80513204  1
  Bi2+  Bi90  1  0.73935243  0.37390705  0.29028931  1
  Bi2+  Bi91  1  0.72747776  0.37520507  0.81043995  1
  Bi2+  Bi92  1  0.80731213  0.59243423  0.25938650  1
  Bi2+  Bi93  1  0.76747120  0.63186475  0.79050089  1
  Bi2+  Bi94  1  0.74357316  0.89576406  0.24080599  1
  Bi2+  Bi95  1  0.77343789  0.82699828  0.80111274  1
  Bi2+  Bi96  1  0.12793764  0.03701431  0.18579502  1
  Bi2+  Bi97  1  0.16717390  0.00093172  0.69831571  1
  Bi2+  Bi98  1  0.12188096  0.31596273  0.22769775  1
  Bi2+  Bi99  1  0.13326600  0.26308152  0.71192334  1
  Bi2+  Bi100  1  0.15670750  0.52776929  0.18549978  1
  Bi2+  Bi101  1  0.12976286  0.49823363  0.70757737  1
  Bi2+  Bi102  1  0.12419818  0.72101544  0.21533653  1
  Bi2+  Bi103  1  0.12417660  0.75866053  0.69104424  1
  Bi2+  Bi104  1  0.37117228  0.04823640  0.20361054  1
  Bi2+  Bi105  1  0.35558790  0.05666863  0.72734602  1
  Bi2+  Bi106  1  0.41700771  0.24257382  0.20285123  1
  Bi2+  Bi107  1  0.40421321  0.24681913  0.70583141  1
  Bi2+  Bi108  1  0.35182498  0.47361338  0.21095712  1
  Bi2+  Bi109  1  0.34845254  0.45885082  0.71826571  1
  Bi2+  Bi110  1  0.38569215  0.66377476  0.19462911  1
  Bi2+  Bi111  1  0.36977730  0.75296081  0.69749603  1
  Bi2+  Bi112  1  0.63415854  0.06275385  0.22937154  1
  Bi2+  Bi113  1  0.60960916  -0.05251055  0.71153459  1
  Bi2+  Bi114  1  0.64017927  0.25394838  0.18246598  1
  Bi2+  Bi115  1  0.60669245  0.25681214  0.69963272  1
  Bi2+  Bi116  1  0.56402485  0.44091376  0.26041818  1
  Bi2+  Bi117  1  0.61380239  0.56302780  0.70468670  1
  Bi2+  Bi118  1  0.62214734  0.72838973  0.20175611  1
  Bi2+  Bi119  1  0.66347224  0.75525579  0.70987788  1
  Bi2+  Bi120  1  0.87341001  0.02821551  0.20158549  1
  Bi2+  Bi121  1  0.88854839  -0.08112752  0.72439584  1
  Bi2+  Bi122  1  0.84294203  0.29154328  0.20945091  1
  Bi2+  Bi123  1  0.88902131  0.24992891  0.71550458  1
  Bi2+  Bi124  1  0.95411522  0.51424848  0.19386207  1
  Bi2+  Bi125  1  0.94574051  0.47353662  0.73640928  1
  Bi2+  Bi126  1  0.86874552  0.75902297  0.20773341  1
  Bi2+  Bi127  1  0.86245259  0.72689382  0.70352603  1
  S2-  S128  1  -0.00965325  0.14089739  0.16736398  1
  S2-  S129  1  -0.08360788  0.13305876  0.65182721  1
  S2-  S130  1  -0.01179772  0.35326596  0.15621487  1
  S2-  S131  1  -0.07092259  0.38298123  0.64718688  1
  S2-  S132  1  -0.00577871  0.71728460  0.13988314  1
  S2-  S133  1  0.00816377  0.66607916  0.65147452  1
  S2-  S134  1  -0.00610187  0.93891636  0.15693141  1
  S2-  S135  1  0.02577661  0.90041103  0.66034588  1
  S2-  S136  1  0.24912458  0.14488917  0.15247065  1
  S2-  S137  1  0.14977579  0.13332443  0.63629297  1
  S2-  S138  1  0.23827387  0.37474719  0.15316120  1
  S2-  S139  1  0.22233394  0.38294526  0.65221184  1
  S2-  S140  1  0.24160632  0.72465307  0.13932104  1
  S2-  S141  1  0.23401387  0.64942872  0.65656395  1
  S2-  S142  1  0.26052643  0.93338639  0.15847721  1
  S2-  S143  1  0.24682516  0.86158511  0.64444517  1
  S2-  S144  1  0.49561735  0.02242923  0.14427481  1
  S2-  S145  1  0.58067010  0.10300536  0.65313065  1
  S2-  S146  1  0.51137082  0.37340302  0.16054498  1
  S2-  S147  1  0.57686363  0.40346083  0.64879088  1
  S2-  S148  1  0.54467963  0.60242249  0.16133708  1
  S2-  S149  1  0.46600167  0.63874285  0.65859233  1
  S2-  S150  1  0.46660953  0.81136464  0.18656365  1
  S2-  S151  1  0.48170873  0.87360258  0.66119677  1
  S2-  S152  1  0.74098736  0.11482881  0.14786227  1
  S2-  S153  1  0.74853490  0.15478477  0.71182789  1
  S2-  S154  1  0.73849862  0.39059089  0.15417381  1
  S2-  S155  1  0.74612525  0.35955339  0.71407248  1
  S2-  S156  1  0.76002904  0.64077054  0.16006963  1
  S2-  S157  1  0.75363464  0.55569197  0.64479387  1
  S2-  S158  1  0.66109889  0.86858216  0.14421890  1
  S2-  S159  1  0.75928306  0.95086005  0.65109869  1
  S2-  S160  1  0.13740102  -0.01031952  0.27890129  1
  S2-  S161  1  0.15701704  0.00362080  0.84557149  1
  S2-  S162  1  0.12395999  0.15810286  0.35021963  1
  S2-  S163  1  0.03426652  0.23009124  0.86037145  1
  S2-  S164  1  0.13800778  0.62066257  0.36021012  1
  S2-  S165  1  0.10949347  0.58466528  0.85648783  1
  S2-  S166  1  0.13390843  0.84012203  0.34843987  1
  S2-  S167  1  0.16090322  0.79214786  0.82341374  1
  S2-  S168  1  0.35097828  -0.03142338  0.30151557  1
  S2-  S169  1  0.49378390  0.00880749  0.85539614  1
  S2-  S170  1  0.38573285  0.16071390  0.35420222  1
  S2-  S171  1  0.46140335  0.24495106  0.85963054  1
  S2-  S172  1  0.37483273  0.54690428  0.35491018  1
  S2-  S173  1  0.36640804  0.61522411  0.85846124  1
  S2-  S174  1  0.38373243  0.77051411  0.33587079  1
  S2-  S175  1  0.36472431  0.84801823  0.85706641  1
  S2-  S176  1  0.55124165  -0.01098871  0.35492183  1
  S2-  S177  1  0.72283928  -0.03149929  0.85472459  1
  S2-  S178  1  0.64221303  0.26381243  0.35335439  1
  S2-  S179  1  0.65670802  0.21677861  0.83171799  1
  S2-  S180  1  0.61076783  0.53040799  0.34430335  1
  S2-  S181  1  0.59319061  0.48344769  0.84416531  1
  S2-  S182  1  0.61271945  0.76111101  0.33572082  1
  S2-  S183  1  0.56596462  0.73449663  0.84469000  1
  S2-  S184  1  0.95549166  0.00224230  0.35236382  1
  S2-  S185  1  0.92756306  0.02840282  0.84273726  1
  S2-  S186  1  0.90240735  0.23996134  0.34891947  1
  S2-  S187  1  0.84725814  0.26423829  0.82367302  1
  S2-  S188  1  0.84775787  0.48716107  0.34375539  1
  S2-  S189  1  0.83928339  0.49766485  0.84749180  1
  S2-  S190  1  0.90287965  0.76493657  0.34186492  1
  S2-  S191  1  0.95987517  0.75969262  0.85674381  1
  S2-  S192  1  0.00376321  0.12621080  0.45923580  1
  S2-  S193  1  -0.00946232  0.10914189  0.96030100  1
  S2-  S194  1  0.00212942  0.37553642  0.45123881  1
  S2-  S195  1  -0.00921436  0.36482088  0.95211441  1
  S2-  S196  1  0.00013443  0.62297440  0.45038504  1
  S2-  S197  1  -0.01583225  0.60642866  0.95763645  1
  S2-  S198  1  0.00925413  0.87361502  0.45343968  1
  S2-  S199  1  -0.01456118  0.86265032  0.95868534  1
  S2-  S200  1  0.25524726  0.11813575  0.45119364  1
  S2-  S201  1  0.23938182  0.10988773  0.95130067  1
  S2-  S202  1  0.25649400  0.37500823  0.45182164  1
  S2-  S203  1  0.23542182  0.36278828  0.95168567  1
  S2-  S204  1  0.25943414  0.62253820  0.45721941  1
  S2-  S205  1  0.23827467  0.60951613  0.95780381  1
  S2-  S206  1  0.26156914  0.88028270  0.44206645  1
  S2-  S207  1  0.23523903  0.85912557  0.95707000  1
  S2-  S208  1  0.50673564  0.12498939  0.45876465  1
  S2-  S209  1  0.48491784  0.11218009  0.95750619  1
  S2-  S210  1  0.50569545  0.37190398  0.45520762  1
  S2-  S211  1  0.48488956  0.36681082  0.95549642  1
  S2-  S212  1  0.50574442  0.62182975  0.45593677  1
  S2-  S213  1  0.49175956  0.60570282  0.95847769  1
  S2-  S214  1  0.50062569  0.87717728  0.45426204  1
  S2-  S215  1  0.49315427  0.86030884  0.95895725  1
  S2-  S216  1  0.75303420  0.12320872  0.44712347  1
  S2-  S217  1  0.73982328  0.11994987  0.94318880  1
  S2-  S218  1  0.75461928  0.37387350  0.45079476  1
  S2-  S219  1  0.74257571  0.35487461  0.94931246  1
  S2-  S220  1  0.75339054  0.62444769  0.44725590  1
  S2-  S221  1  0.73873351  0.60941496  0.95388997  1
  S2-  S222  1  0.75219483  0.87702118  0.45040151  1
  S2-  S223  1  0.73686071  0.85463380  0.95404660  1
  S2-  S224  1  0.11737182  -0.01629742  0.04849508  1
  S2-  S225  1  0.13179840  -0.00281497  0.54229451  1
  S2-  S226  1  0.11685998  0.23304241  0.04984009  1
  S2-  S227  1  0.12687600  0.25621371  0.54034992  1
  S2-  S228  1  0.11443419  0.48602820  0.04442962  1
  S2-  S229  1  0.12791494  0.50109463  0.54328852  1
  S2-  S230  1  0.11403206  0.73046952  0.03613482  1
  S2-  S231  1  0.13309470  0.74914340  0.53760583  1
  S2-  S232  1  0.36619836  -0.01553766  0.04202168  1
  S2-  S233  1  0.37526973  0.00398293  0.55657651  1
  S2-  S234  1  0.36153359  0.23392636  0.04613066  1
  S2-  S235  1  0.37890878  0.24956983  0.54874427  1
  S2-  S236  1  0.36128660  0.48477796  0.04609400  1
  S2-  S237  1  0.38180805  0.49822379  0.55420894  1
  S2-  S238  1  0.37289322  0.73945399  0.04564766  1
  S2-  S239  1  0.37823233  0.74862366  0.54304743  1
  S2-  S240  1  0.61430990  -0.01133759  0.03875873  1
  S2-  S241  1  0.62978737  0.00086113  0.54602167  1
  S2-  S242  1  0.61047576  0.23490402  0.03917486  1
  S2-  S243  1  0.63539444  0.24994839  0.55618030  1
  S2-  S244  1  0.61488042  0.48139678  0.04865757  1
  S2-  S245  1  0.63034518  0.49747222  0.54327241  1
  S2-  S246  1  0.61264651  0.73453186  0.04817788  1
  S2-  S247  1  0.62762614  0.75097126  0.54690698  1
  S2-  S248  1  0.86286649  -0.01671530  0.04357099  1
  S2-  S249  1  0.87969636  0.00189676  0.54740750  1
  S2-  S250  1  0.86871475  0.23547620  0.04119437  1
  S2-  S251  1  0.87253082  0.25476551  0.55079377  1
  S2-  S252  1  0.86508535  0.48430583  0.04897759  1
  S2-  S253  1  0.87904526  0.50146379  0.54463542  1
  S2-  S254  1  0.86097447  0.73127010  0.04328068  1
  S2-  S255  1  0.87924771  0.75066465  0.54627332  1
