# generated using pymatgen
data_La6Ce7Pr13Nd19Sm19(BiS2)64
_symmetry_space_group_name_H-M   'P 1'
_cell_length_a   16.05214868
_cell_length_b   16.04197027
_cell_length_c   27.38090439
_cell_angle_alpha   89.64709824
_cell_angle_beta   89.78796791
_cell_angle_gamma   90.02575651
_symmetry_Int_Tables_number   1
_chemical_formula_structural   La6Ce7Pr13Nd19Sm19(BiS2)64
_chemical_formula_sum   'La6 Ce7 Pr13 Nd19 Sm19 Bi64 S128'
_cell_volume   7050.62163765
_cell_formula_units_Z   1
loop_
 _symmetry_equiv_pos_site_id
 _symmetry_equiv_pos_as_xyz
  1  'x, y, z'
loop_
 _atom_type_symbol
 _atom_type_oxidation_number
  La3+  3.0
  Ce3+  3.0
  Pr3+  3.0
  Nd3+  3.0
  Sm3+  3.0
  Bi2+  2.0
  S2-  -2.0
loop_
 _atom_site_type_symbol
 _atom_site_label
 _atom_site_symmetry_multiplicity
 _atom_site_fract_x
 _atom_site_fract_y
 _atom_site_fract_z
 _atom_site_occupancy
  La3+  La0  1  0.63207422  0.50643412  0.38717490  1
  La3+  La1  1  0.39489313  0.23438918  0.92139391  1
  La3+  La2  1  0.49461916  0.14820385  0.59496302  1
  La3+  La3  1  0.76785599  0.34780068  0.09298243  1
  La3+  La4  1  -0.01226888  0.38380330  0.59849028  1
  La3+  La5  1  0.24041082  0.87825981  0.59338493  1
  Ce3+  Ce6  1  0.64075723  0.47595528  0.95113494  1
  Ce3+  Ce7  1  0.51259921  0.60312182  0.07245392  1
  Ce3+  Ce8  1  0.51638823  0.10216160  0.06654378  1
  Ce3+  Ce9  1  0.14655165  0.72904276  0.92387218  1
  Ce3+  Ce10  1  0.61533741  0.01632239  0.44177256  1
  Ce3+  Ce11  1  0.24014294  0.13881100  0.56384109  1
  Ce3+  Ce12  1  0.40178117  -0.02064392  0.93145438  1
  Pr3+  Pr13  1  0.40277990  0.72974267  0.92898590  1
  Pr3+  Pr14  1  0.74112430  0.38462152  0.56150642  1
  Pr3+  Pr15  1  0.74118021  0.63321798  0.55948121  1
  Pr3+  Pr16  1  0.36807182  0.26287841  0.43868809  1
  Pr3+  Pr17  1  -0.00863146  0.88437008  0.56931112  1
  Pr3+  Pr18  1  0.12866542  0.46375371  0.90624942  1
  Pr3+  Pr19  1  0.01836734  0.35506561  0.06866214  1
  Pr3+  Pr20  1  0.49122891  0.64259938  0.56721988  1
  Pr3+  Pr21  1  0.12160695  0.51025067  0.43523135  1
  Pr3+  Pr22  1  0.50455441  0.35253393  0.07833154  1
  Pr3+  Pr23  1  0.26602091  0.85186141  0.05075942  1
  Pr3+  Pr24  1  0.86790004  0.51038974  0.43756963  1
  Pr3+  Pr25  1  0.60725642  0.75740317  0.43005330  1
  Nd3+  Nd26  1  0.74280221  0.13388929  0.56785438  1
  Nd3+  Nd27  1  0.40345868  0.47944778  0.93169675  1
  Nd3+  Nd28  1  0.61890028  0.25509108  0.43364477  1
  Nd3+  Nd29  1  0.64377005  -0.01841481  0.94078650  1
  Nd3+  Nd30  1  0.24124528  0.38503837  0.57397031  1
  Nd3+  Nd31  1  0.36989648  0.51278777  0.43654347  1
  Nd3+  Nd32  1  0.26520443  0.35473741  0.05576578  1
  Nd3+  Nd33  1  0.88840446  -0.01833388  0.92893700  1
  Nd3+  Nd34  1  0.74120118  0.88542250  0.55766128  1
  Nd3+  Nd35  1  0.36491764  0.01165313  0.45557312  1
  Nd3+  Nd36  1  0.01747927  0.85085183  0.04796975  1
  Nd3+  Nd37  1  0.86573085  0.75976291  0.44313998  1
  Nd3+  Nd38  1  0.26980281  0.10298961  0.05238423  1
  Nd3+  Nd39  1  0.01243518  0.10163796  0.05860839  1
  Nd3+  Nd40  1  0.24055121  0.62723704  0.57032327  1
  Nd3+  Nd41  1  0.51641483  0.85174678  0.07085987  1
  Nd3+  Nd42  1  0.01773166  0.60050561  0.04944968  1
  Nd3+  Nd43  1  0.86788260  0.01086531  0.43746438  1
  Nd3+  Nd44  1  0.77205774  0.10033388  0.07469335  1
  Sm3+  Sm45  1  0.12247572  0.76375707  0.44495098  1
  Sm3+  Sm46  1  0.88995664  0.22956000  0.94610036  1
  Sm3+  Sm47  1  0.76899492  0.85263585  0.05615725  1
  Sm3+  Sm48  1  -0.00983970  0.13773126  0.55843449  1
  Sm3+  Sm49  1  0.11788462  0.01075907  0.45111984  1
  Sm3+  Sm50  1  0.76796215  0.60059139  0.05881788  1
  Sm3+  Sm51  1  0.49274431  0.88769619  0.56262620  1
  Sm3+  Sm52  1  0.86605279  0.26246661  0.44066997  1
  Sm3+  Sm53  1  0.64032856  0.22864799  0.94693942  1
  Sm3+  Sm54  1  0.11659146  0.26312256  0.44534692  1
  Sm3+  Sm55  1  -0.00632865  0.62956207  0.55609439  1
  Sm3+  Sm56  1  0.49272257  0.38722980  0.55300240  1
  Sm3+  Sm57  1  0.89087126  0.47612296  0.93937778  1
  Sm3+  Sm58  1  0.36049425  0.76279610  0.44459088  1
  Sm3+  Sm59  1  0.64269968  0.72843987  0.94662845  1
  Sm3+  Sm60  1  0.89260914  0.72772399  0.93995724  1
  Sm3+  Sm61  1  0.14432290  -0.01945421  0.93649478  1
  Sm3+  Sm62  1  0.26586886  0.60049974  0.03985524  1
  Sm3+  Sm63  1  0.14102217  0.22962420  0.94239419  1
  Bi2+  Bi64  1  0.00481679  0.08439388  0.27894931  1
  Bi2+  Bi65  1  -0.06696710  0.09204746  0.79805321  1
  Bi2+  Bi66  1  0.04085745  0.40493212  0.26730123  1
  Bi2+  Bi67  1  -0.06903354  0.37298052  0.78013124  1
  Bi2+  Bi68  1  0.04049159  0.59035436  0.30603010  1
  Bi2+  Bi69  1  -0.05549254  0.62755100  0.73523370  1
  Bi2+  Bi70  1  0.02236534  0.79010545  0.30309760  1
  Bi2+  Bi71  1  -0.04075963  0.89372214  0.78548541  1
  Bi2+  Bi72  1  0.18278216  0.16444103  0.27961442  1
  Bi2+  Bi73  1  0.19368463  0.11884214  0.76637814  1
  Bi2+  Bi74  1  0.25059020  0.37376483  0.29808223  1
  Bi2+  Bi75  1  0.24318461  0.34364591  0.79397107  1
  Bi2+  Bi76  1  0.23313754  0.64482731  0.29075802  1
  Bi2+  Bi77  1  0.26493646  0.65824087  0.78775895  1
  Bi2+  Bi78  1  0.23555286  0.91452701  0.30901585  1
  Bi2+  Bi79  1  0.24637696  0.89969826  0.78496978  1
  Bi2+  Bi80  1  0.44480754  0.09200971  0.27033282  1
  Bi2+  Bi81  1  0.46305954  0.09730493  0.79993174  1
  Bi2+  Bi82  1  0.49250446  0.39095320  0.28476179  1
  Bi2+  Bi83  1  0.52132816  0.35351108  0.79705204  1
  Bi2+  Bi84  1  0.49738272  0.66043659  0.29075296  1
  Bi2+  Bi85  1  0.47746462  0.59953718  0.80382798  1
  Bi2+  Bi86  1  0.48438180  0.90483812  0.30103028  1
  Bi2+  Bi87  1  0.56688583  0.84974079  0.79024398  1
  Bi2+  Bi88  1  0.75960664  0.12674165  0.30373537  1
  Bi2+  Bi89  1  0.73742675  0.14762208  0.80639085  1
  Bi2+  Bi90  1  0.75919041  0.37923211  0.28363620  1
  Bi2+  Bi91  1  0.74342247  0.42296541  0.79649570  1
  Bi2+  Bi92  1  0.78998432  0.66200706  0.28463098  1
  Bi2+  Bi93  1  0.78620516  0.61540664  0.80811748  1
  Bi2+  Bi94  1  0.68129680  0.91842972  0.29855670  1
  Bi2+  Bi95  1  0.76386407  0.86439000  0.78888860  1
  Bi2+  Bi96  1  0.09001159  -0.07072191  0.22794175  1
  Bi2+  Bi97  1  0.04878490  0.02143353  0.71071946  1
  Bi2+  Bi98  1  0.12703393  0.27735979  0.18708741  1
  Bi2+  Bi99  1  0.06655150  0.25612002  0.73198505  1
  Bi2+  Bi100  1  0.14963975  0.47401690  0.17148453  1
  Bi2+  Bi101  1  0.12837108  0.50418015  0.71036181  1
  Bi2+  Bi102  1  0.12270921  0.73967027  0.19727033  1
  Bi2+  Bi103  1  0.09769532  0.75157652  0.71952710  1
  Bi2+  Bi104  1  0.33828202  -0.02277084  0.19522601  1
  Bi2+  Bi105  1  0.47380270  -0.07229041  0.70233247  1
  Bi2+  Bi106  1  0.35326235  0.22258699  0.20180189  1
  Bi2+  Bi107  1  0.36439726  0.25411402  0.70334786  1
  Bi2+  Bi108  1  0.31967133  0.51038434  0.22282958  1
  Bi2+  Bi109  1  0.37406552  0.49301243  0.72847284  1
  Bi2+  Bi110  1  0.34036266  0.79066533  0.23909496  1
  Bi2+  Bi111  1  0.38512338  0.72997766  0.70216352  1
  Bi2+  Bi112  1  0.60941973  0.02887919  0.21142394  1
  Bi2+  Bi113  1  0.67450870  0.02386585  0.72280993  1
  Bi2+  Bi114  1  0.61937202  0.26022359  0.21088915  1
  Bi2+  Bi115  1  0.66815621  0.27896945  0.72627032  1
  Bi2+  Bi116  1  0.63810949  0.56233704  0.18860964  1
  Bi2+  Bi117  1  0.59016937  0.48145327  0.71469720  1
  Bi2+  Bi118  1  0.60619226  0.79899403  0.21697619  1
  Bi2+  Bi119  1  0.64194077  0.68068004  0.74224829  1
  Bi2+  Bi120  1  0.80660732  -0.01307752  0.20739879  1
  Bi2+  Bi121  1  0.86404064  -0.00794366  0.65994159  1
  Bi2+  Bi122  1  0.94256140  0.22421013  0.20601110  1
  Bi2+  Bi123  1  0.83780200  0.17873141  0.70307975  1
  Bi2+  Bi124  1  0.92075841  0.53951714  0.21395592  1
  Bi2+  Bi125  1  0.78096695  0.52844625  0.68927872  1
  Bi2+  Bi126  1  0.88039910  0.80449710  0.22115717  1
  Bi2+  Bi127  1  0.87870281  0.79855149  0.69146174  1
  S2-  S128  1  -0.08425721  0.08302503  0.14102040  1
  S2-  S129  1  -0.01732093  0.21444403  0.64650038  1
  S2-  S130  1  -0.08330017  0.36323515  0.15113582  1
  S2-  S131  1  0.13177521  0.36556348  0.65829484  1
  S2-  S132  1  0.03168448  0.61025084  0.14887676  1
  S2-  S133  1  0.00303929  0.55211012  0.64470237  1
  S2-  S134  1  0.00457245  0.84759724  0.14623183  1
  S2-  S135  1  0.09197288  0.88189348  0.65282841  1
  S2-  S136  1  0.24928611  0.09786257  0.15141954  1
  S2-  S137  1  0.23953119  0.16514139  0.65971853  1
  S2-  S138  1  0.34742226  0.35072133  0.14372671  1
  S2-  S139  1  0.25929435  0.50931400  0.64781707  1
  S2-  S140  1  0.26908706  0.59114119  0.13818359  1
  S2-  S141  1  0.23490384  0.72456654  0.65462830  1
  S2-  S142  1  0.25746019  0.83087540  0.15032416  1
  S2-  S143  1  0.30962136  0.91866896  0.68729463  1
  S2-  S144  1  0.50315037  0.21071655  0.14453448  1
  S2-  S145  1  0.44702433  0.10725810  0.69439482  1
  S2-  S146  1  0.51252605  0.48891355  0.14758420  1
  S2-  S147  1  0.47444880  0.31396810  0.64230090  1
  S2-  S148  1  0.51181592  0.72772684  0.14517213  1
  S2-  S149  1  0.46574435  0.57773991  0.66207949  1
  S2-  S150  1  0.49688083  0.97724436  0.14064863  1
  S2-  S151  1  0.50544358  0.78265671  0.64077340  1
  S2-  S152  1  0.73667843  0.20203599  0.15585956  1
  S2-  S153  1  0.64610293  0.15565196  0.65000520  1
  S2-  S154  1  0.71148928  0.40659089  0.18443491  1
  S2-  S155  1  0.83149264  0.38382093  0.64853877  1
  S2-  S156  1  0.80042379  0.61392890  0.15542250  1
  S2-  S157  1  0.74104906  0.69670535  0.65342775  1
  S2-  S158  1  0.74684815  0.84727043  0.15346539  1
  S2-  S159  1  0.69889254  0.91556199  0.65259373  1
  S2-  S160  1  0.12486787  0.03050356  0.35413768  1
  S2-  S161  1  0.13480699  -0.00176347  0.83960328  1
  S2-  S162  1  0.12424639  0.27754514  0.34684230  1
  S2-  S163  1  0.12020803  0.30400548  0.85558787  1
  S2-  S164  1  0.24430508  0.51377967  0.36250140  1
  S2-  S165  1  0.18011571  0.50554547  0.81133277  1
  S2-  S166  1  0.23880020  0.77383422  0.37098368  1
  S2-  S167  1  0.12391181  0.74215249  0.82670035  1
  S2-  S168  1  0.36689117  0.01183091  0.35546815  1
  S2-  S169  1  0.34654136  -0.00931002  0.83618272  1
  S2-  S170  1  0.38162581  0.28763238  0.33861171  1
  S2-  S171  1  0.31806375  0.18915892  0.82554889  1
  S2-  S172  1  0.46445686  0.52183303  0.34992567  1
  S2-  S173  1  0.37768965  0.37644863  0.85346222  1
  S2-  S174  1  0.46358048  0.76245301  0.36278783  1
  S2-  S175  1  0.33951688  0.77882048  0.83596196  1
  S2-  S176  1  0.62422285  0.12053526  0.36306832  1
  S2-  S177  1  0.53672838  -0.01939054  0.86033055  1
  S2-  S178  1  0.62231169  0.34013561  0.34474903  1
  S2-  S179  1  0.54667736  0.22092222  0.86109011  1
  S2-  S180  1  0.62562922  0.49685209  0.27747394  1
  S2-  S181  1  0.55448132  0.48727338  0.86653648  1
  S2-  S182  1  0.64663534  0.67138970  0.34326351  1
  S2-  S183  1  0.54824590  0.72590693  0.86513435  1
  S2-  S184  1  0.87344929  0.01552569  0.33885038  1
  S2-  S185  1  0.75986252  -0.00528204  0.86228881  1
  S2-  S186  1  0.84374084  0.25918145  0.34276263  1
  S2-  S187  1  0.88184567  0.23831830  0.84749662  1
  S2-  S188  1  0.80291641  0.50656545  0.34427872  1
  S2-  S189  1  0.97083344  0.47424562  0.85229684  1
  S2-  S190  1  0.85545270  0.77156220  0.34476490  1
  S2-  S191  1  0.87813789  0.75509273  0.84432998  1
  S2-  S192  1  -0.00771899  0.13723851  0.45243061  1
  S2-  S193  1  0.01580617  0.10386187  0.95123136  1
  S2-  S194  1  -0.00786663  0.38418458  0.44049829  1
  S2-  S195  1  0.01232601  0.35138076  0.96060905  1
  S2-  S196  1  -0.00415772  0.63874086  0.45109208  1
  S2-  S197  1  0.01694490  0.60448384  0.94427879  1
  S2-  S198  1  -0.00600187  0.88529245  0.45639701  1
  S2-  S199  1  0.01601257  0.85615043  0.94210517  1
  S2-  S200  1  0.23918963  0.13766205  0.45616156  1
  S2-  S201  1  0.26447923  0.10537401  0.94698067  1
  S2-  S202  1  0.24137225  0.38240091  0.46189066  1
  S2-  S203  1  0.26064292  0.35560240  0.95132551  1
  S2-  S204  1  0.24031812  0.63589664  0.46508321  1
  S2-  S205  1  0.26956793  0.60042471  0.93508852  1
  S2-  S206  1  0.23795558  0.89074589  0.47268391  1
  S2-  S207  1  0.26660648  0.85681128  0.94546063  1
  S2-  S208  1  0.48793801  0.13654202  0.45941669  1
  S2-  S209  1  0.51879848  0.10472003  0.96175287  1
  S2-  S210  1  0.49664706  0.38591075  0.45118719  1
  S2-  S211  1  0.51892447  0.35163618  0.96543628  1
  S2-  S212  1  0.48560018  0.63853439  0.46120208  1
  S2-  S213  1  0.52078584  0.60491810  0.96603103  1
  S2-  S214  1  0.49020215  0.88924410  0.46010315  1
  S2-  S215  1  0.52277582  0.85332276  0.96495269  1
  S2-  S216  1  0.74845876  0.13520644  0.46102531  1
  S2-  S217  1  0.76846638  0.10854626  0.96420046  1
  S2-  S218  1  0.74182852  0.38581491  0.45387813  1
  S2-  S219  1  0.76727200  0.35225921  0.94838194  1
  S2-  S220  1  0.74060741  0.63374361  0.45305813  1
  S2-  S221  1  0.76840830  0.60362714  0.95288001  1
  S2-  S222  1  0.74076050  0.88613384  0.45024915  1
  S2-  S223  1  0.76850093  0.84925932  0.95260432  1
  S2-  S224  1  0.13898655  -0.02068606  0.04286198  1
  S2-  S225  1  0.11468832  0.01472696  0.55511644  1
  S2-  S226  1  0.13909056  0.22571163  0.04642129  1
  S2-  S227  1  0.11266506  0.26247049  0.54765383  1
  S2-  S228  1  0.14047258  0.47749429  0.03566897  1
  S2-  S229  1  0.11323885  0.50335917  0.54221583  1
  S2-  S230  1  0.14136171  0.72560877  0.03310926  1
  S2-  S231  1  0.11317757  0.75525384  0.54822528  1
  S2-  S232  1  0.38906425  -0.02307535  0.03855877  1
  S2-  S233  1  0.37030616  0.01377523  0.56230462  1
  S2-  S234  1  0.38714474  0.22820801  0.03669512  1
  S2-  S235  1  0.36480279  0.26085149  0.54593992  1
  S2-  S236  1  0.38872349  0.47933917  0.03781777  1
  S2-  S237  1  0.36917173  0.50637124  0.54396090  1
  S2-  S238  1  0.38721832  0.72653152  0.03785845  1
  S2-  S239  1  0.36245289  0.76438362  0.54853066  1
  S2-  S240  1  0.64918400  -0.02250144  0.04892477  1
  S2-  S241  1  0.61414029  0.01328442  0.54849869  1
  S2-  S242  1  0.64483116  0.22947570  0.04856651  1
  S2-  S243  1  0.61685436  0.26035225  0.54229600  1
  S2-  S244  1  0.64829431  0.47359892  0.05403799  1
  S2-  S245  1  0.61489440  0.50936778  0.55960304  1
  S2-  S246  1  0.64843002  0.72690643  0.04883342  1
  S2-  S247  1  0.61996183  0.76334001  0.53846176  1
  S2-  S248  1  0.89174510  -0.02616501  0.03572315  1
  S2-  S249  1  0.86880196  0.01106332  0.54309035  1
  S2-  S250  1  0.89121875  0.23064503  0.04815867  1
  S2-  S251  1  0.86771426  0.26020449  0.54426305  1
  S2-  S252  1  0.88950122  0.47758691  0.04401249  1
  S2-  S253  1  0.86992974  0.50863002  0.54287204  1
  S2-  S254  1  0.89143151  0.72636601  0.04452235  1
  S2-  S255  1  0.87007317  0.75838323  0.54775908  1
