# generated using pymatgen
data_La6Ce7Pr13Nd19Sm19(BiS2)64
_symmetry_space_group_name_H-M   'P 1'
_cell_length_a   16.00899562
_cell_length_b   16.11055624
_cell_length_c   27.35207099
_cell_angle_alpha   89.96590797
_cell_angle_beta   89.87886072
_cell_angle_gamma   90.03822956
_symmetry_Int_Tables_number   1
_chemical_formula_structural   La6Ce7Pr13Nd19Sm19(BiS2)64
_chemical_formula_sum   'La6 Ce7 Pr13 Nd19 Sm19 Bi64 S128'
_cell_volume   7054.45863646
_cell_formula_units_Z   1
loop_
 _symmetry_equiv_pos_site_id
 _symmetry_equiv_pos_as_xyz
  1  'x, y, z'
loop_
 _atom_type_symbol
 _atom_type_oxidation_number
  La3+  3.0
  Ce3+  3.0
  Pr3+  3.0
  Nd3+  3.0
  Sm3+  3.0
  Bi2+  2.0
  S2-  -2.0
loop_
 _atom_site_type_symbol
 _atom_site_label
 _atom_site_symmetry_multiplicity
 _atom_site_fract_x
 _atom_site_fract_y
 _atom_site_fract_z
 _atom_site_occupancy
  La3+  La0  1  0.23490019  0.62194832  0.07487288  1
  La3+  La1  1  0.74960344  0.61628126  0.57920830  1
  La3+  La2  1  0.12232108  0.23941124  0.38987266  1
  La3+  La3  1  0.12868762  -0.01833467  0.39720133  1
  La3+  La4  1  0.09983508  0.25093479  0.89749153  1
  La3+  La5  1  0.12021106  -0.00077573  0.93449506  1
  Ce3+  Ce6  1  0.86147298  0.24760846  0.94304499  1
  Ce3+  Ce7  1  0.50451901  0.36715529  0.55754994  1
  Ce3+  Ce8  1  0.50337367  0.61423026  0.55472976  1
  Ce3+  Ce9  1  0.49322433  0.11746894  0.05792796  1
  Ce3+  Ce10  1  0.12647953  0.74383355  0.43850151  1
  Ce3+  Ce11  1  0.75620366  0.36781613  0.56963745  1
  Ce3+  Ce12  1  0.00468359  0.86598166  0.56441600  1
  Pr3+  Pr13  1  0.25085086  0.36774919  0.56232353  1
  Pr3+  Pr14  1  0.12372837  0.49620129  0.93273881  1
  Pr3+  Pr15  1  0.73949349  0.37057819  0.07133958  1
  Pr3+  Pr16  1  0.86537949  0.74487873  0.93119676  1
  Pr3+  Pr17  1  0.75458760  0.10965719  0.56989893  1
  Pr3+  Pr18  1  0.86223623  0.00052064  0.93035620  1
  Pr3+  Pr19  1  0.50343828  0.11262456  0.56599346  1
  Pr3+  Pr20  1  0.61682922  -0.00435155  0.93871293  1
  Pr3+  Pr21  1  -0.00660618  0.62217311  0.05864101  1
  Pr3+  Pr22  1  0.25295847  0.86558026  0.55716194  1
  Pr3+  Pr23  1  -0.00963023  0.87160751  0.05988158  1
  Pr3+  Pr24  1  0.11881535  0.74877644  0.92392563  1
  Pr3+  Pr25  1  0.37797947  -0.00526722  0.43328276  1
  Nd3+  Nd26  1  0.23413436  0.86933952  0.07411890  1
  Nd3+  Nd27  1  0.88130902  -0.00778486  0.44038239  1
  Nd3+  Nd28  1  0.62752817  -0.00624195  0.43252047  1
  Nd3+  Nd29  1  0.23866725  0.11476934  0.08615411  1
  Nd3+  Nd30  1  -0.00380663  0.37010290  0.06366784  1
  Nd3+  Nd31  1  0.61448609  0.24698935  0.94683992  1
  Nd3+  Nd32  1  0.37864677  0.73961281  0.43691697  1
  Nd3+  Nd33  1  0.00701825  0.11386460  0.55591964  1
  Nd3+  Nd34  1  0.87623593  0.48825012  0.43785806  1
  Nd3+  Nd35  1  0.63162750  0.48811571  0.43360116  1
  Nd3+  Nd36  1  0.87744312  0.74270832  0.44680496  1
  Nd3+  Nd37  1  0.63127124  0.74008773  0.44072028  1
  Nd3+  Nd38  1  0.36311551  0.49486802  0.93929797  1
  Nd3+  Nd39  1  0.25003057  0.36941747  0.06832670  1
  Nd3+  Nd40  1  0.49256576  0.86922126  0.05798618  1
  Nd3+  Nd41  1  -0.00928177  0.12037572  0.06449632  1
  Nd3+  Nd42  1  0.12125941  0.48929419  0.42752390  1
  Nd3+  Nd43  1  0.25763442  0.11405232  0.57060128  1
  Nd3+  Nd44  1  0.86819134  0.49300630  0.94790556  1
  Sm3+  Sm45  1  0.75185345  0.86442333  0.56622478  1
  Sm3+  Sm46  1  0.74164876  0.62044345  0.06074846  1
  Sm3+  Sm47  1  0.25139605  0.61483882  0.55082716  1
  Sm3+  Sm48  1  0.36266892  -0.00465904  0.94729548  1
  Sm3+  Sm49  1  0.61921910  0.74310260  0.93635140  1
  Sm3+  Sm50  1  0.36674366  0.23764647  0.44207429  1
  Sm3+  Sm51  1  0.50174798  0.86554504  0.55477076  1
  Sm3+  Sm52  1  0.36378385  0.74557598  0.94105104  1
  Sm3+  Sm53  1  0.88146004  0.23738540  0.44558436  1
  Sm3+  Sm54  1  0.62955481  0.24011250  0.45164106  1
  Sm3+  Sm55  1  0.49002202  0.37013010  0.06154968  1
  Sm3+  Sm56  1  0.37610035  0.48677489  0.44041594  1
  Sm3+  Sm57  1  0.35639957  0.24352067  0.94309985  1
  Sm3+  Sm58  1  0.61522917  0.49443850  0.94743460  1
  Sm3+  Sm59  1  0.49096524  0.62351942  0.05527057  1
  Sm3+  Sm60  1  0.00302736  0.61312590  0.55719403  1
  Sm3+  Sm61  1  0.00485901  0.36504581  0.55500337  1
  Sm3+  Sm62  1  0.74578516  0.87015019  0.06399374  1
  Sm3+  Sm63  1  0.74623139  0.11989227  0.06898713  1
  Bi2+  Bi64  1  -0.02574470  0.12162427  0.28564775  1
  Bi2+  Bi65  1  -0.02950168  0.13015285  0.78531209  1
  Bi2+  Bi66  1  -0.00335604  0.38124850  0.29088088  1
  Bi2+  Bi67  1  -0.01890457  0.46928242  0.77208173  1
  Bi2+  Bi68  1  -0.02362454  0.63710732  0.28752488  1
  Bi2+  Bi69  1  0.07788760  0.63825169  0.78368436  1
  Bi2+  Bi70  1  -0.01959192  0.84651135  0.29505834  1
  Bi2+  Bi71  1  -0.00498998  0.85880544  0.78728712  1
  Bi2+  Bi72  1  0.28597411  0.11779924  0.27642223  1
  Bi2+  Bi73  1  0.23239725  0.12153592  0.78734846  1
  Bi2+  Bi74  1  0.30098866  0.38699831  0.29262443  1
  Bi2+  Bi75  1  0.22701563  0.38180046  0.79110920  1
  Bi2+  Bi76  1  0.23598712  0.59070333  0.28118966  1
  Bi2+  Bi77  1  0.28055975  0.62294881  0.78062094  1
  Bi2+  Bi78  1  0.30010244  0.86499761  0.27341799  1
  Bi2+  Bi79  1  0.25905495  0.87354883  0.79523290  1
  Bi2+  Bi80  1  0.53412363  0.13498034  0.29103810  1
  Bi2+  Bi81  1  0.49053727  0.09415198  0.79786541  1
  Bi2+  Bi82  1  0.52073268  0.42420258  0.32051979  1
  Bi2+  Bi83  1  0.42632845  0.36814684  0.80763647  1
  Bi2+  Bi84  1  0.55027626  0.56567047  0.24556995  1
  Bi2+  Bi85  1  0.48492326  0.70083851  0.81071266  1
  Bi2+  Bi86  1  0.53777414  0.85092507  0.30717927  1
  Bi2+  Bi87  1  0.49699966  0.89538261  0.80716245  1
  Bi2+  Bi88  1  0.74079571  0.11352842  0.29328784  1
  Bi2+  Bi89  1  0.68481984  0.13198555  0.78541469  1
  Bi2+  Bi90  1  0.70890039  0.36579855  0.29319764  1
  Bi2+  Bi91  1  0.78922872  0.36260712  0.81093566  1
  Bi2+  Bi92  1  0.72372591  0.62003958  0.29477973  1
  Bi2+  Bi93  1  0.74770160  0.61751359  0.79737542  1
  Bi2+  Bi94  1  0.72346374  0.92195418  0.30604098  1
  Bi2+  Bi95  1  0.69449228  0.88374032  0.78973325  1
  Bi2+  Bi96  1  0.12418206  -0.02387702  0.20620232  1
  Bi2+  Bi97  1  0.10594697  -0.01084348  0.69070280  1
  Bi2+  Bi98  1  0.14089851  0.26423330  0.18867663  1
  Bi2+  Bi99  1  0.10129751  0.25996688  0.67558639  1
  Bi2+  Bi100  1  0.09821492  0.50240807  0.21237150  1
  Bi2+  Bi101  1  0.12194821  0.51092200  0.67994092  1
  Bi2+  Bi102  1  0.15508124  0.73482298  0.21605941  1
  Bi2+  Bi103  1  0.14488067  0.78545988  0.71676181  1
  Bi2+  Bi104  1  0.47389328  -0.02122431  0.22466806  1
  Bi2+  Bi105  1  0.38735889  -0.02913507  0.70695442  1
  Bi2+  Bi106  1  0.46107282  0.29648825  0.23603960  1
  Bi2+  Bi107  1  0.41789757  0.22904699  0.72321950  1
  Bi2+  Bi108  1  0.35680878  0.50104588  0.20371415  1
  Bi2+  Bi109  1  0.42853337  0.49805273  0.71983487  1
  Bi2+  Bi110  1  0.40894184  0.73975719  0.21233119  1
  Bi2+  Bi111  1  0.41290902  0.69416298  0.70373317  1
  Bi2+  Bi112  1  0.68280850  -0.01753173  0.18904043  1
  Bi2+  Bi113  1  0.59628654  0.01066920  0.70816326  1
  Bi2+  Bi114  1  0.63937920  0.18086365  0.18431472  1
  Bi2+  Bi115  1  0.60787486  0.27241280  0.70487826  1
  Bi2+  Bi116  1  0.61378738  0.39959708  0.19142719  1
  Bi2+  Bi117  1  0.60186757  0.43809685  0.76899993  1
  Bi2+  Bi118  1  0.69165715  0.79015291  0.21998339  1
  Bi2+  Bi119  1  0.62085672  0.71087640  0.72356107  1
  Bi2+  Bi120  1  0.87390107  -0.00078531  0.21328342  1
  Bi2+  Bi121  1  0.85701224  0.02697312  0.69877953  1
  Bi2+  Bi122  1  0.81454983  0.24903075  0.21478762  1
  Bi2+  Bi123  1  0.79823821  0.33466263  0.70289014  1
  Bi2+  Bi124  1  0.84293331  0.56086266  0.21112256  1
  Bi2+  Bi125  1  0.86192547  0.57583911  0.70523325  1
  Bi2+  Bi126  1  0.88730721  0.75286453  0.20769544  1
  Bi2+  Bi127  1  0.83052427  0.76771313  0.73380079  1
  S2-  S128  1  0.08765241  0.11316763  0.15099438  1
  S2-  S129  1  -0.00821195  0.11578102  0.65714715  1
  S2-  S130  1  0.00542605  0.37734206  0.16385592  1
  S2-  S131  1  -0.00840190  0.38732037  0.65258494  1
  S2-  S132  1  0.07910076  0.63173792  0.14604867  1
  S2-  S133  1  0.00138436  0.63405858  0.65429896  1
  S2-  S134  1  0.09104648  0.85303683  0.14546578  1
  S2-  S135  1  -0.04001725  0.89882105  0.65778827  1
  S2-  S136  1  0.28182058  0.19216040  0.17846868  1
  S2-  S137  1  0.20051387  0.11470777  0.66913177  1
  S2-  S138  1  0.22543509  0.48304063  0.14308892  1
  S2-  S139  1  0.22914169  0.36906853  0.66324826  1
  S2-  S140  1  0.27906339  0.74366089  0.14745741  1
  S2-  S141  1  0.24193724  0.60540623  0.64833935  1
  S2-  S142  1  0.25872977  0.97847719  0.15400624  1
  S2-  S143  1  0.25059123  0.88233379  0.65771360  1
  S2-  S144  1  0.48902054  0.09951726  0.15401190  1
  S2-  S145  1  0.39520045  0.11233267  0.64440323  1
  S2-  S146  1  0.40010430  0.36533266  0.14432769  1
  S2-  S147  1  0.47619887  0.36285716  0.65350875  1
  S2-  S148  1  0.47737642  0.61041584  0.15227479  1
  S2-  S149  1  0.54111633  0.60633999  0.64922045  1
  S2-  S150  1  0.49857788  0.84499011  0.15634477  1
  S2-  S151  1  0.50382824  0.89099967  0.65199138  1
  S2-  S152  1  0.86654598  0.12618417  0.14270600  1
  S2-  S153  1  0.78861624  0.17977311  0.66269533  1
  S2-  S154  1  0.78883031  0.40471184  0.16571881  1
  S2-  S155  1  0.74550757  0.47946950  0.64508353  1
  S2-  S156  1  0.72167326  0.65378328  0.15553022  1
  S2-  S157  1  0.74126531  0.75361234  0.64553404  1
  S2-  S158  1  0.86680493  0.87540278  0.13627576  1
  S2-  S159  1  0.73570928  0.97734660  0.64097166  1
  S2-  S160  1  0.13108112  0.06170267  0.30314141  1
  S2-  S161  1  0.10630987  0.09682079  0.84763966  1
  S2-  S162  1  0.09455537  0.24610660  0.28127841  1
  S2-  S163  1  0.11554289  0.25077630  0.77061891  1
  S2-  S164  1  0.14894272  0.39689397  0.34488648  1
  S2-  S165  1  0.08562136  0.40608711  0.84759030  1
  S2-  S166  1  0.12147911  0.82005431  0.35053200  1
  S2-  S167  1  0.12056710  0.88360466  0.85487426  1
  S2-  S168  1  0.29195812  -0.01197190  0.34522410  1
  S2-  S169  1  0.30343912  0.00863698  0.85464719  1
  S2-  S170  1  0.29437801  0.22598264  0.35032138  1
  S2-  S171  1  0.26949129  0.24677565  0.85701505  1
  S2-  S172  1  0.36924857  0.52523487  0.34463125  1
  S2-  S173  1  0.26200968  0.50731620  0.85848959  1
  S2-  S174  1  0.38512414  0.77185759  0.33899982  1
  S2-  S175  1  0.26628823  0.73839252  0.85945159  1
  S2-  S176  1  0.50973673  0.00772599  0.35962219  1
  S2-  S177  1  0.72344771  0.01103578  0.85999673  1
  S2-  S178  1  0.64827293  0.23107279  0.35440889  1
  S2-  S179  1  0.67321385  0.26064488  0.85408671  1
  S2-  S180  1  0.75611196  0.48468205  0.36201502  1
  S2-  S181  1  0.61961137  0.53335167  0.85253117  1
  S2-  S182  1  0.60549470  0.70043743  0.34555688  1
  S2-  S183  1  0.73210327  0.75860212  0.86213801  1
  S2-  S184  1  0.95812686  -0.01224440  0.35158545  1
  S2-  S185  1  0.92048154  -0.01019195  0.83065907  1
  S2-  S186  1  0.93750463  0.25150232  0.35288776  1
  S2-  S187  1  0.92667928  0.23987306  0.85151299  1
  S2-  S188  1  0.98198599  0.50524115  0.35739138  1
  S2-  S189  1  0.86455589  0.51037778  0.84942388  1
  S2-  S190  1  0.86769497  0.73808139  0.34780155  1
  S2-  S191  1  0.98094661  0.72564830  0.85302101  1
  S2-  S192  1  0.01079770  0.11687904  0.44955393  1
  S2-  S193  1  -0.01055637  0.12665222  0.95678726  1
  S2-  S194  1  0.00806710  0.35755270  0.45275737  1
  S2-  S195  1  -0.00834595  0.36828581  0.95719526  1
  S2-  S196  1  0.00249320  0.61950220  0.45422858  1
  S2-  S197  1  -0.00718609  0.61614534  0.95338363  1
  S2-  S198  1  0.00479232  0.86790745  0.45768767  1
  S2-  S199  1  -0.01586679  0.87401439  0.95335046  1
  S2-  S200  1  0.24732253  0.11423369  0.45494117  1
  S2-  S201  1  0.24574752  0.11920888  0.96497753  1
  S2-  S202  1  0.25161956  0.36628806  0.45450727  1
  S2-  S203  1  0.24294469  0.36927989  0.96150332  1
  S2-  S204  1  0.25146921  0.61391889  0.44580110  1
  S2-  S205  1  0.24459832  0.62185648  0.96346985  1
  S2-  S206  1  0.25381690  0.86493643  0.45152039  1
  S2-  S207  1  0.24690292  0.87044472  0.96278679  1
  S2-  S208  1  0.50131555  0.12369025  0.45962967  1
  S2-  S209  1  0.48883465  0.12147466  0.95009696  1
  S2-  S210  1  0.50055756  0.36126865  0.45170814  1
  S2-  S211  1  0.48853102  0.37025638  0.95590978  1
  S2-  S212  1  0.50293915  0.61147785  0.44886929  1
  S2-  S213  1  0.49148807  0.62186492  0.95128209  1
  S2-  S214  1  0.50410427  0.86326139  0.45173687  1
  S2-  S215  1  0.49260943  0.86758926  0.95134370  1
  S2-  S216  1  0.75361920  0.11547164  0.45715405  1
  S2-  S217  1  0.73778718  0.12487557  0.96414390  1
  S2-  S218  1  0.75561654  0.35886051  0.46155990  1
  S2-  S219  1  0.73729498  0.37390128  0.96305742  1
  S2-  S220  1  0.75380186  0.61704734  0.46203506  1
  S2-  S221  1  0.73909154  0.61639959  0.95756931  1
  S2-  S222  1  0.75217626  0.86928868  0.45550632  1
  S2-  S223  1  0.73930096  0.87085670  0.96154944  1
  S2-  S224  1  0.11580447  -0.00216948  0.04427298  1
  S2-  S225  1  0.13069265  -0.00839071  0.55420692  1
  S2-  S226  1  0.12061993  0.24860244  0.05919553  1
  S2-  S227  1  0.12895447  0.23999291  0.55523957  1
  S2-  S228  1  0.11484545  0.49341328  0.04059544  1
  S2-  S229  1  0.12637471  0.49215502  0.53825573  1
  S2-  S230  1  0.11482938  0.74659564  0.03647712  1
  S2-  S231  1  0.12800561  0.73795798  0.54633389  1
  S2-  S232  1  0.36912497  -0.00721546  0.05021396  1
  S2-  S233  1  0.37909188  -0.01166723  0.54155418  1
  S2-  S234  1  0.36941530  0.24100924  0.04697541  1
  S2-  S235  1  0.37731557  0.24301430  0.54582227  1
  S2-  S236  1  0.37190111  0.49880428  0.04382052  1
  S2-  S237  1  0.37667477  0.49189148  0.54573915  1
  S2-  S238  1  0.37102225  0.74562822  0.04349805  1
  S2-  S239  1  0.37795209  0.73872183  0.54428496  1
  S2-  S240  1  0.62139229  -0.00623085  0.04737762  1
  S2-  S241  1  0.62420265  -0.01152832  0.53899408  1
  S2-  S242  1  0.61566901  0.24561913  0.05260657  1
  S2-  S243  1  0.62952827  0.23928040  0.55600510  1
  S2-  S244  1  0.61387424  0.49732651  0.05236968  1
  S2-  S245  1  0.62790427  0.48934278  0.53953981  1
  S2-  S246  1  0.61974290  0.74509140  0.04303023  1
  S2-  S247  1  0.62501984  0.74363626  0.54544935  1
  S2-  S248  1  0.86190251  -0.00143242  0.03881070  1
  S2-  S249  1  0.88005072  -0.01086804  0.54474597  1
  S2-  S250  1  0.86381983  0.25037304  0.04864739  1
  S2-  S251  1  0.88089220  0.24063084  0.54914067  1
  S2-  S252  1  0.86612465  0.49678581  0.05350083  1
  S2-  S253  1  0.88155647  0.49022831  0.54453555  1
  S2-  S254  1  0.86235865  0.74107175  0.04117429  1
  S2-  S255  1  0.87985868  0.74062157  0.55155368  1
