# generated using pymatgen
data_La6Ce7Pr13Nd19Sm19(BiS2)64
_symmetry_space_group_name_H-M   'P 1'
_cell_length_a   15.99427362
_cell_length_b   16.05894531
_cell_length_c   27.66518238
_cell_angle_alpha   90.23183184
_cell_angle_beta   90.29227827
_cell_angle_gamma   89.84871133
_symmetry_Int_Tables_number   1
_chemical_formula_structural   La6Ce7Pr13Nd19Sm19(BiS2)64
_chemical_formula_sum   'La6 Ce7 Pr13 Nd19 Sm19 Bi64 S128'
_cell_volume   7105.65932464
_cell_formula_units_Z   1
loop_
 _symmetry_equiv_pos_site_id
 _symmetry_equiv_pos_as_xyz
  1  'x, y, z'
loop_
 _atom_type_symbol
 _atom_type_oxidation_number
  La3+  3.0
  Ce3+  3.0
  Pr3+  3.0
  Nd3+  3.0
  Sm3+  3.0
  Bi2+  2.0
  S2-  -2.0
loop_
 _atom_site_type_symbol
 _atom_site_label
 _atom_site_symmetry_multiplicity
 _atom_site_fract_x
 _atom_site_fract_y
 _atom_site_fract_z
 _atom_site_occupancy
  La3+  La0  1  -0.02517814  0.10759223  0.07092333  1
  La3+  La1  1  0.11941449  -0.01601622  0.89730841  1
  La3+  La2  1  0.60794112  0.75875307  0.41199739  1
  La3+  La3  1  -0.01216205  0.11895519  0.58551423  1
  La3+  La4  1  0.22224604  0.37885490  0.60968828  1
  La3+  La5  1  0.10426944  0.48200378  0.92594133  1
  Ce3+  Ce6  1  0.24245695  0.62377127  0.56899227  1
  Ce3+  Ce7  1  0.23004786  0.35984235  0.05695982  1
  Ce3+  Ce8  1  0.73692827  0.12681255  0.56559066  1
  Ce3+  Ce9  1  -0.01478469  0.37713917  0.55643983  1
  Ce3+  Ce10  1  0.48056179  0.12777726  0.55614292  1
  Ce3+  Ce11  1  0.86050595  0.24510061  0.44322631  1
  Ce3+  Ce12  1  0.35667591  -0.01577993  0.95134389  1
  Pr3+  Pr13  1  0.73560349  0.37519410  0.55579169  1
  Pr3+  Pr14  1  -0.02866346  0.85981143  0.07372700  1
  Pr3+  Pr15  1  0.72416777  0.85472058  0.07162370  1
  Pr3+  Pr16  1  0.23094125  0.60941122  0.05521404  1
  Pr3+  Pr17  1  0.35416323  0.24740520  0.43670269  1
  Pr3+  Pr18  1  0.35313927  0.23005023  0.94126606  1
  Pr3+  Pr19  1  0.85900869  0.22917279  0.94619079  1
  Pr3+  Pr20  1  0.49175830  0.62546325  0.56338975  1
  Pr3+  Pr21  1  0.10747537  0.74891223  0.44455512  1
  Pr3+  Pr22  1  0.73325086  0.87222861  0.56071899  1
  Pr3+  Pr23  1  0.60888531  0.24680648  0.43567304  1
  Pr3+  Pr24  1  0.22539155  0.10910941  0.07154111  1
  Pr3+  Pr25  1  0.85701958  0.73638918  0.94462831  1
  Nd3+  Nd26  1  -0.01731963  0.36535715  0.06878403  1
  Nd3+  Nd27  1  0.48111813  0.37352774  0.56209295  1
  Nd3+  Nd28  1  0.85648910  -0.02210572  0.93042167  1
  Nd3+  Nd29  1  0.48435178  0.11032222  0.05114914  1
  Nd3+  Nd30  1  0.84907005  0.50096280  0.42477651  1
  Nd3+  Nd31  1  0.48446391  0.87423004  0.55562281  1
  Nd3+  Nd32  1  0.10733787  0.49792644  0.43738382  1
  Nd3+  Nd33  1  -0.01346430  0.62017315  0.55272550  1
  Nd3+  Nd34  1  0.23052612  0.87820911  0.55608462  1
  Nd3+  Nd35  1  0.10097904  -0.00031357  0.43046721  1
  Nd3+  Nd36  1  -0.01767533  0.60836474  0.06242822  1
  Nd3+  Nd37  1  0.48477521  0.85937194  0.06687147  1
  Nd3+  Nd38  1  0.60785557  0.72818805  0.93338146  1
  Nd3+  Nd39  1  0.23145649  0.12662339  0.55721727  1
  Nd3+  Nd40  1  0.72879773  0.59980495  0.06334954  1
  Nd3+  Nd41  1  0.35379161  0.73943337  0.94378700  1
  Nd3+  Nd42  1  0.59836618  0.49364425  0.42298899  1
  Nd3+  Nd43  1  0.48235230  0.60637816  0.05115014  1
  Nd3+  Nd44  1  0.48222101  0.35972256  0.05702868  1
  Sm3+  Sm45  1  0.73155009  0.36429218  0.05093169  1
  Sm3+  Sm46  1  0.60958187  0.23464698  0.94323268  1
  Sm3+  Sm47  1  0.10603699  0.24932977  0.44433504  1
  Sm3+  Sm48  1  0.35722022  0.49787744  0.44149032  1
  Sm3+  Sm49  1  0.59634443  0.47549838  0.91645649  1
  Sm3+  Sm50  1  0.10228776  0.22964277  0.94292252  1
  Sm3+  Sm51  1  0.35454737  0.00015720  0.43941580  1
  Sm3+  Sm52  1  0.86341553  0.00110027  0.44242064  1
  Sm3+  Sm53  1  0.10299008  0.74281617  0.94738373  1
  Sm3+  Sm54  1  0.35115764  0.48302514  0.93097486  1
  Sm3+  Sm55  1  0.36006711  0.74606001  0.43811670  1
  Sm3+  Sm56  1  0.85914871  0.48412645  0.93379018  1
  Sm3+  Sm57  1  0.61231312  -0.02421993  0.93368425  1
  Sm3+  Sm58  1  0.22821919  0.86200080  0.06493176  1
  Sm3+  Sm59  1  0.60977135  -0.00130847  0.44554746  1
  Sm3+  Sm60  1  -0.02282702  0.87240552  0.56827656  1
  Sm3+  Sm61  1  0.73000469  0.62193756  0.54916821  1
  Sm3+  Sm62  1  0.85770157  0.75030786  0.44203900  1
  Sm3+  Sm63  1  0.73194128  0.10623066  0.06683699  1
  Bi2+  Bi64  1  0.03105810  0.12397289  0.30709181  1
  Bi2+  Bi65  1  -0.01175115  0.14660692  0.80287019  1
  Bi2+  Bi66  1  -0.05584875  0.39555825  0.26171268  1
  Bi2+  Bi67  1  -0.11338412  0.37806628  0.78928358  1
  Bi2+  Bi68  1  0.09323937  0.62640031  0.29173457  1
  Bi2+  Bi69  1  0.02032707  0.64308193  0.82243571  1
  Bi2+  Bi70  1  -0.00068757  0.85729691  0.29526015  1
  Bi2+  Bi71  1  0.02148538  0.81487425  0.76792386  1
  Bi2+  Bi72  1  0.27430563  0.13325025  0.30199471  1
  Bi2+  Bi73  1  0.30906426  0.09416303  0.79056103  1
  Bi2+  Bi74  1  0.21889386  0.37500423  0.28963220  1
  Bi2+  Bi75  1  0.32308156  0.38973894  0.79689695  1
  Bi2+  Bi76  1  0.29789729  0.66644453  0.30092628  1
  Bi2+  Bi77  1  0.26901576  0.63391294  0.78547205  1
  Bi2+  Bi78  1  0.29668993  0.85161851  0.26338672  1
  Bi2+  Bi79  1  0.26190377  0.83098313  0.79777688  1
  Bi2+  Bi80  1  0.56926079  0.18664778  0.30903573  1
  Bi2+  Bi81  1  0.50627778  0.07630925  0.77730309  1
  Bi2+  Bi82  1  0.47199143  0.39184153  0.28780069  1
  Bi2+  Bi83  1  0.53708526  0.36567886  0.77709997  1
  Bi2+  Bi84  1  0.58259795  0.59717692  0.29630589  1
  Bi2+  Bi85  1  0.63654003  0.67117147  0.76388828  1
  Bi2+  Bi86  1  0.49538267  0.86922909  0.28956857  1
  Bi2+  Bi87  1  0.48117053  0.88433815  0.79197257  1
  Bi2+  Bi88  1  0.76461613  0.17282893  0.32208115  1
  Bi2+  Bi89  1  0.71630420  0.15883592  0.79464994  1
  Bi2+  Bi90  1  0.74883624  0.39043436  0.24652636  1
  Bi2+  Bi91  1  0.71157642  0.47428536  0.79765817  1
  Bi2+  Bi92  1  0.82906186  0.62833338  0.30172697  1
  Bi2+  Bi93  1  0.82580311  0.63553803  0.80324092  1
  Bi2+  Bi94  1  0.74090077  0.98785921  0.29022468  1
  Bi2+  Bi95  1  0.74309562  0.89393799  0.79978366  1
  Bi2+  Bi96  1  0.15857501  -0.00757292  0.20359082  1
  Bi2+  Bi97  1  0.14745676  0.03088207  0.69462376  1
  Bi2+  Bi98  1  0.13903038  0.23986371  0.19697382  1
  Bi2+  Bi99  1  0.07902256  0.30197828  0.74006756  1
  Bi2+  Bi100  1  0.14125264  0.48529619  0.19951238  1
  Bi2+  Bi101  1  0.10723162  0.56391782  0.73206528  1
  Bi2+  Bi102  1  0.17183433  0.73901594  0.20069396  1
  Bi2+  Bi103  1  0.17150830  0.75268511  0.70570319  1
  Bi2+  Bi104  1  0.46374689  0.05113051  0.24893617  1
  Bi2+  Bi105  1  0.38983429  -0.03834504  0.70232091  1
  Bi2+  Bi106  1  0.45416493  0.25112780  0.20645642  1
  Bi2+  Bi107  1  0.38287099  0.23455066  0.69546062  1
  Bi2+  Bi108  1  0.33216370  0.50777102  0.23716137  1
  Bi2+  Bi109  1  0.42199962  0.53130982  0.71116101  1
  Bi2+  Bi110  1  0.44134402  0.71670794  0.22581864  1
  Bi2+  Bi111  1  0.45487689  0.72559259  0.72005351  1
  Bi2+  Bi112  1  0.64198551  0.02823415  0.19459482  1
  Bi2+  Bi113  1  0.65383055  0.01338115  0.70639235  1
  Bi2+  Bi114  1  0.65493825  0.23132573  0.20362650  1
  Bi2+  Bi115  1  0.64151411  0.25561893  0.70143539  1
  Bi2+  Bi116  1  0.60113766  0.52599095  0.19000063  1
  Bi2+  Bi117  1  0.61200752  0.50218463  0.69148771  1
  Bi2+  Bi118  1  0.69732297  0.78942536  0.21449360  1
  Bi2+  Bi119  1  0.68122823  0.82030577  0.68643090  1
  Bi2+  Bi120  1  0.88553191  -0.02663604  0.21373638  1
  Bi2+  Bi121  1  0.83707090  0.03665352  0.73679634  1
  Bi2+  Bi122  1  0.85800647  0.22310798  0.21922547  1
  Bi2+  Bi123  1  0.82716144  0.28590765  0.69369232  1
  Bi2+  Bi124  1  0.85747559  0.54164131  0.19849945  1
  Bi2+  Bi125  1  0.92527844  0.48805947  0.69446038  1
  Bi2+  Bi126  1  0.97786548  0.69855414  0.20884012  1
  Bi2+  Bi127  1  0.86392968  0.74592909  0.71088877  1
  S2-  S128  1  0.06863039  0.10855066  0.15847693  1
  S2-  S129  1  0.06513828  0.16828569  0.67592309  1
  S2-  S130  1  -0.01833148  0.29669511  0.16213001  1
  S2-  S131  1  0.04641309  0.37866681  0.64781444  1
  S2-  S132  1  -0.00238824  0.49851065  0.13725648  1
  S2-  S133  1  -0.04191004  0.63395219  0.64867298  1
  S2-  S134  1  0.02754580  0.90569876  0.16808861  1
  S2-  S135  1  0.02852981  0.97148360  0.64315601  1
  S2-  S136  1  0.26068427  0.12138865  0.17077998  1
  S2-  S137  1  0.28673397  0.12272418  0.65135161  1
  S2-  S138  1  0.24254762  0.35804344  0.15277396  1
  S2-  S139  1  0.23124654  0.32551880  0.71223249  1
  S2-  S140  1  0.24326508  0.60569382  0.15390363  1
  S2-  S141  1  0.19999692  0.53853673  0.65007148  1
  S2-  S142  1  0.27502297  0.87879344  0.15861621  1
  S2-  S143  1  0.25662377  0.88566359  0.65428676  1
  S2-  S144  1  0.49555332  0.09961644  0.14804216  1
  S2-  S145  1  0.52045544  0.17209592  0.64612040  1
  S2-  S146  1  0.50831572  0.38548477  0.15305962  1
  S2-  S147  1  0.39352526  0.38318859  0.64720198  1
  S2-  S148  1  0.47603478  0.61403738  0.14918260  1
  S2-  S149  1  0.37972407  0.65068410  0.64046357  1
  S2-  S150  1  0.59381970  0.86854152  0.14469448  1
  S2-  S151  1  0.51079661  0.86012960  0.65254976  1
  S2-  S152  1  0.84212152  0.09670666  0.14364635  1
  S2-  S153  1  0.83770125  0.12728197  0.64654846  1
  S2-  S154  1  0.73708319  0.45973903  0.13102250  1
  S2-  S155  1  0.77074052  0.43719713  0.64740505  1
  S2-  S156  1  0.69450533  0.67070805  0.15443169  1
  S2-  S157  1  0.63323823  0.63596927  0.62960221  1
  S2-  S158  1  0.82773811  0.85265192  0.15406000  1
  S2-  S159  1  0.84466494  0.86145701  0.63811461  1
  S2-  S160  1  0.16861049  0.02371665  0.33552334  1
  S2-  S161  1  0.14514259  0.05559538  0.79882200  1
  S2-  S162  1  0.13162776  0.24191359  0.34626359  1
  S2-  S163  1  0.08826228  0.26407428  0.84674116  1
  S2-  S164  1  0.18374977  0.50313319  0.34860188  1
  S2-  S165  1  0.23161853  0.48352211  0.85459571  1
  S2-  S166  1  0.11424440  0.78011543  0.34638603  1
  S2-  S167  1  0.11244665  0.81821485  0.85918472  1
  S2-  S168  1  0.38522371  0.04279071  0.34708180  1
  S2-  S169  1  0.29678670  -0.03148415  0.86202529  1
  S2-  S170  1  0.35353020  0.28202544  0.33873156  1
  S2-  S171  1  0.34494103  0.24082739  0.84203522  1
  S2-  S172  1  0.45603159  0.51385836  0.35960092  1
  S2-  S173  1  0.45269727  0.46503736  0.85257680  1
  S2-  S174  1  0.45702486  0.75031299  0.35749418  1
  S2-  S175  1  0.37523978  0.72415821  0.84673268  1
  S2-  S176  1  0.61759724  -0.07422783  0.35807276  1
  S2-  S177  1  0.72465995  0.02577577  0.86300621  1
  S2-  S178  1  0.59386589  0.34628854  0.35406496  1
  S2-  S179  1  0.61397172  0.30166944  0.85542378  1
  S2-  S180  1  0.71781127  0.52246913  0.35091760  1
  S2-  S181  1  0.61573929  0.61172585  0.85590342  1
  S2-  S182  1  0.68169996  0.72681079  0.31508358  1
  S2-  S183  1  0.59539898  0.85197318  0.86214407  1
  S2-  S184  1  0.96541181  -0.00579648  0.36278751  1
  S2-  S185  1  0.96343254  0.01203263  0.85373370  1
  S2-  S186  1  0.92182115  0.23386180  0.35348038  1
  S2-  S187  1  0.85244562  0.23130817  0.84676386  1
  S2-  S188  1  0.94357970  0.49659714  0.34042170  1
  S2-  S189  1  0.97289354  0.47735638  0.85845101  1
  S2-  S190  1  0.88812023  0.77143344  0.34654341  1
  S2-  S191  1  0.84796666  0.83299089  0.86185837  1
  S2-  S192  1  -0.01458973  0.12582132  0.46385185  1
  S2-  S193  1  -0.01538353  0.10707018  0.96137560  1
  S2-  S194  1  -0.01664596  0.37516231  0.45120204  1
  S2-  S195  1  -0.01917650  0.35600702  0.96035279  1
  S2-  S196  1  -0.01937128  0.62438764  0.44752303  1
  S2-  S197  1  -0.01662695  0.61219373  0.95852517  1
  S2-  S198  1  -0.01888962  0.87131004  0.46350158  1
  S2-  S199  1  -0.01721323  0.86122151  0.96478702  1
  S2-  S200  1  0.22907557  0.12226301  0.45210407  1
  S2-  S201  1  0.22563257  0.10577507  0.95744684  1
  S2-  S202  1  0.23199585  0.37355709  0.44762804  1
  S2-  S203  1  0.22889655  0.35397210  0.95275842  1
  S2-  S204  1  0.23625118  0.62534663  0.45613709  1
  S2-  S205  1  0.22881560  0.61628995  0.95092193  1
  S2-  S206  1  0.23531055  0.87448298  0.44858759  1
  S2-  S207  1  0.22827015  0.86280518  0.96249677  1
  S2-  S208  1  0.48360336  0.12111985  0.45180481  1
  S2-  S209  1  0.48850642  0.10751776  0.94582017  1
  S2-  S210  1  0.47802054  0.37076334  0.45740072  1
  S2-  S211  1  0.47891478  0.35474056  0.95374327  1
  S2-  S212  1  0.48244060  0.62526425  0.45780697  1
  S2-  S213  1  0.47416979  0.60779090  0.94930109  1
  S2-  S214  1  0.47931055  0.88026157  0.45275110  1
  S2-  S215  1  0.48045897  0.85999502  0.96275509  1
  S2-  S216  1  0.73475265  0.12007219  0.45754625  1
  S2-  S217  1  0.72901001  0.11240513  0.96489661  1
  S2-  S218  1  0.73602788  0.37116545  0.45014432  1
  S2-  S219  1  0.73419967  0.36314184  0.94902258  1
  S2-  S220  1  0.72953425  0.63178418  0.44846954  1
  S2-  S221  1  0.73723845  0.60423903  0.95518281  1
  S2-  S222  1  0.73996092  0.87797260  0.45427354  1
  S2-  S223  1  0.72867490  0.85563475  0.96408980  1
  S2-  S224  1  0.10612735  -0.01867845  0.05822568  1
  S2-  S225  1  0.10894765  0.00002801  0.53766227  1
  S2-  S226  1  0.10469451  0.23600048  0.04835149  1
  S2-  S227  1  0.11273609  0.25411589  0.54935141  1
  S2-  S228  1  0.10945599  0.48454662  0.03628326  1
  S2-  S229  1  0.11367613  0.49748729  0.54164850  1
  S2-  S230  1  0.10469648  0.73719861  0.05288881  1
  S2-  S231  1  0.10814995  0.75019149  0.55130763  1
  S2-  S232  1  0.35819134  -0.01473314  0.05504593  1
  S2-  S233  1  0.35864295  -0.00019320  0.54309100  1
  S2-  S234  1  0.35664959  0.23268081  0.04830633  1
  S2-  S235  1  0.35391213  0.25208781  0.54345451  1
  S2-  S236  1  0.35603375  0.48287876  0.04016558  1
  S2-  S237  1  0.35941980  0.49810872  0.54336033  1
  S2-  S238  1  0.35731888  0.73777222  0.05031355  1
  S2-  S239  1  0.35814763  0.75558964  0.53951183  1
  S2-  S240  1  0.60757222  -0.01293865  0.04073852  1
  S2-  S241  1  0.60938141  0.00153335  0.54941196  1
  S2-  S242  1  0.61064413  0.23630916  0.04779660  1
  S2-  S243  1  0.61049599  0.25012992  0.54163023  1
  S2-  S244  1  0.60328810  0.48177616  0.03074412  1
  S2-  S245  1  0.60842260  0.49419564  0.53416674  1
  S2-  S246  1  0.60365503  0.72998433  0.04039923  1
  S2-  S247  1  0.60938331  0.75479091  0.53072372  1
  S2-  S248  1  0.84946658  -0.01887636  0.04391028  1
  S2-  S249  1  0.85956424  0.00017950  0.54377749  1
  S2-  S250  1  0.85222384  0.24095495  0.05094806  1
  S2-  S251  1  0.86312833  0.25013453  0.54707015  1
  S2-  S252  1  0.86012225  0.48444260  0.03567175  1
  S2-  S253  1  0.85774647  0.50245958  0.53422181  1
  S2-  S254  1  0.85377251  0.72704635  0.05039112  1
  S2-  S255  1  0.85678004  0.74124288  0.54270475  1
