# generated using pymatgen
data_La6Ce7Pr13Nd19Sm19(BiS2)64
_symmetry_space_group_name_H-M   'P 1'
_cell_length_a   16.08769580
_cell_length_b   16.03657595
_cell_length_c   27.34934434
_cell_angle_alpha   89.90761539
_cell_angle_beta   90.02218885
_cell_angle_gamma   89.92607664
_symmetry_Int_Tables_number   1
_chemical_formula_structural   La6Ce7Pr13Nd19Sm19(BiS2)64
_chemical_formula_sum   'La6 Ce7 Pr13 Nd19 Sm19 Bi64 S128'
_cell_volume   7055.88431095
_cell_formula_units_Z   1
loop_
 _symmetry_equiv_pos_site_id
 _symmetry_equiv_pos_as_xyz
  1  'x, y, z'
loop_
 _atom_type_symbol
 _atom_type_oxidation_number
  La3+  3.0
  Ce3+  3.0
  Pr3+  3.0
  Nd3+  3.0
  Sm3+  3.0
  Bi2+  2.0
  S2-  -2.0
loop_
 _atom_site_type_symbol
 _atom_site_label
 _atom_site_symmetry_multiplicity
 _atom_site_fract_x
 _atom_site_fract_y
 _atom_site_fract_z
 _atom_site_occupancy
  La3+  La0  1  0.76558053  0.36104666  0.59209916  1
  La3+  La1  1  -0.00357029  0.13108592  0.55981497  1
  La3+  La2  1  0.76343372  0.63139208  0.59905350  1
  La3+  La3  1  0.36710849  0.24277893  0.38890203  1
  La3+  La4  1  -0.00326744  0.10387425  0.08034822  1
  La3+  La5  1  0.36475153  0.47969686  0.92386505  1
  Ce3+  Ce6  1  0.25464850  0.62531289  0.56519813  1
  Ce3+  Ce7  1  0.10659285  0.22905653  0.93287256  1
  Ce3+  Ce8  1  0.12972382  0.24903024  0.44086432  1
  Ce3+  Ce9  1  0.74712298  0.11748944  0.08372291  1
  Ce3+  Ce10  1  0.49202287  0.86164864  0.06347130  1
  Ce3+  Ce11  1  0.62056348  0.48159670  0.93303571  1
  Ce3+  Ce12  1  0.61526459  0.73684210  0.93276496  1
  Pr3+  Pr13  1  0.36426011  -0.01337593  0.93636660  1
  Pr3+  Pr14  1  0.11862936  -0.01800993  0.93274768  1
  Pr3+  Pr15  1  0.62979162  0.75153147  0.44381906  1
  Pr3+  Pr16  1  0.86961371  -0.01019643  0.94322928  1
  Pr3+  Pr17  1  0.24337851  0.10692493  0.07363504  1
  Pr3+  Pr18  1  0.48659745  0.37098750  0.06739221  1
  Pr3+  Pr19  1  -0.00004133  0.62675674  0.55746433  1
  Pr3+  Pr20  1  0.72942474  0.36765743  0.08134936  1
  Pr3+  Pr21  1  0.62425095  0.26497257  0.42676928  1
  Pr3+  Pr22  1  0.87857700  0.50162958  0.43758156  1
  Pr3+  Pr23  1  0.23877353  0.61067239  0.05941025  1
  Pr3+  Pr24  1  0.23904080  0.35920715  0.05841090  1
  Pr3+  Pr25  1  0.11138132  0.48415387  0.93061433  1
  Nd3+  Nd26  1  0.75230217  0.87876168  0.56356944  1
  Nd3+  Nd27  1  -0.01268663  0.61228230  0.06268261  1
  Nd3+  Nd28  1  -0.01936791  0.85443000  0.07040028  1
  Nd3+  Nd29  1  0.50508569  0.87751198  0.55351211  1
  Nd3+  Nd30  1  0.61477642  -0.01187064  0.94783575  1
  Nd3+  Nd31  1  0.73743169  0.85884410  0.06244231  1
  Nd3+  Nd32  1  0.50591578  0.37606472  0.56561843  1
  Nd3+  Nd33  1  0.25624927  0.87939779  0.55911048  1
  Nd3+  Nd34  1  0.86682909  0.74396115  0.93207950  1
  Nd3+  Nd35  1  0.00216869  0.87854132  0.55882669  1
  Nd3+  Nd36  1  0.13210069  0.50030633  0.44436490  1
  Nd3+  Nd37  1  0.36508229  0.23381835  0.94104853  1
  Nd3+  Nd38  1  0.13351011  0.75210151  0.44266160  1
  Nd3+  Nd39  1  0.87961679  -0.00390102  0.42922445  1
  Nd3+  Nd40  1  0.37960576  0.49790823  0.44198171  1
  Nd3+  Nd41  1  0.62518388  0.00748711  0.43631777  1
  Nd3+  Nd42  1  0.23832949  0.86219828  0.06330200  1
  Nd3+  Nd43  1  0.49052844  0.10786481  0.09041121  1
  Nd3+  Nd44  1  0.63568208  0.49993716  0.45472765  1
  Sm3+  Sm45  1  -0.00145211  0.37761541  0.54782708  1
  Sm3+  Sm46  1  0.50364473  0.13278739  0.55085447  1
  Sm3+  Sm47  1  0.36564374  0.73393104  0.94203945  1
  Sm3+  Sm48  1  0.86039583  0.23599517  0.95103322  1
  Sm3+  Sm49  1  0.50642270  0.62397830  0.56361887  1
  Sm3+  Sm50  1  0.37902300  0.00620454  0.44053743  1
  Sm3+  Sm51  1  0.75158868  0.12888965  0.54632303  1
  Sm3+  Sm52  1  0.13142796  0.00380670  0.44239729  1
  Sm3+  Sm53  1  0.25489628  0.12984795  0.55817012  1
  Sm3+  Sm54  1  0.87957539  0.75377181  0.43646494  1
  Sm3+  Sm55  1  0.48903611  0.61079578  0.05347785  1
  Sm3+  Sm56  1  0.61567154  0.23627429  0.95433555  1
  Sm3+  Sm57  1  0.37971812  0.75022075  0.44711256  1
  Sm3+  Sm58  1  0.11592537  0.73302143  0.93678521  1
  Sm3+  Sm59  1  0.86040678  0.48764329  0.94536341  1
  Sm3+  Sm60  1  0.25453949  0.37587892  0.55936787  1
  Sm3+  Sm61  1  0.87792340  0.24492102  0.42108680  1
  Sm3+  Sm62  1  -0.01121379  0.35967236  0.05641196  1
  Sm3+  Sm63  1  0.73577410  0.61006623  0.06035283  1
  Bi2+  Bi64  1  -0.00281633  0.15162470  0.30038344  1
  Bi2+  Bi65  1  0.07692628  0.17213239  0.77813957  1
  Bi2+  Bi66  1  0.05139872  0.40020724  0.24515207  1
  Bi2+  Bi67  1  -0.00111825  0.37060937  0.77353274  1
  Bi2+  Bi68  1  -0.06288783  0.64553505  0.29926574  1
  Bi2+  Bi69  1  0.00138050  0.61688200  0.77946509  1
  Bi2+  Bi70  1  -0.01075155  0.82597364  0.27841840  1
  Bi2+  Bi71  1  0.00539658  0.95112967  0.80231217  1
  Bi2+  Bi72  1  0.22693852  0.10338035  0.29393777  1
  Bi2+  Bi73  1  0.27422387  0.17800485  0.77095389  1
  Bi2+  Bi74  1  0.23543851  0.40827938  0.28947541  1
  Bi2+  Bi75  1  0.23296039  0.41760558  0.79882177  1
  Bi2+  Bi76  1  0.23847157  0.64883540  0.29691141  1
  Bi2+  Bi77  1  0.24825388  0.66249136  0.79603002  1
  Bi2+  Bi78  1  0.24923437  0.84776581  0.29303935  1
  Bi2+  Bi79  1  0.27825847  0.90539723  0.78536632  1
  Bi2+  Bi80  1  0.51400528  0.10279434  0.28318060  1
  Bi2+  Bi81  1  0.43314458  0.10460954  0.82338827  1
  Bi2+  Bi82  1  0.51225491  0.39349800  0.29494251  1
  Bi2+  Bi83  1  0.49498271  0.36564540  0.80157246  1
  Bi2+  Bi84  1  0.44129379  0.63162524  0.27560341  1
  Bi2+  Bi85  1  0.50511106  0.72489295  0.75622608  1
  Bi2+  Bi86  1  0.52301349  0.82327486  0.26462405  1
  Bi2+  Bi87  1  0.49494069  0.91997088  0.79778491  1
  Bi2+  Bi88  1  0.73855741  0.03668771  0.27168560  1
  Bi2+  Bi89  1  0.81361881  0.11594806  0.78459383  1
  Bi2+  Bi90  1  0.75319422  0.44416996  0.28483400  1
  Bi2+  Bi91  1  0.74989938  0.34267129  0.80164671  1
  Bi2+  Bi92  1  0.72528103  0.63976630  0.28685135  1
  Bi2+  Bi93  1  0.73346572  0.60808336  0.80462577  1
  Bi2+  Bi94  1  0.74561030  0.84045663  0.29328977  1
  Bi2+  Bi95  1  0.75965892  0.91414928  0.78913542  1
  Bi2+  Bi96  1  0.13509071  0.00469060  0.21483955  1
  Bi2+  Bi97  1  0.16515548  0.02738056  0.70424393  1
  Bi2+  Bi98  1  0.17193954  0.25219366  0.22063632  1
  Bi2+  Bi99  1  0.15197570  0.30697556  0.70234116  1
  Bi2+  Bi100  1  0.05044991  0.58837393  0.20371448  1
  Bi2+  Bi101  1  0.11897945  0.50382336  0.71651694  1
  Bi2+  Bi102  1  0.22084038  0.74593248  0.19403245  1
  Bi2+  Bi103  1  0.09883234  0.78778457  0.76271411  1
  Bi2+  Bi104  1  0.37391230  -0.06892136  0.21847986  1
  Bi2+  Bi105  1  0.42444847  0.03204576  0.70479194  1
  Bi2+  Bi106  1  0.42861796  0.27087520  0.18786577  1
  Bi2+  Bi107  1  0.44995224  0.23761632  0.72202219  1
  Bi2+  Bi108  1  0.34514792  0.50011177  0.20933227  1
  Bi2+  Bi109  1  0.36454457  0.52459645  0.69548387  1
  Bi2+  Bi110  1  0.41602801  0.74503895  0.17504999  1
  Bi2+  Bi111  1  0.35449435  0.79632343  0.70064852  1
  Bi2+  Bi112  1  0.65225844  -0.08666616  0.19299032  1
  Bi2+  Bi113  1  0.71157000  0.03658696  0.68914994  1
  Bi2+  Bi114  1  0.65511611  0.27664296  0.23061893  1
  Bi2+  Bi115  1  0.61563031  0.15217986  0.77141478  1
  Bi2+  Bi116  1  0.59927062  0.55906077  0.20762150  1
  Bi2+  Bi117  1  0.59443130  0.48161171  0.72562771  1
  Bi2+  Bi118  1  0.61573150  0.72974719  0.14989234  1
  Bi2+  Bi119  1  0.63099294  0.85521677  0.70893884  1
  Bi2+  Bi120  1  0.89951688  -0.03445072  0.22007706  1
  Bi2+  Bi121  1  0.90408155  -0.01582138  0.70452715  1
  Bi2+  Bi122  1  0.89450623  0.23253376  0.21914817  1
  Bi2+  Bi123  1  0.90711731  0.22750644  0.70100751  1
  Bi2+  Bi124  1  0.87967758  0.48465725  0.19977530  1
  Bi2+  Bi125  1  0.85660749  0.48201391  0.70762565  1
  Bi2+  Bi126  1  0.84834194  0.70750799  0.19949559  1
  Bi2+  Bi127  1  0.89519479  0.75208623  0.71364370  1
  S2-  S128  1  0.12428673  0.14319873  0.15092815  1
  S2-  S129  1  0.02110840  0.10575026  0.65783900  1
  S2-  S130  1  -0.01267240  0.34082445  0.15439193  1
  S2-  S131  1  -0.07107074  0.36690233  0.63709940  1
  S2-  S132  1  -0.00649690  0.71988328  0.14116143  1
  S2-  S133  1  -0.07682755  0.61666479  0.64741810  1
  S2-  S134  1  0.02462878  0.95119591  0.14919111  1
  S2-  S135  1  -0.01655622  0.84749787  0.65584945  1
  S2-  S136  1  0.35682015  0.14013551  0.15220614  1
  S2-  S137  1  0.27349394  0.11432323  0.65538081  1
  S2-  S138  1  0.28228963  0.35389520  0.15620394  1
  S2-  S139  1  0.28358164  0.38946709  0.65589512  1
  S2-  S140  1  0.20955161  0.57383719  0.15631826  1
  S2-  S141  1  0.24148538  0.61836608  0.66321924  1
  S2-  S142  1  0.25087217  0.96283810  0.14504003  1
  S2-  S143  1  0.22550271  0.87963320  0.65623403  1
  S2-  S144  1  0.56517152  0.14651347  0.18567189  1
  S2-  S145  1  0.52143522  0.13525417  0.64834747  1
  S2-  S146  1  0.57907444  0.35366407  0.15409361  1
  S2-  S147  1  0.49602105  0.40469533  0.66441406  1
  S2-  S148  1  0.46747716  0.52187161  0.13765388  1
  S2-  S149  1  0.48768424  0.63582119  0.66080303  1
  S2-  S150  1  0.49356901  0.95657523  0.14559250  1
  S2-  S151  1  0.48098698  0.88937253  0.65056106  1
  S2-  S152  1  0.87293011  0.09834343  0.15528282  1
  S2-  S153  1  0.78254062  0.19306921  0.63485404  1
  S2-  S154  1  0.76005189  0.25379296  0.15712763  1
  S2-  S155  1  0.71871388  0.37813235  0.69268496  1
  S2-  S156  1  0.73794521  0.51201420  0.14403995  1
  S2-  S157  1  0.72230289  0.59100586  0.69715188  1
  S2-  S158  1  0.82734803  0.85765948  0.14845602  1
  S2-  S159  1  0.76136291  0.78777047  0.64842998  1
  S2-  S160  1  0.10483972  0.02309155  0.34585501  1
  S2-  S161  1  0.04854135  0.10142426  0.86697676  1
  S2-  S162  1  0.20086611  0.25527065  0.35223153  1
  S2-  S163  1  0.10701406  0.35739862  0.85647360  1
  S2-  S164  1  0.15304086  0.52195914  0.34699654  1
  S2-  S165  1  0.11399413  0.61324520  0.86054707  1
  S2-  S166  1  0.11109815  0.77568107  0.34592635  1
  S2-  S167  1  0.10065336  0.84442360  0.86102931  1
  S2-  S168  1  0.37635027  0.07080784  0.34982667  1
  S2-  S169  1  0.25144862  0.00444075  0.85933868  1
  S2-  S170  1  0.41291981  0.24627657  0.28540972  1
  S2-  S171  1  0.36320538  0.33673340  0.85792623  1
  S2-  S172  1  0.38140325  0.41605530  0.35469967  1
  S2-  S173  1  0.35101844  0.54709675  0.82749847  1
  S2-  S174  1  0.36501395  0.74448191  0.35062685  1
  S2-  S175  1  0.34502171  0.77032463  0.84723374  1
  S2-  S176  1  0.60584252  -0.00625943  0.33862709  1
  S2-  S177  1  0.63158280  -0.01631438  0.84829003  1
  S2-  S178  1  0.61366298  0.21698713  0.32942871  1
  S2-  S179  1  0.61741968  0.26654208  0.85560058  1
  S2-  S180  1  0.61889281  0.43981876  0.36082036  1
  S2-  S181  1  0.59229382  0.50329809  0.83562758  1
  S2-  S182  1  0.61564298  0.74612288  0.34444309  1
  S2-  S183  1  0.62341553  0.73190611  0.83508193  1
  S2-  S184  1  0.86034048  0.08374769  0.34409195  1
  S2-  S185  1  0.87670709  -0.11516058  0.86118102  1
  S2-  S186  1  0.89414825  0.27807568  0.32378025  1
  S2-  S187  1  0.85206469  0.24792077  0.85119493  1
  S2-  S188  1  0.89190394  0.49332941  0.33761360  1
  S2-  S189  1  0.80888531  0.47023975  0.85102259  1
  S2-  S190  1  0.87903755  0.86162220  0.35976931  1
  S2-  S191  1  0.86480023  0.67743475  0.83884780  1
  S2-  S192  1  0.00258039  0.12439623  0.45149546  1
  S2-  S193  1  -0.01839884  0.11644836  0.97226032  1
  S2-  S194  1  0.00500873  0.37441332  0.44320531  1
  S2-  S195  1  -0.01859033  0.36215058  0.95332826  1
  S2-  S196  1  0.00565027  0.62974336  0.45058939  1
  S2-  S197  1  -0.01636885  0.61051026  0.95671440  1
  S2-  S198  1  0.00970694  0.87830513  0.45461770  1
  S2-  S199  1  -0.00938970  0.85926255  0.96459316  1
  S2-  S200  1  0.25618853  0.12775074  0.45418880  1
  S2-  S201  1  0.23978086  0.11615358  0.96036594  1
  S2-  S202  1  0.25543569  0.37329420  0.45584899  1
  S2-  S203  1  0.23487407  0.35775233  0.95432561  1
  S2-  S204  1  0.25635865  0.62602952  0.45780704  1
  S2-  S205  1  0.24312745  0.61036788  0.95334313  1
  S2-  S206  1  0.25752850  0.87962563  0.45247501  1
  S2-  S207  1  0.24394468  0.85451545  0.95860510  1
  S2-  S208  1  0.49880859  0.13610576  0.44685422  1
  S2-  S209  1  0.49205382  0.11312319  0.95545582  1
  S2-  S210  1  0.50392836  0.38008296  0.46150481  1
  S2-  S211  1  0.49363998  0.36077669  0.95915651  1
  S2-  S212  1  0.50434751  0.62410630  0.45605327  1
  S2-  S213  1  0.49013492  0.60983992  0.94756874  1
  S2-  S214  1  0.50036059  0.87815326  0.44781232  1
  S2-  S215  1  0.48975117  0.86007221  0.95312557  1
  S2-  S216  1  0.74868240  0.13116747  0.44376138  1
  S2-  S217  1  0.73975862  0.11182152  0.95857296  1
  S2-  S218  1  0.76079604  0.37235089  0.44522697  1
  S2-  S219  1  0.73967366  0.36101533  0.96538878  1
  S2-  S220  1  0.75622387  0.62941015  0.44405094  1
  S2-  S221  1  0.73923378  0.61254513  0.95419735  1
  S2-  S222  1  0.74934240  0.88040881  0.45650019  1
  S2-  S223  1  0.73750374  0.86217482  0.95590644  1
  S2-  S224  1  0.11857256  -0.01671186  0.04122485  1
  S2-  S225  1  0.12967701  0.00431468  0.54717501  1
  S2-  S226  1  0.11294929  0.24002488  0.04303577  1
  S2-  S227  1  0.12759928  0.25467523  0.54860423  1
  S2-  S228  1  0.11088662  0.48609566  0.04345146  1
  S2-  S229  1  0.12609887  0.49867895  0.55105276  1
  S2-  S230  1  0.11628813  0.73645094  0.04246452  1
  S2-  S231  1  0.12877475  0.75297325  0.54993821  1
  S2-  S232  1  0.37102859  -0.01421300  0.04231280  1
  S2-  S233  1  0.38050479  0.00597519  0.54524895  1
  S2-  S234  1  0.37006834  0.23725957  0.04533608  1
  S2-  S235  1  0.37839719  0.25295154  0.55575254  1
  S2-  S236  1  0.36060266  0.48772669  0.03496283  1
  S2-  S237  1  0.38022722  0.50153414  0.54864824  1
  S2-  S238  1  0.36543580  0.73525436  0.04657369  1
  S2-  S239  1  0.38145861  0.75010836  0.55110810  1
  S2-  S240  1  0.62164288  -0.00720553  0.05232054  1
  S2-  S241  1  0.62726987  0.00498432  0.54334083  1
  S2-  S242  1  0.61322983  0.23088263  0.05536893  1
  S2-  S243  1  0.63097489  0.25536627  0.54184690  1
  S2-  S244  1  0.61316648  0.49103776  0.03993628  1
  S2-  S245  1  0.63697486  0.50208354  0.56123060  1
  S2-  S246  1  0.61298007  0.73361124  0.03720619  1
  S2-  S247  1  0.62877580  0.74704552  0.55062735  1
  S2-  S248  1  0.85978312  -0.01492780  0.04815858  1
  S2-  S249  1  0.87487699  0.00197591  0.54230110  1
  S2-  S250  1  0.86388956  0.24148268  0.05278042  1
  S2-  S251  1  0.87700493  0.25368936  0.52883510  1
  S2-  S252  1  0.86519814  0.48622234  0.04843388  1
  S2-  S253  1  0.87151897  0.50141702  0.54373151  1
  S2-  S254  1  0.85754783  0.72990255  0.04014960  1
  S2-  S255  1  0.87649847  0.75338683  0.54044652  1
