# generated using pymatgen
data_La6Ce7Pr13Nd19Sm19(BiS2)64
_symmetry_space_group_name_H-M   'P 1'
_cell_length_a   15.99862463
_cell_length_b   16.06410900
_cell_length_c   27.40950313
_cell_angle_alpha   89.88042964
_cell_angle_beta   90.05910088
_cell_angle_gamma   89.96148303
_symmetry_Int_Tables_number   1
_chemical_formula_structural   La6Ce7Pr13Nd19Sm19(BiS2)64
_chemical_formula_sum   'La6 Ce7 Pr13 Nd19 Sm19 Bi64 S128'
_cell_volume   7044.32165323
_cell_formula_units_Z   1
loop_
 _symmetry_equiv_pos_site_id
 _symmetry_equiv_pos_as_xyz
  1  'x, y, z'
loop_
 _atom_type_symbol
 _atom_type_oxidation_number
  La3+  3.0
  Ce3+  3.0
  Pr3+  3.0
  Nd3+  3.0
  Sm3+  3.0
  Bi2+  2.0
  S2-  -2.0
loop_
 _atom_site_type_symbol
 _atom_site_label
 _atom_site_symmetry_multiplicity
 _atom_site_fract_x
 _atom_site_fract_y
 _atom_site_fract_z
 _atom_site_occupancy
  La3+  La0  1  0.49530039  0.35930038  0.11791506  1
  La3+  La1  1  -0.00895927  0.86433666  0.06350782  1
  La3+  La2  1  0.24646208  0.11692811  0.07332352  1
  La3+  La3  1  0.86520294  0.75105573  0.89412504  1
  La3+  La4  1  0.50719270  0.35761000  0.56906108  1
  La3+  La5  1  0.37396831  -0.01925012  0.39341497  1
  Ce3+  Ce6  1  0.25416779  0.87132068  0.56542945  1
  Ce3+  Ce7  1  0.86753314  0.48902139  0.93206630  1
  Ce3+  Ce8  1  0.61493701  0.74221958  0.93399629  1
  Ce3+  Ce9  1  0.50745401  0.61770579  0.55787903  1
  Ce3+  Ce10  1  0.63868562  0.25137421  0.42143712  1
  Ce3+  Ce11  1  0.50519177  0.11653789  0.54714409  1
  Ce3+  Ce12  1  -0.00752878  0.37085615  0.06380241  1
  Pr3+  Pr13  1  0.86518458  -0.00619506  0.92541857  1
  Pr3+  Pr14  1  0.49281952  0.61934229  0.07200835  1
  Pr3+  Pr15  1  0.88498275  0.49334596  0.44776538  1
  Pr3+  Pr16  1  0.11538465  0.49137469  0.92551140  1
  Pr3+  Pr17  1  0.76192112  0.87293050  0.57867104  1
  Pr3+  Pr18  1  0.63080395  -0.00999861  0.43400076  1
  Pr3+  Pr19  1  0.88529087  0.74419331  0.45136808  1
  Pr3+  Pr20  1  0.75317581  0.36327884  0.56480301  1
  Pr3+  Pr21  1  0.37178057  0.74480363  0.93703550  1
  Pr3+  Pr22  1  0.63299499  0.74613816  0.43679487  1
  Pr3+  Pr23  1  0.37807844  0.49007102  0.43522265  1
  Pr3+  Pr24  1  0.74443252  0.36871473  0.07070126  1
  Pr3+  Pr25  1  -0.00570598  0.61833877  0.04751329  1
  Nd3+  Nd26  1  0.12889014  0.49029441  0.44516919  1
  Nd3+  Nd27  1  0.75472733  0.61718872  0.56662746  1
  Nd3+  Nd28  1  0.00800949  0.61335227  0.57825054  1
  Nd3+  Nd29  1  0.13151218  0.24536751  0.92937846  1
  Nd3+  Nd30  1  0.12070696  0.74232078  0.92391044  1
  Nd3+  Nd31  1  0.38672449  0.24112843  0.42298743  1
  Nd3+  Nd32  1  0.37607028  0.24517976  0.94380690  1
  Nd3+  Nd33  1  0.26136896  0.36180287  0.56544750  1
  Nd3+  Nd34  1  0.37722113  0.74653638  0.44324361  1
  Nd3+  Nd35  1  0.37261731  -0.00469009  0.93641579  1
  Nd3+  Nd36  1  0.63201153  0.49912571  0.43437183  1
  Nd3+  Nd37  1  0.61724326  0.24794134  0.94325377  1
  Nd3+  Nd38  1  0.24469774  0.36546133  0.06938657  1
  Nd3+  Nd39  1  0.49934266  0.11071333  0.06738158  1
  Nd3+  Nd40  1  0.88575148  -0.00998934  0.44184632  1
  Nd3+  Nd41  1  0.01039370  0.11968562  0.56212470  1
  Nd3+  Nd42  1  0.01161491  0.36474556  0.59517048  1
  Nd3+  Nd43  1  0.75701320  0.11862494  0.55559972  1
  Nd3+  Nd44  1  0.25725960  0.61173135  0.56003685  1
  Sm3+  Sm45  1  0.13310047  0.24087067  0.43682128  1
  Sm3+  Sm46  1  0.01140521  0.86152450  0.58310119  1
  Sm3+  Sm47  1  0.23974676  0.86838211  0.06959647  1
  Sm3+  Sm48  1  0.62006795  -0.00802044  0.93600258  1
  Sm3+  Sm49  1  0.61689910  0.49356057  0.94935854  1
  Sm3+  Sm50  1  0.12702696  -0.01049668  0.43284549  1
  Sm3+  Sm51  1  0.24102641  0.62009096  0.05293470  1
  Sm3+  Sm52  1  0.49443107  0.86843404  0.06380849  1
  Sm3+  Sm53  1  0.50569702  0.86743787  0.55824930  1
  Sm3+  Sm54  1  -0.00501156  0.11930414  0.04601648  1
  Sm3+  Sm55  1  0.25850661  0.11677568  0.54592254  1
  Sm3+  Sm56  1  0.74589751  0.11702217  0.05711607  1
  Sm3+  Sm57  1  0.37034005  0.49072999  0.94984571  1
  Sm3+  Sm58  1  0.74457092  0.61855643  0.04982715  1
  Sm3+  Sm59  1  0.74849722  0.86551380  0.05684697  1
  Sm3+  Sm60  1  0.12134389  -0.00973562  0.94364428  1
  Sm3+  Sm61  1  0.87959896  0.24273565  0.43846671  1
  Sm3+  Sm62  1  0.13051161  0.74513343  0.44890443  1
  Sm3+  Sm63  1  0.87031804  0.24451228  0.94218421  1
  Bi2+  Bi64  1  -0.03192141  0.11801974  0.30740999  1
  Bi2+  Bi65  1  0.03277582  0.15101226  0.79854699  1
  Bi2+  Bi66  1  -0.01399047  0.41034398  0.28454781  1
  Bi2+  Bi67  1  0.01693117  0.35481998  0.77878351  1
  Bi2+  Bi68  1  0.01299239  0.65796338  0.30861541  1
  Bi2+  Bi69  1  0.01900262  0.61139116  0.78774761  1
  Bi2+  Bi70  1  0.02459022  0.85044429  0.28202423  1
  Bi2+  Bi71  1  0.03041848  0.88241170  0.77454956  1
  Bi2+  Bi72  1  0.20429347  0.08840006  0.28446517  1
  Bi2+  Bi73  1  0.23979085  0.07745002  0.80599591  1
  Bi2+  Bi74  1  0.24964097  0.46866064  0.29933022  1
  Bi2+  Bi75  1  0.28195253  0.34690291  0.79542358  1
  Bi2+  Bi76  1  0.27907048  0.69522584  0.24884475  1
  Bi2+  Bi77  1  0.27247744  0.70677892  0.80173689  1
  Bi2+  Bi78  1  0.31298454  0.87490672  0.21749294  1
  Bi2+  Bi79  1  0.31163037  0.89534090  0.81947781  1
  Bi2+  Bi80  1  0.56050545  0.07558880  0.30840997  1
  Bi2+  Bi81  1  0.47531230  0.14095082  0.78923226  1
  Bi2+  Bi82  1  0.48136945  0.39640951  0.31864814  1
  Bi2+  Bi83  1  0.49113487  0.38930111  0.79676707  1
  Bi2+  Bi84  1  0.56943892  0.67915869  0.26544183  1
  Bi2+  Bi85  1  0.45651608  0.64377826  0.77981578  1
  Bi2+  Bi86  1  0.50042071  0.87198401  0.28993029  1
  Bi2+  Bi87  1  0.49832967  0.91913807  0.77580389  1
  Bi2+  Bi88  1  0.75995150  0.10223900  0.29356513  1
  Bi2+  Bi89  1  0.83729049  0.17051078  0.77746822  1
  Bi2+  Bi90  1  0.76965042  0.37369800  0.28747774  1
  Bi2+  Bi91  1  0.68483260  0.34242334  0.79323780  1
  Bi2+  Bi92  1  0.77179700  0.62320252  0.29540069  1
  Bi2+  Bi93  1  0.68110969  0.63240457  0.79835483  1
  Bi2+  Bi94  1  0.77615889  0.91023198  0.30137873  1
  Bi2+  Bi95  1  0.74559735  0.91456387  0.78639048  1
  Bi2+  Bi96  1  0.05668563  0.00956321  0.22120104  1
  Bi2+  Bi97  1  0.12493996  0.02052418  0.71243020  1
  Bi2+  Bi98  1  0.09814292  0.26727725  0.23286971  1
  Bi2+  Bi99  1  0.14208719  0.22724234  0.71019201  1
  Bi2+  Bi100  1  0.09125626  0.44010828  0.18170370  1
  Bi2+  Bi101  1  0.13185038  0.49080305  0.71676392  1
  Bi2+  Bi102  1  0.10405420  0.70561902  0.19467716  1
  Bi2+  Bi103  1  0.15785607  0.75008037  0.70825278  1
  Bi2+  Bi104  1  0.40471474  0.05366677  0.20229967  1
  Bi2+  Bi105  1  0.36049279  0.03989040  0.71104947  1
  Bi2+  Bi106  1  0.32164975  0.27807752  0.22781972  1
  Bi2+  Bi107  1  0.38549661  0.24482640  0.70308328  1
  Bi2+  Bi108  1  0.36284454  0.53128752  0.21526344  1
  Bi2+  Bi109  1  0.37208256  0.51858001  0.70715487  1
  Bi2+  Bi110  1  0.46237199  0.76025774  0.17850012  1
  Bi2+  Bi111  1  0.34147353  0.83309163  0.70581762  1
  Bi2+  Bi112  1  0.63286287  -0.03757651  0.21912433  1
  Bi2+  Bi113  1  0.63732299  0.06303308  0.74036964  1
  Bi2+  Bi114  1  0.61776945  0.22449823  0.21842791  1
  Bi2+  Bi115  1  0.65869563  0.23664988  0.68618381  1
  Bi2+  Bi116  1  0.65788636  0.51953222  0.21483452  1
  Bi2+  Bi117  1  0.66748583  0.50600365  0.71330171  1
  Bi2+  Bi118  1  0.67022978  0.77400384  0.18194159  1
  Bi2+  Bi119  1  0.58326745  0.73795492  0.70611760  1
  Bi2+  Bi120  1  0.86513304  0.04036985  0.18722402  1
  Bi2+  Bi121  1  0.92426593  0.02812064  0.71821645  1
  Bi2+  Bi122  1  0.89423149  0.25314560  0.23033223  1
  Bi2+  Bi123  1  0.85132462  0.29494551  0.68280122  1
  Bi2+  Bi124  1  0.91633925  0.51246427  0.19333721  1
  Bi2+  Bi125  1  0.84429982  0.44447914  0.75300901  1
  Bi2+  Bi126  1  0.85766357  0.79623239  0.22378393  1
  Bi2+  Bi127  1  0.85424533  0.75003835  0.70346226  1
  S2-  S128  1  0.00390196  0.11053168  0.14319319  1
  S2-  S129  1  0.00109708  0.21311018  0.64624461  1
  S2-  S130  1  -0.11878580  0.36544328  0.14027058  1
  S2-  S131  1  0.00195387  0.50189260  0.65815888  1
  S2-  S132  1  -0.03448421  0.65649924  0.14491168  1
  S2-  S133  1  0.00816530  0.72479720  0.65702353  1
  S2-  S134  1  0.11139842  0.84015265  0.13806439  1
  S2-  S135  1  -0.10589652  0.90013780  0.65251354  1
  S2-  S136  1  0.22840972  0.21009904  0.16237809  1
  S2-  S137  1  0.26450532  0.14949275  0.64323518  1
  S2-  S138  1  0.32964794  0.38837502  0.15681936  1
  S2-  S139  1  0.16408636  0.36403801  0.64944270  1
  S2-  S140  1  0.24822953  0.62384892  0.15127424  1
  S2-  S141  1  0.23990313  0.60597879  0.65942594  1
  S2-  S142  1  0.27153490  0.98641052  0.14373117  1
  S2-  S143  1  0.14908846  0.89050625  0.64368043  1
  S2-  S144  1  0.48060874  0.18883036  0.15657065  1
  S2-  S145  1  0.50811695  0.20125598  0.63184651  1
  S2-  S146  1  0.49505699  0.33685288  0.23049099  1
  S2-  S147  1  0.38239737  0.38499943  0.64272038  1
  S2-  S148  1  0.50329329  0.52637541  0.15787193  1
  S2-  S149  1  0.48999478  0.60759505  0.65474679  1
  S2-  S150  1  0.51216354  0.97973331  0.14031256  1
  S2-  S151  1  0.49605715  0.86237137  0.65681233  1
  S2-  S152  1  0.72837429  0.12665409  0.15458910  1
  S2-  S153  1  0.73497939  0.08317763  0.65170423  1
  S2-  S154  1  0.65879378  0.35698815  0.15963944  1
  S2-  S155  1  0.63393278  0.39055707  0.63987719  1
  S2-  S156  1  0.73210850  0.61311847  0.14932009  1
  S2-  S157  1  0.78537453  0.61317421  0.66409473  1
  S2-  S158  1  0.86000851  0.88204677  0.13545964  1
  S2-  S159  1  0.70888316  0.82861965  0.67449976  1
  S2-  S160  1  0.21404756  -0.02935946  0.34766755  1
  S2-  S161  1  0.13563138  -0.05791253  0.84937576  1
  S2-  S162  1  0.11264018  0.21220810  0.33985910  1
  S2-  S163  1  0.13593983  0.36661240  0.85345943  1
  S2-  S164  1  0.10602789  0.52019381  0.34772610  1
  S2-  S165  1  0.15204197  0.59902532  0.84674621  1
  S2-  S166  1  0.12690661  0.75390583  0.35074781  1
  S2-  S167  1  0.02140518  0.75067927  0.84149502  1
  S2-  S168  1  0.38027585  0.08364636  0.30612748  1
  S2-  S169  1  0.49502443  0.00057477  0.86175713  1
  S2-  S170  1  0.32076664  0.32211368  0.33833863  1
  S2-  S171  1  0.27240964  0.21735295  0.86229037  1
  S2-  S172  1  0.38791533  0.54854867  0.33990217  1
  S2-  S173  1  0.36556455  0.46386245  0.85047474  1
  S2-  S174  1  0.38440865  0.81704219  0.35270312  1
  S2-  S175  1  0.48958030  0.73134692  0.86254471  1
  S2-  S176  1  0.64466592  -0.13342862  0.36071660  1
  S2-  S177  1  0.72528921  0.02268893  0.85656656  1
  S2-  S178  1  0.51813097  0.23304047  0.35202673  1
  S2-  S179  1  0.50285677  0.25078383  0.86538472  1
  S2-  S180  1  0.64035560  0.40012762  0.35214101  1
  S2-  S181  1  0.61422504  0.48549969  0.85017951  1
  S2-  S182  1  0.63945083  0.62689274  0.35971655  1
  S2-  S183  1  0.69777821  0.78214051  0.84874603  1
  S2-  S184  1  0.99186591  -0.02801304  0.36315004  1
  S2-  S185  1  0.89084637  -0.09485918  0.83867095  1
  S2-  S186  1  0.78093956  0.24541855  0.35702978  1
  S2-  S187  1  0.81688079  0.28772425  0.85281984  1
  S2-  S188  1  0.85708335  0.49260249  0.34809194  1
  S2-  S189  1  0.94987365  0.48309886  0.84609748  1
  S2-  S190  1  0.86743685  0.73130891  0.35202658  1
  S2-  S191  1  0.84535418  0.66793589  0.79907890  1
  S2-  S192  1  0.00665804  0.12153709  0.45650311  1
  S2-  S193  1  -0.00238756  0.12029968  0.94154749  1
  S2-  S194  1  0.00641001  0.36174411  0.44286668  1
  S2-  S195  1  -0.00573691  0.36429927  0.95550935  1
  S2-  S196  1  0.00977636  0.61873356  0.46557982  1
  S2-  S197  1  -0.01201602  0.62083118  0.94292820  1
  S2-  S198  1  0.01044934  0.86621296  0.46969539  1
  S2-  S199  1  -0.00443296  0.86923550  0.95147912  1
  S2-  S200  1  0.25721886  0.11537595  0.44163041  1
  S2-  S201  1  0.24526881  0.11417875  0.96292727  1
  S2-  S202  1  0.25247246  0.36566504  0.45474031  1
  S2-  S203  1  0.24781053  0.36918252  0.96216886  1
  S2-  S204  1  0.25301562  0.61892632  0.45301450  1
  S2-  S205  1  0.24854134  0.61787085  0.95069840  1
  S2-  S206  1  0.25322357  0.87088675  0.45882097  1
  S2-  S207  1  0.24634218  0.86825380  0.95771096  1
  S2-  S208  1  0.49374916  0.10053563  0.44449274  1
  S2-  S209  1  0.49803436  0.11584819  0.96264169  1
  S2-  S210  1  0.50574944  0.37021894  0.45503498  1
  S2-  S211  1  0.49524659  0.37411651  0.96072588  1
  S2-  S212  1  0.50142310  0.62218808  0.45364838  1
  S2-  S213  1  0.49213263  0.61452202  0.96422765  1
  S2-  S214  1  0.49977694  0.87129797  0.45560898  1
  S2-  S215  1  0.49566889  0.87018788  0.96082116  1
  S2-  S216  1  0.75919516  0.11174769  0.44982644  1
  S2-  S217  1  0.74379687  0.12528580  0.95427597  1
  S2-  S218  1  0.76108130  0.37106619  0.45913429  1
  S2-  S219  1  0.74204059  0.36937485  0.95956569  1
  S2-  S220  1  0.75995478  0.61980386  0.46117237  1
  S2-  S221  1  0.74476755  0.61770369  0.94509311  1
  S2-  S222  1  0.76065045  0.86937096  0.46591013  1
  S2-  S223  1  0.74516195  0.86718189  0.95419966  1
  S2-  S224  1  0.11760837  -0.00557400  0.04569635  1
  S2-  S225  1  0.13113086  -0.00226549  0.54084844  1
  S2-  S226  1  0.11697784  0.24506782  0.04360849  1
  S2-  S227  1  0.13344226  0.24250912  0.54095442  1
  S2-  S228  1  0.12139572  0.49297362  0.03976617  1
  S2-  S229  1  0.13163327  0.48713852  0.54934702  1
  S2-  S230  1  0.12158925  0.74148409  0.03214833  1
  S2-  S231  1  0.13378414  0.73729400  0.55221625  1
  S2-  S232  1  0.37089451  -0.01223207  0.04082137  1
  S2-  S233  1  0.38079009  -0.00807081  0.55699174  1
  S2-  S234  1  0.37258727  0.24432798  0.05139730  1
  S2-  S235  1  0.37919507  0.23869280  0.53086194  1
  S2-  S236  1  0.36498813  0.49786224  0.05182825  1
  S2-  S237  1  0.38306026  0.49349568  0.54172356  1
  S2-  S238  1  0.36606844  0.74685083  0.04766309  1
  S2-  S239  1  0.37860200  0.74328959  0.55059704  1
  S2-  S240  1  0.62749006  -0.01062929  0.04080344  1
  S2-  S241  1  0.63111317  -0.01017730  0.54505607  1
  S2-  S242  1  0.62073262  0.24113884  0.04853538  1
  S2-  S243  1  0.63410313  0.23778469  0.53078698  1
  S2-  S244  1  0.61911803  0.49458471  0.05164567  1
  S2-  S245  1  0.63165797  0.49583146  0.54111739  1
  S2-  S246  1  0.61979177  0.74465170  0.04412787  1
  S2-  S247  1  0.63257505  0.74555914  0.54852415  1
  S2-  S248  1  0.86914864  -0.00143023  0.03373562  1
  S2-  S249  1  0.88535588  -0.00308860  0.54652282  1
  S2-  S250  1  0.86877132  0.23956895  0.04426063  1
  S2-  S251  1  0.88339837  0.24414137  0.54162014  1
  S2-  S252  1  0.86696543  0.49476334  0.03859530  1
  S2-  S253  1  0.88144418  0.48801182  0.55393872  1
  S2-  S254  1  0.86482406  0.73962090  0.03959137  1
  S2-  S255  1  0.88122175  0.74202089  0.55620681  1
