# generated using pymatgen
data_La6Ce7Pr13Nd19Sm19(BiS2)64
_symmetry_space_group_name_H-M   'P 1'
_cell_length_a   16.07352070
_cell_length_b   16.11376284
_cell_length_c   27.43491046
_cell_angle_alpha   89.87068705
_cell_angle_beta   90.33615334
_cell_angle_gamma   90.00025514
_symmetry_Int_Tables_number   1
_chemical_formula_structural   La6Ce7Pr13Nd19Sm19(BiS2)64
_chemical_formula_sum   'La6 Ce7 Pr13 Nd19 Sm19 Bi64 S128'
_cell_volume   7105.63586241
_cell_formula_units_Z   1
loop_
 _symmetry_equiv_pos_site_id
 _symmetry_equiv_pos_as_xyz
  1  'x, y, z'
loop_
 _atom_type_symbol
 _atom_type_oxidation_number
  La3+  3.0
  Ce3+  3.0
  Pr3+  3.0
  Nd3+  3.0
  Sm3+  3.0
  Bi2+  2.0
  S2-  -2.0
loop_
 _atom_site_type_symbol
 _atom_site_label
 _atom_site_symmetry_multiplicity
 _atom_site_fract_x
 _atom_site_fract_y
 _atom_site_fract_z
 _atom_site_occupancy
  La3+  La0  1  0.25358354  0.61205657  0.56855852  1
  La3+  La1  1  0.89290569  0.73444774  0.39272548  1
  La3+  La2  1  0.37467688  -0.01156053  0.89459914  1
  La3+  La3  1  0.75586245  0.61322841  0.09942647  1
  La3+  La4  1  0.24293331  0.11982912  0.60847140  1
  La3+  La5  1  0.75849916  0.11898894  0.07475310  1
  Ce3+  Ce6  1  0.12166249  -0.01244771  0.44070410  1
  Ce3+  Ce7  1  0.74509904  0.36220441  0.55457014  1
  Ce3+  Ce8  1  0.25753294  0.61957610  0.06469349  1
  Ce3+  Ce9  1  0.62703661  0.23957977  0.94669727  1
  Ce3+  Ce10  1  0.87545077  0.24382938  0.94394399  1
  Ce3+  Ce11  1  -0.00159234  0.11082157  0.55674878  1
  Ce3+  Ce12  1  -0.00047089  0.35999968  0.55469030  1
  Pr3+  Pr13  1  0.00431483  0.11914006  0.06504785  1
  Pr3+  Pr14  1  0.37840577  0.24261058  0.93830566  1
  Pr3+  Pr15  1  0.00368926  0.60933386  0.57765615  1
  Pr3+  Pr16  1  0.87438223  -0.00488922  0.93530001  1
  Pr3+  Pr17  1  0.87071860  0.23830479  0.44342662  1
  Pr3+  Pr18  1  0.49960606  0.86465427  0.56328807  1
  Pr3+  Pr19  1  0.74767000  0.61200018  0.56573376  1
  Pr3+  Pr20  1  0.62001677  0.23505063  0.43540432  1
  Pr3+  Pr21  1  0.75403438  0.86893406  0.07526357  1
  Pr3+  Pr22  1  0.37223146  -0.01151703  0.44154519  1
  Pr3+  Pr23  1  0.61480181  0.49094989  0.43389478  1
  Pr3+  Pr24  1  -0.00494347  0.86456494  0.55435155  1
  Pr3+  Pr25  1  0.36564944  0.48980480  0.43109669  1
  Nd3+  Nd26  1  0.12637530  0.24395395  0.93566150  1
  Nd3+  Nd27  1  0.25080649  0.87043116  0.56776106  1
  Nd3+  Nd28  1  0.25241599  0.36853674  0.05626593  1
  Nd3+  Nd29  1  0.50314385  0.10916050  0.57624161  1
  Nd3+  Nd30  1  0.50560574  0.37010857  0.05452473  1
  Nd3+  Nd31  1  0.37417360  0.74046083  0.43400869  1
  Nd3+  Nd32  1  0.12836155  0.74543784  0.94507704  1
  Nd3+  Nd33  1  0.74618143  0.10259396  0.56797662  1
  Nd3+  Nd34  1  0.24880938  0.36046665  0.55695143  1
  Nd3+  Nd35  1  0.12516536  0.49657194  0.93429772  1
  Nd3+  Nd36  1  0.25494111  0.11826940  0.05427045  1
  Nd3+  Nd37  1  0.62836210  0.73604596  0.42846077  1
  Nd3+  Nd38  1  0.63060270  -0.00763457  0.93784456  1
  Nd3+  Nd39  1  0.86693089  0.50058092  0.93052534  1
  Nd3+  Nd40  1  0.12028169  0.49749555  0.43640183  1
  Nd3+  Nd41  1  0.61528394  -0.01079125  0.42899403  1
  Nd3+  Nd42  1  0.87156282  0.49672245  0.44467592  1
  Nd3+  Nd43  1  0.62677367  0.49893976  0.93847051  1
  Nd3+  Nd44  1  0.37770182  0.74626035  0.93644163  1
  Sm3+  Sm45  1  0.75410128  0.37482624  0.05611534  1
  Sm3+  Sm46  1  0.86813746  -0.01088862  0.42988977  1
  Sm3+  Sm47  1  0.37631593  0.49610433  0.94284366  1
  Sm3+  Sm48  1  0.00314167  0.37440389  0.05083443  1
  Sm3+  Sm49  1  0.00229893  0.61880046  0.05608280  1
  Sm3+  Sm50  1  0.12799658  -0.00647169  0.94048571  1
  Sm3+  Sm51  1  0.87307614  0.74432875  0.94783579  1
  Sm3+  Sm52  1  0.62750637  0.74587372  0.95295467  1
  Sm3+  Sm53  1  0.12183402  0.73989527  0.45266896  1
  Sm3+  Sm54  1  0.50101636  0.62019302  0.06530324  1
  Sm3+  Sm55  1  0.50273367  0.87082921  0.05817573  1
  Sm3+  Sm56  1  0.49750368  0.61357681  0.56021761  1
  Sm3+  Sm57  1  0.00300087  0.86923898  0.05420481  1
  Sm3+  Sm58  1  0.12151426  0.23751124  0.44262233  1
  Sm3+  Sm59  1  0.36931089  0.23482140  0.44691250  1
  Sm3+  Sm60  1  0.50525359  0.11763867  0.06182730  1
  Sm3+  Sm61  1  0.25578042  0.87100530  0.05583134  1
  Sm3+  Sm62  1  0.49687185  0.35824721  0.55632264  1
  Sm3+  Sm63  1  0.74873395  0.85981204  0.54670709  1
  Bi2+  Bi64  1  -0.00124823  0.19035196  0.29422598  1
  Bi2+  Bi65  1  -0.03060633  0.08866858  0.80235658  1
  Bi2+  Bi66  1  -0.00556576  0.39497833  0.28965146  1
  Bi2+  Bi67  1  -0.06885418  0.37925373  0.77252453  1
  Bi2+  Bi68  1  0.02844130  0.59012087  0.28951210  1
  Bi2+  Bi69  1  -0.02416142  0.64871786  0.79529177  1
  Bi2+  Bi70  1  0.10647394  0.83285311  0.29020633  1
  Bi2+  Bi71  1  0.00216851  0.89503009  0.80264403  1
  Bi2+  Bi72  1  0.21156170  0.09565938  0.29672129  1
  Bi2+  Bi73  1  0.23655442  0.15363240  0.80954076  1
  Bi2+  Bi74  1  0.19334402  0.38753352  0.28986549  1
  Bi2+  Bi75  1  0.23993341  0.40434045  0.80057117  1
  Bi2+  Bi76  1  0.29727583  0.64472700  0.30334438  1
  Bi2+  Bi77  1  0.29537454  0.65847201  0.78670080  1
  Bi2+  Bi78  1  0.29820800  0.84259815  0.32467755  1
  Bi2+  Bi79  1  0.22289097  0.84059188  0.79837984  1
  Bi2+  Bi80  1  0.49090709  0.13722329  0.29732050  1
  Bi2+  Bi81  1  0.50492163  0.14118526  0.79642343  1
  Bi2+  Bi82  1  0.41154026  0.37235845  0.28265111  1
  Bi2+  Bi83  1  0.53067014  0.40634470  0.76653261  1
  Bi2+  Bi84  1  0.51255524  0.61418071  0.29543196  1
  Bi2+  Bi85  1  0.53416115  0.60513747  0.78838137  1
  Bi2+  Bi86  1  0.49118949  0.87323859  0.28721710  1
  Bi2+  Bi87  1  0.52739275  0.86119021  0.79167639  1
  Bi2+  Bi88  1  0.75744164  0.13414900  0.29995308  1
  Bi2+  Bi89  1  0.77299616  0.13948403  0.81320611  1
  Bi2+  Bi90  1  0.73090455  0.37292347  0.23639485  1
  Bi2+  Bi91  1  0.72126027  0.40057856  0.79029859  1
  Bi2+  Bi92  1  0.76397190  0.62737435  0.28542721  1
  Bi2+  Bi93  1  0.72018589  0.67339921  0.79995636  1
  Bi2+  Bi94  1  0.77055471  0.89429049  0.28103678  1
  Bi2+  Bi95  1  0.80251701  0.92158855  0.76703863  1
  Bi2+  Bi96  1  0.14657171  -0.02694520  0.20535430  1
  Bi2+  Bi97  1  0.07275544  0.00646611  0.71894108  1
  Bi2+  Bi98  1  0.09247488  0.17036823  0.19049506  1
  Bi2+  Bi99  1  0.11033948  0.28091603  0.69969947  1
  Bi2+  Bi100  1  0.13733783  0.49565019  0.19302088  1
  Bi2+  Bi101  1  0.05026332  0.52019972  0.71864371  1
  Bi2+  Bi102  1  0.14440651  0.68831689  0.21279881  1
  Bi2+  Bi103  1  0.18063977  0.73720911  0.70613751  1
  Bi2+  Bi104  1  0.34060151  -0.01874498  0.24468585  1
  Bi2+  Bi105  1  0.38785038  -0.03495123  0.70147480  1
  Bi2+  Bi106  1  0.28684711  0.25098552  0.22640284  1
  Bi2+  Bi107  1  0.37562595  0.27425339  0.70504598  1
  Bi2+  Bi108  1  0.33664885  0.51444741  0.21363452  1
  Bi2+  Bi109  1  0.37894513  0.52043270  0.72535735  1
  Bi2+  Bi110  1  0.33721591  0.75217497  0.20938509  1
  Bi2+  Bi111  1  0.37336687  0.76556883  0.69033416  1
  Bi2+  Bi112  1  0.58847030  0.01704700  0.20698398  1
  Bi2+  Bi113  1  0.65308362  0.01187172  0.70998399  1
  Bi2+  Bi114  1  0.58183300  0.25071096  0.20274890  1
  Bi2+  Bi115  1  0.65295495  0.27433508  0.71035287  1
  Bi2+  Bi116  1  0.57215400  0.48397323  0.21855461  1
  Bi2+  Bi117  1  0.59419128  0.55108264  0.68014655  1
  Bi2+  Bi118  1  0.58084143  0.74738483  0.21576057  1
  Bi2+  Bi119  1  0.56976422  0.75088576  0.70335596  1
  Bi2+  Bi120  1  0.95574208  0.02880943  0.21749869  1
  Bi2+  Bi121  1  0.86834635  0.03946530  0.68143898  1
  Bi2+  Bi122  1  0.89621326  0.27772991  0.20738529  1
  Bi2+  Bi123  1  0.87117067  0.21739921  0.72088981  1
  Bi2+  Bi124  1  0.90027225  0.49548146  0.20493334  1
  Bi2+  Bi125  1  0.78325495  0.52403907  0.70690395  1
  Bi2+  Bi126  1  0.90156671  0.78165931  0.19624187  1
  Bi2+  Bi127  1  0.92488573  0.78556605  0.71857460  1
  S2-  S128  1  -0.10405020  0.11805448  0.14409295  1
  S2-  S129  1  0.06992793  0.13605160  0.64560990  1
  S2-  S130  1  0.00040118  0.37732200  0.14832892  1
  S2-  S131  1  0.00802580  0.39188835  0.64955079  1
  S2-  S132  1  -0.06909863  0.62858681  0.14425780  1
  S2-  S133  1  -0.06870236  0.61539551  0.67116796  1
  S2-  S134  1  0.00813199  0.89742976  0.14984633  1
  S2-  S135  1  0.00682125  0.89008573  0.65365275  1
  S2-  S136  1  0.25127234  0.14441770  0.15099682  1
  S2-  S137  1  0.23466358  0.16895046  0.71331201  1
  S2-  S138  1  0.25423014  0.38402004  0.15390542  1
  S2-  S139  1  0.24344949  0.35692827  0.65660614  1
  S2-  S140  1  0.37426964  0.62352629  0.13797356  1
  S2-  S141  1  0.14093719  0.59575654  0.64632293  1
  S2-  S142  1  0.27041140  0.87706991  0.15326387  1
  S2-  S143  1  0.24331110  0.95984787  0.65333411  1
  S2-  S144  1  0.48334240  0.12205628  0.15992227  1
  S2-  S145  1  0.40164478  0.13458734  0.65708754  1
  S2-  S146  1  0.49632780  0.36916484  0.15305885  1
  S2-  S147  1  0.50046025  0.34543687  0.65413431  1
  S2-  S148  1  0.59176173  0.60613492  0.14849039  1
  S2-  S149  1  0.38779795  0.60291063  0.63729766  1
  S2-  S150  1  0.53053295  0.86957708  0.15562988  1
  S2-  S151  1  0.52405497  0.96518616  0.64450444  1
  S2-  S152  1  0.68916713  0.12436344  0.16927106  1
  S2-  S153  1  0.64020319  0.14350372  0.64481711  1
  S2-  S154  1  0.75857037  0.45222506  0.14257566  1
  S2-  S155  1  0.75280416  0.37735301  0.65119622  1
  S2-  S156  1  0.75159494  0.70324683  0.18958907  1
  S2-  S157  1  0.71579798  0.67314011  0.65868253  1
  S2-  S158  1  0.78525465  0.90547351  0.17324675  1
  S2-  S159  1  0.74797467  0.94319570  0.63288448  1
  S2-  S160  1  0.10614432  -0.01704420  0.34373532  1
  S2-  S161  1  0.20470646  -0.00400236  0.85352137  1
  S2-  S162  1  0.14580558  0.23826013  0.34627200  1
  S2-  S163  1  0.13303179  0.28208356  0.83896340  1
  S2-  S164  1  0.23192397  0.50590955  0.36016604  1
  S2-  S165  1  0.14969630  0.51801536  0.83673859  1
  S2-  S166  1  0.07111477  0.70517189  0.36184243  1
  S2-  S167  1  0.10408580  0.74652791  0.84746412  1
  S2-  S168  1  0.47615986  0.00186583  0.36107075  1
  S2-  S169  1  0.37149761  0.04494155  0.79252875  1
  S2-  S170  1  0.39210598  0.23147011  0.34902184  1
  S2-  S171  1  0.38258193  0.24184974  0.83797284  1
  S2-  S172  1  0.47952531  0.47000203  0.35626537  1
  S2-  S173  1  0.36234532  0.47936313  0.84683571  1
  S2-  S174  1  0.49824837  0.74627460  0.36013456  1
  S2-  S175  1  0.38546397  0.82871481  0.84872051  1
  S2-  S176  1  0.67714561  -0.00786018  0.33284969  1
  S2-  S177  1  0.53696169  0.00393015  0.85309117  1
  S2-  S178  1  0.62088468  0.22508554  0.33479156  1
  S2-  S179  1  0.63118102  0.22209989  0.85046173  1
  S2-  S180  1  0.66276517  0.55869180  0.34463623  1
  S2-  S181  1  0.73043944  0.52464556  0.86037932  1
  S2-  S182  1  0.73320394  0.75813872  0.34465646  1
  S2-  S183  1  0.63143302  0.77929714  0.85660906  1
  S2-  S184  1  0.87193594  0.01181421  0.33215088  1
  S2-  S185  1  0.75339303  -0.01476319  0.86284231  1
  S2-  S186  1  0.84860681  0.24513909  0.34461887  1
  S2-  S187  1  0.87946526  0.27162036  0.84915613  1
  S2-  S188  1  0.88382245  0.57061750  0.35438981  1
  S2-  S189  1  0.94263491  0.50652588  0.84047291  1
  S2-  S190  1  0.91843113  0.80290410  0.29470472  1
  S2-  S191  1  0.85437869  0.73295066  0.85044208  1
  S2-  S192  1  -0.00405926  0.11279000  0.44887352  1
  S2-  S193  1  0.00407299  0.11767348  0.95433164  1
  S2-  S194  1  -0.00144172  0.36676794  0.44732375  1
  S2-  S195  1  0.00226051  0.37195546  0.94726130  1
  S2-  S196  1  -0.00294969  0.61731258  0.46552009  1
  S2-  S197  1  0.00058269  0.62225874  0.95257243  1
  S2-  S198  1  -0.00877153  0.86169357  0.44709759  1
  S2-  S199  1  0.00167377  0.86919803  0.95022224  1
  S2-  S200  1  0.24551000  0.11401357  0.44574726  1
  S2-  S201  1  0.25286669  0.11775306  0.95004501  1
  S2-  S202  1  0.24496375  0.36075463  0.45157763  1
  S2-  S203  1  0.25182079  0.37101310  0.95100831  1
  S2-  S204  1  0.24818027  0.62075787  0.46017754  1
  S2-  S205  1  0.25374136  0.62035040  0.95487729  1
  S2-  S206  1  0.24645765  0.86248556  0.45987969  1
  S2-  S207  1  0.25382845  0.87200506  0.95312557  1
  S2-  S208  1  0.49537613  0.11691807  0.46227786  1
  S2-  S209  1  0.49952407  0.11588056  0.95731085  1
  S2-  S210  1  0.49485815  0.35738860  0.45400118  1
  S2-  S211  1  0.50299830  0.37222459  0.94790593  1
  S2-  S212  1  0.49413078  0.61568857  0.45811668  1
  S2-  S213  1  0.50076279  0.62149267  0.95377914  1
  S2-  S214  1  0.49885721  0.86223757  0.45811717  1
  S2-  S215  1  0.50150318  0.87126170  0.95590475  1
  S2-  S216  1  0.74683758  0.11056162  0.45286405  1
  S2-  S217  1  0.75353549  0.11985229  0.96407730  1
  S2-  S218  1  0.74580592  0.36761988  0.44725535  1
  S2-  S219  1  0.74910719  0.36946997  0.95289841  1
  S2-  S220  1  0.74752422  0.61605453  0.45887552  1
  S2-  S221  1  0.75056050  0.62629889  0.96282865  1
  S2-  S222  1  0.74931706  0.86591671  0.44600633  1
  S2-  S223  1  0.75232120  0.86675974  0.96629523  1
  S2-  S224  1  0.12901309  -0.00673600  0.04534495  1
  S2-  S225  1  0.12496514  -0.00962320  0.54588820  1
  S2-  S226  1  0.12587191  0.24597484  0.04283667  1
  S2-  S227  1  0.12609900  0.23556411  0.54498386  1
  S2-  S228  1  0.12889886  0.49707580  0.04240363  1
  S2-  S229  1  0.12466191  0.48477347  0.54097215  1
  S2-  S230  1  0.12874289  0.74528338  0.05141809  1
  S2-  S231  1  0.12487146  0.74345810  0.55494993  1
  S2-  S232  1  0.37951025  -0.00528608  0.05467198  1
  S2-  S233  1  0.37237490  -0.00741374  0.54737447  1
  S2-  S234  1  0.37998492  0.24399082  0.04609519  1
  S2-  S235  1  0.37018139  0.23472775  0.55007330  1
  S2-  S236  1  0.37902017  0.49113710  0.04537058  1
  S2-  S237  1  0.37631315  0.48205387  0.54028639  1
  S2-  S238  1  0.37947096  0.74925916  0.04195439  1
  S2-  S239  1  0.37368373  0.74343206  0.54223321  1
  S2-  S240  1  0.62868692  -0.00600790  0.05070644  1
  S2-  S241  1  0.62487039  -0.01344982  0.53519583  1
  S2-  S242  1  0.63088767  0.24613178  0.05256870  1
  S2-  S243  1  0.62309691  0.23865965  0.54170007  1
  S2-  S244  1  0.62682392  0.49642679  0.04279742  1
  S2-  S245  1  0.61754308  0.48730107  0.54370725  1
  S2-  S246  1  0.62807525  0.74463759  0.05555139  1
  S2-  S247  1  0.62169213  0.73809001  0.54337536  1
  S2-  S248  1  0.88029413  -0.00963184  0.04314280  1
  S2-  S249  1  0.87178832  -0.01203670  0.53525238  1
  S2-  S250  1  0.87939609  0.25195966  0.04821771  1
  S2-  S251  1  0.86962748  0.23389130  0.55038821  1
  S2-  S252  1  0.87937398  0.49636226  0.03890733  1
  S2-  S253  1  0.87417010  0.48748489  0.54997658  1
  S2-  S254  1  0.87869947  0.74618035  0.05073357  1
  S2-  S255  1  0.87218171  0.73997619  0.55874070  1
