# generated using pymatgen
data_La6Ce7Pr13Nd19Sm19(BiS2)64
_symmetry_space_group_name_H-M   'P 1'
_cell_length_a   16.15256586
_cell_length_b   16.14612509
_cell_length_c   27.13827287
_cell_angle_alpha   89.99975449
_cell_angle_beta   90.08876164
_cell_angle_gamma   90.01957696
_symmetry_Int_Tables_number   1
_chemical_formula_structural   La6Ce7Pr13Nd19Sm19(BiS2)64
_chemical_formula_sum   'La6 Ce7 Pr13 Nd19 Sm19 Bi64 S128'
_cell_volume   7077.68926891
_cell_formula_units_Z   1
loop_
 _symmetry_equiv_pos_site_id
 _symmetry_equiv_pos_as_xyz
  1  'x, y, z'
loop_
 _atom_type_symbol
 _atom_type_oxidation_number
  La3+  3.0
  Ce3+  3.0
  Pr3+  3.0
  Nd3+  3.0
  Sm3+  3.0
  Bi2+  2.0
  S2-  -2.0
loop_
 _atom_site_type_symbol
 _atom_site_label
 _atom_site_symmetry_multiplicity
 _atom_site_fract_x
 _atom_site_fract_y
 _atom_site_fract_z
 _atom_site_occupancy
  La3+  La0  1  0.13656254  0.48289457  0.41546748  1
  La3+  La1  1  0.75645237  0.36885932  0.07306120  1
  La3+  La2  1  0.86323158  0.49539377  0.92239932  1
  La3+  La3  1  0.75606008  0.11181912  0.58500166  1
  La3+  La4  1  0.25875811  0.36737169  0.60573697  1
  La3+  La5  1  0.24224028  0.85707667  0.11697172  1
  Ce3+  Ce6  1  0.37584373  0.74594818  0.43832578  1
  Ce3+  Ce7  1  0.74341707  0.12195545  0.06556735  1
  Ce3+  Ce8  1  0.00434471  0.12274382  0.55586546  1
  Ce3+  Ce9  1  0.12859730  0.74465891  0.43956990  1
  Ce3+  Ce10  1  0.24257455  0.37363511  0.05648545  1
  Ce3+  Ce11  1  0.49161983  0.87319029  0.06564519  1
  Ce3+  Ce12  1  0.74511117  0.87477059  0.07004590  1
  Pr3+  Pr13  1  0.00282660  0.37214534  0.56539315  1
  Pr3+  Pr14  1  0.87620426  0.24771805  0.43754671  1
  Pr3+  Pr15  1  0.75527048  0.37644254  0.56886458  1
  Pr3+  Pr16  1  0.50176330  0.11907879  0.56037208  1
  Pr3+  Pr17  1  0.13236784  0.24571676  0.44848307  1
  Pr3+  Pr18  1  0.87755942  0.73194050  0.42713766  1
  Pr3+  Pr19  1  0.85793185  0.24104546  0.91641201  1
  Pr3+  Pr20  1  0.00320100  0.86699173  0.55680080  1
  Pr3+  Pr21  1  0.37821111  0.49218989  0.43414069  1
  Pr3+  Pr22  1  -0.00872924  0.87662121  0.06655878  1
  Pr3+  Pr23  1  0.11996972  -0.00449379  0.94096029  1
  Pr3+  Pr24  1  0.36711615  0.25029348  0.93323788  1
  Pr3+  Pr25  1  0.49527388  0.62235396  0.05952735  1
  Nd3+  Nd26  1  0.00636343  0.61494733  0.55195119  1
  Nd3+  Nd27  1  0.11826849  0.74932166  0.94178954  1
  Nd3+  Nd28  1  0.49345218  0.37416209  0.05707863  1
  Nd3+  Nd29  1  0.36645131  -0.00321423  0.93956590  1
  Nd3+  Nd30  1  0.75629002  0.86824175  0.55563708  1
  Nd3+  Nd31  1  0.61793088  0.75047409  0.94583982  1
  Nd3+  Nd32  1  0.87934795  0.48737978  0.42668741  1
  Nd3+  Nd33  1  0.86524620  -0.00313703  0.93554175  1
  Nd3+  Nd34  1  0.25126111  0.11395220  0.57047317  1
  Nd3+  Nd35  1  0.25330747  0.86804282  0.56897725  1
  Nd3+  Nd36  1  0.50181935  0.62101592  0.55581945  1
  Nd3+  Nd37  1  0.12727863  -0.00655664  0.43887336  1
  Nd3+  Nd38  1  -0.00686764  0.12413051  0.05426819  1
  Nd3+  Nd39  1  0.37676363  0.24329490  0.44706201  1
  Nd3+  Nd40  1  -0.00846186  0.62166148  0.06162576  1
  Nd3+  Nd41  1  0.50146539  0.36962712  0.56213805  1
  Nd3+  Nd42  1  0.11545632  0.49902088  0.93449610  1
  Nd3+  Nd43  1  0.63006948  -0.00409251  0.44141594  1
  Nd3+  Nd44  1  0.24715661  0.11784728  0.06375397  1
  Sm3+  Sm45  1  0.24090200  0.62376482  0.05749265  1
  Sm3+  Sm46  1  0.49267706  0.12471560  0.05477406  1
  Sm3+  Sm47  1  0.62777810  0.74484563  0.44055936  1
  Sm3+  Sm48  1  0.11891484  0.24677767  0.93816361  1
  Sm3+  Sm49  1  0.74500840  0.62002920  0.05423790  1
  Sm3+  Sm50  1  -0.00658337  0.37158200  0.04312895  1
  Sm3+  Sm51  1  0.86841292  0.74985808  0.94552252  1
  Sm3+  Sm52  1  0.87773422  -0.00604524  0.44015285  1
  Sm3+  Sm53  1  0.62979905  0.24364535  0.44955196  1
  Sm3+  Sm54  1  0.25350760  0.61365442  0.55655475  1
  Sm3+  Sm55  1  0.75369126  0.61913678  0.55321996  1
  Sm3+  Sm56  1  0.50387073  0.86851156  0.54991194  1
  Sm3+  Sm57  1  0.62036829  0.24795469  0.94501426  1
  Sm3+  Sm58  1  0.61783882  -0.00410926  0.94398011  1
  Sm3+  Sm59  1  0.62106165  0.49687741  0.93932046  1
  Sm3+  Sm60  1  0.36828899  0.74837744  0.94663028  1
  Sm3+  Sm61  1  0.37701543  -0.00488897  0.44333887  1
  Sm3+  Sm62  1  0.36856683  0.49855525  0.94428616  1
  Sm3+  Sm63  1  0.62604145  0.49295977  0.44448301  1
  Bi2+  Bi64  1  -0.03606126  0.14507239  0.28851418  1
  Bi2+  Bi65  1  0.00181172  0.06675360  0.78008418  1
  Bi2+  Bi66  1  -0.00343785  0.36964256  0.28786431  1
  Bi2+  Bi67  1  0.02779903  0.39534343  0.79288671  1
  Bi2+  Bi68  1  -0.03279204  0.64992313  0.29224656  1
  Bi2+  Bi69  1  0.01265508  0.66410988  0.78541188  1
  Bi2+  Bi70  1  0.00229909  0.89389214  0.30386109  1
  Bi2+  Bi71  1  -0.02025086  0.86796426  0.80456281  1
  Bi2+  Bi72  1  0.27024984  0.11785340  0.29785662  1
  Bi2+  Bi73  1  0.25679637  0.11367061  0.79950276  1
  Bi2+  Bi74  1  0.26066112  0.36777154  0.29745702  1
  Bi2+  Bi75  1  0.25787160  0.36772749  0.80076956  1
  Bi2+  Bi76  1  0.26254936  0.58945737  0.24142576  1
  Bi2+  Bi77  1  0.29165704  0.64298783  0.77525590  1
  Bi2+  Bi78  1  0.25210088  0.86737978  0.32087256  1
  Bi2+  Bi79  1  0.26112805  0.86076837  0.78526036  1
  Bi2+  Bi80  1  0.54795101  0.11941278  0.29018916  1
  Bi2+  Bi81  1  0.50814548  0.08784849  0.75798963  1
  Bi2+  Bi82  1  0.53066226  0.38842857  0.28796244  1
  Bi2+  Bi83  1  0.52381746  0.43638065  0.80012039  1
  Bi2+  Bi84  1  0.52421096  0.59651878  0.30222301  1
  Bi2+  Bi85  1  0.52124167  0.63460219  0.79334427  1
  Bi2+  Bi86  1  0.51878068  0.91465898  0.27381916  1
  Bi2+  Bi87  1  0.49106359  0.82965486  0.78824192  1
  Bi2+  Bi88  1  0.76690527  0.16710005  0.28023037  1
  Bi2+  Bi89  1  0.74204949  0.11738072  0.79058954  1
  Bi2+  Bi90  1  0.72732532  0.35633171  0.28515269  1
  Bi2+  Bi91  1  0.74909323  0.37854542  0.79177167  1
  Bi2+  Bi92  1  0.71502821  0.63467553  0.27920499  1
  Bi2+  Bi93  1  0.71688046  0.62919260  0.77087986  1
  Bi2+  Bi94  1  0.72263051  0.89688449  0.27280563  1
  Bi2+  Bi95  1  0.74330879  0.88135099  0.80084273  1
  Bi2+  Bi96  1  0.11575408  -0.00276519  0.21046922  1
  Bi2+  Bi97  1  0.11058709  -0.05190569  0.71033853  1
  Bi2+  Bi98  1  0.13029742  0.23069171  0.24754065  1
  Bi2+  Bi99  1  0.13036897  0.20908260  0.71396091  1
  Bi2+  Bi100  1  0.13176495  0.45622725  0.21652712  1
  Bi2+  Bi101  1  0.13873717  0.56689781  0.71512514  1
  Bi2+  Bi102  1  0.11371174  0.72496478  0.21629536  1
  Bi2+  Bi103  1  0.14788623  0.75989439  0.69415494  1
  Bi2+  Bi104  1  0.39291689  0.01963075  0.20737409  1
  Bi2+  Bi105  1  0.37205800  -0.03469371  0.70984427  1
  Bi2+  Bi106  1  0.41060446  0.23482293  0.24178190  1
  Bi2+  Bi107  1  0.40918005  0.24470611  0.71605875  1
  Bi2+  Bi108  1  0.38252991  0.44994449  0.20457950  1
  Bi2+  Bi109  1  0.39471271  0.51583080  0.71319280  1
  Bi2+  Bi110  1  0.44895275  0.74161495  0.23853517  1
  Bi2+  Bi111  1  0.34092603  0.77070541  0.68960630  1
  Bi2+  Bi112  1  0.65034153  -0.00581173  0.16747307  1
  Bi2+  Bi113  1  0.62345407  -0.06214927  0.71528550  1
  Bi2+  Bi114  1  0.63250441  0.18338098  0.19396834  1
  Bi2+  Bi115  1  0.59440222  0.27125276  0.75482377  1
  Bi2+  Bi116  1  0.59453408  0.52564696  0.20024152  1
  Bi2+  Bi117  1  0.62958785  0.49571039  0.70488052  1
  Bi2+  Bi118  1  0.62186815  0.80036298  0.18785501  1
  Bi2+  Bi119  1  0.60064164  0.74203092  0.70314377  1
  Bi2+  Bi120  1  0.83468545  0.01631141  0.20741578  1
  Bi2+  Bi121  1  0.88670047  -0.01534930  0.70192939  1
  Bi2+  Bi122  1  0.92932513  0.24647881  0.19204306  1
  Bi2+  Bi123  1  0.88574778  0.24691135  0.70710555  1
  Bi2+  Bi124  1  0.87496693  0.51294897  0.19467468  1
  Bi2+  Bi125  1  0.88719771  0.49575625  0.69661108  1
  Bi2+  Bi126  1  0.82738755  0.75967555  0.21463293  1
  Bi2+  Bi127  1  0.85568587  0.75896565  0.73635797  1
  S2-  S128  1  0.00755127  0.09684823  0.15259198  1
  S2-  S129  1  -0.01013308  0.13325439  0.65335834  1
  S2-  S130  1  -0.05464141  0.38596630  0.13665596  1
  S2-  S131  1  -0.00932066  0.36978136  0.66688251  1
  S2-  S132  1  0.00968605  0.61809244  0.16232880  1
  S2-  S133  1  -0.00573406  0.59151793  0.65118983  1
  S2-  S134  1  0.07525691  0.85967705  0.15447413  1
  S2-  S135  1  -0.03938365  0.86285982  0.65420147  1
  S2-  S136  1  0.23975821  0.03145860  0.15092493  1
  S2-  S137  1  0.26706838  0.19769865  0.65881437  1
  S2-  S138  1  0.24099492  0.37621119  0.15410667  1
  S2-  S139  1  0.18938734  0.35754883  0.70408297  1
  S2-  S140  1  0.24137203  0.68327079  0.15006434  1
  S2-  S141  1  0.26000564  0.53452600  0.64446538  1
  S2-  S142  1  0.22827648  0.86282714  0.22718511  1
  S2-  S143  1  0.23998924  0.98552286  0.64331477  1
  S2-  S144  1  0.43072080  0.14817358  0.14630635  1
  S2-  S145  1  0.51480159  0.14105944  0.65946504  1
  S2-  S146  1  0.51686006  0.38461450  0.15508110  1
  S2-  S147  1  0.41977995  0.37646178  0.65003620  1
  S2-  S148  1  0.47548964  0.63040381  0.15938919  1
  S2-  S149  1  0.51330057  0.60357471  0.65483118  1
  S2-  S150  1  0.40788011  0.87528569  0.15120930  1
  S2-  S151  1  0.49709180  0.88361484  0.64692942  1
  S2-  S152  1  0.77515748  0.22973062  0.13963279  1
  S2-  S153  1  0.75833060  0.15362567  0.68474963  1
  S2-  S154  1  0.73970838  0.43685684  0.16834424  1
  S2-  S155  1  0.78079744  0.36096322  0.66875950  1
  S2-  S156  1  0.78820631  0.63508197  0.14902692  1
  S2-  S157  1  0.75917514  0.57138448  0.64660981  1
  S2-  S158  1  0.86393902  0.88283718  0.14264997  1
  S2-  S159  1  0.75095346  0.95700781  0.64099197  1
  S2-  S160  1  0.13382689  -0.00024539  0.33902324  1
  S2-  S161  1  0.13519023  0.02834091  0.84194195  1
  S2-  S162  1  0.12492442  0.32507851  0.35903476  1
  S2-  S163  1  0.13661272  0.26038788  0.84026640  1
  S2-  S164  1  0.04277622  0.52392469  0.33008193  1
  S2-  S165  1  0.15618962  0.48999619  0.83818143  1
  S2-  S166  1  0.11621326  0.75733209  0.34074836  1
  S2-  S167  1  0.11251710  0.76562015  0.84228257  1
  S2-  S168  1  0.36332608  -0.00017217  0.34536664  1
  S2-  S169  1  0.35802012  0.00441182  0.83966827  1
  S2-  S170  1  0.36339398  0.24110689  0.34733668  1
  S2-  S171  1  0.36487793  0.23757780  0.83256227  1
  S2-  S172  1  0.27947451  0.50618411  0.35105180  1
  S2-  S173  1  0.37070193  0.46583375  0.84860314  1
  S2-  S174  1  0.36620075  0.74853181  0.34048662  1
  S2-  S175  1  0.36226378  0.75534323  0.84816940  1
  S2-  S176  1  0.63662193  -0.00192449  0.34286304  1
  S2-  S177  1  0.64759284  0.00784215  0.84740918  1
  S2-  S178  1  0.63396988  0.24706861  0.35137746  1
  S2-  S179  1  0.70002993  0.24469147  0.85809261  1
  S2-  S180  1  0.64623278  0.47231265  0.34754397  1
  S2-  S181  1  0.72214850  0.49527510  0.85756513  1
  S2-  S182  1  0.62751597  0.72923131  0.34276605  1
  S2-  S183  1  0.62874772  0.77459463  0.84773282  1
  S2-  S184  1  0.90046283  0.00583887  0.34277465  1
  S2-  S185  1  0.86623578  0.09628207  0.85254963  1
  S2-  S186  1  0.86359753  0.35721113  0.35779991  1
  S2-  S187  1  0.90433273  0.29951933  0.81771730  1
  S2-  S188  1  0.84710471  0.59917470  0.35135701  1
  S2-  S189  1  0.94522806  0.51539712  0.83197081  1
  S2-  S190  1  0.88596623  0.79655069  0.33262977  1
  S2-  S191  1  0.87099367  0.74609919  0.84769304  1
  S2-  S192  1  0.00183764  0.12083189  0.44842445  1
  S2-  S193  1  -0.00287659  0.12378483  0.94763754  1
  S2-  S194  1  0.00330975  0.36917121  0.45833092  1
  S2-  S195  1  -0.00609398  0.36952031  0.94008604  1
  S2-  S196  1  0.00857307  0.61397363  0.44694904  1
  S2-  S197  1  -0.00802275  0.62523290  0.95175960  1
  S2-  S198  1  0.00008208  0.86873795  0.44975118  1
  S2-  S199  1  -0.00895608  0.87349871  0.95489810  1
  S2-  S200  1  0.25336922  0.11609947  0.45927715  1
  S2-  S201  1  0.24393556  0.12501233  0.95465044  1
  S2-  S202  1  0.25919506  0.36783609  0.45747569  1
  S2-  S203  1  0.24178913  0.37496914  0.95052303  1
  S2-  S204  1  0.25233982  0.61997013  0.45282303  1
  S2-  S205  1  0.24490201  0.62263788  0.95059207  1
  S2-  S206  1  0.25312035  0.87206903  0.45919637  1
  S2-  S207  1  0.24595735  0.87040154  0.94765458  1
  S2-  S208  1  0.50402891  0.11875563  0.45240210  1
  S2-  S209  1  0.49541891  0.12325834  0.94736018  1
  S2-  S210  1  0.50470982  0.36689118  0.45443785  1
  S2-  S211  1  0.49645963  0.37443587  0.95031960  1
  S2-  S212  1  0.50402892  0.62058149  0.44940224  1
  S2-  S213  1  0.49431519  0.62121052  0.95071763  1
  S2-  S214  1  0.50363392  0.87107677  0.44477459  1
  S2-  S215  1  0.49184383  0.87325137  0.95477989  1
  S2-  S216  1  0.75453028  0.11972330  0.45456475  1
  S2-  S217  1  0.73745576  0.11869818  0.95872927  1
  S2-  S218  1  0.74711413  0.37017259  0.46070205  1
  S2-  S219  1  0.74029676  0.37157495  0.95951243  1
  S2-  S220  1  0.74433702  0.61759681  0.45142674  1
  S2-  S221  1  0.74289877  0.62785538  0.95066402  1
  S2-  S222  1  0.75437990  0.86774485  0.44842343  1
  S2-  S223  1  0.74356433  0.87359163  0.95857656  1
  S2-  S224  1  0.11876784  -0.00080187  0.04590130  1
  S2-  S225  1  0.12393458  -0.00664446  0.54495295  1
  S2-  S226  1  0.11972645  0.24733143  0.04607782  1
  S2-  S227  1  0.13208563  0.24837387  0.55570440  1
  S2-  S228  1  0.11731430  0.49843741  0.04361502  1
  S2-  S229  1  0.13094928  0.49154418  0.54704759  1
  S2-  S230  1  0.11814523  0.74620191  0.04717365  1
  S2-  S231  1  0.13129658  0.74180513  0.54787662  1
  S2-  S232  1  0.37244165  0.00095553  0.04471047  1
  S2-  S233  1  0.38038016  -0.00849698  0.54765975  1
  S2-  S234  1  0.36790908  0.24936715  0.04131114  1
  S2-  S235  1  0.37608155  0.24414865  0.55178133  1
  S2-  S236  1  0.36680397  0.50011614  0.04957977  1
  S2-  S237  1  0.38171360  0.49584527  0.54163016  1
  S2-  S238  1  0.36600107  0.74584600  0.04973992  1
  S2-  S239  1  0.37699596  0.74474624  0.54642401  1
  S2-  S240  1  0.61453942  -0.00140367  0.04802955  1
  S2-  S241  1  0.62680791  -0.00610024  0.54647719  1
  S2-  S242  1  0.61615169  0.24876582  0.04853023  1
  S2-  S243  1  0.63165078  0.24424234  0.55580703  1
  S2-  S244  1  0.62219055  0.49691804  0.04474613  1
  S2-  S245  1  0.62578971  0.49574986  0.54829328  1
  S2-  S246  1  0.62165898  0.74685598  0.05138956  1
  S2-  S247  1  0.62963170  0.74509192  0.54637551  1
  S2-  S248  1  0.86712882  0.00264934  0.04143120  1
  S2-  S249  1  0.88053632  -0.00426570  0.54404408  1
  S2-  S250  1  0.87384215  0.24664778  0.03027205  1
  S2-  S251  1  0.87425349  0.24446278  0.54831391  1
  S2-  S252  1  0.87036004  0.49973559  0.03566935  1
  S2-  S253  1  0.87721178  0.49655996  0.53859499  1
  S2-  S254  1  0.86805549  0.74524083  0.04803658  1
  S2-  S255  1  0.87712619  0.74001364  0.54075597  1
