# generated using pymatgen
data_La6Ce7Pr13Nd19Sm19(BiS2)64
_symmetry_space_group_name_H-M   'P 1'
_cell_length_a   16.11763942
_cell_length_b   16.15767850
_cell_length_c   27.26776267
_cell_angle_alpha   90.13508738
_cell_angle_beta   89.86295819
_cell_angle_gamma   90.02499774
_symmetry_Int_Tables_number   1
_chemical_formula_structural   La6Ce7Pr13Nd19Sm19(BiS2)64
_chemical_formula_sum   'La6 Ce7 Pr13 Nd19 Sm19 Bi64 S128'
_cell_volume   7101.12918969
_cell_formula_units_Z   1
loop_
 _symmetry_equiv_pos_site_id
 _symmetry_equiv_pos_as_xyz
  1  'x, y, z'
loop_
 _atom_type_symbol
 _atom_type_oxidation_number
  La3+  3.0
  Ce3+  3.0
  Pr3+  3.0
  Nd3+  3.0
  Sm3+  3.0
  Bi2+  2.0
  S2-  -2.0
loop_
 _atom_site_type_symbol
 _atom_site_label
 _atom_site_symmetry_multiplicity
 _atom_site_fract_x
 _atom_site_fract_y
 _atom_site_fract_z
 _atom_site_occupancy
  La3+  La0  1  0.63521001  0.74656475  0.90015026  1
  La3+  La1  1  0.48132771  0.12785989  0.58972111  1
  La3+  La2  1  0.35962744  -0.00594353  0.41612517  1
  La3+  La3  1  0.37181573  0.25789812  0.40697397  1
  La3+  La4  1  0.74818693  0.39158078  0.09478428  1
  La3+  La5  1  0.51188779  0.87395571  0.10913650  1
  Ce3+  Ce6  1  0.50406130  0.13263363  0.06478874  1
  Ce3+  Ce7  1  0.86172394  0.25118465  0.43455440  1
  Ce3+  Ce8  1  0.73818217  0.62662449  0.57163269  1
  Ce3+  Ce9  1  0.87718109  0.00042847  0.94458054  1
  Ce3+  Ce10  1  0.12764687  0.25406584  0.94862071  1
  Ce3+  Ce11  1  0.25357526  0.37809927  0.05779754  1
  Ce3+  Ce12  1  0.61640904  0.25090259  0.43638051  1
  Pr3+  Pr13  1  0.00049172  0.37910263  0.07118902  1
  Pr3+  Pr14  1  0.12781929  0.00484774  0.94016937  1
  Pr3+  Pr15  1  0.24564342  0.87806388  0.56303944  1
  Pr3+  Pr16  1  0.62817565  0.50089330  0.93525659  1
  Pr3+  Pr17  1  0.25277968  0.87645891  0.06638303  1
  Pr3+  Pr18  1  0.11832664  0.75305498  0.43783638  1
  Pr3+  Pr19  1  0.38266911  0.74643490  0.42778533  1
  Pr3+  Pr20  1  0.11686359  0.49845427  0.44123892  1
  Pr3+  Pr21  1  0.38124474  0.75435598  0.93664852  1
  Pr3+  Pr22  1  0.48569576  0.37201515  0.57091138  1
  Pr3+  Pr23  1  0.72975700  0.88002001  0.58039307  1
  Pr3+  Pr24  1  0.63125314  0.25308580  0.94364014  1
  Pr3+  Pr25  1  0.86463808  0.50077888  0.44247343  1
  Nd3+  Nd26  1  -0.00885578  0.37499974  0.56056171  1
  Nd3+  Nd27  1  0.38452387  -0.00138037  0.94355933  1
  Nd3+  Nd28  1  0.74911623  0.12595552  0.05982002  1
  Nd3+  Nd29  1  0.38024021  0.50378949  0.94315174  1
  Nd3+  Nd30  1  0.00415940  0.87599427  0.06574915  1
  Nd3+  Nd31  1  0.12830285  0.75588054  0.93571403  1
  Nd3+  Nd32  1  0.87794108  0.75348717  0.93586259  1
  Nd3+  Nd33  1  -0.00899665  0.62583418  0.55687540  1
  Nd3+  Nd34  1  0.38005461  0.25122965  0.93607912  1
  Nd3+  Nd35  1  0.87882212  0.50043954  0.94038714  1
  Nd3+  Nd36  1  -0.00890530  0.87750473  0.55616667  1
  Nd3+  Nd37  1  0.24040316  0.62680411  0.54807858  1
  Nd3+  Nd38  1  0.62752473  0.00175092  0.93194107  1
  Nd3+  Nd39  1  0.48743562  0.87777538  0.56209789  1
  Nd3+  Nd40  1  0.61372910  0.00529602  0.44520239  1
  Nd3+  Nd41  1  0.37328189  0.49933729  0.43753405  1
  Nd3+  Nd42  1  0.73911586  0.12965876  0.56420722  1
  Nd3+  Nd43  1  0.62945106  0.75255138  0.43924385  1
  Nd3+  Nd44  1  0.48440814  0.62898443  0.56740431  1
  Sm3+  Sm45  1  0.25408100  0.63016612  0.05361876  1
  Sm3+  Sm46  1  0.87690899  0.25416635  0.94578345  1
  Sm3+  Sm47  1  0.00134566  0.62767895  0.05145481  1
  Sm3+  Sm48  1  0.25564666  0.12618521  0.05956316  1
  Sm3+  Sm49  1  0.86361666  0.75437973  0.45148292  1
  Sm3+  Sm50  1  0.00041786  0.12777186  0.05657723  1
  Sm3+  Sm51  1  0.61794444  0.49802917  0.45191314  1
  Sm3+  Sm52  1  -0.00858812  0.12673108  0.55514185  1
  Sm3+  Sm53  1  0.24550847  0.37177187  0.55786667  1
  Sm3+  Sm54  1  0.73843476  0.37358329  0.56157368  1
  Sm3+  Sm55  1  0.49900039  0.37683719  0.06430305  1
  Sm3+  Sm56  1  0.74952419  0.63079350  0.05482111  1
  Sm3+  Sm57  1  0.24598069  0.12635378  0.54884691  1
  Sm3+  Sm58  1  0.11739030  0.00219673  0.44028826  1
  Sm3+  Sm59  1  0.11784768  0.25102397  0.44497497  1
  Sm3+  Sm60  1  0.50386087  0.63335050  0.05541645  1
  Sm3+  Sm61  1  0.74723109  0.87683154  0.05244049  1
  Sm3+  Sm62  1  0.86492717  0.00257490  0.45082834  1
  Sm3+  Sm63  1  0.12746820  0.50171589  0.94570770  1
  Bi2+  Bi64  1  -0.01989950  0.08785283  0.30349141  1
  Bi2+  Bi65  1  0.02966461  0.11860537  0.80222201  1
  Bi2+  Bi66  1  -0.00203107  0.37471596  0.29644919  1
  Bi2+  Bi67  1  0.03452085  0.32426078  0.80378815  1
  Bi2+  Bi68  1  0.04354710  0.62245599  0.28271133  1
  Bi2+  Bi69  1  0.02830648  0.59547154  0.79174924  1
  Bi2+  Bi70  1  0.00146636  0.88278640  0.28792473  1
  Bi2+  Bi71  1  0.03150734  0.84695406  0.79677032  1
  Bi2+  Bi72  1  0.18964949  0.14591490  0.28657612  1
  Bi2+  Bi73  1  0.25056929  0.14646785  0.77764026  1
  Bi2+  Bi74  1  0.22635643  0.40657715  0.28228013  1
  Bi2+  Bi75  1  0.23175829  0.42241443  0.77783246  1
  Bi2+  Bi76  1  0.25447004  0.59288430  0.24680018  1
  Bi2+  Bi77  1  0.22405959  0.61282088  0.73488203  1
  Bi2+  Bi78  1  0.21031083  0.87871986  0.28686234  1
  Bi2+  Bi79  1  0.23730431  0.87163143  0.77504870  1
  Bi2+  Bi80  1  0.53740178  0.12434881  0.30121968  1
  Bi2+  Bi81  1  0.50334449  0.11928490  0.80258982  1
  Bi2+  Bi82  1  0.49637826  0.40899979  0.29003926  1
  Bi2+  Bi83  1  0.49372867  0.36914953  0.80564581  1
  Bi2+  Bi84  1  0.46516539  0.60714039  0.28579657  1
  Bi2+  Bi85  1  0.49083391  0.61062871  0.78639248  1
  Bi2+  Bi86  1  0.50514051  0.87038349  0.31540692  1
  Bi2+  Bi87  1  0.45963732  0.86947320  0.78655274  1
  Bi2+  Bi88  1  0.79002762  0.13721548  0.28917219  1
  Bi2+  Bi89  1  0.83227602  0.12609698  0.79065125  1
  Bi2+  Bi90  1  0.73133897  0.39496866  0.29762380  1
  Bi2+  Bi91  1  0.71429461  0.37511832  0.80346728  1
  Bi2+  Bi92  1  0.84240450  0.65111887  0.28257755  1
  Bi2+  Bi93  1  0.75805363  0.60135768  0.77670534  1
  Bi2+  Bi94  1  0.76620735  0.86777586  0.29738487  1
  Bi2+  Bi95  1  0.78224865  0.87168027  0.78721846  1
  Bi2+  Bi96  1  0.08249330  0.01252193  0.20919640  1
  Bi2+  Bi97  1  0.12383329  0.07818510  0.69836813  1
  Bi2+  Bi98  1  0.11539374  0.28909100  0.21207888  1
  Bi2+  Bi99  1  0.16550558  0.28235301  0.70245887  1
  Bi2+  Bi100  1  0.08394860  0.47890380  0.19675444  1
  Bi2+  Bi101  1  0.10697836  0.47113992  0.69054432  1
  Bi2+  Bi102  1  0.07052031  0.75279057  0.19695680  1
  Bi2+  Bi103  1  0.13827245  0.79771087  0.68986163  1
  Bi2+  Bi104  1  0.38077782  0.00491314  0.21239618  1
  Bi2+  Bi105  1  0.33315620  0.00646335  0.71059083  1
  Bi2+  Bi106  1  0.36642097  0.24788712  0.20638160  1
  Bi2+  Bi107  1  0.37559746  0.25885905  0.70617106  1
  Bi2+  Bi108  1  0.42866319  0.49030620  0.19214054  1
  Bi2+  Bi109  1  0.39775261  0.48330880  0.71691135  1
  Bi2+  Bi110  1  0.37820678  0.72866909  0.20753061  1
  Bi2+  Bi111  1  0.37777398  0.75358475  0.70291842  1
  Bi2+  Bi112  1  0.65281478  -0.00002220  0.20585941  1
  Bi2+  Bi113  1  0.64512646  -0.00532538  0.71505885  1
  Bi2+  Bi114  1  0.61314836  0.22458143  0.21617751  1
  Bi2+  Bi115  1  0.66020093  0.25137925  0.71488395  1
  Bi2+  Bi116  1  0.61384375  0.53816885  0.21257727  1
  Bi2+  Bi117  1  0.59922689  0.45461064  0.72022701  1
  Bi2+  Bi118  1  0.69338086  0.73376689  0.22746111  1
  Bi2+  Bi119  1  0.64747002  0.75009476  0.70201754  1
  Bi2+  Bi120  1  0.88249522  -0.02316826  0.21049382  1
  Bi2+  Bi121  1  0.94475359  0.00266209  0.72207722  1
  Bi2+  Bi122  1  0.92070289  0.23912354  0.22825082  1
  Bi2+  Bi123  1  0.91394538  0.25916195  0.72049384  1
  Bi2+  Bi124  1  0.88124016  0.50754798  0.20716917  1
  Bi2+  Bi125  1  0.87352864  0.45045867  0.74847180  1
  Bi2+  Bi126  1  0.87549360  0.78435979  0.19277736  1
  Bi2+  Bi127  1  0.95449878  0.72355109  0.71941371  1
  S2-  S128  1  -0.00510267  0.12929473  0.15373141  1
  S2-  S129  1  -0.03074810  0.13747029  0.65125247  1
  S2-  S130  1  -0.10823418  0.36609127  0.15025001  1
  S2-  S131  1  -0.04375001  0.39623485  0.65669214  1
  S2-  S132  1  -0.00930807  0.61048230  0.14809895  1
  S2-  S133  1  0.02161902  0.61700277  0.65377819  1
  S2-  S134  1  0.12303940  0.88017422  0.13884620  1
  S2-  S135  1  -0.00043019  0.87967836  0.65432510  1
  S2-  S136  1  0.28532034  0.12320392  0.15777592  1
  S2-  S137  1  0.32173890  0.13181070  0.63738991  1
  S2-  S138  1  0.30608940  0.37697297  0.15038785  1
  S2-  S139  1  0.34454178  0.38654655  0.63795004  1
  S2-  S140  1  0.24672465  0.65830525  0.15000090  1
  S2-  S141  1  0.29254793  0.63832912  0.64150171  1
  S2-  S142  1  0.34764406  0.87995474  0.15171941  1
  S2-  S143  1  0.36525043  0.88176082  0.63644772  1
  S2-  S144  1  0.51296118  0.04262067  0.14854961  1
  S2-  S145  1  0.50626753  0.05922919  0.68977567  1
  S2-  S146  1  0.49726573  0.26266203  0.13898709  1
  S2-  S147  1  0.51552083  0.26402078  0.65252032  1
  S2-  S148  1  0.50447556  0.70532969  0.14542008  1
  S2-  S149  1  0.51652684  0.66337041  0.66359482  1
  S2-  S150  1  0.51692432  0.89307231  0.22092890  1
  S2-  S151  1  0.58736933  0.87412491  0.64620239  1
  S2-  S152  1  0.73426752  0.13735616  0.15861965  1
  S2-  S153  1  0.72521200  0.11273537  0.66350823  1
  S2-  S154  1  0.68046247  0.36591802  0.19312654  1
  S2-  S155  1  0.72621549  0.36447299  0.65898182  1
  S2-  S156  1  0.74554739  0.55425111  0.14278146  1
  S2-  S157  1  0.75300368  0.62431152  0.66961957  1
  S2-  S158  1  0.68298514  0.87698789  0.14410472  1
  S2-  S159  1  0.77344037  0.86606679  0.68000740  1
  S2-  S160  1  0.20050736  -0.00010265  0.35360559  1
  S2-  S161  1  0.14243409  -0.04628900  0.84511975  1
  S2-  S162  1  0.13292072  0.26933631  0.34815692  1
  S2-  S163  1  0.14801814  0.22244426  0.85391764  1
  S2-  S164  1  0.11286070  0.50060154  0.34215857  1
  S2-  S165  1  0.10954086  0.47189103  0.85031818  1
  S2-  S166  1  0.11267546  0.76148418  0.33853140  1
  S2-  S167  1  0.11823650  0.71224857  0.83997440  1
  S2-  S168  1  0.41355564  0.02092112  0.31765510  1
  S2-  S169  1  0.40058443  0.01076145  0.84384862  1
  S2-  S170  1  0.33548510  0.20787086  0.30568569  1
  S2-  S171  1  0.38351852  0.24802805  0.83654948  1
  S2-  S172  1  0.35683238  0.41296718  0.35209133  1
  S2-  S173  1  0.39790297  0.50492113  0.84534509  1
  S2-  S174  1  0.33912556  0.83335313  0.34467922  1
  S2-  S175  1  0.39648191  0.73399764  0.83682668  1
  S2-  S176  1  0.62242160  -0.00840225  0.34529556  1
  S2-  S177  1  0.63047598  0.03635820  0.83227678  1
  S2-  S178  1  0.52585929  0.27367520  0.35206828  1
  S2-  S179  1  0.60222988  0.25006873  0.84464147  1
  S2-  S180  1  0.63928208  0.48842704  0.35294032  1
  S2-  S181  1  0.62697091  0.59214354  0.84719183  1
  S2-  S182  1  0.52996163  0.72197110  0.35964949  1
  S2-  S183  1  0.61075455  0.82127871  0.80640996  1
  S2-  S184  1  0.83995791  0.00187471  0.35425196  1
  S2-  S185  1  0.86010259  -0.02850422  0.84917946  1
  S2-  S186  1  0.74532627  0.25127926  0.35974431  1
  S2-  S187  1  0.83388251  0.26420916  0.85074925  1
  S2-  S188  1  0.86731680  0.44603841  0.34641627  1
  S2-  S189  1  0.87771261  0.53606587  0.84281360  1
  S2-  S190  1  0.76872262  0.74933998  0.36985730  1
  S2-  S191  1  0.79739320  0.74540503  0.84750155  1
  S2-  S192  1  -0.00764095  0.12616062  0.45041749  1
  S2-  S193  1  -0.00047915  0.12932016  0.95158222  1
  S2-  S194  1  -0.00872561  0.37315477  0.45384933  1
  S2-  S195  1  0.00224733  0.37738951  0.96094271  1
  S2-  S196  1  -0.01107636  0.62877072  0.44974386  1
  S2-  S197  1  0.00387019  0.62762781  0.94806100  1
  S2-  S198  1  -0.01022790  0.87869427  0.44977819  1
  S2-  S199  1  0.00300494  0.87635550  0.95696009  1
  S2-  S200  1  0.24147695  0.13069309  0.44617886  1
  S2-  S201  1  0.25666111  0.12594437  0.95356350  1
  S2-  S202  1  0.24187298  0.37399640  0.45444679  1
  S2-  S203  1  0.25440966  0.37931183  0.95030997  1
  S2-  S204  1  0.24544521  0.62532544  0.44097412  1
  S2-  S205  1  0.25135541  0.62612602  0.94786857  1
  S2-  S206  1  0.23895480  0.87594918  0.45665888  1
  S2-  S207  1  0.25364186  0.87817488  0.95425467  1
  S2-  S208  1  0.48717175  0.12508893  0.43873255  1
  S2-  S209  1  0.50452374  0.12823358  0.95519317  1
  S2-  S210  1  0.49356033  0.37864936  0.46062260  1
  S2-  S211  1  0.50265742  0.37741079  0.95771462  1
  S2-  S212  1  0.49747714  0.61927437  0.46044394  1
  S2-  S213  1  0.50572731  0.62954648  0.95109357  1
  S2-  S214  1  0.49587513  0.87702283  0.45399638  1
  S2-  S215  1  0.51007428  0.87352979  0.93582331  1
  S2-  S216  1  0.74344120  0.12394878  0.45886674  1
  S2-  S217  1  0.75482664  0.12673085  0.95257234  1
  S2-  S218  1  0.74170146  0.37712890  0.45942151  1
  S2-  S219  1  0.75463857  0.37977954  0.95423701  1
  S2-  S220  1  0.74255830  0.62220052  0.46463560  1
  S2-  S221  1  0.75397641  0.62643915  0.95233248  1
  S2-  S222  1  0.74400428  0.88215748  0.46881852  1
  S2-  S223  1  0.74884155  0.87428140  0.94930524  1
  S2-  S224  1  0.12641864  0.00828813  0.04573114  1
  S2-  S225  1  0.11718558  0.00368002  0.54545564  1
  S2-  S226  1  0.12758553  0.25015478  0.05504198  1
  S2-  S227  1  0.11816328  0.24941757  0.55035508  1
  S2-  S228  1  0.12839056  0.50545660  0.04989241  1
  S2-  S229  1  0.11900530  0.49809764  0.54743723  1
  S2-  S230  1  0.12644694  0.74829039  0.04152138  1
  S2-  S231  1  0.11580835  0.75244482  0.54475961  1
  S2-  S232  1  0.37777714  0.00393517  0.04741327  1
  S2-  S233  1  0.36730152  0.00529997  0.53455706  1
  S2-  S234  1  0.37434353  0.25310876  0.04133764  1
  S2-  S235  1  0.36593938  0.24968060  0.53762309  1
  S2-  S236  1  0.37976857  0.50653388  0.04826915  1
  S2-  S237  1  0.36447756  0.50300599  0.54152471  1
  S2-  S238  1  0.37686701  0.75134943  0.04230554  1
  S2-  S239  1  0.36633846  0.74971977  0.53539233  1
  S2-  S240  1  0.62764089  0.00115469  0.03975950  1
  S2-  S241  1  0.60949061  0.01074784  0.55177640  1
  S2-  S242  1  0.63603337  0.26172753  0.04944514  1
  S2-  S243  1  0.61552057  0.24934216  0.54502870  1
  S2-  S244  1  0.62204733  0.50195676  0.04478623  1
  S2-  S245  1  0.61311695  0.49948777  0.55776915  1
  S2-  S246  1  0.62975911  0.75114861  0.04455870  1
  S2-  S247  1  0.61542539  0.74859308  0.54665105  1
  S2-  S248  1  0.87726509  -0.00031023  0.05169305  1
  S2-  S249  1  0.86599006  0.00229940  0.55592637  1
  S2-  S250  1  0.87542693  0.25033133  0.04958201  1
  S2-  S251  1  0.86636625  0.25190150  0.54578733  1
  S2-  S252  1  0.87688073  0.50434418  0.04518219  1
  S2-  S253  1  0.86450338  0.49981956  0.55071790  1
  S2-  S254  1  0.87669855  0.75250004  0.04409160  1
  S2-  S255  1  0.86603330  0.75220004  0.55630705  1
