# generated using pymatgen
data_La6Ce7Pr13Nd19Sm19(BiS2)64
_symmetry_space_group_name_H-M   'P 1'
_cell_length_a   16.03839495
_cell_length_b   16.03109278
_cell_length_c   27.54700717
_cell_angle_alpha   90.29399489
_cell_angle_beta   90.10607160
_cell_angle_gamma   90.02251550
_symmetry_Int_Tables_number   1
_chemical_formula_structural   La6Ce7Pr13Nd19Sm19(BiS2)64
_chemical_formula_sum   'La6 Ce7 Pr13 Nd19 Sm19 Bi64 S128'
_cell_volume   7082.58763449
_cell_formula_units_Z   1
loop_
 _symmetry_equiv_pos_site_id
 _symmetry_equiv_pos_as_xyz
  1  'x, y, z'
loop_
 _atom_type_symbol
 _atom_type_oxidation_number
  La3+  3.0
  Ce3+  3.0
  Pr3+  3.0
  Nd3+  3.0
  Sm3+  3.0
  Bi2+  2.0
  S2-  -2.0
loop_
 _atom_site_type_symbol
 _atom_site_label
 _atom_site_symmetry_multiplicity
 _atom_site_fract_x
 _atom_site_fract_y
 _atom_site_fract_z
 _atom_site_occupancy
  La3+  La0  1  0.35669024  0.50580320  0.38513201  1
  La3+  La1  1  0.38586639  0.76647943  0.88227147  1
  La3+  La2  1  0.74599174  0.88278458  0.06419154  1
  La3+  La3  1  0.62239989  0.01067980  0.92209328  1
  La3+  La4  1  0.00074802  0.62444647  0.11236273  1
  La3+  La5  1  0.00897588  0.12762090  0.57998951  1
  Ce3+  Ce6  1  -0.00546498  0.37673113  0.06840890  1
  Ce3+  Ce7  1  0.24499737  0.38232075  0.06693913  1
  Ce3+  Ce8  1  0.75208102  0.37746786  0.06126183  1
  Ce3+  Ce9  1  0.50152709  0.61958995  0.55926692  1
  Ce3+  Ce10  1  0.75413078  0.62058150  0.55380254  1
  Ce3+  Ce11  1  0.25485809  0.12287355  0.55694184  1
  Ce3+  Ce12  1  0.62602651  0.74499494  0.44587053  1
  Pr3+  Pr13  1  0.12304753  0.24221797  0.43315107  1
  Pr3+  Pr14  1  0.87627583  0.25050980  0.92340456  1
  Pr3+  Pr15  1  0.00268519  0.86904956  0.55793877  1
  Pr3+  Pr16  1  0.75359928  0.11779172  0.57222559  1
  Pr3+  Pr17  1  0.49864839  0.37487214  0.55558487  1
  Pr3+  Pr18  1  0.50244823  0.37796092  0.06736871  1
  Pr3+  Pr19  1  0.12963434  0.73906686  0.43280959  1
  Pr3+  Pr20  1  0.87311998  0.49163041  0.43394080  1
  Pr3+  Pr21  1  0.37639062  -0.00455052  0.44407996  1
  Pr3+  Pr22  1  0.38316448  0.24739388  0.41739747  1
  Pr3+  Pr23  1  0.24074747  0.60751826  0.59091859  1
  Pr3+  Pr24  1  0.49493752  0.88037409  0.05331960  1
  Pr3+  Pr25  1  0.49340434  0.12955448  0.06009612  1
  Nd3+  Nd26  1  0.62122356  0.49389500  0.43518963  1
  Nd3+  Nd27  1  0.87679582  0.00314530  0.43545722  1
  Nd3+  Nd28  1  0.62244902  -0.00438049  0.44138054  1
  Nd3+  Nd29  1  0.50200527  0.87046424  0.56422666  1
  Nd3+  Nd30  1  0.25348748  0.37566710  0.54524027  1
  Nd3+  Nd31  1  0.36520920  0.50311002  0.92818754  1
  Nd3+  Nd32  1  0.11649675  0.25635904  0.94389441  1
  Nd3+  Nd33  1  0.87443946  -0.00243530  0.93053546  1
  Nd3+  Nd34  1  0.24687698  0.63221827  0.06019151  1
  Nd3+  Nd35  1  0.12667534  0.75164693  0.93677276  1
  Nd3+  Nd36  1  0.49337976  0.62916255  0.05554691  1
  Nd3+  Nd37  1  0.25151247  0.86808820  0.55724528  1
  Nd3+  Nd38  1  0.62308927  0.50337407  0.94564747  1
  Nd3+  Nd39  1  0.37067816  0.00684384  0.93704851  1
  Nd3+  Nd40  1  0.37436836  0.73928758  0.44547358  1
  Nd3+  Nd41  1  -0.00675317  0.12583240  0.06458165  1
  Nd3+  Nd42  1  -0.00285860  0.87985879  0.06429887  1
  Nd3+  Nd43  1  0.00250871  0.37223916  0.56395647  1
  Nd3+  Nd44  1  0.87609346  0.75486727  0.42507968  1
  Sm3+  Sm45  1  0.75245073  0.37124598  0.56112595  1
  Sm3+  Sm46  1  0.12081280  0.00445777  0.94205343  1
  Sm3+  Sm47  1  0.11881581  0.50758752  0.95068173  1
  Sm3+  Sm48  1  0.24597481  0.13043049  0.05354248  1
  Sm3+  Sm49  1  0.24560770  0.87599661  0.05275835  1
  Sm3+  Sm50  1  0.00154559  0.62157849  0.55253340  1
  Sm3+  Sm51  1  0.87155879  0.75496164  0.94055663  1
  Sm3+  Sm52  1  0.36917302  0.26059590  0.94272691  1
  Sm3+  Sm53  1  0.62330441  0.24575502  0.44752465  1
  Sm3+  Sm54  1  0.75057698  0.63779815  0.07336795  1
  Sm3+  Sm55  1  0.11930950  0.49227145  0.42861571  1
  Sm3+  Sm56  1  0.50144956  0.12292451  0.56478552  1
  Sm3+  Sm57  1  0.62018229  0.75342950  0.94092910  1
  Sm3+  Sm58  1  0.75463212  0.87140842  0.55819212  1
  Sm3+  Sm59  1  0.62507054  0.26252936  0.93274102  1
  Sm3+  Sm60  1  0.74454817  0.12715202  0.05612919  1
  Sm3+  Sm61  1  0.87417717  0.23997771  0.44533419  1
  Sm3+  Sm62  1  0.12696072  -0.00128639  0.44948328  1
  Sm3+  Sm63  1  0.87232921  0.50724246  0.95136011  1
  Bi2+  Bi64  1  0.02060191  0.16989958  0.30618451  1
  Bi2+  Bi65  1  -0.02056944  0.14453481  0.79389554  1
  Bi2+  Bi66  1  -0.09597409  0.35381028  0.30649628  1
  Bi2+  Bi67  1  0.01678526  0.40439297  0.78887917  1
  Bi2+  Bi68  1  0.01106449  0.62404313  0.30211267  1
  Bi2+  Bi69  1  0.03120063  0.67997260  0.80108419  1
  Bi2+  Bi70  1  0.00434299  0.95687704  0.28169174  1
  Bi2+  Bi71  1  0.02182547  0.87886179  0.79768508  1
  Bi2+  Bi72  1  0.23285151  0.10649589  0.28738528  1
  Bi2+  Bi73  1  0.26659630  0.18369145  0.80414422  1
  Bi2+  Bi74  1  0.24695221  0.30122914  0.26052659  1
  Bi2+  Bi75  1  0.26128328  0.38744831  0.79062124  1
  Bi2+  Bi76  1  0.23819645  0.66337254  0.28855188  1
  Bi2+  Bi77  1  0.23932497  0.60932198  0.79094416  1
  Bi2+  Bi78  1  0.27051429  0.92342102  0.23805016  1
  Bi2+  Bi79  1  0.25515916  0.88234701  0.78130522  1
  Bi2+  Bi80  1  0.42739169  0.12794621  0.29543796  1
  Bi2+  Bi81  1  0.44478266  0.12855968  0.76128671  1
  Bi2+  Bi82  1  0.51392051  0.38182677  0.28922497  1
  Bi2+  Bi83  1  0.51232409  0.32220193  0.79565097  1
  Bi2+  Bi84  1  0.49308042  0.66416646  0.29505063  1
  Bi2+  Bi85  1  0.50144894  0.51909676  0.77887126  1
  Bi2+  Bi86  1  0.53593241  0.93955963  0.28279495  1
  Bi2+  Bi87  1  0.52270192  0.89872224  0.78685098  1
  Bi2+  Bi88  1  0.81345738  0.14941849  0.26737057  1
  Bi2+  Bi89  1  0.72112518  0.14918151  0.78934757  1
  Bi2+  Bi90  1  0.71582710  0.38901247  0.33314327  1
  Bi2+  Bi91  1  0.75355068  0.42914441  0.79719480  1
  Bi2+  Bi92  1  0.74196192  0.57421700  0.28955862  1
  Bi2+  Bi93  1  0.82832593  0.63470748  0.82913881  1
  Bi2+  Bi94  1  0.74401868  0.87263786  0.30599614  1
  Bi2+  Bi95  1  0.77319601  0.81963671  0.78493793  1
  Bi2+  Bi96  1  0.14261020  0.06552117  0.18784302  1
  Bi2+  Bi97  1  0.15656254  0.04504281  0.74949468  1
  Bi2+  Bi98  1  0.02668506  0.22570092  0.18235826  1
  Bi2+  Bi99  1  0.12945940  0.27942675  0.72812778  1
  Bi2+  Bi100  1  0.07663487  0.38841092  0.24001081  1
  Bi2+  Bi101  1  0.09940245  0.48471237  0.69545802  1
  Bi2+  Bi102  1  0.08717626  0.81402247  0.22227709  1
  Bi2+  Bi103  1  0.10309831  0.77451109  0.70912922  1
  Bi2+  Bi104  1  0.42598401  0.01071460  0.18707657  1
  Bi2+  Bi105  1  0.32842863  0.02200705  0.69229477  1
  Bi2+  Bi106  1  0.42251522  0.22830529  0.19570405  1
  Bi2+  Bi107  1  0.35447889  0.27978985  0.70996654  1
  Bi2+  Bi108  1  0.36195751  0.50996105  0.18530949  1
  Bi2+  Bi109  1  0.39680859  0.49705256  0.68707354  1
  Bi2+  Bi110  1  0.37114888  0.75857805  0.17870033  1
  Bi2+  Bi111  1  0.39081246  0.76344807  0.68062711  1
  Bi2+  Bi112  1  0.63337667  0.05057379  0.21077645  1
  Bi2+  Bi113  1  0.63357395  -0.00242055  0.69118865  1
  Bi2+  Bi114  1  0.63220687  0.22587972  0.27621764  1
  Bi2+  Bi115  1  0.64065058  0.34272034  0.71015803  1
  Bi2+  Bi116  1  0.63003338  0.47755319  0.21891014  1
  Bi2+  Bi117  1  0.67946958  0.53167362  0.69845426  1
  Bi2+  Bi118  1  0.65017142  0.74175807  0.23961147  1
  Bi2+  Bi119  1  0.64568088  0.65808724  0.78611768  1
  Bi2+  Bi120  1  0.86639824  -0.01038714  0.20886414  1
  Bi2+  Bi121  1  0.88566615  -0.05480852  0.72277393  1
  Bi2+  Bi122  1  0.83700476  0.25676972  0.17129004  1
  Bi2+  Bi123  1  0.88842031  0.21892122  0.70187878  1
  Bi2+  Bi124  1  0.86986045  0.46776615  0.21739623  1
  Bi2+  Bi125  1  0.90320292  0.47812782  0.70578395  1
  Bi2+  Bi126  1  0.84429280  0.75059629  0.21312769  1
  Bi2+  Bi127  1  0.89228663  0.67568170  0.71978226  1
  S2-  S128  1  -0.00804766  0.00594377  0.13732557  1
  S2-  S129  1  -0.04686969  0.07077869  0.67004135  1
  S2-  S130  1  0.01065478  0.45924362  0.15515732  1
  S2-  S131  1  0.02157191  0.27195554  0.64444495  1
  S2-  S132  1  0.06305893  0.64656545  0.21274313  1
  S2-  S133  1  0.08359828  0.63110224  0.63840174  1
  S2-  S134  1  -0.02564436  0.78937651  0.14834943  1
  S2-  S135  1  -0.01429873  0.85100432  0.65668916  1
  S2-  S136  1  0.29045100  0.13189450  0.14750061  1
  S2-  S137  1  0.20701394  0.11922365  0.64895275  1
  S2-  S138  1  0.24939303  0.37847014  0.16386758  1
  S2-  S139  1  0.24033008  0.44348595  0.63749376  1
  S2-  S140  1  0.25190545  0.62238043  0.15979706  1
  S2-  S141  1  0.28533674  0.63714641  0.69060955  1
  S2-  S142  1  0.21796442  0.85136911  0.14870535  1
  S2-  S143  1  0.25256918  0.86661592  0.65530170  1
  S2-  S144  1  0.56236508  0.17228266  0.14855161  1
  S2-  S145  1  0.50186352  0.10344932  0.66078859  1
  S2-  S146  1  0.48300090  0.38458891  0.16640895  1
  S2-  S147  1  0.49389196  0.35401261  0.65499047  1
  S2-  S148  1  0.47722849  0.63406804  0.15508541  1
  S2-  S149  1  0.50004691  0.62968854  0.65644745  1
  S2-  S150  1  0.49377325  0.85913273  0.15296407  1
  S2-  S151  1  0.52992761  0.87598552  0.66237063  1
  S2-  S152  1  0.74302373  0.01468629  0.13447483  1
  S2-  S153  1  0.73606268  0.14195899  0.67187417  1
  S2-  S154  1  0.70520720  0.37025194  0.15503642  1
  S2-  S155  1  0.80979472  0.35825829  0.65239853  1
  S2-  S156  1  0.84232528  0.60516661  0.15766839  1
  S2-  S157  1  0.76768080  0.65614940  0.64820984  1
  S2-  S158  1  0.72417103  0.77017797  0.14285880  1
  S2-  S159  1  0.75401917  0.90889645  0.65308982  1
  S2-  S160  1  0.11150962  0.03414336  0.35557749  1
  S2-  S161  1  0.08071514  0.02476173  0.84859227  1
  S2-  S162  1  0.12305696  0.29794721  0.33842861  1
  S2-  S163  1  0.02339981  0.26391585  0.86008913  1
  S2-  S164  1  0.19044537  0.53849257  0.34132919  1
  S2-  S165  1  0.18096157  0.49948577  0.85895069  1
  S2-  S166  1  0.10755548  0.76345018  0.33448763  1
  S2-  S167  1  0.21534239  0.75326795  0.84998139  1
  S2-  S168  1  0.41395257  -0.02404155  0.34832251  1
  S2-  S169  1  0.38108027  -0.05654831  0.84542223  1
  S2-  S170  1  0.36022139  0.35008975  0.33592883  1
  S2-  S171  1  0.38129033  0.36270011  0.86453652  1
  S2-  S172  1  0.36119601  0.55182396  0.28104138  1
  S2-  S173  1  0.38415469  0.59594223  0.84344061  1
  S2-  S174  1  0.36602425  0.73225096  0.34670883  1
  S2-  S175  1  0.39322100  0.77458493  0.77425761  1
  S2-  S176  1  0.66654738  0.00367057  0.34637010  1
  S2-  S177  1  0.65839308  -0.05316046  0.82590587  1
  S2-  S178  1  0.53791876  0.21557057  0.36398441  1
  S2-  S179  1  0.60826724  0.15250470  0.85708487  1
  S2-  S180  1  0.52710378  0.52187821  0.35215331  1
  S2-  S181  1  0.62242275  0.40116245  0.86447992  1
  S2-  S182  1  0.61471060  0.75664688  0.34990484  1
  S2-  S183  1  0.55541252  0.76264693  0.85049957  1
  S2-  S184  1  0.88856478  -0.10381880  0.35654758  1
  S2-  S185  1  0.84991187  0.08583287  0.84655419  1
  S2-  S186  1  0.87594728  0.13543647  0.36735466  1
  S2-  S187  1  0.78964538  0.27494199  0.83473022  1
  S2-  S188  1  0.98739583  0.48252949  0.35939583  1
  S2-  S189  1  0.89659729  0.46963732  0.85610387  1
  S2-  S190  1  0.86671499  0.67902287  0.33473439  1
  S2-  S191  1  0.88118365  0.86259672  0.86184206  1
  S2-  S192  1  0.00370535  0.12048906  0.46633707  1
  S2-  S193  1  -0.00346780  0.12633387  0.95880656  1
  S2-  S194  1  -0.00284428  0.36369833  0.45838427  1
  S2-  S195  1  -0.00393700  0.38327172  0.96298911  1
  S2-  S196  1  -0.00382585  0.62380312  0.45044377  1
  S2-  S197  1  -0.00409830  0.63085051  0.94622331  1
  S2-  S198  1  0.00833558  0.87218121  0.45335481  1
  S2-  S199  1  0.00365943  0.87789809  0.95791150  1
  S2-  S200  1  0.25529836  0.12501718  0.44934639  1
  S2-  S201  1  0.24491266  0.13221421  0.94909797  1
  S2-  S202  1  0.25101402  0.37277137  0.44210340  1
  S2-  S203  1  0.24101148  0.37922607  0.96131612  1
  S2-  S204  1  0.25327210  0.61329145  0.44782345  1
  S2-  S205  1  0.24626242  0.62635396  0.95663684  1
  S2-  S206  1  0.24973688  0.87127085  0.45075012  1
  S2-  S207  1  0.24659287  0.88319935  0.94970585  1
  S2-  S208  1  0.49895822  0.12072624  0.46209474  1
  S2-  S209  1  0.48962963  0.13664730  0.95309968  1
  S2-  S210  1  0.49857059  0.37140325  0.45146158  1
  S2-  S211  1  0.49702076  0.37957521  0.96254907  1
  S2-  S212  1  0.50077243  0.62097799  0.45515213  1
  S2-  S213  1  0.49690972  0.62599078  0.95079521  1
  S2-  S214  1  0.49976340  0.86856964  0.45801924  1
  S2-  S215  1  0.49520733  0.88020574  0.94813780  1
  S2-  S216  1  0.74420803  0.12120014  0.46359194  1
  S2-  S217  1  0.74821445  0.13220993  0.95406866  1
  S2-  S218  1  0.75021481  0.36539664  0.45807032  1
  S2-  S219  1  0.75388917  0.37821441  0.95784883  1
  S2-  S220  1  0.75056665  0.61907071  0.44750962  1
  S2-  S221  1  0.74646221  0.63175885  0.96034686  1
  S2-  S222  1  0.75035783  0.87347737  0.45547319  1
  S2-  S223  1  0.74150818  0.87670757  0.95379148  1
  S2-  S224  1  0.12728952  0.00497328  0.04400217  1
  S2-  S225  1  0.12844034  -0.00455346  0.55269164  1
  S2-  S226  1  0.12130203  0.25203512  0.04970267  1
  S2-  S227  1  0.13132016  0.24915734  0.54006044  1
  S2-  S228  1  0.11871738  0.50980866  0.05360994  1
  S2-  S229  1  0.12128332  0.49598476  0.53473965  1
  S2-  S230  1  0.12024507  0.75192758  0.04400274  1
  S2-  S231  1  0.12967884  0.74234190  0.53991364  1
  S2-  S232  1  0.36665528  0.00402725  0.04204793  1
  S2-  S233  1  0.37830884  -0.00412397  0.55046036  1
  S2-  S234  1  0.36975523  0.25733306  0.04620565  1
  S2-  S235  1  0.37741361  0.24682767  0.54568030  1
  S2-  S236  1  0.37157544  0.50153999  0.04632113  1
  S2-  S237  1  0.37442536  0.50208702  0.54903340  1
  S2-  S238  1  0.37059236  0.75542395  0.04617744  1
  S2-  S239  1  0.37228843  0.74097292  0.55118169  1
  S2-  S240  1  0.61694860  0.00804814  0.03505892  1
  S2-  S241  1  0.62508201  -0.00367315  0.54853073  1
  S2-  S242  1  0.62519746  0.25377387  0.04021649  1
  S2-  S243  1  0.62744214  0.24624365  0.55212193  1
  S2-  S244  1  0.62720160  0.50930094  0.05150574  1
  S2-  S245  1  0.63000010  0.49462944  0.54404751  1
  S2-  S246  1  0.61832524  0.75237394  0.04266738  1
  S2-  S247  1  0.62904180  0.74861493  0.55155559  1
  S2-  S248  1  0.87079707  0.00501512  0.03548299  1
  S2-  S249  1  0.87826879  -0.00382513  0.54707127  1
  S2-  S250  1  0.87212975  0.24993296  0.04301132  1
  S2-  S251  1  0.87449382  0.24478277  0.54784302  1
  S2-  S252  1  0.87322389  0.50937756  0.05296620  1
  S2-  S253  1  0.87834076  0.49448382  0.54381734  1
  S2-  S254  1  0.87237796  0.75299543  0.04287418  1
  S2-  S255  1  0.87737457  0.74696745  0.53845727  1
