# generated using pymatgen
data_La6Ce7Pr13Nd19Sm19(BiS2)64
_symmetry_space_group_name_H-M   'P 1'
_cell_length_a   16.12244861
_cell_length_b   16.13542660
_cell_length_c   27.24521720
_cell_angle_alpha   89.95015877
_cell_angle_beta   89.94441149
_cell_angle_gamma   89.97325364
_symmetry_Int_Tables_number   1
_chemical_formula_structural   La6Ce7Pr13Nd19Sm19(BiS2)64
_chemical_formula_sum   'La6 Ce7 Pr13 Nd19 Sm19 Bi64 S128'
_cell_volume   7087.63447357
_cell_formula_units_Z   1
loop_
 _symmetry_equiv_pos_site_id
 _symmetry_equiv_pos_as_xyz
  1  'x, y, z'
loop_
 _atom_type_symbol
 _atom_type_oxidation_number
  La3+  3.0
  Ce3+  3.0
  Pr3+  3.0
  Nd3+  3.0
  Sm3+  3.0
  Bi2+  2.0
  S2-  -2.0
loop_
 _atom_site_type_symbol
 _atom_site_label
 _atom_site_symmetry_multiplicity
 _atom_site_fract_x
 _atom_site_fract_y
 _atom_site_fract_z
 _atom_site_occupancy
  La3+  La0  1  0.00496954  0.37418872  0.10117235  1
  La3+  La1  1  0.74917112  0.87729438  0.06154281  1
  La3+  La2  1  0.38572536  -0.01141908  0.42351643  1
  La3+  La3  1  0.00406821  0.86888170  0.60949720  1
  La3+  La4  1  0.13241098  -0.00693283  0.41503283  1
  La3+  La5  1  0.75149305  0.12535416  0.57886907  1
  Ce3+  Ce6  1  0.01313259  0.12107758  0.56374838  1
  Ce3+  Ce7  1  0.50612883  0.12151009  0.55869208  1
  Ce3+  Ce8  1  0.12371076  0.75120723  0.93371859  1
  Ce3+  Ce9  1  0.62316508  -0.00146005  0.93976737  1
  Ce3+  Ce10  1  0.25675158  0.36938002  0.55243958  1
  Ce3+  Ce11  1  0.76193719  0.87172249  0.56268185  1
  Ce3+  Ce12  1  0.63454043  -0.00037959  0.44586092  1
  Pr3+  Pr13  1  0.13412899  0.00475449  0.92262324  1
  Pr3+  Pr14  1  0.00129140  0.11834471  0.09036838  1
  Pr3+  Pr15  1  0.86455519  0.74619941  0.91942246  1
  Pr3+  Pr16  1  0.12406542  0.24645568  0.94649074  1
  Pr3+  Pr17  1  0.76119120  0.62453386  0.06594371  1
  Pr3+  Pr18  1  0.87562987  0.49696957  0.94124848  1
  Pr3+  Pr19  1  0.87946443  0.49605295  0.43626601  1
  Pr3+  Pr20  1  0.24495947  0.87747735  0.05706336  1
  Pr3+  Pr21  1  0.13055904  0.50035375  0.43771633  1
  Pr3+  Pr22  1  -0.00703338  0.88045971  0.05499456  1
  Pr3+  Pr23  1  0.13532331  0.25623378  0.41403942  1
  Pr3+  Pr24  1  0.50051450  0.62390366  0.06017157  1
  Pr3+  Pr25  1  0.86599808  0.00803274  0.92077606  1
  Nd3+  Nd26  1  0.24682599  0.37312438  0.06527861  1
  Nd3+  Nd27  1  0.37353645  0.49773993  0.94086612  1
  Nd3+  Nd28  1  0.50269293  0.87170457  0.56845344  1
  Nd3+  Nd29  1  0.38335127  0.49908711  0.44097013  1
  Nd3+  Nd30  1  0.38057807  -0.00508161  0.93671893  1
  Nd3+  Nd31  1  0.13016234  0.75096719  0.44079352  1
  Nd3+  Nd32  1  0.24688204  0.62506432  0.05615831  1
  Nd3+  Nd33  1  0.62555868  0.49766575  0.94831008  1
  Nd3+  Nd34  1  0.25469370  0.11999834  0.55094510  1
  Nd3+  Nd35  1  0.88311734  0.75102090  0.44287572  1
  Nd3+  Nd36  1  0.63509426  0.75053342  0.44518907  1
  Nd3+  Nd37  1  0.50409200  0.87511229  0.06827643  1
  Nd3+  Nd38  1  0.38148530  0.24616146  0.43183744  1
  Nd3+  Nd39  1  0.00967816  0.36566049  0.56352299  1
  Nd3+  Nd40  1  0.75298082  0.37169158  0.05820317  1
  Nd3+  Nd41  1  0.25443286  0.62296808  0.55812047  1
  Nd3+  Nd42  1  0.00751023  0.62185388  0.56342196  1
  Nd3+  Nd43  1  0.75885858  0.62075876  0.56444998  1
  Nd3+  Nd44  1  0.88263204  0.24385083  0.44030236  1
  Sm3+  Sm45  1  0.62404438  0.74826145  0.94009549  1
  Sm3+  Sm46  1  0.25345540  0.12001366  0.06772688  1
  Sm3+  Sm47  1  0.88517533  0.00005972  0.44864366  1
  Sm3+  Sm48  1  0.50776068  0.62239422  0.55365975  1
  Sm3+  Sm49  1  0.25451729  0.87540561  0.56248760  1
  Sm3+  Sm50  1  0.38225127  0.74788047  0.44148766  1
  Sm3+  Sm51  1  -0.00127485  0.62697984  0.04994771  1
  Sm3+  Sm52  1  0.12256649  0.49727489  0.94338948  1
  Sm3+  Sm53  1  0.50503778  0.37312856  0.55274169  1
  Sm3+  Sm54  1  0.75358873  0.12639507  0.06049406  1
  Sm3+  Sm55  1  0.37231174  0.24909528  0.94262797  1
  Sm3+  Sm56  1  0.63253029  0.49898494  0.44363228  1
  Sm3+  Sm57  1  0.49561930  0.12521038  0.05862436  1
  Sm3+  Sm58  1  0.87850395  0.24536738  0.94711227  1
  Sm3+  Sm59  1  0.37436857  0.74792124  0.94691316  1
  Sm3+  Sm60  1  0.75778659  0.37217762  0.55471143  1
  Sm3+  Sm61  1  0.62361584  0.24901179  0.94534052  1
  Sm3+  Sm62  1  0.49890305  0.37434921  0.05664643  1
  Sm3+  Sm63  1  0.63085010  0.24715304  0.44205766  1
  Bi2+  Bi64  1  -0.05751584  0.13543785  0.30256734  1
  Bi2+  Bi65  1  -0.00688143  0.13244107  0.80384232  1
  Bi2+  Bi66  1  -0.00832582  0.39706943  0.29669944  1
  Bi2+  Bi67  1  -0.02747406  0.38353414  0.78182472  1
  Bi2+  Bi68  1  0.02296049  0.64428295  0.24239015  1
  Bi2+  Bi69  1  0.01209953  0.57923314  0.79391911  1
  Bi2+  Bi70  1  -0.03454062  0.88950440  0.30193947  1
  Bi2+  Bi71  1  0.03914500  0.85543394  0.81855352  1
  Bi2+  Bi72  1  0.31857535  0.12398484  0.27581663  1
  Bi2+  Bi73  1  0.25865668  0.16685877  0.80095278  1
  Bi2+  Bi74  1  0.31806023  0.38778241  0.29491074  1
  Bi2+  Bi75  1  0.26319602  0.40489886  0.79805499  1
  Bi2+  Bi76  1  0.18152324  0.65389679  0.30836114  1
  Bi2+  Bi77  1  0.21621934  0.55297020  0.72892742  1
  Bi2+  Bi78  1  0.26138173  0.84829753  0.29916014  1
  Bi2+  Bi79  1  0.32910309  0.88847691  0.78790674  1
  Bi2+  Bi80  1  0.50346000  0.08665550  0.30058614  1
  Bi2+  Bi81  1  0.50305105  0.10314906  0.78597962  1
  Bi2+  Bi82  1  0.50626126  0.29156369  0.31800982  1
  Bi2+  Bi83  1  0.49307261  0.44287954  0.78802457  1
  Bi2+  Bi84  1  0.45891032  0.63539074  0.28324173  1
  Bi2+  Bi85  1  0.48836617  0.64434575  0.79044164  1
  Bi2+  Bi86  1  0.49943829  0.88054550  0.27540548  1
  Bi2+  Bi87  1  0.50574637  0.92257077  0.82921418  1
  Bi2+  Bi88  1  0.72075187  0.12217015  0.26054153  1
  Bi2+  Bi89  1  0.72236658  0.14308911  0.79418347  1
  Bi2+  Bi90  1  0.73172178  0.33757761  0.29001235  1
  Bi2+  Bi91  1  0.68192769  0.37693296  0.77321951  1
  Bi2+  Bi92  1  0.77467954  0.63782187  0.31316843  1
  Bi2+  Bi93  1  0.72683095  0.60838198  0.79605027  1
  Bi2+  Bi94  1  0.69600866  0.86315021  0.27929254  1
  Bi2+  Bi95  1  0.68221493  0.87760905  0.78523431  1
  Bi2+  Bi96  1  0.14071655  0.00520983  0.21644600  1
  Bi2+  Bi97  1  0.14562226  0.00983016  0.71189080  1
  Bi2+  Bi98  1  0.13557566  0.25729689  0.21857978  1
  Bi2+  Bi99  1  0.11785975  0.30874807  0.71763951  1
  Bi2+  Bi100  1  0.20444835  0.51156573  0.22863079  1
  Bi2+  Bi101  1  0.04546974  0.48209700  0.67826451  1
  Bi2+  Bi102  1  0.13149426  0.79424888  0.21217636  1
  Bi2+  Bi103  1  0.14901404  0.74272586  0.71628088  1
  Bi2+  Bi104  1  0.40628225  -0.00863598  0.19770680  1
  Bi2+  Bi105  1  0.38619517  0.02972119  0.69324251  1
  Bi2+  Bi106  1  0.38006995  0.27740028  0.20424730  1
  Bi2+  Bi107  1  0.38334620  0.21945345  0.71607453  1
  Bi2+  Bi108  1  0.40616357  0.49113861  0.20259760  1
  Bi2+  Bi109  1  0.36586085  0.43020182  0.69580340  1
  Bi2+  Bi110  1  0.31544325  0.71966605  0.21530330  1
  Bi2+  Bi111  1  0.40652386  0.76152884  0.71197744  1
  Bi2+  Bi112  1  0.61667188  -0.00182162  0.19695043  1
  Bi2+  Bi113  1  0.57720955  -0.02976359  0.70276572  1
  Bi2+  Bi114  1  0.56858055  0.22123051  0.21156009  1
  Bi2+  Bi115  1  0.57887945  0.24954990  0.71228829  1
  Bi2+  Bi116  1  0.56246536  0.46922728  0.27941075  1
  Bi2+  Bi117  1  0.60906331  0.55106056  0.70953895  1
  Bi2+  Bi118  1  0.60183551  0.72621975  0.21445433  1
  Bi2+  Bi119  1  0.60221057  0.75831919  0.70763095  1
  Bi2+  Bi120  1  0.88730581  -0.02302102  0.20760257  1
  Bi2+  Bi121  1  0.88184259  -0.00744269  0.71991341  1
  Bi2+  Bi122  1  0.83175727  0.25095214  0.20350683  1
  Bi2+  Bi123  1  0.88729305  0.26055071  0.70649338  1
  Bi2+  Bi124  1  0.81727231  0.50433562  0.21495721  1
  Bi2+  Bi125  1  0.85223200  0.47585549  0.70451534  1
  Bi2+  Bi126  1  0.85591180  0.73195691  0.20648370  1
  Bi2+  Bi127  1  0.88134795  0.73765227  0.71850495  1
  S2-  S128  1  -0.00580046  0.23697430  0.16668795  1
  S2-  S129  1  0.01006506  0.03166190  0.65173314  1
  S2-  S130  1  -0.04157468  0.44227372  0.19413638  1
  S2-  S131  1  0.01786796  0.24657323  0.63752843  1
  S2-  S132  1  -0.05028875  0.64365407  0.14272405  1
  S2-  S133  1  0.01104152  0.69999679  0.65270757  1
  S2-  S134  1  0.02770451  0.96979353  0.14332727  1
  S2-  S135  1  0.00231768  0.86015179  0.72189081  1
  S2-  S136  1  0.16201557  0.13206629  0.15228916  1
  S2-  S137  1  0.22971050  0.09830244  0.65198811  1
  S2-  S138  1  0.16359974  0.38384107  0.15297593  1
  S2-  S139  1  0.23690944  0.33783886  0.64706490  1
  S2-  S140  1  0.21020817  0.63069590  0.15263747  1
  S2-  S141  1  0.25563869  0.66631339  0.65443459  1
  S2-  S142  1  0.25993740  0.93758101  0.15098443  1
  S2-  S143  1  0.16737039  0.87251226  0.65034839  1
  S2-  S144  1  0.39040390  0.13095674  0.13665908  1
  S2-  S145  1  0.60206628  0.12514175  0.64136324  1
  S2-  S146  1  0.50869356  0.37483556  0.15415854  1
  S2-  S147  1  0.51697035  0.37849845  0.64949713  1
  S2-  S148  1  0.48319218  0.64836308  0.15852637  1
  S2-  S149  1  0.49226005  0.62945895  0.65060933  1
  S2-  S150  1  0.62647910  0.85853195  0.13969830  1
  S2-  S151  1  0.37875748  0.87955605  0.63778306  1
  S2-  S152  1  0.83863512  0.09392088  0.14422437  1
  S2-  S153  1  0.80844843  0.12055731  0.67735079  1
  S2-  S154  1  0.74980052  0.37900441  0.15735069  1
  S2-  S155  1  0.76816431  0.35229802  0.65139754  1
  S2-  S156  1  0.71846635  0.62682807  0.16364108  1
  S2-  S157  1  0.79361272  0.62748867  0.66174608  1
  S2-  S158  1  0.86290358  0.85286970  0.13640537  1
  S2-  S159  1  0.83002406  0.86668801  0.65318336  1
  S2-  S160  1  0.06832152  0.03504660  0.31512410  1
  S2-  S161  1  0.10579201  0.01787261  0.81853904  1
  S2-  S162  1  0.06980414  0.23992669  0.31596916  1
  S2-  S163  1  0.12306036  0.22838510  0.84541600  1
  S2-  S164  1  0.12322651  0.41913218  0.35071402  1
  S2-  S165  1  0.11464611  0.48697326  0.84546665  1
  S2-  S166  1  0.11309101  0.84026832  0.35533050  1
  S2-  S167  1  0.15801089  0.74259333  0.83701039  1
  S2-  S168  1  0.27363586  0.00511306  0.34594450  1
  S2-  S169  1  0.28832607  0.01840673  0.85517859  1
  S2-  S170  1  0.27975088  0.24132030  0.35007440  1
  S2-  S171  1  0.36245337  0.27578042  0.84603365  1
  S2-  S172  1  0.37052232  0.53381381  0.34466729  1
  S2-  S173  1  0.36399027  0.52504481  0.84346391  1
  S2-  S174  1  0.40328059  0.83744399  0.35937004  1
  S2-  S175  1  0.39969949  0.75899131  0.85048484  1
  S2-  S176  1  0.61448024  -0.03307262  0.35128037  1
  S2-  S177  1  0.71585426  0.01091016  0.85718413  1
  S2-  S178  1  0.67782395  0.21225606  0.35026325  1
  S2-  S179  1  0.62657955  0.24120037  0.84725473  1
  S2-  S180  1  0.68330354  0.50213374  0.35032786  1
  S2-  S181  1  0.63696691  0.48350386  0.85032927  1
  S2-  S182  1  0.65334771  0.73031185  0.34650911  1
  S2-  S183  1  0.71564099  0.74642431  0.85676271  1
  S2-  S184  1  0.86153678  0.00438518  0.34998097  1
  S2-  S185  1  0.90992681  -0.01946069  0.82259808  1
  S2-  S186  1  0.87329059  0.29821301  0.34491212  1
  S2-  S187  1  0.85467007  0.19321269  0.85440885  1
  S2-  S188  1  0.91299996  0.52918437  0.33920868  1
  S2-  S189  1  0.85527764  0.54622167  0.84550135  1
  S2-  S190  1  0.88897791  0.76131336  0.34279247  1
  S2-  S191  1  0.92465157  0.73542110  0.82202297  1
  S2-  S192  1  0.00969018  0.12364779  0.44804692  1
  S2-  S193  1  0.00010301  0.12181223  0.94541847  1
  S2-  S194  1  0.00448551  0.37258553  0.45604890  1
  S2-  S195  1  -0.00078925  0.37234344  0.94805632  1
  S2-  S196  1  0.00592170  0.62393259  0.45432974  1
  S2-  S197  1  0.00066187  0.62345610  0.94599452  1
  S2-  S198  1  0.00188628  0.87610194  0.45326475  1
  S2-  S199  1  -0.00138706  0.87757879  0.94280587  1
  S2-  S200  1  0.25601902  0.12227878  0.44770765  1
  S2-  S201  1  0.25457241  0.12648562  0.95974407  1
  S2-  S202  1  0.26039452  0.37620693  0.44888563  1
  S2-  S203  1  0.24879056  0.37542113  0.95721063  1
  S2-  S204  1  0.25774271  0.62519233  0.45162085  1
  S2-  S205  1  0.24860932  0.62280702  0.95023016  1
  S2-  S206  1  0.25801531  0.86875511  0.45670170  1
  S2-  S207  1  0.25286811  0.87169100  0.94987489  1
  S2-  S208  1  0.50631553  0.12303585  0.45046890  1
  S2-  S209  1  0.49751843  0.12744530  0.95302647  1
  S2-  S210  1  0.50838502  0.37503262  0.44800300  1
  S2-  S211  1  0.49859839  0.37302270  0.95140245  1
  S2-  S212  1  0.50947285  0.62499928  0.44844832  1
  S2-  S213  1  0.49972277  0.62348450  0.95258942  1
  S2-  S214  1  0.51039219  0.86932732  0.46257437  1
  S2-  S215  1  0.50113235  0.86854775  0.96202297  1
  S2-  S216  1  0.75531449  0.12426290  0.46270215  1
  S2-  S217  1  0.74528583  0.13018145  0.95893390  1
  S2-  S218  1  0.75330967  0.37188562  0.45117369  1
  S2-  S219  1  0.75055114  0.36910015  0.95188253  1
  S2-  S220  1  0.75693067  0.62226424  0.45818891  1
  S2-  S221  1  0.74783571  0.62067419  0.95803038  1
  S2-  S222  1  0.75946911  0.87497953  0.45557952  1
  S2-  S223  1  0.74612206  0.87463873  0.95437567  1
  S2-  S224  1  0.12637822  0.00421037  0.03503085  1
  S2-  S225  1  0.13402908  -0.00327981  0.53923263  1
  S2-  S226  1  0.12302093  0.24916599  0.05128211  1
  S2-  S227  1  0.13410528  0.24793581  0.53244016  1
  S2-  S228  1  0.11963139  0.50003749  0.04811055  1
  S2-  S229  1  0.13212599  0.49609835  0.54507973  1
  S2-  S230  1  0.12106092  0.75063232  0.04290569  1
  S2-  S231  1  0.13108109  0.74728172  0.54557828  1
  S2-  S232  1  0.37815412  -0.00414198  0.04201396  1
  S2-  S233  1  0.38299211  -0.00080457  0.53694956  1
  S2-  S234  1  0.37358618  0.25432714  0.04576250  1
  S2-  S235  1  0.38396724  0.24680439  0.54193792  1
  S2-  S236  1  0.37268349  0.49818379  0.04890207  1
  S2-  S237  1  0.38248930  0.49958838  0.54726989  1
  S2-  S238  1  0.37457243  0.75195956  0.05237651  1
  S2-  S239  1  0.38192754  0.74315298  0.54433430  1
  S2-  S240  1  0.62271890  0.00803953  0.04682196  1
  S2-  S241  1  0.63128105  -0.00895936  0.55072473  1
  S2-  S242  1  0.62239985  0.24837936  0.05125609  1
  S2-  S243  1  0.63032806  0.25344978  0.54534906  1
  S2-  S244  1  0.62642972  0.49752528  0.05398103  1
  S2-  S245  1  0.63179278  0.49701814  0.54890584  1
  S2-  S246  1  0.62719571  0.74263048  0.04297472  1
  S2-  S247  1  0.63198022  0.74649891  0.55256951  1
  S2-  S248  1  0.87344994  0.00552021  0.03374461  1
  S2-  S249  1  0.87909122  0.00206155  0.55249200  1
  S2-  S250  1  0.88034311  0.25011056  0.05095169  1
  S2-  S251  1  0.87787868  0.24662773  0.54567877  1
  S2-  S252  1  0.88191706  0.49271402  0.04929669  1
  S2-  S253  1  0.88263757  0.49486326  0.54666115  1
  S2-  S254  1  0.87654269  0.74850616  0.02968301  1
  S2-  S255  1  0.88314419  0.74504764  0.54861337  1
