# generated using pymatgen
data_La6Ce7Pr13Nd19Sm19(BiS2)64
_symmetry_space_group_name_H-M   'P 1'
_cell_length_a   16.05669020
_cell_length_b   16.05210132
_cell_length_c   27.47068032
_cell_angle_alpha   90.49087976
_cell_angle_beta   90.15479343
_cell_angle_gamma   89.91192744
_symmetry_Int_Tables_number   1
_chemical_formula_structural   La6Ce7Pr13Nd19Sm19(BiS2)64
_chemical_formula_sum   'La6 Ce7 Pr13 Nd19 Sm19 Bi64 S128'
_cell_volume   7080.09872219
_cell_formula_units_Z   1
loop_
 _symmetry_equiv_pos_site_id
 _symmetry_equiv_pos_as_xyz
  1  'x, y, z'
loop_
 _atom_type_symbol
 _atom_type_oxidation_number
  La3+  3.0
  Ce3+  3.0
  Pr3+  3.0
  Nd3+  3.0
  Sm3+  3.0
  Bi2+  2.0
  S2-  -2.0
loop_
 _atom_site_type_symbol
 _atom_site_label
 _atom_site_symmetry_multiplicity
 _atom_site_fract_x
 _atom_site_fract_y
 _atom_site_fract_z
 _atom_site_occupancy
  La3+  La0  1  0.11571965  0.50141407  0.39557816  1
  La3+  La1  1  0.35781600  0.72023468  0.92486971  1
  La3+  La2  1  0.85886176  -0.00415282  0.41871840  1
  La3+  La3  1  0.72724172  0.84455222  0.07687005  1
  La3+  La4  1  0.36798507  0.51302825  0.43134291  1
  La3+  La5  1  0.60384017  0.25515583  0.42097552  1
  Ce3+  Ce6  1  0.61259600  0.71451937  0.93329248  1
  Ce3+  Ce7  1  -0.01259495  0.85279393  0.06475278  1
  Ce3+  Ce8  1  0.36134333  -0.03388073  0.92139209  1
  Ce3+  Ce9  1  0.61390998  0.50350780  0.44804216  1
  Ce3+  Ce10  1  0.36309400  0.25443572  0.44399499  1
  Ce3+  Ce11  1  0.23669911  0.62940230  0.56445395  1
  Ce3+  Ce12  1  0.23883752  0.34757896  0.07250239  1
  Pr3+  Pr13  1  0.86342377  -0.03042304  0.94131988  1
  Pr3+  Pr14  1  0.86189394  0.22341784  0.95159159  1
  Pr3+  Pr15  1  0.86722298  0.50114171  0.43010565  1
  Pr3+  Pr16  1  0.36162281  0.22186639  0.93127507  1
  Pr3+  Pr17  1  0.36228167  -0.00158454  0.43923045  1
  Pr3+  Pr18  1  0.11606691  0.00188652  0.43383329  1
  Pr3+  Pr19  1  -0.01095740  0.37852554  0.56019237  1
  Pr3+  Pr20  1  0.74035361  0.88651572  0.57117905  1
  Pr3+  Pr21  1  -0.01196248  0.09396336  0.07755971  1
  Pr3+  Pr22  1  0.61320538  0.75126415  0.44405797  1
  Pr3+  Pr23  1  0.86416640  0.46923820  0.94256018  1
  Pr3+  Pr24  1  -0.01185230  0.88093971  0.56531777  1
  Pr3+  Pr25  1  -0.01475651  0.35632745  0.08585495  1
  Nd3+  Nd26  1  0.24024246  0.09823006  0.05077362  1
  Nd3+  Nd27  1  0.61442888  -0.03968076  0.92664650  1
  Nd3+  Nd28  1  0.48284939  0.34646250  0.07200413  1
  Nd3+  Nd29  1  0.11294505  0.24921296  0.43129592  1
  Nd3+  Nd30  1  0.23687361  0.13068712  0.56307784  1
  Nd3+  Nd31  1  0.11422199  0.75039639  0.44302324  1
  Nd3+  Nd32  1  0.73374281  0.34677117  0.07381578  1
  Nd3+  Nd33  1  0.47985689  0.84529306  0.06025785  1
  Nd3+  Nd34  1  0.23545176  0.60078394  0.05798007  1
  Nd3+  Nd35  1  0.60830349  -0.00949123  0.42545765  1
  Nd3+  Nd36  1  0.48942608  0.37800018  0.56320441  1
  Nd3+  Nd37  1  0.60980458  0.47113907  0.94043225  1
  Nd3+  Nd38  1  0.48663071  0.09283725  0.04737982  1
  Nd3+  Nd39  1  -0.01303242  0.62272270  0.56764886  1
  Nd3+  Nd40  1  -0.01143329  0.60017962  0.06551970  1
  Nd3+  Nd41  1  0.23667715  0.89021494  0.59077978  1
  Nd3+  Nd42  1  0.09910888  0.71693898  0.91189207  1
  Nd3+  Nd43  1  0.73457382  0.59948386  0.06416876  1
  Nd3+  Nd44  1  0.11056223  0.46629694  0.93959512  1
  Sm3+  Sm45  1  0.49072843  0.12764601  0.55711835  1
  Sm3+  Sm46  1  -0.01219146  0.12681026  0.55114604  1
  Sm3+  Sm47  1  0.86434932  0.25182292  0.43893188  1
  Sm3+  Sm48  1  0.35687321  0.75248773  0.45222027  1
  Sm3+  Sm49  1  0.48721359  0.63151950  0.56889168  1
  Sm3+  Sm50  1  0.35778634  0.47064507  0.93743229  1
  Sm3+  Sm51  1  0.48951272  0.88084930  0.56227240  1
  Sm3+  Sm52  1  0.74027370  0.62893464  0.55636999  1
  Sm3+  Sm53  1  0.11087516  -0.02828795  0.93812332  1
  Sm3+  Sm54  1  0.73735444  0.12536796  0.54956439  1
  Sm3+  Sm55  1  0.10857376  0.22803122  0.95036001  1
  Sm3+  Sm56  1  0.23783710  0.38097722  0.55120856  1
  Sm3+  Sm57  1  0.86514933  0.75262788  0.44335808  1
  Sm3+  Sm58  1  0.73430389  0.09479832  0.05598913  1
  Sm3+  Sm59  1  0.73809512  0.37698464  0.54941962  1
  Sm3+  Sm60  1  0.61145978  0.22320252  0.94487497  1
  Sm3+  Sm61  1  0.24017529  0.84867133  0.05191482  1
  Sm3+  Sm62  1  0.86483048  0.72212014  0.94787084  1
  Sm3+  Sm63  1  0.48470957  0.59905563  0.05701441  1
  Bi2+  Bi64  1  0.04675790  0.13583001  0.27034688  1
  Bi2+  Bi65  1  -0.00201780  0.17683509  0.74568408  1
  Bi2+  Bi66  1  -0.00150301  0.37448714  0.28119418  1
  Bi2+  Bi67  1  -0.03426735  0.36336665  0.81088747  1
  Bi2+  Bi68  1  0.02928657  0.69287350  0.26696967  1
  Bi2+  Bi69  1  -0.01766741  0.60547224  0.79258687  1
  Bi2+  Bi70  1  0.06908730  0.87544704  0.29564655  1
  Bi2+  Bi71  1  0.01153697  0.87654299  0.80640682  1
  Bi2+  Bi72  1  0.26722326  0.04786657  0.30689980  1
  Bi2+  Bi73  1  0.19855591  0.19325275  0.76157941  1
  Bi2+  Bi74  1  0.26473969  0.35982361  0.28553006  1
  Bi2+  Bi75  1  0.22547732  0.38104645  0.79698800  1
  Bi2+  Bi76  1  0.28341642  0.62756289  0.30569308  1
  Bi2+  Bi77  1  0.23273002  0.62296675  0.78965972  1
  Bi2+  Bi78  1  0.24089846  0.87002608  0.35587924  1
  Bi2+  Bi79  1  0.26582971  0.91785276  0.79198568  1
  Bi2+  Bi80  1  0.54178922  0.06639489  0.27232812  1
  Bi2+  Bi81  1  0.47897898  0.22546810  0.78568466  1
  Bi2+  Bi82  1  0.54381003  0.34033475  0.28724447  1
  Bi2+  Bi83  1  0.51874226  0.42613071  0.81987104  1
  Bi2+  Bi84  1  0.60728444  0.61956205  0.30712634  1
  Bi2+  Bi85  1  0.53593884  0.62932784  0.77208728  1
  Bi2+  Bi86  1  0.48973424  0.87432264  0.28771898  1
  Bi2+  Bi87  1  0.52457630  0.90281821  0.79368920  1
  Bi2+  Bi88  1  0.79757747  0.13684744  0.29429205  1
  Bi2+  Bi89  1  0.72958525  0.15507528  0.73732771  1
  Bi2+  Bi90  1  0.79093530  0.48668065  0.30007963  1
  Bi2+  Bi91  1  0.75230281  0.32951340  0.79636950  1
  Bi2+  Bi92  1  0.79947341  0.68586577  0.31614299  1
  Bi2+  Bi93  1  0.73155503  0.64470576  0.75331062  1
  Bi2+  Bi94  1  0.73929702  0.87673555  0.29207801  1
  Bi2+  Bi95  1  0.74665026  0.91352809  0.79578590  1
  Bi2+  Bi96  1  0.15129430  -0.00864164  0.21637476  1
  Bi2+  Bi97  1  0.10826503  0.02307409  0.70594175  1
  Bi2+  Bi98  1  0.24030867  0.24912532  0.19549861  1
  Bi2+  Bi99  1  0.10547207  0.27974340  0.66756683  1
  Bi2+  Bi100  1  0.16151457  0.50681735  0.18732994  1
  Bi2+  Bi101  1  0.07826543  0.44660021  0.72692020  1
  Bi2+  Bi102  1  0.15216473  0.78308527  0.19839802  1
  Bi2+  Bi103  1  0.14819739  0.75212139  0.70454881  1
  Bi2+  Bi104  1  0.39205947  -0.00416588  0.18606427  1
  Bi2+  Bi105  1  0.36508121  0.08514523  0.74041314  1
  Bi2+  Bi106  1  0.38329714  0.19374050  0.26908219  1
  Bi2+  Bi107  1  0.35675853  0.29551354  0.70476273  1
  Bi2+  Bi108  1  0.47580516  0.56884808  0.22324812  1
  Bi2+  Bi109  1  0.37176644  0.50346760  0.75909289  1
  Bi2+  Bi110  1  0.32254495  0.79916382  0.25482797  1
  Bi2+  Bi111  1  0.40356333  0.72771521  0.70329026  1
  Bi2+  Bi112  1  0.66488393  -0.02198839  0.19835449  1
  Bi2+  Bi113  1  0.59411817  -0.00067440  0.69888044  1
  Bi2+  Bi114  1  0.61307188  0.20819678  0.20103122  1
  Bi2+  Bi115  1  0.57229390  0.24267415  0.68488740  1
  Bi2+  Bi116  1  0.65079787  0.48487668  0.21183250  1
  Bi2+  Bi117  1  0.62772198  0.42449311  0.72531055  1
  Bi2+  Bi118  1  0.59160392  0.73287680  0.21189424  1
  Bi2+  Bi119  1  0.66439025  0.81482800  0.70652138  1
  Bi2+  Bi120  1  0.90675501  0.02500281  0.20776132  1
  Bi2+  Bi121  1  0.85252145  0.00416591  0.70753095  1
  Bi2+  Bi122  1  0.83529312  0.30672594  0.24201141  1
  Bi2+  Bi123  1  0.85659499  0.28252275  0.69374244  1
  Bi2+  Bi124  1  0.83556636  0.54981718  0.19269743  1
  Bi2+  Bi125  1  0.86017449  0.49527954  0.70583440  1
  Bi2+  Bi126  1  0.86595942  0.74454249  0.21140667  1
  Bi2+  Bi127  1  0.88076287  0.74804104  0.71206443  1
  S2-  S128  1  -0.02396244  0.16117464  0.17225505  1
  S2-  S129  1  -0.02701457  0.08138549  0.64526188  1
  S2-  S130  1  0.11922883  0.34536951  0.15101945  1
  S2-  S131  1  -0.02174284  0.48862749  0.63983847  1
  S2-  S132  1  -0.00496020  0.52697698  0.15503713  1
  S2-  S133  1  0.01482576  0.69004324  0.66160201  1
  S2-  S134  1  0.01264235  0.95501286  0.14373336  1
  S2-  S135  1  0.09197580  0.88400216  0.64875664  1
  S2-  S136  1  0.25222241  0.08447965  0.14911261  1
  S2-  S137  1  0.23894623  0.04440685  0.64723755  1
  S2-  S138  1  0.35906591  0.34448725  0.14382069  1
  S2-  S139  1  0.24170372  0.38541226  0.64911113  1
  S2-  S140  1  0.23784972  0.63910347  0.15661188  1
  S2-  S141  1  0.26187117  0.63965062  0.66205477  1
  S2-  S142  1  0.34950365  0.87054167  0.12922398  1
  S2-  S143  1  0.28916756  0.85478077  0.68961110  1
  S2-  S144  1  0.48833712  0.11784115  0.14558840  1
  S2-  S145  1  0.47380037  0.09548994  0.65298200  1
  S2-  S146  1  0.60640827  0.34812772  0.14486785  1
  S2-  S147  1  0.48646580  0.39643248  0.66097359  1
  S2-  S148  1  0.47216838  0.67221867  0.14580994  1
  S2-  S149  1  0.51692056  0.62655687  0.66467554  1
  S2-  S150  1  0.58478533  0.87364846  0.13989461  1
  S2-  S151  1  0.50404379  0.85671424  0.65927331  1
  S2-  S152  1  0.73594339  0.12430784  0.15343002  1
  S2-  S153  1  0.73005119  0.03523974  0.63310770  1
  S2-  S154  1  0.84650426  0.35830052  0.15058769  1
  S2-  S155  1  0.74640799  0.39334489  0.64610807  1
  S2-  S156  1  0.72498502  0.69400575  0.14793807  1
  S2-  S157  1  0.78244421  0.62793368  0.65055301  1
  S2-  S158  1  0.81146856  0.89363591  0.16286931  1
  S2-  S159  1  0.86891971  0.87196295  0.64279979  1
  S2-  S160  1  0.13206434  0.12274066  0.35743448  1
  S2-  S161  1  0.11680648  -0.01128580  0.83946558  1
  S2-  S162  1  0.12194388  0.34031629  0.34729833  1
  S2-  S163  1  0.10316840  0.33072288  0.87163362  1
  S2-  S164  1  0.15935177  0.50092985  0.28308439  1
  S2-  S165  1  0.10318198  0.56756376  0.85533378  1
  S2-  S166  1  0.12372298  0.66477271  0.35464836  1
  S2-  S167  1  0.15990484  0.77966476  0.82248316  1
  S2-  S168  1  0.47221880  0.00377159  0.35904831  1
  S2-  S169  1  0.34330913  0.06284226  0.84075670  1
  S2-  S170  1  0.45059674  0.25561320  0.36013666  1
  S2-  S171  1  0.35356108  0.34921513  0.86392674  1
  S2-  S172  1  0.35299746  0.47247297  0.33286483  1
  S2-  S173  1  0.34906820  0.58547345  0.85720392  1
  S2-  S174  1  0.39628213  0.67290318  0.36793127  1
  S2-  S175  1  0.37587633  0.84023676  0.84700780  1
  S2-  S176  1  0.72299825  0.01915275  0.35089317  1
  S2-  S177  1  0.61741257  0.02610191  0.83225133  1
  S2-  S178  1  0.66670169  0.25119782  0.32669716  1
  S2-  S179  1  0.60773856  0.27998272  0.85357043  1
  S2-  S180  1  0.57687220  0.46496558  0.35716224  1
  S2-  S181  1  0.61103218  0.58234236  0.86267310  1
  S2-  S182  1  0.61145840  0.84009632  0.35833068  1
  S2-  S183  1  0.62994517  0.82132441  0.85751845  1
  S2-  S184  1  0.93217828  0.04960371  0.32520089  1
  S2-  S185  1  0.89056591  -0.02142644  0.84204000  1
  S2-  S186  1  0.89824657  0.26917030  0.34329975  1
  S2-  S187  1  0.86793974  0.24138123  0.85275522  1
  S2-  S188  1  0.96141668  0.49969983  0.34487424  1
  S2-  S189  1  0.87107868  0.50537949  0.84429972  1
  S2-  S190  1  0.86272307  0.84248253  0.35949143  1
  S2-  S191  1  0.94222536  0.73727837  0.85900335  1
  S2-  S192  1  -0.01554886  0.12661855  0.44878921  1
  S2-  S193  1  -0.01016091  0.09817199  0.95727279  1
  S2-  S194  1  -0.01005094  0.37572415  0.45367805  1
  S2-  S195  1  -0.01596304  0.34748356  0.97304812  1
  S2-  S196  1  -0.01207291  0.62727895  0.45575632  1
  S2-  S197  1  -0.01337601  0.59796143  0.96038903  1
  S2-  S198  1  -0.00815041  0.87728198  0.45529419  1
  S2-  S199  1  -0.00873184  0.84684228  0.95910141  1
  S2-  S200  1  0.24330741  0.12795725  0.45820728  1
  S2-  S201  1  0.22982172  0.10196511  0.94621638  1
  S2-  S202  1  0.23957564  0.38289393  0.44788354  1
  S2-  S203  1  0.23761889  0.34619684  0.96600895  1
  S2-  S204  1  0.23616898  0.62411125  0.45916764  1
  S2-  S205  1  0.22821521  0.59862785  0.95450735  1
  S2-  S206  1  0.23728441  0.87743619  0.47010701  1
  S2-  S207  1  0.22646528  0.84303816  0.94806834  1
  S2-  S208  1  0.48786062  0.12683137  0.45594050  1
  S2-  S209  1  0.49069640  0.09770199  0.94178316  1
  S2-  S210  1  0.48587168  0.38154664  0.45958000  1
  S2-  S211  1  0.48813803  0.34782267  0.96332494  1
  S2-  S212  1  0.49213020  0.62932922  0.46672634  1
  S2-  S213  1  0.48186359  0.59356827  0.95587652  1
  S2-  S214  1  0.48264430  0.87013370  0.45981854  1
  S2-  S215  1  0.48756285  0.84302307  0.95327068  1
  S2-  S216  1  0.73557984  0.13399454  0.44841065  1
  S2-  S217  1  0.73517412  0.09715787  0.94997486  1
  S2-  S218  1  0.73920157  0.37537012  0.44547651  1
  S2-  S219  1  0.73470973  0.34831920  0.96220041  1
  S2-  S220  1  0.74092184  0.62699105  0.45185673  1
  S2-  S221  1  0.74331219  0.59743377  0.95920764  1
  S2-  S222  1  0.73826149  0.87408617  0.46301418  1
  S2-  S223  1  0.74293195  0.84286148  0.95967131  1
  S2-  S224  1  0.11735965  -0.02659495  0.04192224  1
  S2-  S225  1  0.11309668  0.00797230  0.54107957  1
  S2-  S226  1  0.11003914  0.21840989  0.05208594  1
  S2-  S227  1  0.11375348  0.25243019  0.53867633  1
  S2-  S228  1  0.11260974  0.47515414  0.04677794  1
  S2-  S229  1  0.11704259  0.50220052  0.54939463  1
  S2-  S230  1  0.11161081  0.72843370  0.05368425  1
  S2-  S231  1  0.11300642  0.75139776  0.54885511  1
  S2-  S232  1  0.35996588  -0.02610398  0.02718919  1
  S2-  S233  1  0.36638870  0.00276094  0.54769727  1
  S2-  S234  1  0.36477957  0.22018894  0.03839148  1
  S2-  S235  1  0.36447253  0.25321917  0.55063453  1
  S2-  S236  1  0.36197256  0.47790803  0.04418539  1
  S2-  S237  1  0.36590377  0.50446001  0.54924401  1
  S2-  S238  1  0.35871191  0.72049692  0.03463043  1
  S2-  S239  1  0.36395633  0.75718660  0.55670063  1
  S2-  S240  1  0.61321159  -0.02666582  0.03473080  1
  S2-  S241  1  0.60872783  0.00280168  0.53662609  1
  S2-  S242  1  0.61117051  0.21972758  0.04574885  1
  S2-  S243  1  0.61446871  0.25198167  0.54103285  1
  S2-  S244  1  0.60986483  0.47690183  0.04723378  1
  S2-  S245  1  0.61491909  0.50497842  0.55392267  1
  S2-  S246  1  0.60757685  0.71932616  0.03952439  1
  S2-  S247  1  0.61480789  0.75338766  0.55239047  1
  S2-  S248  1  0.85976264  -0.02509177  0.04687593  1
  S2-  S249  1  0.86422783  0.00714569  0.53328987  1
  S2-  S250  1  0.86008367  0.21807884  0.05524329  1
  S2-  S251  1  0.86144935  0.25101208  0.54399305  1
  S2-  S252  1  0.85967123  0.47737852  0.04887916  1
  S2-  S253  1  0.85822433  0.50154167  0.53733593  1
  S2-  S254  1  0.86428053  0.72498995  0.05121529  1
  S2-  S255  1  0.86367050  0.74961358  0.54502082  1
