# generated using pymatgen
data_La6Ce7Pr13Nd19Sm19(BiS2)64
_symmetry_space_group_name_H-M   'P 1'
_cell_length_a   16.04501782
_cell_length_b   16.12250058
_cell_length_c   27.25334043
_cell_angle_alpha   89.84350609
_cell_angle_beta   90.02110474
_cell_angle_gamma   89.98767439
_symmetry_Int_Tables_number   1
_chemical_formula_structural   La6Ce7Pr13Nd19Sm19(BiS2)64
_chemical_formula_sum   'La6 Ce7 Pr13 Nd19 Sm19 Bi64 S128'
_cell_volume   7050.02547991
_cell_formula_units_Z   1
loop_
 _symmetry_equiv_pos_site_id
 _symmetry_equiv_pos_as_xyz
  1  'x, y, z'
loop_
 _atom_type_symbol
 _atom_type_oxidation_number
  La3+  3.0
  Ce3+  3.0
  Pr3+  3.0
  Nd3+  3.0
  Sm3+  3.0
  Bi2+  2.0
  S2-  -2.0
loop_
 _atom_site_type_symbol
 _atom_site_label
 _atom_site_symmetry_multiplicity
 _atom_site_fract_x
 _atom_site_fract_y
 _atom_site_fract_z
 _atom_site_occupancy
  La3+  La0  1  0.60757219  0.50338266  0.41236812  1
  La3+  La1  1  0.87350840  0.48757509  0.93854165  1
  La3+  La2  1  0.12316064  0.74559825  0.39345870  1
  La3+  La3  1  0.48087133  0.36885022  0.57443579  1
  La3+  La4  1  0.62823179  0.74344073  0.91625186  1
  La3+  La5  1  0.75474231  0.11844112  0.11097509  1
  Ce3+  Ce6  1  0.86781671  0.74177666  0.43870918  1
  Ce3+  Ce7  1  0.73478865  0.37049557  0.55954359  1
  Ce3+  Ce8  1  0.86413981  0.49768625  0.45054038  1
  Ce3+  Ce9  1  -0.00483373  0.61733587  0.06149213  1
  Ce3+  Ce10  1  0.37567107  -0.00417730  0.94482504  1
  Ce3+  Ce11  1  0.61405556  0.74265418  0.44390547  1
  Ce3+  Ce12  1  0.12575789  0.24244570  0.94562834  1
  Pr3+  Pr13  1  0.85323253  0.24985761  0.43476995  1
  Pr3+  Pr14  1  0.36496679  0.49954381  0.90772264  1
  Pr3+  Pr15  1  0.12403762  0.49132365  0.94247999  1
  Pr3+  Pr16  1  0.48121191  0.61553830  0.58873717  1
  Pr3+  Pr17  1  0.48941906  0.12088853  0.58087891  1
  Pr3+  Pr18  1  0.60601404  0.24648392  0.43894177  1
  Pr3+  Pr19  1  0.49707767  0.86856258  0.06427382  1
  Pr3+  Pr20  1  0.36173994  0.49809686  0.44296507  1
  Pr3+  Pr21  1  0.23126320  0.36769472  0.56443538  1
  Pr3+  Pr22  1  0.61152380  -0.00531247  0.43419111  1
  Pr3+  Pr23  1  0.11301379  0.00044424  0.43037054  1
  Pr3+  Pr24  1  0.23486772  0.11807954  0.56513609  1
  Pr3+  Pr25  1  0.24910382  0.11989885  0.07145223  1
  Nd3+  Nd26  1  0.86459746  -0.00398919  0.43920257  1
  Nd3+  Nd27  1  0.73788685  0.86863780  0.55572159  1
  Nd3+  Nd28  1  0.73681963  0.61878600  0.56454527  1
  Nd3+  Nd29  1  0.37968074  0.74640390  0.92887955  1
  Nd3+  Nd30  1  0.86999407  0.74427433  0.93931360  1
  Nd3+  Nd31  1  0.73118316  0.37052016  0.06961939  1
  Nd3+  Nd32  1  0.00186648  0.11790214  0.07089189  1
  Nd3+  Nd33  1  0.36346080  0.74115911  0.44367158  1
  Nd3+  Nd34  1  0.24992299  0.61746171  0.06067998  1
  Nd3+  Nd35  1  0.48822285  0.86856194  0.55957940  1
  Nd3+  Nd36  1  0.73999934  0.61610313  0.05891666  1
  Nd3+  Nd37  1  0.36663408  0.24698644  0.43794154  1
  Nd3+  Nd38  1  0.23070705  0.62223229  0.56799692  1
  Nd3+  Nd39  1  0.12428276  -0.00447274  0.94383063  1
  Nd3+  Nd40  1  0.73741363  0.86784624  0.06974964  1
  Nd3+  Nd41  1  0.11223308  0.24557680  0.42951072  1
  Nd3+  Nd42  1  0.62729432  0.48633904  0.91784254  1
  Nd3+  Nd43  1  0.86864590  -0.00303253  0.94577291  1
  Nd3+  Nd44  1  0.12311072  0.74319784  0.94141014  1
  Sm3+  Sm45  1  0.49264187  0.37037100  0.04439430  1
  Sm3+  Sm46  1  0.25181700  0.36924905  0.05932538  1
  Sm3+  Sm47  1  0.49719461  0.61693260  0.04386203  1
  Sm3+  Sm48  1  0.24943466  0.86802448  0.05310854  1
  Sm3+  Sm49  1  0.86947142  0.24126519  0.95252879  1
  Sm3+  Sm50  1  0.36184311  0.23139356  0.90763504  1
  Sm3+  Sm51  1  -0.00813139  0.62309991  0.56132591  1
  Sm3+  Sm52  1  -0.01034569  0.36642334  0.55932425  1
  Sm3+  Sm53  1  0.36248108  -0.00511147  0.44355022  1
  Sm3+  Sm54  1  0.62217759  -0.00180522  0.94516375  1
  Sm3+  Sm55  1  0.11195738  0.49681529  0.43785781  1
  Sm3+  Sm56  1  0.50169802  0.12314944  0.05998857  1
  Sm3+  Sm57  1  -0.01152707  0.11970213  0.56113271  1
  Sm3+  Sm58  1  0.23477991  0.86843707  0.55105521  1
  Sm3+  Sm59  1  -0.01025438  0.86977573  0.55143242  1
  Sm3+  Sm60  1  0.61861307  0.24608970  0.93485879  1
  Sm3+  Sm61  1  -0.00678634  0.86858074  0.05792363  1
  Sm3+  Sm62  1  -0.00702874  0.36673869  0.06379508  1
  Sm3+  Sm63  1  0.73675802  0.11902994  0.56408931  1
  Bi2+  Bi64  1  0.07246264  0.19648592  0.27071854  1
  Bi2+  Bi65  1  -0.03394703  0.17457789  0.77926237  1
  Bi2+  Bi66  1  0.07095226  0.37543763  0.31662347  1
  Bi2+  Bi67  1  0.00336124  0.44469566  0.82605084  1
  Bi2+  Bi68  1  0.00126538  0.62799876  0.28377398  1
  Bi2+  Bi69  1  -0.03460981  0.63448160  0.80740054  1
  Bi2+  Bi70  1  -0.00031692  0.87757574  0.28674241  1
  Bi2+  Bi71  1  -0.02187081  0.92242015  0.78852138  1
  Bi2+  Bi72  1  0.27757096  0.12651928  0.29619657  1
  Bi2+  Bi73  1  0.22445024  0.10192915  0.79238574  1
  Bi2+  Bi74  1  0.25964968  0.31730060  0.32856376  1
  Bi2+  Bi75  1  0.17002695  0.36239963  0.78463445  1
  Bi2+  Bi76  1  0.28810789  0.51380778  0.31326374  1
  Bi2+  Bi77  1  0.20323681  0.62550772  0.79027618  1
  Bi2+  Bi78  1  0.26699626  0.85943298  0.28713394  1
  Bi2+  Bi79  1  0.23209298  0.88552300  0.79364043  1
  Bi2+  Bi80  1  0.48062847  0.18901181  0.26788277  1
  Bi2+  Bi81  1  0.56320831  0.13052367  0.80052461  1
  Bi2+  Bi82  1  0.43543873  0.37914423  0.28411052  1
  Bi2+  Bi83  1  0.54615493  0.37633574  0.77461824  1
  Bi2+  Bi84  1  0.44886271  0.70800392  0.27166354  1
  Bi2+  Bi85  1  0.48163659  0.64568940  0.78688391  1
  Bi2+  Bi86  1  0.50786617  0.91804840  0.30407649  1
  Bi2+  Bi87  1  0.44231024  0.93071334  0.81144518  1
  Bi2+  Bi88  1  0.77501594  0.11780297  0.31764492  1
  Bi2+  Bi89  1  0.76297044  0.14067856  0.78509002  1
  Bi2+  Bi90  1  0.80902110  0.37498342  0.30822765  1
  Bi2+  Bi91  1  0.79017740  0.37313360  0.79211605  1
  Bi2+  Bi92  1  0.74678533  0.61371819  0.30009180  1
  Bi2+  Bi93  1  0.75942272  0.63528840  0.79165893  1
  Bi2+  Bi94  1  0.68546696  0.83446430  0.30972217  1
  Bi2+  Bi95  1  0.79565857  0.95957637  0.74524204  1
  Bi2+  Bi96  1  0.19828466  0.01903037  0.21340549  1
  Bi2+  Bi97  1  0.10558559  -0.03402184  0.70313561  1
  Bi2+  Bi98  1  0.19783456  0.32229132  0.19957920  1
  Bi2+  Bi99  1  0.11597040  0.22742851  0.70862691  1
  Bi2+  Bi100  1  0.16245222  0.50858874  0.22058959  1
  Bi2+  Bi101  1  0.11329778  0.49818537  0.70868987  1
  Bi2+  Bi102  1  0.10761001  0.75463061  0.17786824  1
  Bi2+  Bi103  1  0.11203455  0.75569033  0.70925192  1
  Bi2+  Bi104  1  0.41061397  0.02373614  0.19754429  1
  Bi2+  Bi105  1  0.34342250  -0.00124484  0.71896872  1
  Bi2+  Bi106  1  0.35128754  0.21032457  0.17927874  1
  Bi2+  Bi107  1  0.37646544  0.24091802  0.71645795  1
  Bi2+  Bi108  1  0.37588083  0.55586540  0.21107920  1
  Bi2+  Bi109  1  0.35383144  0.49082579  0.71184648  1
  Bi2+  Bi110  1  0.39272133  0.82896469  0.19241614  1
  Bi2+  Bi111  1  0.30989194  0.76529479  0.71835646  1
  Bi2+  Bi112  1  0.60592178  -0.03105760  0.21023269  1
  Bi2+  Bi113  1  0.54911107  -0.00029246  0.71512692  1
  Bi2+  Bi114  1  0.63485058  0.27107253  0.20804458  1
  Bi2+  Bi115  1  0.64834237  0.23261071  0.70675962  1
  Bi2+  Bi116  1  0.60764118  0.50677424  0.19685893  1
  Bi2+  Bi117  1  0.64672336  0.51716616  0.69506935  1
  Bi2+  Bi118  1  0.63613729  0.72168472  0.21694242  1
  Bi2+  Bi119  1  0.65214098  0.77779899  0.69952038  1
  Bi2+  Bi120  1  0.88254622  -0.03308060  0.22047240  1
  Bi2+  Bi121  1  0.87146839  0.11136325  0.67968649  1
  Bi2+  Bi122  1  0.90063551  0.24504762  0.21353576  1
  Bi2+  Bi123  1  0.92655026  0.29847430  0.69024128  1
  Bi2+  Bi124  1  0.96879735  0.46089481  0.23009653  1
  Bi2+  Bi125  1  0.91602457  0.49054127  0.72389392  1
  Bi2+  Bi126  1  0.82618319  0.77114821  0.23933658  1
  Bi2+  Bi127  1  0.91504582  0.77098675  0.72597266  1
  S2-  S128  1  -0.08409258  0.10492319  0.15789480  1
  S2-  S129  1  0.10397102  0.10368080  0.63607434  1
  S2-  S130  1  0.01848473  0.34013167  0.15937946  1
  S2-  S131  1  0.09930567  0.36440542  0.63620410  1
  S2-  S132  1  -0.00843572  0.64414036  0.15747815  1
  S2-  S133  1  0.09971666  0.62501546  0.63941949  1
  S2-  S134  1  -0.00285704  0.87770803  0.15632285  1
  S2-  S135  1  -0.01010971  0.86554562  0.65037731  1
  S2-  S136  1  0.12993163  0.11417511  0.14595408  1
  S2-  S137  1  0.34562105  0.12144722  0.64603963  1
  S2-  S138  1  0.33579450  0.38161263  0.14587113  1
  S2-  S139  1  0.32319801  0.36520242  0.65321099  1
  S2-  S140  1  0.23902638  0.63396175  0.15963172  1
  S2-  S141  1  0.33256691  0.62468169  0.65176343  1
  S2-  S142  1  0.23392275  0.87345710  0.15084772  1
  S2-  S143  1  0.23821002  0.87914182  0.64930276  1
  S2-  S144  1  0.58734051  0.13841547  0.14545599  1
  S2-  S145  1  0.50088712  0.25284623  0.65359054  1
  S2-  S146  1  0.57694668  0.38199317  0.13214068  1
  S2-  S147  1  0.49987413  0.47531820  0.65620300  1
  S2-  S148  1  0.49992359  0.60201288  0.14342389  1
  S2-  S149  1  0.54090531  0.65697265  0.68593628  1
  S2-  S150  1  0.60178353  0.83802305  0.14376051  1
  S2-  S151  1  0.51464331  0.86141344  0.65843627  1
  S2-  S152  1  0.75094851  0.15444292  0.22173432  1
  S2-  S153  1  0.63450369  0.09364645  0.64273967  1
  S2-  S154  1  0.77762366  0.33424523  0.16458898  1
  S2-  S155  1  0.72083062  0.37322224  0.65751083  1
  S2-  S156  1  0.73438130  0.57776032  0.15701290  1
  S2-  S157  1  0.75395841  0.64581077  0.66331410  1
  S2-  S158  1  0.75465503  0.95958172  0.15619081  1
  S2-  S159  1  0.74928853  0.88427704  0.65387016  1
  S2-  S160  1  0.13199187  -0.09478273  0.34632719  1
  S2-  S161  1  0.11496923  0.00204590  0.84462220  1
  S2-  S162  1  0.11884902  0.12499692  0.35609850  1
  S2-  S163  1  0.20672024  0.23853032  0.85887909  1
  S2-  S164  1  0.11691268  0.58330923  0.35279495  1
  S2-  S165  1  0.21186680  0.48718962  0.85479851  1
  S2-  S166  1  0.13638318  0.74700293  0.27623474  1
  S2-  S167  1  0.09368349  0.73338279  0.84444724  1
  S2-  S168  1  0.35976224  -0.00907695  0.34415294  1
  S2-  S169  1  0.35735363  0.07403961  0.85917176  1
  S2-  S170  1  0.48394144  0.25600401  0.36130363  1
  S2-  S171  1  0.43158373  0.26198025  0.81644166  1
  S2-  S172  1  0.45533136  0.49891002  0.35594978  1
  S2-  S173  1  0.43108662  0.47963469  0.81018983  1
  S2-  S174  1  0.32077075  0.73372624  0.34657842  1
  S2-  S175  1  0.33973307  0.65235727  0.84727957  1
  S2-  S176  1  0.62744397  0.05287336  0.33976129  1
  S2-  S177  1  0.60120058  -0.02150197  0.84708640  1
  S2-  S178  1  0.71542645  0.25791460  0.35947504  1
  S2-  S179  1  0.64299633  0.34274955  0.85222822  1
  S2-  S180  1  0.66955011  0.46039513  0.31544212  1
  S2-  S181  1  0.61121549  0.60727445  0.84206297  1
  S2-  S182  1  0.61421019  0.66101313  0.35773260  1
  S2-  S183  1  0.49593251  0.77992538  0.84952553  1
  S2-  S184  1  0.89604236  -0.00921264  0.34060713  1
  S2-  S185  1  0.85612070  -0.01057985  0.84633354  1
  S2-  S186  1  0.91018451  0.23287628  0.33703879  1
  S2-  S187  1  0.89287178  0.27760614  0.85622553  1
  S2-  S188  1  0.87315813  0.51859523  0.35314114  1
  S2-  S189  1  0.77535408  0.49776236  0.85482772  1
  S2-  S190  1  0.95237580  0.74561394  0.35249466  1
  S2-  S191  1  0.77572691  0.75807451  0.85480224  1
  S2-  S192  1  -0.01765633  0.12426603  0.45632542  1
  S2-  S193  1  -0.00239395  0.11883719  0.95826170  1
  S2-  S194  1  -0.01245995  0.37050279  0.45397320  1
  S2-  S195  1  -0.00092331  0.36384177  0.96059151  1
  S2-  S196  1  -0.00904900  0.62036466  0.45830108  1
  S2-  S197  1  -0.00324267  0.61884655  0.95470208  1
  S2-  S198  1  -0.01037654  0.87082541  0.44894878  1
  S2-  S199  1  -0.00391911  0.86975635  0.95182611  1
  S2-  S200  1  0.24377971  0.12159297  0.45602260  1
  S2-  S201  1  0.24857886  0.11836907  0.96366720  1
  S2-  S202  1  0.23499071  0.37102713  0.45454787  1
  S2-  S203  1  0.25375105  0.36570709  0.95530496  1
  S2-  S204  1  0.23313310  0.62336719  0.45742953  1
  S2-  S205  1  0.24673452  0.62102812  0.95557457  1
  S2-  S206  1  0.24026353  0.86818219  0.44845935  1
  S2-  S207  1  0.24924304  0.86880050  0.94783522  1
  S2-  S208  1  0.48558925  0.11477357  0.45957730  1
  S2-  S209  1  0.49669456  0.12411885  0.95319387  1
  S2-  S210  1  0.48917236  0.37719466  0.46283505  1
  S2-  S211  1  0.48433084  0.36422710  0.94039328  1
  S2-  S212  1  0.48900748  0.62111231  0.46330920  1
  S2-  S213  1  0.49512105  0.61326609  0.94272025  1
  S2-  S214  1  0.48678739  0.86864006  0.45177051  1
  S2-  S215  1  0.50056337  0.87281932  0.95843827  1
  S2-  S216  1  0.73709915  0.11721349  0.45911100  1
  S2-  S217  1  0.74379791  0.12330380  0.94372506  1
  S2-  S218  1  0.73154431  0.38197915  0.45553526  1
  S2-  S219  1  0.74844368  0.36368918  0.96117911  1
  S2-  S220  1  0.73915700  0.61967374  0.45787660  1
  S2-  S221  1  0.74998609  0.61740209  0.95427701  1
  S2-  S222  1  0.74087608  0.86903664  0.44931500  1
  S2-  S223  1  0.74472880  0.87354070  0.96007011  1
  S2-  S224  1  0.12229066  -0.01308147  0.04818989  1
  S2-  S225  1  0.11129189  -0.00892008  0.53721947  1
  S2-  S226  1  0.12415016  0.24924356  0.04996116  1
  S2-  S227  1  0.10821520  0.24161704  0.53555542  1
  S2-  S228  1  0.12258700  0.49011863  0.05177164  1
  S2-  S229  1  0.10828501  0.49523931  0.54042079  1
  S2-  S230  1  0.12196380  0.74566669  0.04711952  1
  S2-  S231  1  0.11074359  0.75008311  0.54394244  1
  S2-  S232  1  0.37352685  -0.00474743  0.05151450  1
  S2-  S233  1  0.36266099  -0.00958521  0.54771768  1
  S2-  S234  1  0.37520098  0.24357406  0.04604306  1
  S2-  S235  1  0.35895772  0.24353476  0.54272278  1
  S2-  S236  1  0.37217270  0.49567395  0.03863205  1
  S2-  S237  1  0.35479989  0.49747096  0.54862517  1
  S2-  S238  1  0.37292890  0.74326433  0.04106793  1
  S2-  S239  1  0.36157676  0.74705490  0.54952270  1
  S2-  S240  1  0.62323889  -0.00049618  0.04816305  1
  S2-  S241  1  0.61349551  -0.00914917  0.54170055  1
  S2-  S242  1  0.61819524  0.24570241  0.03724640  1
  S2-  S243  1  0.61556288  0.24242108  0.54570871  1
  S2-  S244  1  0.61813256  0.49495029  0.02954295  1
  S2-  S245  1  0.61319861  0.49815472  0.55492977  1
  S2-  S246  1  0.62033654  0.73960732  0.03694833  1
  S2-  S247  1  0.61246257  0.74261971  0.55094580  1
  S2-  S248  1  0.87110871  -0.00643250  0.05064093  1
  S2-  S249  1  0.86349273  -0.00508534  0.54661637  1
  S2-  S250  1  0.86886962  0.24065495  0.05597216  1
  S2-  S251  1  0.86252812  0.24350123  0.54605196  1
  S2-  S252  1  0.86976331  0.48973312  0.05068356  1
  S2-  S253  1  0.86894653  0.49552113  0.55838469  1
  S2-  S254  1  0.86745980  0.74450502  0.04849545  1
  S2-  S255  1  0.86594330  0.74432614  0.54757841  1
