# generated using pymatgen
data_La6Ce7Pr13Nd19Sm19(BiS2)64
_symmetry_space_group_name_H-M   'P 1'
_cell_length_a   16.08957345
_cell_length_b   16.00685774
_cell_length_c   27.26488655
_cell_angle_alpha   89.51511495
_cell_angle_beta   89.72196871
_cell_angle_gamma   90.02738100
_symmetry_Int_Tables_number   1
_chemical_formula_structural   La6Ce7Pr13Nd19Sm19(BiS2)64
_chemical_formula_sum   'La6 Ce7 Pr13 Nd19 Sm19 Bi64 S128'
_cell_volume   7021.55960097
_cell_formula_units_Z   1
loop_
 _symmetry_equiv_pos_site_id
 _symmetry_equiv_pos_as_xyz
  1  'x, y, z'
loop_
 _atom_type_symbol
 _atom_type_oxidation_number
  La3+  3.0
  Ce3+  3.0
  Pr3+  3.0
  Nd3+  3.0
  Sm3+  3.0
  Bi2+  2.0
  S2-  -2.0
loop_
 _atom_site_type_symbol
 _atom_site_label
 _atom_site_symmetry_multiplicity
 _atom_site_fract_x
 _atom_site_fract_y
 _atom_site_fract_z
 _atom_site_occupancy
  La3+  La0  1  -0.00818322  0.11484149  0.57466666  1
  La3+  La1  1  0.24713127  0.61845464  0.56899885  1
  La3+  La2  1  0.25827641  0.11456828  0.57515462  1
  La3+  La3  1  0.75027060  0.87977999  0.09586237  1
  La3+  La4  1  0.75136684  0.63061913  0.61024096  1
  La3+  La5  1  0.00461303  0.88612983  0.06744501  1
  Ce3+  Ce6  1  0.37619391  0.24099962  0.43707981  1
  Ce3+  Ce7  1  0.88015228  0.52664538  0.92838931  1
  Ce3+  Ce8  1  0.50568509  0.86984802  0.55362339  1
  Ce3+  Ce9  1  0.88547576  0.01087348  0.93555253  1
  Ce3+  Ce10  1  0.00249969  0.13830897  0.05790537  1
  Ce3+  Ce11  1  0.50481577  0.38019445  0.06615968  1
  Ce3+  Ce12  1  0.38130074  0.76892559  0.95357677  1
  Pr3+  Pr13  1  0.62823633  -0.01257941  0.41014900  1
  Pr3+  Pr14  1  0.00069177  0.62019188  0.56581015  1
  Pr3+  Pr15  1  0.38701131  0.51546691  0.94764805  1
  Pr3+  Pr16  1  0.37567592  0.00022889  0.42561974  1
  Pr3+  Pr17  1  0.38645473  0.26176423  0.92971217  1
  Pr3+  Pr18  1  0.00096070  0.37216782  0.57352012  1
  Pr3+  Pr19  1  0.13236707  0.01828263  0.93277629  1
  Pr3+  Pr20  1  0.76047610  0.14327324  0.08218874  1
  Pr3+  Pr21  1  0.63110310  0.51925597  0.93885074  1
  Pr3+  Pr22  1  0.62318451  0.73728405  0.42717177  1
  Pr3+  Pr23  1  0.13419536  0.51865716  0.93029483  1
  Pr3+  Pr24  1  0.88020306  0.00586896  0.42392789  1
  Pr3+  Pr25  1  0.50665024  0.64252437  0.06741351  1
  Nd3+  Nd26  1  0.14371004  0.76871204  0.93064653  1
  Nd3+  Nd27  1  0.00049720  0.86515757  0.56196696  1
  Nd3+  Nd28  1  0.87433361  0.74781943  0.43781414  1
  Nd3+  Nd29  1  0.88672313  0.25397988  0.42659899  1
  Nd3+  Nd30  1  0.25014445  0.89785534  0.07345877  1
  Nd3+  Nd31  1  0.75040009  0.37249339  0.56279826  1
  Nd3+  Nd32  1  0.74982573  0.86856539  0.55309081  1
  Nd3+  Nd33  1  0.12076124  0.74212993  0.42507227  1
  Nd3+  Nd34  1  0.00375433  0.39143073  0.04994331  1
  Nd3+  Nd35  1  0.50710701  0.61769677  0.56709474  1
  Nd3+  Nd36  1  0.63239635  0.78106217  0.93531326  1
  Nd3+  Nd37  1  0.12398430  -0.00778767  0.43479152  1
  Nd3+  Nd38  1  0.87992932  0.26652407  0.93411396  1
  Nd3+  Nd39  1  0.87809101  0.49364698  0.44537206  1
  Nd3+  Nd40  1  0.37512647  0.50013599  0.43836086  1
  Nd3+  Nd41  1  0.25278780  0.36835499  0.55491083  1
  Nd3+  Nd42  1  0.88118163  0.77217204  0.93668868  1
  Nd3+  Nd43  1  0.50202163  0.13702586  0.06962578  1
  Nd3+  Nd44  1  0.37686454  0.01610488  0.93150275  1
  Sm3+  Sm45  1  0.75359754  0.63871829  0.05608632  1
  Sm3+  Sm46  1  0.13012169  0.26651640  0.93872015  1
  Sm3+  Sm47  1  0.75287386  0.12109719  0.55012098  1
  Sm3+  Sm48  1  0.50301811  0.37083917  0.54856597  1
  Sm3+  Sm49  1  0.25478874  0.63967866  0.06240151  1
  Sm3+  Sm50  1  0.50329600  0.11895895  0.55590890  1
  Sm3+  Sm51  1  0.25387600  0.14270614  0.06115012  1
  Sm3+  Sm52  1  0.12470479  0.24318269  0.44856960  1
  Sm3+  Sm53  1  0.25068932  0.86974281  0.55322789  1
  Sm3+  Sm54  1  0.00611368  0.63849769  0.05235219  1
  Sm3+  Sm55  1  0.37649401  0.74547933  0.44829548  1
  Sm3+  Sm56  1  0.75580757  0.38984842  0.05925421  1
  Sm3+  Sm57  1  0.12687598  0.49769842  0.43725252  1
  Sm3+  Sm58  1  0.62872765  0.24443598  0.43550450  1
  Sm3+  Sm59  1  0.25461619  0.38795739  0.04943125  1
  Sm3+  Sm60  1  0.50278306  0.89858880  0.06905980  1
  Sm3+  Sm61  1  0.63596960  0.01505263  0.95603453  1
  Sm3+  Sm62  1  0.63458770  0.26153226  0.94670455  1
  Sm3+  Sm63  1  0.62878952  0.49635832  0.43731068  1
  Bi2+  Bi64  1  -0.02491018  0.14721412  0.28827487  1
  Bi2+  Bi65  1  -0.02601474  0.12064833  0.77403571  1
  Bi2+  Bi66  1  0.04357552  0.39965135  0.31327335  1
  Bi2+  Bi67  1  0.01084028  0.30673291  0.80413761  1
  Bi2+  Bi68  1  0.02572260  0.59167622  0.28356305  1
  Bi2+  Bi69  1  -0.00533426  0.59300281  0.79847204  1
  Bi2+  Bi70  1  -0.01294282  0.88131175  0.30481726  1
  Bi2+  Bi71  1  -0.01900374  0.90707402  0.78437131  1
  Bi2+  Bi72  1  0.19577742  0.14763632  0.27252140  1
  Bi2+  Bi73  1  0.25734193  0.12044909  0.79294867  1
  Bi2+  Bi74  1  0.23528274  0.34602681  0.29856574  1
  Bi2+  Bi75  1  0.33254357  0.32166262  0.78334296  1
  Bi2+  Bi76  1  0.28910359  0.60980346  0.29414421  1
  Bi2+  Bi77  1  0.24064508  0.63679003  0.81129038  1
  Bi2+  Bi78  1  0.24418857  0.86825371  0.27247196  1
  Bi2+  Bi79  1  0.24862311  0.89118116  0.76544051  1
  Bi2+  Bi80  1  0.46841645  0.16914485  0.27973549  1
  Bi2+  Bi81  1  0.50441087  0.09194581  0.78308491  1
  Bi2+  Bi82  1  0.50460254  0.36480536  0.28516341  1
  Bi2+  Bi83  1  0.52284574  0.35845541  0.80104375  1
  Bi2+  Bi84  1  0.54356384  0.55560122  0.26560966  1
  Bi2+  Bi85  1  0.50246857  0.59615809  0.80247810  1
  Bi2+  Bi86  1  0.47216793  0.80667168  0.28807041  1
  Bi2+  Bi87  1  0.50205850  0.89266112  0.80023421  1
  Bi2+  Bi88  1  0.71174724  0.17287951  0.27990991  1
  Bi2+  Bi89  1  0.71194175  0.12423223  0.79444830  1
  Bi2+  Bi90  1  0.76849796  0.40632414  0.28587121  1
  Bi2+  Bi91  1  0.72072264  0.31239318  0.75503297  1
  Bi2+  Bi92  1  0.74554694  0.60405211  0.28862014  1
  Bi2+  Bi93  1  0.75842843  0.59782071  0.79620532  1
  Bi2+  Bi94  1  0.75758300  0.80051302  0.29273465  1
  Bi2+  Bi95  1  0.72710249  0.85078454  0.79799932  1
  Bi2+  Bi96  1  0.11774862  0.01443551  0.20153683  1
  Bi2+  Bi97  1  0.11001104  0.00075574  0.70837124  1
  Bi2+  Bi98  1  0.09758396  0.28821497  0.21105218  1
  Bi2+  Bi99  1  0.14036844  0.27737556  0.71316925  1
  Bi2+  Bi100  1  0.17474458  0.49767162  0.22200836  1
  Bi2+  Bi101  1  0.15229786  0.50002275  0.71133127  1
  Bi2+  Bi102  1  0.12363703  0.74362065  0.21609874  1
  Bi2+  Bi103  1  0.13739726  0.75846683  0.70663508  1
  Bi2+  Bi104  1  0.36498223  0.00945614  0.22910287  1
  Bi2+  Bi105  1  0.40167806  -0.02474328  0.70725033  1
  Bi2+  Bi106  1  0.34271365  0.20787272  0.19595485  1
  Bi2+  Bi107  1  0.45125385  0.24358738  0.70209470  1
  Bi2+  Bi108  1  0.35515835  0.41147917  0.21124163  1
  Bi2+  Bi109  1  0.40765207  0.47813954  0.72689155  1
  Bi2+  Bi110  1  0.35021302  0.73955626  0.20770197  1
  Bi2+  Bi111  1  0.39197412  0.74512148  0.76227707  1
  Bi2+  Bi112  1  0.59220100  -0.01769644  0.21577671  1
  Bi2+  Bi113  1  0.62982836  0.00551474  0.70680454  1
  Bi2+  Bi114  1  0.61781761  0.35446335  0.19141100  1
  Bi2+  Bi115  1  0.63719006  0.19836416  0.67411505  1
  Bi2+  Bi116  1  0.71201373  0.51915732  0.17096315  1
  Bi2+  Bi117  1  0.61337504  0.47686646  0.70739090  1
  Bi2+  Bi118  1  0.61374378  0.69599122  0.19755330  1
  Bi2+  Bi119  1  0.60899586  0.77821895  0.71141621  1
  Bi2+  Bi120  1  0.85579537  0.02341655  0.20530016  1
  Bi2+  Bi121  1  0.82777803  0.01009358  0.72744004  1
  Bi2+  Bi122  1  0.89029306  0.30567582  0.21547525  1
  Bi2+  Bi123  1  0.84278255  0.26960310  0.67351823  1
  Bi2+  Bi124  1  0.89860765  0.50873031  0.20680029  1
  Bi2+  Bi125  1  0.94090355  0.41757874  0.72096185  1
  Bi2+  Bi126  1  0.88796874  0.73245719  0.21051645  1
  Bi2+  Bi127  1  0.88603176  0.78662624  0.71212711  1
  S2-  S128  1  -0.01396363  0.11218123  0.15494084  1
  S2-  S129  1  0.01335394  0.24587436  0.64644946  1
  S2-  S130  1  0.00329676  0.39746472  0.14887260  1
  S2-  S131  1  0.01626377  0.50292188  0.64575442  1
  S2-  S132  1  0.00631735  0.67446340  0.14848266  1
  S2-  S133  1  0.01289257  0.74407098  0.64113707  1
  S2-  S134  1  -0.09730344  0.89484246  0.15172942  1
  S2-  S135  1  0.00036295  0.97434226  0.64081777  1
  S2-  S136  1  0.24975056  0.03789772  0.14152973  1
  S2-  S137  1  0.20426626  0.14408295  0.67352701  1
  S2-  S138  1  0.24976410  0.32899273  0.14111139  1
  S2-  S139  1  0.22930008  0.39744561  0.65292667  1
  S2-  S140  1  0.22992931  0.63472389  0.15907990  1
  S2-  S141  1  0.23959541  0.63067079  0.66965040  1
  S2-  S142  1  0.12501733  0.87102126  0.14523835  1
  S2-  S143  1  0.22631732  0.87428424  0.65164515  1
  S2-  S144  1  0.47338785  0.01861271  0.14515201  1
  S2-  S145  1  0.40656903  0.10475135  0.63816761  1
  S2-  S146  1  0.49639271  0.26267073  0.14077254  1
  S2-  S147  1  0.48875024  0.39981121  0.64523390  1
  S2-  S148  1  0.46632405  0.62038474  0.16567824  1
  S2-  S149  1  0.58998119  0.63017403  0.65452987  1
  S2-  S150  1  0.57907719  0.84677714  0.15118670  1
  S2-  S151  1  0.49748496  0.85422013  0.65222891  1
  S2-  S152  1  0.69973924  0.10520565  0.17851106  1
  S2-  S153  1  0.83414479  0.10644224  0.63651796  1
  S2-  S154  1  0.77067481  0.29457557  0.14259057  1
  S2-  S155  1  0.74324341  0.46338718  0.64868215  1
  S2-  S156  1  0.76654739  0.71878467  0.14264598  1
  S2-  S157  1  0.83429445  0.63333067  0.70649117  1
  S2-  S158  1  0.73562675  0.90858640  0.20860893  1
  S2-  S159  1  0.75124382  0.80281043  0.64733166  1
  S2-  S160  1  0.01914102  0.02552645  0.35581927  1
  S2-  S161  1  0.01058549  0.02733813  0.85788528  1
  S2-  S162  1  0.03605648  0.24629267  0.36435192  1
  S2-  S163  1  0.15659779  0.22202627  0.84566276  1
  S2-  S164  1  0.14416841  0.60791209  0.35826873  1
  S2-  S165  1  0.13567707  0.49702436  0.82958866  1
  S2-  S166  1  0.14018083  0.86742959  0.35440574  1
  S2-  S167  1  0.09919053  0.72022323  0.83623762  1
  S2-  S168  1  0.38599972  -0.07084848  0.33108882  1
  S2-  S169  1  0.24965782  -0.01016639  0.85652240  1
  S2-  S170  1  0.36650488  0.14408439  0.35776576  1
  S2-  S171  1  0.39192435  0.14116442  0.85684242  1
  S2-  S172  1  0.34768893  0.47638048  0.34147197  1
  S2-  S173  1  0.36708605  0.52693820  0.84851533  1
  S2-  S174  1  0.39153374  0.70175195  0.35415538  1
  S2-  S175  1  0.30297050  0.76536366  0.86807406  1
  S2-  S176  1  0.60756486  0.06699326  0.31987892  1
  S2-  S177  1  0.62989971  -0.06873454  0.86915272  1
  S2-  S178  1  0.65136828  0.29571838  0.34182717  1
  S2-  S179  1  0.60874973  0.23260238  0.85156667  1
  S2-  S180  1  0.60371346  0.59765574  0.35668258  1
  S2-  S181  1  0.63826107  0.48876858  0.84009715  1
  S2-  S182  1  0.61292842  0.84643954  0.34582029  1
  S2-  S183  1  0.65148054  0.70800493  0.84306453  1
  S2-  S184  1  0.82656925  -0.06788373  0.33461352  1
  S2-  S185  1  0.85379297  -0.10835422  0.86211947  1
  S2-  S186  1  0.84079637  0.15172211  0.34658266  1
  S2-  S187  1  0.86820369  0.21859601  0.83948267  1
  S2-  S188  1  0.88342127  0.39796739  0.36128681  1
  S2-  S189  1  0.87357132  0.47636095  0.83319480  1
  S2-  S190  1  0.96175205  0.74058195  0.35053610  1
  S2-  S191  1  0.88282407  0.66753953  0.85327895  1
  S2-  S192  1  0.00224377  0.12209314  0.46512269  1
  S2-  S193  1  0.00581490  0.14714628  0.95358802  1
  S2-  S194  1  0.00873750  0.37506681  0.46590340  1
  S2-  S195  1  0.00637413  0.39334531  0.94423732  1
  S2-  S196  1  0.00058133  0.61726900  0.45738667  1
  S2-  S197  1  0.01323220  0.64333193  0.95059220  1
  S2-  S198  1  -0.00060541  0.86900983  0.45579608  1
  S2-  S199  1  0.01429350  0.88553549  0.95665516  1
  S2-  S200  1  0.24773785  0.12003204  0.45916885  1
  S2-  S201  1  0.25404668  0.14538861  0.95730742  1
  S2-  S202  1  0.25000922  0.36985683  0.44946925  1
  S2-  S203  1  0.25821481  0.38792702  0.94471959  1
  S2-  S204  1  0.25326090  0.62149852  0.46016579  1
  S2-  S205  1  0.25886787  0.63608395  0.95943799  1
  S2-  S206  1  0.25669862  0.86878495  0.45009165  1
  S2-  S207  1  0.25687994  0.89257990  0.96658892  1
  S2-  S208  1  0.50911606  0.11754937  0.45075999  1
  S2-  S209  1  0.51103571  0.13706836  0.96162301  1
  S2-  S210  1  0.50208792  0.37141574  0.44371495  1
  S2-  S211  1  0.51003291  0.38597656  0.95590901  1
  S2-  S212  1  0.49874241  0.61789167  0.46067987  1
  S2-  S213  1  0.50796760  0.64649757  0.95776630  1
  S2-  S214  1  0.50025163  0.87076120  0.44913131  1
  S2-  S215  1  0.50108040  0.89673449  0.96355534  1
  S2-  S216  1  0.74198448  0.11651938  0.44769276  1
  S2-  S217  1  0.75809658  0.13858863  0.95626780  1
  S2-  S218  1  0.74692995  0.37053560  0.45545693  1
  S2-  S219  1  0.75511668  0.39039733  0.95248627  1
  S2-  S220  1  0.75533045  0.61691259  0.44322133  1
  S2-  S221  1  0.75187528  0.64553978  0.95388666  1
  S2-  S222  1  0.74756951  0.86944757  0.44869455  1
  S2-  S223  1  0.75701147  0.89255721  0.96999936  1
  S2-  S224  1  0.12804852  0.01980453  0.04114258  1
  S2-  S225  1  0.13161323  -0.00654814  0.54290717  1
  S2-  S226  1  0.12825977  0.26532017  0.04349741  1
  S2-  S227  1  0.13312549  0.24150403  0.54994503  1
  S2-  S228  1  0.13320062  0.51404277  0.04343852  1
  S2-  S229  1  0.12928923  0.49356297  0.54157068  1
  S2-  S230  1  0.13420529  0.75918946  0.04085427  1
  S2-  S231  1  0.12988529  0.74580873  0.53801610  1
  S2-  S232  1  0.37517060  0.01886498  0.03938566  1
  S2-  S233  1  0.37844917  -0.00904867  0.53682244  1
  S2-  S234  1  0.37708554  0.26366203  0.03724281  1
  S2-  S235  1  0.38018311  0.24643129  0.54316625  1
  S2-  S236  1  0.37923601  0.51154403  0.05466132  1
  S2-  S237  1  0.37761349  0.49553563  0.54638593  1
  S2-  S238  1  0.37753570  0.76889762  0.05958670  1
  S2-  S239  1  0.37661494  0.74307240  0.55372585  1
  S2-  S240  1  0.63599375  0.01554440  0.05850121  1
  S2-  S241  1  0.62796056  -0.00191855  0.54942009  1
  S2-  S242  1  0.63553456  0.26058381  0.04800752  1
  S2-  S243  1  0.62520274  0.24559753  0.54098393  1
  S2-  S244  1  0.62680396  0.51083201  0.04659458  1
  S2-  S245  1  0.62550509  0.49524890  0.54082311  1
  S2-  S246  1  0.62904053  0.76474314  0.04333589  1
  S2-  S247  1  0.62770618  0.74035342  0.54026047  1
  S2-  S248  1  0.87668611  0.01763718  0.04661173  1
  S2-  S249  1  0.87080502  -0.00940875  0.53427016  1
  S2-  S250  1  0.88086643  0.26634249  0.04142365  1
  S2-  S251  1  0.87216265  0.25001283  0.53688183  1
  S2-  S252  1  0.87829461  0.51611661  0.04106278  1
  S2-  S253  1  0.87079207  0.49993773  0.54955265  1
  S2-  S254  1  0.88226517  0.75845678  0.04247019  1
  S2-  S255  1  0.86928122  0.73851235  0.54425683  1
