# generated using pymatgen
data_La6Ce7Pr13Nd19Sm19(BiS2)64
_symmetry_space_group_name_H-M   'P 1'
_cell_length_a   16.06535705
_cell_length_b   16.05067368
_cell_length_c   27.56506406
_cell_angle_alpha   90.01092486
_cell_angle_beta   90.04492342
_cell_angle_gamma   90.09772829
_symmetry_Int_Tables_number   1
_chemical_formula_structural   La6Ce7Pr13Nd19Sm19(BiS2)64
_chemical_formula_sum   'La6 Ce7 Pr13 Nd19 Sm19 Bi64 S128'
_cell_volume   7107.90934839
_cell_formula_units_Z   1
loop_
 _symmetry_equiv_pos_site_id
 _symmetry_equiv_pos_as_xyz
  1  'x, y, z'
loop_
 _atom_type_symbol
 _atom_type_oxidation_number
  La3+  3.0
  Ce3+  3.0
  Pr3+  3.0
  Nd3+  3.0
  Sm3+  3.0
  Bi2+  2.0
  S2-  -2.0
loop_
 _atom_site_type_symbol
 _atom_site_label
 _atom_site_symmetry_multiplicity
 _atom_site_fract_x
 _atom_site_fract_y
 _atom_site_fract_z
 _atom_site_occupancy
  La3+  La0  1  0.49316088  0.13503912  0.56737041  1
  La3+  La1  1  -0.01027455  0.61849461  0.06973346  1
  La3+  La2  1  0.11717255  0.25451115  0.38287247  1
  La3+  La3  1  0.73585988  0.36844822  0.08802736  1
  La3+  La4  1  0.13614729  0.24723263  0.88142590  1
  La3+  La5  1  0.49492292  0.87294192  0.61929125  1
  Ce3+  Ce6  1  0.35865786  0.25860704  0.44186335  1
  Ce3+  Ce7  1  0.36468215  0.74532857  0.94097421  1
  Ce3+  Ce8  1  0.87640754  0.24942454  0.94001895  1
  Ce3+  Ce9  1  0.48926666  0.87331050  0.05674262  1
  Ce3+  Ce10  1  0.11567792  0.75402871  0.44303199  1
  Ce3+  Ce11  1  0.73911187  0.63289367  0.55668259  1
  Ce3+  Ce12  1  0.11502641  -0.00049411  0.93642142  1
  Pr3+  Pr13  1  0.24643568  0.88340869  0.56480312  1
  Pr3+  Pr14  1  0.36781310  0.51038332  0.43169599  1
  Pr3+  Pr15  1  0.74006257  0.88655632  0.56368640  1
  Pr3+  Pr16  1  0.87179930  0.01413363  0.44276549  1
  Pr3+  Pr17  1  -0.00793197  0.37157441  0.06210978  1
  Pr3+  Pr18  1  0.61465861  0.49246663  0.93101329  1
  Pr3+  Pr19  1  -0.00732203  0.14142864  0.56375587  1
  Pr3+  Pr20  1  -0.00802234  0.12147551  0.06055514  1
  Pr3+  Pr21  1  0.61849365  0.01302828  0.44083560  1
  Pr3+  Pr22  1  0.23723263  0.13129832  0.56352377  1
  Pr3+  Pr23  1  -0.01190907  0.63502960  0.57365999  1
  Pr3+  Pr24  1  0.86185241  0.49412005  0.93892160  1
  Pr3+  Pr25  1  0.61400860  0.51186847  0.42906160  1
  Nd3+  Nd26  1  0.86416054  0.51509285  0.42414625  1
  Nd3+  Nd27  1  0.73934113  0.87583130  0.06901855  1
  Nd3+  Nd28  1  0.24587833  0.63148873  0.56159635  1
  Nd3+  Nd29  1  -0.00453970  0.88579457  0.56995518  1
  Nd3+  Nd30  1  0.49257114  0.62053283  0.05706385  1
  Nd3+  Nd31  1  -0.00757427  0.38712382  0.56270645  1
  Nd3+  Nd32  1  0.86580608  -0.00498406  0.94116762  1
  Nd3+  Nd33  1  0.61821870  0.26109124  0.43564587  1
  Nd3+  Nd34  1  0.74312038  0.38882848  0.55289925  1
  Nd3+  Nd35  1  0.36951843  0.76421922  0.44668714  1
  Nd3+  Nd36  1  0.61455709  0.76409293  0.44435638  1
  Nd3+  Nd37  1  0.10818476  0.00790502  0.43322555  1
  Nd3+  Nd38  1  0.11311461  0.74596628  0.94001531  1
  Nd3+  Nd39  1  0.24179414  0.38552442  0.55679590  1
  Nd3+  Nd40  1  0.36326554  0.01160547  0.44747898  1
  Nd3+  Nd41  1  0.62032389  0.24429256  0.93790309  1
  Nd3+  Nd42  1  0.23961804  0.37220006  0.05629717  1
  Nd3+  Nd43  1  0.61485020  0.74816787  0.94227103  1
  Nd3+  Nd44  1  0.74526384  0.13825643  0.55613651  1
  Sm3+  Sm45  1  0.24000745  0.12265510  0.05795477  1
  Sm3+  Sm46  1  0.36385522  0.49335747  0.94336726  1
  Sm3+  Sm47  1  0.73773469  0.61966541  0.05873350  1
  Sm3+  Sm48  1  0.49372567  0.63160144  0.56364097  1
  Sm3+  Sm49  1  0.61755746  -0.00235054  0.93962088  1
  Sm3+  Sm50  1  0.49385849  0.38020956  0.56015591  1
  Sm3+  Sm51  1  0.24086500  0.62071870  0.05415530  1
  Sm3+  Sm52  1  0.36392870  -0.00001828  0.94241736  1
  Sm3+  Sm53  1  0.73926934  0.12166806  0.06528723  1
  Sm3+  Sm54  1  0.10430514  0.50331796  0.91926299  1
  Sm3+  Sm55  1  0.87645594  0.26873684  0.43140313  1
  Sm3+  Sm56  1  0.86289314  0.74747957  0.95413927  1
  Sm3+  Sm57  1  0.49315341  0.37109525  0.05915394  1
  Sm3+  Sm58  1  -0.00630301  0.87345166  0.06000616  1
  Sm3+  Sm59  1  0.24095444  0.87168656  0.05155126  1
  Sm3+  Sm60  1  0.49148177  0.12165741  0.05587351  1
  Sm3+  Sm61  1  0.86861279  0.75809689  0.44187959  1
  Sm3+  Sm62  1  0.36502001  0.24676548  0.94388076  1
  Sm3+  Sm63  1  0.11420858  0.51236495  0.43590148  1
  Bi2+  Bi64  1  0.00705213  0.07111441  0.28479514  1
  Bi2+  Bi65  1  -0.04949416  0.01139052  0.75896641  1
  Bi2+  Bi66  1  0.00484185  0.40041571  0.27694753  1
  Bi2+  Bi67  1  0.00697400  0.37494546  0.79089392  1
  Bi2+  Bi68  1  0.01215122  0.63327399  0.28603765  1
  Bi2+  Bi69  1  0.02866211  0.59364333  0.77489178  1
  Bi2+  Bi70  1  0.01147737  0.82807614  0.30202443  1
  Bi2+  Bi71  1  0.07190221  0.88471666  0.81675433  1
  Bi2+  Bi72  1  0.27140812  0.12378379  0.28367260  1
  Bi2+  Bi73  1  0.26134338  0.11999798  0.79189756  1
  Bi2+  Bi74  1  0.32956944  0.40839277  0.29726436  1
  Bi2+  Bi75  1  0.29424488  0.45842561  0.77905290  1
  Bi2+  Bi76  1  0.23350285  0.57999684  0.28885009  1
  Bi2+  Bi77  1  0.25990803  0.64929090  0.80236675  1
  Bi2+  Bi78  1  0.19087032  0.89470335  0.28876894  1
  Bi2+  Bi79  1  0.25522644  0.85154315  0.78989678  1
  Bi2+  Bi80  1  0.45947771  0.13013505  0.24716078  1
  Bi2+  Bi81  1  0.50536974  0.15038512  0.79888895  1
  Bi2+  Bi82  1  0.51204521  0.39248755  0.24470459  1
  Bi2+  Bi83  1  0.56730517  0.40003129  0.76434802  1
  Bi2+  Bi84  1  0.48478671  0.64653859  0.29832490  1
  Bi2+  Bi85  1  0.54668745  0.58246815  0.80467200  1
  Bi2+  Bi86  1  0.45353901  0.89149322  0.31060352  1
  Bi2+  Bi87  1  0.50181161  0.89629768  0.82328704  1
  Bi2+  Bi88  1  0.68352572  0.13428735  0.31206658  1
  Bi2+  Bi89  1  0.74484571  0.19470302  0.79184403  1
  Bi2+  Bi90  1  0.75542012  0.39367611  0.28811351  1
  Bi2+  Bi91  1  0.80422701  0.37668545  0.77940570  1
  Bi2+  Bi92  1  0.75755269  0.66221182  0.29401328  1
  Bi2+  Bi93  1  0.74617989  0.59367604  0.79353087  1
  Bi2+  Bi94  1  0.76887166  0.95166211  0.31326671  1
  Bi2+  Bi95  1  0.77578121  0.86541349  0.80344251  1
  Bi2+  Bi96  1  0.10681307  -0.00413452  0.18499252  1
  Bi2+  Bi97  1  0.13580870  -0.03944484  0.71416441  1
  Bi2+  Bi98  1  0.11918565  0.25240351  0.18033057  1
  Bi2+  Bi99  1  0.12909691  0.21589361  0.67923703  1
  Bi2+  Bi100  1  0.12571190  0.50990846  0.18884988  1
  Bi2+  Bi101  1  0.15030187  0.50341654  0.70030874  1
  Bi2+  Bi102  1  0.22399830  0.74462179  0.22244998  1
  Bi2+  Bi103  1  0.12729817  0.76301946  0.71691948  1
  Bi2+  Bi104  1  0.33683121  -0.03651458  0.21932819  1
  Bi2+  Bi105  1  0.37662801  0.01269812  0.70963787  1
  Bi2+  Bi106  1  0.36034228  0.28498384  0.20686501  1
  Bi2+  Bi107  1  0.41701801  0.28822839  0.72753449  1
  Bi2+  Bi108  1  0.38239190  0.54003379  0.21198807  1
  Bi2+  Bi109  1  0.41895764  0.46277063  0.67170429  1
  Bi2+  Bi110  1  0.42247703  0.77802445  0.21812842  1
  Bi2+  Bi111  1  0.38905861  0.63376624  0.72063772  1
  Bi2+  Bi112  1  0.60652207  -0.00695169  0.20766047  1
  Bi2+  Bi113  1  0.64363785  0.00119157  0.71314507  1
  Bi2+  Bi114  1  0.63287087  0.24187581  0.20642518  1
  Bi2+  Bi115  1  0.64730920  0.24238843  0.69799368  1
  Bi2+  Bi116  1  0.63390517  0.53709625  0.19645302  1
  Bi2+  Bi117  1  0.61657274  0.48250129  0.66131751  1
  Bi2+  Bi118  1  0.65224525  0.81237915  0.24851179  1
  Bi2+  Bi119  1  0.63640709  0.65727551  0.70998083  1
  Bi2+  Bi120  1  0.85223816  0.01975456  0.21441600  1
  Bi2+  Bi121  1  0.87634845  -0.11756264  0.68761436  1
  Bi2+  Bi122  1  0.84913926  0.19508740  0.26632640  1
  Bi2+  Bi123  1  0.87941702  0.18304429  0.71149802  1
  Bi2+  Bi124  1  0.87185680  0.57484681  0.20799243  1
  Bi2+  Bi125  1  0.85618187  0.49135043  0.69477798  1
  Bi2+  Bi126  1  0.85075542  0.82342520  0.23275962  1
  Bi2+  Bi127  1  0.88450307  0.72414553  0.75383925  1
  S2-  S128  1  -0.00059420  0.13685169  0.16030143  1
  S2-  S129  1  0.06522940  0.05857327  0.64531496  1
  S2-  S130  1  0.00664392  0.38944061  0.16296871  1
  S2-  S131  1  -0.02732409  0.26565998  0.64145614  1
  S2-  S132  1  0.02292203  0.64361466  0.16618916  1
  S2-  S133  1  -0.00438095  0.50294630  0.64117240  1
  S2-  S134  1  -0.01181623  0.89554883  0.15583176  1
  S2-  S135  1  -0.00413847  0.76868297  0.64395509  1
  S2-  S136  1  0.22885316  0.12289682  0.15493524  1
  S2-  S137  1  0.28608828  0.14135170  0.66049332  1
  S2-  S138  1  0.24089282  0.37940048  0.15589496  1
  S2-  S139  1  0.20684803  0.36845179  0.65437557  1
  S2-  S140  1  0.25242228  0.61483568  0.15030089  1
  S2-  S141  1  0.22464763  0.64834259  0.65934171  1
  S2-  S142  1  0.22450765  0.87768609  0.14781131  1
  S2-  S143  1  0.32654630  0.88658784  0.65480814  1
  S2-  S144  1  0.52903122  0.12778746  0.15046684  1
  S2-  S145  1  0.51427926  0.04349728  0.65330962  1
  S2-  S146  1  0.57975540  0.38297606  0.14277284  1
  S2-  S147  1  0.50178396  0.26673718  0.63945097  1
  S2-  S148  1  0.51257296  0.61972853  0.15482614  1
  S2-  S149  1  0.49499937  0.70609272  0.65246113  1
  S2-  S150  1  0.50629167  0.88672040  0.15165517  1
  S2-  S151  1  0.50513252  0.89330439  0.72946919  1
  S2-  S152  1  0.75598977  0.22263618  0.14543485  1
  S2-  S153  1  0.75063339  0.10598615  0.65408350  1
  S2-  S154  1  0.78550094  0.43871214  0.18337089  1
  S2-  S155  1  0.75303104  0.35952456  0.65070439  1
  S2-  S156  1  0.74056427  0.65201204  0.15432921  1
  S2-  S157  1  0.79267320  0.62845539  0.64827068  1
  S2-  S158  1  0.73242701  0.99822760  0.13960966  1
  S2-  S159  1  0.66944667  0.87652468  0.65452469  1
  S2-  S160  1  0.14448963  0.08822551  0.34726677  1
  S2-  S161  1  0.12857185  0.07337210  0.85037341  1
  S2-  S162  1  0.11070105  0.27324940  0.27437009  1
  S2-  S163  1  0.13539948  0.23463118  0.77217762  1
  S2-  S164  1  0.10113012  0.42435812  0.35087146  1
  S2-  S165  1  0.15671351  0.41197332  0.84185618  1
  S2-  S166  1  0.12340055  0.64578842  0.36489714  1
  S2-  S167  1  0.11339698  0.64909973  0.85876622  1
  S2-  S168  1  0.36183588  0.01571033  0.34853890  1
  S2-  S169  1  0.38004009  0.02301713  0.84556984  1
  S2-  S170  1  0.29250525  0.25770025  0.35172255  1
  S2-  S171  1  0.31308858  0.24027007  0.85185305  1
  S2-  S172  1  0.48749502  0.51640771  0.35746516  1
  S2-  S173  1  0.41845126  0.48546639  0.85144219  1
  S2-  S174  1  0.36875792  0.75226643  0.34804578  1
  S2-  S175  1  0.38582120  0.76533106  0.84515544  1
  S2-  S176  1  0.59946083  -0.01499902  0.34291711  1
  S2-  S177  1  0.60688722  0.03438473  0.84399345  1
  S2-  S178  1  0.63235432  0.29897538  0.34009235  1
  S2-  S179  1  0.55829664  0.27954934  0.84722094  1
  S2-  S180  1  0.72298818  0.51994013  0.34825802  1
  S2-  S181  1  0.74047770  0.46984959  0.86209418  1
  S2-  S182  1  0.61858699  0.73819465  0.34590429  1
  S2-  S183  1  0.62921047  0.79574247  0.84848832  1
  S2-  S184  1  0.96291024  -0.03260688  0.36136967  1
  S2-  S185  1  0.84432446  0.00346761  0.84377220  1
  S2-  S186  1  0.94763260  0.19663221  0.34974588  1
  S2-  S187  1  0.96197800  0.25591280  0.85453819  1
  S2-  S188  1  0.88023627  0.39059407  0.35008139  1
  S2-  S189  1  0.96332581  0.50344261  0.85518316  1
  S2-  S190  1  0.88730127  0.65895984  0.36050322  1
  S2-  S191  1  0.86897497  0.75824447  0.85819591  1
  S2-  S192  1  -0.00320617  0.13964076  0.45811551  1
  S2-  S193  1  -0.01014027  0.11780811  0.95502034  1
  S2-  S194  1  -0.00893036  0.39116257  0.45657118  1
  S2-  S195  1  -0.00488425  0.37907739  0.95778454  1
  S2-  S196  1  -0.00947653  0.63639029  0.46426908  1
  S2-  S197  1  -0.01402432  0.62501818  0.96276567  1
  S2-  S198  1  -0.00804662  0.87748575  0.46424045  1
  S2-  S199  1  -0.01000404  0.87003083  0.95623625  1
  S2-  S200  1  0.23670692  0.13393669  0.45663100  1
  S2-  S201  1  0.24192619  0.12368864  0.95493241  1
  S2-  S202  1  0.24026647  0.38990635  0.45087812  1
  S2-  S203  1  0.24220496  0.37101862  0.95264674  1
  S2-  S204  1  0.24873426  0.63463053  0.45759086  1
  S2-  S205  1  0.24138064  0.61658450  0.95202534  1
  S2-  S206  1  0.23864578  0.88430262  0.45402578  1
  S2-  S207  1  0.24104449  0.87237335  0.94738523  1
  S2-  S208  1  0.49116565  0.13748341  0.45308499  1
  S2-  S209  1  0.49035436  0.12149223  0.95290194  1
  S2-  S210  1  0.48944521  0.38001650  0.45481499  1
  S2-  S211  1  0.48998983  0.36999167  0.95690797  1
  S2-  S212  1  0.49155906  0.63816119  0.45936203  1
  S2-  S213  1  0.49098925  0.61967796  0.95238584  1
  S2-  S214  1  0.49179508  0.88921319  0.45081867  1
  S2-  S215  1  0.48950950  0.87618531  0.95247787  1
  S2-  S216  1  0.74775969  0.14001673  0.44951167  1
  S2-  S217  1  0.74280359  0.12094517  0.95548598  1
  S2-  S218  1  0.74139370  0.38540280  0.44937056  1
  S2-  S219  1  0.74035050  0.36493930  0.96099833  1
  S2-  S220  1  0.73928349  0.63955003  0.45395086  1
  S2-  S221  1  0.73825244  0.62434008  0.95506652  1
  S2-  S222  1  0.74619345  0.88534014  0.45448506  1
  S2-  S223  1  0.73882418  0.87312576  0.96244957  1
  S2-  S224  1  0.11852021  -0.00430793  0.04324508  1
  S2-  S225  1  0.11924805  0.00212843  0.53912949  1
  S2-  S226  1  0.11827664  0.24639289  0.05194905  1
  S2-  S227  1  0.12009845  0.26259538  0.54950765  1
  S2-  S228  1  0.11816935  0.49883662  0.04655438  1
  S2-  S229  1  0.11990696  0.51288993  0.54182255  1
  S2-  S230  1  0.11721596  0.74707776  0.04640935  1
  S2-  S231  1  0.12251675  0.75659182  0.54775611  1
  S2-  S232  1  0.36415342  -0.00116607  0.04765006  1
  S2-  S233  1  0.36861924  0.00929719  0.55042530  1
  S2-  S234  1  0.36795255  0.24645235  0.04958426  1
  S2-  S235  1  0.36407840  0.26033272  0.54542275  1
  S2-  S236  1  0.36816905  0.49576470  0.04847116  1
  S2-  S237  1  0.37192348  0.50793896  0.54087966  1
  S2-  S238  1  0.36506639  0.74606079  0.04771322  1
  S2-  S239  1  0.37125655  0.75715297  0.55105019  1
  S2-  S240  1  0.61327643  -0.00109147  0.04176498  1
  S2-  S241  1  0.62188712  0.01402358  0.54478008  1
  S2-  S242  1  0.61338944  0.24416944  0.04342559  1
  S2-  S243  1  0.62151765  0.26099060  0.54044786  1
  S2-  S244  1  0.61651388  0.49653853  0.03988650  1
  S2-  S245  1  0.61312692  0.50802730  0.53754190  1
  S2-  S246  1  0.61708874  0.74846478  0.04900478  1
  S2-  S247  1  0.61368271  0.75989510  0.54845656  1
  S2-  S248  1  0.86816221  -0.00520055  0.04668284  1
  S2-  S249  1  0.87018132  0.00936553  0.54897945  1
  S2-  S250  1  0.86666786  0.24679462  0.04576875  1
  S2-  S251  1  0.86483726  0.26315043  0.53641058  1
  S2-  S252  1  0.86002957  0.49564719  0.05182102  1
  S2-  S253  1  0.86503629  0.51238995  0.53809979  1
  S2-  S254  1  0.86457401  0.75050322  0.05797877  1
  S2-  S255  1  0.86384248  0.76129794  0.54443059  1
