# generated using pymatgen
data_La6Ce7Pr13Nd19Sm19(BiS2)64
_symmetry_space_group_name_H-M   'P 1'
_cell_length_a   16.08100981
_cell_length_b   16.05992230
_cell_length_c   27.35339884
_cell_angle_alpha   90.14397736
_cell_angle_beta   90.12546335
_cell_angle_gamma   90.08604052
_symmetry_Int_Tables_number   1
_chemical_formula_structural   La6Ce7Pr13Nd19Sm19(BiS2)64
_chemical_formula_sum   'La6 Ce7 Pr13 Nd19 Sm19 Bi64 S128'
_cell_volume   7064.23517560
_cell_formula_units_Z   1
loop_
 _symmetry_equiv_pos_site_id
 _symmetry_equiv_pos_as_xyz
  1  'x, y, z'
loop_
 _atom_type_symbol
 _atom_type_oxidation_number
  La3+  3.0
  Ce3+  3.0
  Pr3+  3.0
  Nd3+  3.0
  Sm3+  3.0
  Bi2+  2.0
  S2-  -2.0
loop_
 _atom_site_type_symbol
 _atom_site_label
 _atom_site_symmetry_multiplicity
 _atom_site_fract_x
 _atom_site_fract_y
 _atom_site_fract_z
 _atom_site_occupancy
  La3+  La0  1  0.11462886  0.53311529  0.87596119  1
  La3+  La1  1  0.49341518  0.87148116  0.07936087  1
  La3+  La2  1  0.74414586  0.88345058  0.07572037  1
  La3+  La3  1  -0.00125718  0.86813876  0.59693626  1
  La3+  La4  1  0.24193725  0.12424830  0.57218569  1
  La3+  La5  1  0.60924401  0.00420931  0.90001726  1
  Ce3+  Ce6  1  0.24379484  0.36763013  0.55717441  1
  Ce3+  Ce7  1  0.87519129  0.73952440  0.44389823  1
  Ce3+  Ce8  1  0.61799329  0.50632990  0.92821152  1
  Ce3+  Ce9  1  0.37219162  0.48906869  0.44212355  1
  Ce3+  Ce10  1  -0.00479196  0.11316719  0.55478169  1
  Ce3+  Ce11  1  0.24036030  0.88138787  0.05689015  1
  Ce3+  Ce12  1  0.86475519  0.00269549  0.94593237  1
  Pr3+  Pr13  1  -0.00227777  0.88521546  0.07860176  1
  Pr3+  Pr14  1  0.11039729  0.00515063  0.93033887  1
  Pr3+  Pr15  1  0.11887242  0.73980419  0.43223828  1
  Pr3+  Pr16  1  0.87166349  0.75499632  0.94933199  1
  Pr3+  Pr17  1  0.11111211  0.48378943  0.41407289  1
  Pr3+  Pr18  1  0.74961292  0.86429559  0.56937867  1
  Pr3+  Pr19  1  0.12259498  0.23851604  0.43132748  1
  Pr3+  Pr20  1  0.61853323  0.23012454  0.43243011  1
  Pr3+  Pr21  1  0.49397593  0.62616478  0.06383861  1
  Pr3+  Pr22  1  0.12549114  -0.00927400  0.43560655  1
  Pr3+  Pr23  1  0.50156132  0.11701136  0.57220395  1
  Pr3+  Pr24  1  0.73897305  0.12808821  0.07519186  1
  Pr3+  Pr25  1  0.87600616  0.49900017  0.94448721  1
  Nd3+  Nd26  1  0.74614181  0.36661405  0.55224198  1
  Nd3+  Nd27  1  0.36365762  0.50176894  0.93449284  1
  Nd3+  Nd28  1  0.49721584  0.61773803  0.56471368  1
  Nd3+  Nd29  1  0.00816648  0.61103849  0.57036027  1
  Nd3+  Nd30  1  0.37387960  0.23888665  0.44449643  1
  Nd3+  Nd31  1  0.74918728  0.61817113  0.56267681  1
  Nd3+  Nd32  1  0.62079383  0.74922483  0.94083779  1
  Nd3+  Nd33  1  0.24466817  0.86644158  0.56044947  1
  Nd3+  Nd34  1  0.50232776  0.86725547  0.58720594  1
  Nd3+  Nd35  1  0.49652810  0.12818768  0.07213436  1
  Nd3+  Nd36  1  -0.00612030  0.62436245  0.06582442  1
  Nd3+  Nd37  1  0.74688123  0.11188338  0.55508081  1
  Nd3+  Nd38  1  0.86468242  0.24828676  0.94564730  1
  Nd3+  Nd39  1  -0.00244226  0.36555587  0.56424093  1
  Nd3+  Nd40  1  0.50085936  0.36585606  0.56669788  1
  Nd3+  Nd41  1  0.36927992  0.75486232  0.94387579  1
  Nd3+  Nd42  1  0.24314674  0.61442819  0.54900908  1
  Nd3+  Nd43  1  0.00019652  0.37464988  0.07235056  1
  Nd3+  Nd44  1  0.62037116  0.49324281  0.43283081  1
  Sm3+  Sm45  1  0.62253731  -0.02152464  0.43688415  1
  Sm3+  Sm46  1  0.61507632  0.24879612  0.94079974  1
  Sm3+  Sm47  1  0.23887751  0.62596976  0.05724193  1
  Sm3+  Sm48  1  0.62113652  0.74065614  0.43925567  1
  Sm3+  Sm49  1  0.11550401  0.26219095  0.93761172  1
  Sm3+  Sm50  1  -0.00614676  0.13019742  0.06410502  1
  Sm3+  Sm51  1  0.37348907  0.74117313  0.44141485  1
  Sm3+  Sm52  1  0.11825166  0.75442286  0.94747910  1
  Sm3+  Sm53  1  0.87222716  0.49001442  0.44376852  1
  Sm3+  Sm54  1  0.24346954  0.12902980  0.05290098  1
  Sm3+  Sm55  1  0.37093382  0.25065256  0.95111652  1
  Sm3+  Sm56  1  0.37338674  0.00239773  0.95005318  1
  Sm3+  Sm57  1  0.24223100  0.38003171  0.05722751  1
  Sm3+  Sm58  1  0.74184141  0.37903199  0.05082194  1
  Sm3+  Sm59  1  0.74548308  0.62684622  0.06066462  1
  Sm3+  Sm60  1  0.86919595  0.23879188  0.44086158  1
  Sm3+  Sm61  1  0.87279640  -0.01483277  0.43846034  1
  Sm3+  Sm62  1  0.37589280  -0.01137454  0.45169703  1
  Sm3+  Sm63  1  0.49644773  0.38542101  0.05910776  1
  Bi2+  Bi64  1  0.04069757  0.11331411  0.29220652  1
  Bi2+  Bi65  1  -0.01509145  0.12265620  0.78616724  1
  Bi2+  Bi66  1  -0.00655200  0.30825033  0.28347409  1
  Bi2+  Bi67  1  0.00398567  0.36900060  0.78877663  1
  Bi2+  Bi68  1  0.01743938  0.63475975  0.30587859  1
  Bi2+  Bi69  1  -0.04342431  0.62253036  0.78169277  1
  Bi2+  Bi70  1  0.00519906  0.85038450  0.28519614  1
  Bi2+  Bi71  1  0.02023581  0.85018595  0.83024796  1
  Bi2+  Bi72  1  0.22562742  0.16291766  0.31339297  1
  Bi2+  Bi73  1  0.26610642  0.16286280  0.78313063  1
  Bi2+  Bi74  1  0.28309541  0.32044315  0.25477722  1
  Bi2+  Bi75  1  0.31720311  0.38003870  0.78301406  1
  Bi2+  Bi76  1  0.29657669  0.60161090  0.28043879  1
  Bi2+  Bi77  1  0.33482045  0.62395074  0.76555175  1
  Bi2+  Bi78  1  0.27320073  0.91230887  0.27593389  1
  Bi2+  Bi79  1  0.26433184  0.85350454  0.79374555  1
  Bi2+  Bi80  1  0.49213093  0.17334334  0.28834270  1
  Bi2+  Bi81  1  0.47111955  0.13245688  0.79799231  1
  Bi2+  Bi82  1  0.51652220  0.42810181  0.29089011  1
  Bi2+  Bi83  1  0.54103261  0.37015465  0.78649652  1
  Bi2+  Bi84  1  0.53510241  0.63497573  0.27252934  1
  Bi2+  Bi85  1  0.51768586  0.56694198  0.79949704  1
  Bi2+  Bi86  1  0.49104308  0.92150438  0.31658376  1
  Bi2+  Bi87  1  0.48385532  0.84064732  0.78257753  1
  Bi2+  Bi88  1  0.76478532  0.12791407  0.29080206  1
  Bi2+  Bi89  1  0.79277883  0.20034650  0.78340729  1
  Bi2+  Bi90  1  0.71512292  0.40104072  0.29188238  1
  Bi2+  Bi91  1  0.73767686  0.39378634  0.79466791  1
  Bi2+  Bi92  1  0.74425337  0.59948400  0.29356485  1
  Bi2+  Bi93  1  0.71252558  0.58081031  0.75584593  1
  Bi2+  Bi94  1  0.75853719  0.86009426  0.29321574  1
  Bi2+  Bi95  1  0.74636752  0.84097449  0.79827380  1
  Bi2+  Bi96  1  0.15621602  -0.00181394  0.20064849  1
  Bi2+  Bi97  1  0.13000297  -0.00994805  0.71252533  1
  Bi2+  Bi98  1  0.12762318  0.22125381  0.20154138  1
  Bi2+  Bi99  1  0.11199794  0.23556918  0.72284460  1
  Bi2+  Bi100  1  0.10840168  0.49142431  0.20044442  1
  Bi2+  Bi101  1  0.15045394  0.45199457  0.67981475  1
  Bi2+  Bi102  1  0.14299572  0.73696265  0.19687798  1
  Bi2+  Bi103  1  0.11516632  0.72625780  0.70982874  1
  Bi2+  Bi104  1  0.35613886  0.06971280  0.22884319  1
  Bi2+  Bi105  1  0.37296010  -0.02007768  0.72863658  1
  Bi2+  Bi106  1  0.45868752  0.29752606  0.20070223  1
  Bi2+  Bi107  1  0.38720527  0.25310140  0.71085746  1
  Bi2+  Bi108  1  0.37135059  0.47547668  0.20471773  1
  Bi2+  Bi109  1  0.34899806  0.48152556  0.68208670  1
  Bi2+  Bi110  1  0.38792811  0.76132620  0.24079118  1
  Bi2+  Bi111  1  0.35295301  0.78318035  0.69715135  1
  Bi2+  Bi112  1  0.63495480  0.03522917  0.21862259  1
  Bi2+  Bi113  1  0.62477076  -0.00284320  0.71567038  1
  Bi2+  Bi114  1  0.73782397  0.25552540  0.20457153  1
  Bi2+  Bi115  1  0.65026173  0.25491817  0.71021373  1
  Bi2+  Bi116  1  0.64274122  0.52666429  0.19691127  1
  Bi2+  Bi117  1  0.54172127  0.48982126  0.69000526  1
  Bi2+  Bi118  1  0.59813637  0.79270270  0.21250989  1
  Bi2+  Bi119  1  0.61648453  0.73831305  0.71659417  1
  Bi2+  Bi120  1  0.89557773  0.05360671  0.21779267  1
  Bi2+  Bi121  1  0.86198417  0.06755975  0.70178655  1
  Bi2+  Bi122  1  0.93002974  0.23749426  0.17570852  1
  Bi2+  Bi123  1  0.92911267  0.25130920  0.68007733  1
  Bi2+  Bi124  1  0.88777460  0.47551159  0.25907699  1
  Bi2+  Bi125  1  0.85717530  0.43075205  0.70459006  1
  Bi2+  Bi126  1  0.86908976  0.70794920  0.20581438  1
  Bi2+  Bi127  1  0.85845505  0.77192308  0.71389847  1
  S2-  S128  1  0.01903687  0.02630206  0.14129476  1
  S2-  S129  1  0.01622792  0.03886666  0.64267800  1
  S2-  S130  1  -0.03703296  0.43319202  0.16479983  1
  S2-  S131  1  -0.00053495  0.47775205  0.64207769  1
  S2-  S132  1  0.01927970  0.62993152  0.16503415  1
  S2-  S133  1  -0.01564779  0.71190006  0.65215763  1
  S2-  S134  1  -0.00579738  0.83018807  0.17849554  1
  S2-  S135  1  0.00848197  0.86191180  0.73656501  1
  S2-  S136  1  0.25429737  0.12490198  0.15073924  1
  S2-  S137  1  0.25257736  0.04742955  0.66208006  1
  S2-  S138  1  0.16472510  0.37176221  0.14544424  1
  S2-  S139  1  0.21312817  0.27694959  0.63827094  1
  S2-  S140  1  0.23382603  0.61365517  0.15633677  1
  S2-  S141  1  0.16809152  0.61151464  0.63835502  1
  S2-  S142  1  0.23782913  0.85902387  0.15299608  1
  S2-  S143  1  0.15675830  0.85445048  0.64653123  1
  S2-  S144  1  0.61132476  0.15583935  0.14732989  1
  S2-  S145  1  0.49655099  0.00907854  0.65404222  1
  S2-  S146  1  0.49739639  0.49842093  0.13447667  1
  S2-  S147  1  0.51170625  0.24962220  0.64251683  1
  S2-  S148  1  0.48017285  0.73138775  0.14682217  1
  S2-  S149  1  0.49173747  0.71953330  0.64529355  1
  S2-  S150  1  0.52222791  0.94325432  0.17369443  1
  S2-  S151  1  0.64149272  0.87388024  0.65223279  1
  S2-  S152  1  0.76906241  0.01026020  0.15295567  1
  S2-  S153  1  0.70615857  0.10987805  0.65179700  1
  S2-  S154  1  0.69855061  0.38606689  0.14480339  1
  S2-  S155  1  0.72019889  0.37871932  0.64970984  1
  S2-  S156  1  0.78470212  0.59898907  0.15506030  1
  S2-  S157  1  0.74997707  0.65556653  0.65964571  1
  S2-  S158  1  0.75398034  0.80647319  0.17101412  1
  S2-  S159  1  0.85068678  0.89874585  0.65178678  1
  S2-  S160  1  0.07476677  -0.03919929  0.34046806  1
  S2-  S161  1  0.16270408  -0.03861161  0.83558026  1
  S2-  S162  1  0.11501995  0.33989815  0.35103476  1
  S2-  S163  1  0.11959355  0.35704973  0.85517323  1
  S2-  S164  1  0.15369377  0.53902471  0.31567289  1
  S2-  S165  1  0.09450058  0.53860119  0.76725903  1
  S2-  S166  1  0.12839768  0.75408475  0.33038935  1
  S2-  S167  1  0.11355929  0.70996922  0.85225702  1
  S2-  S168  1  0.34643235  -0.00661023  0.35461707  1
  S2-  S169  1  0.44310696  0.00045750  0.86125396  1
  S2-  S170  1  0.36200443  0.25533652  0.34548916  1
  S2-  S171  1  0.36421915  0.24993019  0.85344770  1
  S2-  S172  1  0.38627134  0.49926883  0.34567506  1
  S2-  S173  1  0.28539647  0.51674428  0.84609618  1
  S2-  S174  1  0.41089190  0.77075573  0.34789993  1
  S2-  S175  1  0.37713023  0.74150343  0.84519774  1
  S2-  S176  1  0.57308762  0.06058016  0.35478440  1
  S2-  S177  1  0.71295827  -0.00264989  0.81100034  1
  S2-  S178  1  0.60072317  0.28799890  0.33950358  1
  S2-  S179  1  0.60179342  0.16740265  0.85554882  1
  S2-  S180  1  0.62134622  0.62176835  0.36412652  1
  S2-  S181  1  0.64290026  0.62647453  0.86027320  1
  S2-  S182  1  0.63290646  0.85278320  0.36081742  1
  S2-  S183  1  0.60484270  0.83992521  0.85692996  1
  S2-  S184  1  0.82642355  -0.01986533  0.34250225  1
  S2-  S185  1  0.95696101  0.00588852  0.86369496  1
  S2-  S186  1  0.85976395  0.24132433  0.34363993  1
  S2-  S187  1  0.91641628  0.25221249  0.85067718  1
  S2-  S188  1  0.95188024  0.49866090  0.35810504  1
  S2-  S189  1  0.93781806  0.50859526  0.85098247  1
  S2-  S190  1  0.88119390  0.75743685  0.34349687  1
  S2-  S191  1  0.87525716  0.74474038  0.84803492  1
  S2-  S192  1  -0.00673421  0.11474750  0.44642455  1
  S2-  S193  1  -0.00477807  0.13353384  0.96030752  1
  S2-  S194  1  -0.00999779  0.36122541  0.45649935  1
  S2-  S195  1  -0.01127462  0.36902648  0.96450762  1
  S2-  S196  1  -0.00213226  0.61374202  0.45748260  1
  S2-  S197  1  -0.00151493  0.62773708  0.95823763  1
  S2-  S198  1  -0.00279263  0.86711628  0.44774004  1
  S2-  S199  1  -0.00407880  0.87867757  0.96616154  1
  S2-  S200  1  0.24982176  0.11529686  0.45925191  1
  S2-  S201  1  0.24343202  0.12910354  0.94832169  1
  S2-  S202  1  0.24825355  0.36481881  0.45068285  1
  S2-  S203  1  0.24884444  0.37249473  0.95602883  1
  S2-  S204  1  0.24701379  0.61556117  0.44273227  1
  S2-  S205  1  0.23970483  0.62869088  0.95267032  1
  S2-  S206  1  0.24911145  0.86389132  0.45174117  1
  S2-  S207  1  0.24369677  0.88060158  0.95140329  1
  S2-  S208  1  0.49444691  0.11272213  0.46307057  1
  S2-  S209  1  0.49295489  0.12754644  0.96621404  1
  S2-  S210  1  0.50053171  0.36572700  0.45626179  1
  S2-  S211  1  0.49269320  0.37803597  0.95192814  1
  S2-  S212  1  0.49429495  0.61736038  0.45886592  1
  S2-  S213  1  0.48977400  0.62579636  0.95528505  1
  S2-  S214  1  0.49487685  0.86313455  0.46272181  1
  S2-  S215  1  0.49249726  0.87663558  0.96553730  1
  S2-  S216  1  0.74741494  0.11007485  0.44900845  1
  S2-  S217  1  0.73675171  0.12416298  0.95667932  1
  S2-  S218  1  0.74551150  0.36628841  0.44649207  1
  S2-  S219  1  0.74084812  0.37562599  0.94550680  1
  S2-  S220  1  0.75051045  0.61402730  0.45659612  1
  S2-  S221  1  0.75131359  0.62532751  0.95813510  1
  S2-  S222  1  0.75086094  0.86248728  0.46055872  1
  S2-  S223  1  0.74295199  0.87920277  0.95946984  1
  S2-  S224  1  0.12139383  0.00815609  0.03915652  1
  S2-  S225  1  0.12402557  -0.00855800  0.54123503  1
  S2-  S226  1  0.12111167  0.25018330  0.04362727  1
  S2-  S227  1  0.11393227  0.24029884  0.53751414  1
  S2-  S228  1  0.11813554  0.50196836  0.05033104  1
  S2-  S229  1  0.12210657  0.48564311  0.53155286  1
  S2-  S230  1  0.11631936  0.75307087  0.05191765  1
  S2-  S231  1  0.12150118  0.74254630  0.53861297  1
  S2-  S232  1  0.36899284  0.00542941  0.05534424  1
  S2-  S233  1  0.37051007  -0.00975171  0.55395551  1
  S2-  S234  1  0.36992720  0.25719833  0.05552570  1
  S2-  S235  1  0.37284006  0.24443053  0.54845696  1
  S2-  S236  1  0.36226986  0.50315794  0.04142499  1
  S2-  S237  1  0.37398796  0.49067162  0.54785948  1
  S2-  S238  1  0.36096193  0.75076204  0.04819404  1
  S2-  S239  1  0.36800287  0.74046484  0.54590723  1
  S2-  S240  1  0.61378413  0.00098357  0.05719713  1
  S2-  S241  1  0.62189124  -0.01116823  0.54256302  1
  S2-  S242  1  0.61448649  0.25995193  0.04343519  1
  S2-  S243  1  0.62575518  0.24059219  0.53967754  1
  S2-  S244  1  0.62318975  0.50414829  0.03525115  1
  S2-  S245  1  0.62203760  0.49375878  0.54201225  1
  S2-  S246  1  0.62465587  0.74959932  0.04942494  1
  S2-  S247  1  0.62265434  0.73948934  0.54414950  1
  S2-  S248  1  0.87112349  0.00769900  0.04855388  1
  S2-  S249  1  0.87370765  -0.01046979  0.54177394  1
  S2-  S250  1  0.86428546  0.25229416  0.05133116  1
  S2-  S251  1  0.86937608  0.24075804  0.54526421  1
  S2-  S252  1  0.86881204  0.49910170  0.04977911  1
  S2-  S253  1  0.87097198  0.49191500  0.54633770  1
  S2-  S254  1  0.87152267  0.75400292  0.05583962  1
  S2-  S255  1  0.87644392  0.73944374  0.54837197  1
