# generated using pymatgen
data_La6Ce7Pr13Nd19Sm19(BiS2)64
_symmetry_space_group_name_H-M   'P 1'
_cell_length_a   16.09941996
_cell_length_b   16.00651258
_cell_length_c   27.36156724
_cell_angle_alpha   90.05371160
_cell_angle_beta   89.70009303
_cell_angle_gamma   90.01987092
_symmetry_Int_Tables_number   1
_chemical_formula_structural   La6Ce7Pr13Nd19Sm19(BiS2)64
_chemical_formula_sum   'La6 Ce7 Pr13 Nd19 Sm19 Bi64 S128'
_cell_volume   7050.85451022
_cell_formula_units_Z   1
loop_
 _symmetry_equiv_pos_site_id
 _symmetry_equiv_pos_as_xyz
  1  'x, y, z'
loop_
 _atom_type_symbol
 _atom_type_oxidation_number
  La3+  3.0
  Ce3+  3.0
  Pr3+  3.0
  Nd3+  3.0
  Sm3+  3.0
  Bi2+  2.0
  S2-  -2.0
loop_
 _atom_site_type_symbol
 _atom_site_label
 _atom_site_symmetry_multiplicity
 _atom_site_fract_x
 _atom_site_fract_y
 _atom_site_fract_z
 _atom_site_occupancy
  La3+  La0  1  0.62587801  0.76567720  0.92877546  1
  La3+  La1  1  0.36034696  0.76330128  0.41050187  1
  La3+  La2  1  0.62109526  0.28794704  0.88462458  1
  La3+  La3  1  0.48111284  0.13145646  0.60112370  1
  La3+  La4  1  0.87448160  0.74210292  0.40800350  1
  La3+  La5  1  0.62124483  0.75510245  0.40966912  1
  Ce3+  Ce6  1  0.86763971  0.26428900  0.94742513  1
  Ce3+  Ce7  1  0.12141417  -0.00298298  0.44404787  1
  Ce3+  Ce8  1  0.49695018  0.64967164  0.07598191  1
  Ce3+  Ce9  1  0.12523720  0.26688136  0.93269794  1
  Ce3+  Ce10  1  0.74123846  0.37447368  0.55592851  1
  Ce3+  Ce11  1  0.87295114  0.01748483  0.93771124  1
  Ce3+  Ce12  1  0.61931202  -0.00465468  0.44204602  1
  Pr3+  Pr13  1  -0.00149856  0.13824248  0.06831361  1
  Pr3+  Pr14  1  0.12154102  0.74447664  0.44061317  1
  Pr3+  Pr15  1  0.22459722  0.12783398  0.60814782  1
  Pr3+  Pr16  1  0.36824544  0.00322072  0.91266466  1
  Pr3+  Pr17  1  0.49318295  0.87328732  0.56423181  1
  Pr3+  Pr18  1  0.24661177  0.62925166  0.56900581  1
  Pr3+  Pr19  1  0.74181078  0.38604312  0.07098296  1
  Pr3+  Pr20  1  0.24477219  0.87629860  0.57016122  1
  Pr3+  Pr21  1  0.49551516  0.89840307  0.05921619  1
  Pr3+  Pr22  1  -0.00745207  0.37441276  0.56449649  1
  Pr3+  Pr23  1  0.62198353  0.51467865  0.95452781  1
  Pr3+  Pr24  1  0.74120107  0.12316936  0.56497060  1
  Pr3+  Pr25  1  -0.00559563  0.64429331  0.08066512  1
  Nd3+  Nd26  1  0.24662381  0.38373097  0.06704796  1
  Nd3+  Nd27  1  0.37375503  0.51254951  0.95032266  1
  Nd3+  Nd28  1  0.61915150  0.24706964  0.44662473  1
  Nd3+  Nd29  1  0.36948874  0.24725803  0.44183259  1
  Nd3+  Nd30  1  0.87207807  -0.00351044  0.43331672  1
  Nd3+  Nd31  1  0.49083831  0.37739956  0.56204570  1
  Nd3+  Nd32  1  0.74376212  0.64917191  0.07767696  1
  Nd3+  Nd33  1  0.87173962  0.24410220  0.42681567  1
  Nd3+  Nd34  1  0.62769092  0.01890358  0.92064968  1
  Nd3+  Nd35  1  0.37125766  0.75913999  0.93881201  1
  Nd3+  Nd36  1  -0.00540799  0.89146945  0.06307989  1
  Nd3+  Nd37  1  0.61876401  0.50106936  0.43571455  1
  Nd3+  Nd38  1  0.24881841  0.64738711  0.07481564  1
  Nd3+  Nd39  1  0.24791922  0.89482610  0.06263733  1
  Nd3+  Nd40  1  0.11978899  0.50072326  0.44268689  1
  Nd3+  Nd41  1  -0.00865266  0.87445522  0.55943223  1
  Nd3+  Nd42  1  0.87348669  0.76215386  0.93804763  1
  Nd3+  Nd43  1  0.11875363  0.24888887  0.43802480  1
  Nd3+  Nd44  1  0.12110346  0.01365231  0.93447440  1
  Sm3+  Sm45  1  0.86913029  0.49959457  0.44153779  1
  Sm3+  Sm46  1  0.24374766  0.37202859  0.55825251  1
  Sm3+  Sm47  1  0.49519359  0.13626758  0.04035658  1
  Sm3+  Sm48  1  0.49555921  0.38393392  0.05926870  1
  Sm3+  Sm49  1  0.86835554  0.51448243  0.95462507  1
  Sm3+  Sm50  1  0.74121206  0.62730762  0.55203830  1
  Sm3+  Sm51  1  0.49396245  0.63355477  0.54960770  1
  Sm3+  Sm52  1  0.12010355  0.75969236  0.94939604  1
  Sm3+  Sm53  1  0.37074517  0.50288920  0.44235285  1
  Sm3+  Sm54  1  0.12093412  0.51441540  0.95371999  1
  Sm3+  Sm55  1  0.74203469  0.87181269  0.55202994  1
  Sm3+  Sm56  1  -0.00987943  0.12496304  0.56200492  1
  Sm3+  Sm57  1  -0.00418541  0.38830248  0.05880417  1
  Sm3+  Sm58  1  0.74387473  0.89485770  0.06059364  1
  Sm3+  Sm59  1  0.24984224  0.13753058  0.05647812  1
  Sm3+  Sm60  1  -0.00872317  0.62563254  0.55969873  1
  Sm3+  Sm61  1  0.36925578  0.00169214  0.45158880  1
  Sm3+  Sm62  1  0.36972847  0.26108263  0.92621355  1
  Sm3+  Sm63  1  0.74233366  0.13535549  0.05930090  1
  Bi2+  Bi64  1  -0.00185594  0.13181737  0.29207724  1
  Bi2+  Bi65  1  -0.01139629  0.07552139  0.81774798  1
  Bi2+  Bi66  1  0.06069521  0.41570378  0.31589036  1
  Bi2+  Bi67  1  0.04348656  0.36984225  0.81254965  1
  Bi2+  Bi68  1  0.00102734  0.63875045  0.27942845  1
  Bi2+  Bi69  1  0.02114631  0.64828737  0.79930235  1
  Bi2+  Bi70  1  0.01509823  0.90622844  0.28026723  1
  Bi2+  Bi71  1  -0.04113780  0.84204659  0.81488456  1
  Bi2+  Bi72  1  0.27132150  0.13546909  0.26334105  1
  Bi2+  Bi73  1  0.17018106  0.13933100  0.79676759  1
  Bi2+  Bi74  1  0.22059461  0.30139222  0.31908471  1
  Bi2+  Bi75  1  0.23172946  0.42139504  0.79222997  1
  Bi2+  Bi76  1  0.18701297  0.58978846  0.25439256  1
  Bi2+  Bi77  1  0.27867366  0.61906156  0.78371849  1
  Bi2+  Bi78  1  0.24129537  0.90162664  0.29778639  1
  Bi2+  Bi79  1  0.23261337  0.86011793  0.79193259  1
  Bi2+  Bi80  1  0.53986096  0.10992420  0.25206923  1
  Bi2+  Bi81  1  0.49914983  0.18338440  0.77378760  1
  Bi2+  Bi82  1  0.47994189  0.31018164  0.29265928  1
  Bi2+  Bi83  1  0.50047264  0.49179674  0.78709129  1
  Bi2+  Bi84  1  0.48967571  0.57344050  0.28559144  1
  Bi2+  Bi85  1  0.57079081  0.67187107  0.79701861  1
  Bi2+  Bi86  1  0.48578498  0.85070774  0.29330897  1
  Bi2+  Bi87  1  0.49284095  0.85477647  0.77820043  1
  Bi2+  Bi88  1  0.73092896  0.10844958  0.28841969  1
  Bi2+  Bi89  1  0.76903716  0.13784196  0.79345430  1
  Bi2+  Bi90  1  0.76689269  0.31035099  0.30274236  1
  Bi2+  Bi91  1  0.77686108  0.42662634  0.79745960  1
  Bi2+  Bi92  1  0.75739181  0.57747100  0.28684671  1
  Bi2+  Bi93  1  0.76859440  0.62142325  0.78355477  1
  Bi2+  Bi94  1  0.75253813  0.88456365  0.28760112  1
  Bi2+  Bi95  1  0.75243148  0.87210138  0.79492422  1
  Bi2+  Bi96  1  0.13361638  0.00457721  0.20429340  1
  Bi2+  Bi97  1  0.10577220  -0.00765736  0.72207414  1
  Bi2+  Bi98  1  0.11825683  0.20499848  0.19657483  1
  Bi2+  Bi99  1  0.10772413  0.26100512  0.71307655  1
  Bi2+  Bi100  1  0.14680785  0.40512542  0.20958151  1
  Bi2+  Bi101  1  0.21055782  0.52052737  0.68648997  1
  Bi2+  Bi102  1  0.12036650  0.77604634  0.21955008  1
  Bi2+  Bi103  1  0.14257299  0.70829874  0.71488632  1
  Bi2+  Bi104  1  0.39177108  0.00637150  0.20251582  1
  Bi2+  Bi105  1  0.37044823  -0.00605500  0.72043466  1
  Bi2+  Bi106  1  0.40690409  0.22675609  0.19033641  1
  Bi2+  Bi107  1  0.36323759  0.36953380  0.70687565  1
  Bi2+  Bi108  1  0.32985124  0.41971458  0.25288783  1
  Bi2+  Bi109  1  0.43863707  0.54129199  0.66882170  1
  Bi2+  Bi110  1  0.36568599  0.71823592  0.20064097  1
  Bi2+  Bi111  1  0.39397960  0.72516136  0.71248021  1
  Bi2+  Bi112  1  0.63651068  -0.04537116  0.21011107  1
  Bi2+  Bi113  1  0.65615011  0.00056857  0.69885542  1
  Bi2+  Bi114  1  0.70955761  0.21840559  0.18995942  1
  Bi2+  Bi115  1  0.71126894  0.26598702  0.68980360  1
  Bi2+  Bi116  1  0.62461599  0.38254527  0.22468648  1
  Bi2+  Bi117  1  0.62843475  0.52471550  0.70005174  1
  Bi2+  Bi118  1  0.61907800  0.71843454  0.20013864  1
  Bi2+  Bi119  1  0.64209139  0.76136429  0.69899390  1
  Bi2+  Bi120  1  0.86787002  0.00653308  0.21131437  1
  Bi2+  Bi121  1  0.90826802  -0.03565830  0.72714739  1
  Bi2+  Bi122  1  0.91692177  0.19790046  0.19226761  1
  Bi2+  Bi123  1  0.92592313  0.24171940  0.75697344  1
  Bi2+  Bi124  1  0.90851427  0.38567114  0.24337236  1
  Bi2+  Bi125  1  1.01564738  0.48681160  0.71794325  1
  Bi2+  Bi126  1  0.87406543  0.72114721  0.20332588  1
  Bi2+  Bi127  1  0.91256312  0.74343424  0.71751433  1
  S2-  S128  1  -0.00671849  0.00881748  0.13969719  1
  S2-  S129  1  0.06286026  0.12065901  0.65064332  1
  S2-  S130  1  0.00064586  0.36765780  0.15501576  1
  S2-  S131  1  -0.02883738  0.34475418  0.66215740  1
  S2-  S132  1  -0.02801322  0.59128745  0.17940316  1
  S2-  S133  1  -0.03714069  0.61314978  0.65602984  1
  S2-  S134  1  -0.00423279  0.78709839  0.14589615  1
  S2-  S135  1  -0.00009617  0.87024961  0.65890750  1
  S2-  S136  1  0.25697444  0.02104164  0.13372528  1
  S2-  S137  1  0.35794897  0.13497391  0.67543509  1
  S2-  S138  1  0.25886957  0.25339244  0.13340617  1
  S2-  S139  1  0.23142955  0.29748134  0.64593452  1
  S2-  S140  1  0.27124545  0.57993367  0.16680240  1
  S2-  S141  1  0.25863668  0.74984434  0.64401161  1
  S2-  S142  1  0.25012482  0.78522328  0.14450446  1
  S2-  S143  1  0.23527821  0.96942260  0.65835930  1
  S2-  S144  1  0.48969863  0.04191421  0.12473847  1
  S2-  S145  1  0.58732673  0.14283861  0.68113190  1
  S2-  S146  1  0.48662716  0.36629122  0.15625189  1
  S2-  S147  1  0.48923067  0.31499579  0.65404596  1
  S2-  S148  1  0.49886064  0.60168603  0.17798229  1
  S2-  S149  1  0.50508662  0.73636695  0.63141277  1
  S2-  S150  1  0.49427422  0.79256375  0.14290557  1
  S2-  S151  1  0.50178308  0.96403315  0.65433432  1
  S2-  S152  1  0.73387651  0.01813059  0.13456287  1
  S2-  S153  1  0.79595623  0.11550640  0.66025112  1
  S2-  S154  1  0.76925751  0.38908642  0.17001939  1
  S2-  S155  1  0.74580423  0.41546456  0.65138243  1
  S2-  S156  1  0.73690668  0.60164091  0.18066685  1
  S2-  S157  1  0.72578556  0.63980218  0.64997922  1
  S2-  S158  1  0.74531118  0.79093003  0.14095014  1
  S2-  S159  1  0.74088532  0.87572443  0.65057798  1
  S2-  S160  1  0.11680621  0.00799312  0.34565996  1
  S2-  S161  1  0.21892525  -0.00215953  0.85203494  1
  S2-  S162  1  0.00734161  0.25882889  0.35987555  1
  S2-  S163  1  0.23873313  0.27206807  0.85652350  1
  S2-  S164  1  0.12020032  0.58000319  0.35485924  1
  S2-  S165  1  0.11577722  0.51944181  0.85560174  1
  S2-  S166  1  0.20508711  0.78290063  0.35644660  1
  S2-  S167  1  0.11865311  0.77209477  0.85140093  1
  S2-  S168  1  0.37306837  -0.06871981  0.35935677  1
  S2-  S169  1  0.41410440  0.06508285  0.81449907  1
  S2-  S170  1  0.36798378  0.20391396  0.34450139  1
  S2-  S171  1  0.45958799  0.29371239  0.84271313  1
  S2-  S172  1  0.38221574  0.48490932  0.34560930  1
  S2-  S173  1  0.38675453  0.56387094  0.85559720  1
  S2-  S174  1  0.38218818  0.70880328  0.30766639  1
  S2-  S175  1  0.36422134  0.84320103  0.85108900  1
  S2-  S176  1  0.61348134  -0.08293542  0.35424351  1
  S2-  S177  1  0.61950996  0.12717637  0.83785578  1
  S2-  S178  1  0.62030469  0.26481312  0.34837536  1
  S2-  S179  1  0.64212984  0.30645127  0.77261375  1
  S2-  S180  1  0.63113811  0.51067197  0.33618362  1
  S2-  S181  1  0.63262231  0.46434904  0.85817312  1
  S2-  S182  1  0.57220934  0.71385881  0.30892775  1
  S2-  S183  1  0.60720059  0.88841207  0.85076683  1
  S2-  S184  1  0.88967307  -0.11007764  0.35035221  1
  S2-  S185  1  0.78153808  0.00728242  0.85537238  1
  S2-  S186  1  0.86107766  0.11161410  0.35491015  1
  S2-  S187  1  0.79862446  0.28002719  0.85866723  1
  S2-  S188  1  0.88101422  0.57278424  0.35214652  1
  S2-  S189  1  0.86492979  0.52353168  0.85618656  1
  S2-  S190  1  0.75387827  0.73075910  0.33612657  1
  S2-  S191  1  0.76447274  0.73537874  0.86081562  1
  S2-  S192  1  -0.00448236  0.12253558  0.45848156  1
  S2-  S193  1  -0.00113154  0.14254720  0.95564725  1
  S2-  S194  1  -0.00790949  0.37831810  0.45799825  1
  S2-  S195  1  -0.00516531  0.39140450  0.95510675  1
  S2-  S196  1  -0.00885573  0.62446496  0.45647001  1
  S2-  S197  1  -0.00434177  0.63588251  0.96410722  1
  S2-  S198  1  -0.00493231  0.86922395  0.45401601  1
  S2-  S199  1  -0.00231160  0.88751209  0.95499389  1
  S2-  S200  1  0.24383595  0.12409951  0.44709628  1
  S2-  S201  1  0.24470439  0.13858996  0.95168085  1
  S2-  S202  1  0.24568175  0.37702667  0.45352482  1
  S2-  S203  1  0.24564972  0.39264856  0.96092535  1
  S2-  S204  1  0.24957684  0.62387949  0.45690321  1
  S2-  S205  1  0.24460371  0.63653265  0.96217627  1
  S2-  S206  1  0.24415056  0.87706315  0.46358963  1
  S2-  S207  1  0.24096068  0.88179115  0.95681774  1
  S2-  S208  1  0.49497588  0.12221417  0.44642579  1
  S2-  S209  1  0.49081279  0.13666093  0.93941217  1
  S2-  S210  1  0.49371795  0.37577583  0.45368482  1
  S2-  S211  1  0.49746592  0.38589874  0.95492648  1
  S2-  S212  1  0.49306678  0.62892833  0.44340966  1
  S2-  S213  1  0.49797709  0.64062010  0.96120673  1
  S2-  S214  1  0.49234018  0.87380708  0.45628280  1
  S2-  S215  1  0.49366282  0.88624723  0.95171703  1
  S2-  S216  1  0.74447124  0.12372635  0.45653410  1
  S2-  S217  1  0.74684702  0.14158842  0.95655032  1
  S2-  S218  1  0.74725556  0.37397589  0.44890891  1
  S2-  S219  1  0.74632695  0.38992150  0.96505252  1
  S2-  S220  1  0.74439782  0.62437112  0.44850529  1
  S2-  S221  1  0.74841478  0.63703780  0.96867351  1
  S2-  S222  1  0.74959375  0.87047167  0.44914274  1
  S2-  S223  1  0.75322199  0.88874281  0.95674361  1
  S2-  S224  1  0.12122149  0.01640940  0.03855587  1
  S2-  S225  1  0.11538408  0.00182568  0.54942682  1
  S2-  S226  1  0.11825015  0.26476705  0.04129969  1
  S2-  S227  1  0.11672079  0.24861540  0.54361594  1
  S2-  S228  1  0.12162454  0.51317982  0.05881213  1
  S2-  S229  1  0.11884637  0.50119726  0.54983153  1
  S2-  S230  1  0.12051098  0.76364752  0.04974952  1
  S2-  S231  1  0.11469789  0.74769497  0.54819909  1
  S2-  S232  1  0.36738052  0.01579780  0.02550937  1
  S2-  S233  1  0.36714907  0.00771994  0.55339785  1
  S2-  S234  1  0.37457775  0.26304463  0.03318420  1
  S2-  S235  1  0.36781372  0.25029402  0.54705313  1
  S2-  S236  1  0.37273892  0.51127627  0.05594303  1
  S2-  S237  1  0.36624038  0.50119282  0.54638201  1
  S2-  S238  1  0.37135758  0.76558804  0.04249750  1
  S2-  S239  1  0.36795898  0.74965929  0.53610351  1
  S2-  S240  1  0.62308480  0.01623594  0.02840313  1
  S2-  S241  1  0.61909245  -0.00072013  0.54672359  1
  S2-  S242  1  0.61716038  0.25771905  0.05727924  1
  S2-  S243  1  0.61381173  0.24740533  0.55122324  1
  S2-  S244  1  0.61757223  0.51408294  0.06153109  1
  S2-  S245  1  0.61593124  0.50330103  0.54237767  1
  S2-  S246  1  0.62153442  0.76873811  0.03998963  1
  S2-  S247  1  0.62274707  0.74956707  0.53128806  1
  S2-  S248  1  0.87168099  0.01734674  0.04083485  1
  S2-  S249  1  0.86833821  -0.00131473  0.54545209  1
  S2-  S250  1  0.87010516  0.26214195  0.05333028  1
  S2-  S251  1  0.86845529  0.24904246  0.54261716  1
  S2-  S252  1  0.87069201  0.51402194  0.05980657  1
  S2-  S253  1  0.86702715  0.50211398  0.54581185  1
  S2-  S254  1  0.87212032  0.76538057  0.04325813  1
  S2-  S255  1  0.86714107  0.74788694  0.54895651  1
