# generated using pymatgen
data_La6Ce7Pr13Nd19Sm19(BiS2)64
_symmetry_space_group_name_H-M   'P 1'
_cell_length_a   16.08775821
_cell_length_b   16.00781699
_cell_length_c   27.41383060
_cell_angle_alpha   89.81797208
_cell_angle_beta   90.00741632
_cell_angle_gamma   89.98487363
_symmetry_Int_Tables_number   1
_chemical_formula_structural   La6Ce7Pr13Nd19Sm19(BiS2)64
_chemical_formula_sum   'La6 Ce7 Pr13 Nd19 Sm19 Bi64 S128'
_cell_volume   7059.84482473
_cell_formula_units_Z   1
loop_
 _symmetry_equiv_pos_site_id
 _symmetry_equiv_pos_as_xyz
  1  'x, y, z'
loop_
 _atom_type_symbol
 _atom_type_oxidation_number
  La3+  3.0
  Ce3+  3.0
  Pr3+  3.0
  Nd3+  3.0
  Sm3+  3.0
  Bi2+  2.0
  S2-  -2.0
loop_
 _atom_site_type_symbol
 _atom_site_label
 _atom_site_symmetry_multiplicity
 _atom_site_fract_x
 _atom_site_fract_y
 _atom_site_fract_z
 _atom_site_occupancy
  La3+  La0  1  0.87827511  0.25526519  0.39878833  1
  La3+  La1  1  0.00987654  0.84820545  0.07295104  1
  La3+  La2  1  0.74754239  0.38170871  0.60709857  1
  La3+  La3  1  0.62508697  0.26460614  0.41796259  1
  La3+  La4  1  0.88641416  0.22020258  0.91689116  1
  La3+  La5  1  0.62417619  0.72240157  0.91697096  1
  Ce3+  Ce6  1  0.12880365  0.22137461  0.93732014  1
  Ce3+  Ce7  1  0.26202747  0.09847634  0.05016185  1
  Ce3+  Ce8  1  0.51072540  0.59943770  0.05689010  1
  Ce3+  Ce9  1  0.75200921  0.88239359  0.56816252  1
  Ce3+  Ce10  1  0.75953169  0.09268227  0.07804919  1
  Ce3+  Ce11  1  0.24867578  0.38058013  0.57015648  1
  Ce3+  Ce12  1  0.00209197  0.88562928  0.56122322  1
  Pr3+  Pr13  1  0.00891059  0.34399634  0.06706675  1
  Pr3+  Pr14  1  0.25870401  0.59629098  0.06646701  1
  Pr3+  Pr15  1  0.88396686  -0.02869491  0.94013451  1
  Pr3+  Pr16  1  0.39230824  0.22298267  0.92478363  1
  Pr3+  Pr17  1  0.50779821  0.84254535  0.06623358  1
  Pr3+  Pr18  1  0.12147265  0.01660137  0.44060115  1
  Pr3+  Pr19  1  0.75152221  0.14160786  0.55653774  1
  Pr3+  Pr20  1  0.12417968  0.50895708  0.44043478  1
  Pr3+  Pr21  1  0.12423853  0.77135831  0.41020321  1
  Pr3+  Pr22  1  0.12446031  0.26818176  0.42989823  1
  Pr3+  Pr23  1  0.37819172  0.27312721  0.42443613  1
  Pr3+  Pr24  1  0.37468283  0.76205502  0.42551806  1
  Pr3+  Pr25  1  0.00961367  0.59100885  0.08867247  1
  Nd3+  Nd26  1  0.62932162  0.00481237  0.43231653  1
  Nd3+  Nd27  1  0.25313598  0.13891969  0.54768170  1
  Nd3+  Nd28  1  0.75873925  0.34883442  0.05890851  1
  Nd3+  Nd29  1  0.64053233  0.47161129  0.93108586  1
  Nd3+  Nd30  1  0.37837511  0.01252556  0.43675548  1
  Nd3+  Nd31  1  0.12716619  0.47288782  0.93868813  1
  Nd3+  Nd32  1  0.75720371  0.84402765  0.06335415  1
  Nd3+  Nd33  1  0.50843669  0.33979840  0.06654422  1
  Nd3+  Nd34  1  0.01058074  0.09712045  0.06957402  1
  Nd3+  Nd35  1  0.00083354  0.63420655  0.56074561  1
  Nd3+  Nd36  1  0.49903343  0.88491227  0.55870440  1
  Nd3+  Nd37  1  0.75198195  0.63904835  0.56567287  1
  Nd3+  Nd38  1  0.88745512  0.47823003  0.93433140  1
  Nd3+  Nd39  1  0.87381998  0.50490020  0.44262294  1
  Nd3+  Nd40  1  0.25061899  0.63718394  0.55803768  1
  Nd3+  Nd41  1  0.63725832  0.22075555  0.94900872  1
  Nd3+  Nd42  1  0.50404290  0.13928466  0.55364281  1
  Nd3+  Nd43  1  0.50185928  0.63556913  0.55983858  1
  Nd3+  Nd44  1  0.38413083  0.47066955  0.93455999  1
  Sm3+  Sm45  1  0.26136804  0.84531121  0.04972109  1
  Sm3+  Sm46  1  0.25076330  0.88469758  0.55358751  1
  Sm3+  Sm47  1  -0.00194361  0.14100362  0.55915966  1
  Sm3+  Sm48  1  0.13293960  -0.02738821  0.94113501  1
  Sm3+  Sm49  1  0.26083441  0.34553553  0.05227324  1
  Sm3+  Sm50  1  0.63013618  0.51031630  0.44002782  1
  Sm3+  Sm51  1  0.50568870  0.08995190  0.06772184  1
  Sm3+  Sm52  1  0.88621356  0.72342522  0.94456625  1
  Sm3+  Sm53  1  0.37484852  0.51243166  0.44781839  1
  Sm3+  Sm54  1  0.63580029  -0.02604154  0.94750459  1
  Sm3+  Sm55  1  0.62775489  0.76149382  0.44092648  1
  Sm3+  Sm56  1  -0.00070567  0.38385946  0.56352874  1
  Sm3+  Sm57  1  0.50527537  0.38560888  0.55884195  1
  Sm3+  Sm58  1  0.38104284  0.71567719  0.93031730  1
  Sm3+  Sm59  1  0.75791921  0.59711274  0.05193230  1
  Sm3+  Sm60  1  0.88185688  0.75987661  0.43544028  1
  Sm3+  Sm61  1  0.87340460  0.00508941  0.43852905  1
  Sm3+  Sm62  1  0.13332636  0.72142646  0.94686195  1
  Sm3+  Sm63  1  0.38902290  -0.02624912  0.93449621  1
  Bi2+  Bi64  1  0.01535031  0.06523817  0.30052991  1
  Bi2+  Bi65  1  -0.00188911  0.08927985  0.78903394  1
  Bi2+  Bi66  1  0.01990914  0.37086322  0.29018470  1
  Bi2+  Bi67  1  0.04698426  0.36568461  0.78551593  1
  Bi2+  Bi68  1  0.02683454  0.57789821  0.28717537  1
  Bi2+  Bi69  1  0.00814010  0.62070065  0.79652810  1
  Bi2+  Bi70  1  -0.00432388  0.85674330  0.29359096  1
  Bi2+  Bi71  1  -0.01144862  0.88945674  0.80472462  1
  Bi2+  Bi72  1  0.27028179  0.14293904  0.28735327  1
  Bi2+  Bi73  1  0.26093996  0.20338193  0.78000521  1
  Bi2+  Bi74  1  0.26650127  0.34159383  0.29370142  1
  Bi2+  Bi75  1  0.24086136  0.39317131  0.80763182  1
  Bi2+  Bi76  1  0.36235642  0.63226864  0.31410415  1
  Bi2+  Bi77  1  0.23752632  0.59043735  0.78890589  1
  Bi2+  Bi78  1  0.24147440  0.86635428  0.24545043  1
  Bi2+  Bi79  1  0.24926826  0.80404435  0.79352388  1
  Bi2+  Bi80  1  0.48070619  0.10289661  0.29076135  1
  Bi2+  Bi81  1  0.46298677  0.20693710  0.78412728  1
  Bi2+  Bi82  1  0.49519717  0.39672848  0.29241723  1
  Bi2+  Bi83  1  0.48190625  0.39600892  0.73866782  1
  Bi2+  Bi84  1  0.56304473  0.65497291  0.33318607  1
  Bi2+  Bi85  1  0.43081732  0.68022135  0.78111434  1
  Bi2+  Bi86  1  0.49406746  0.83377689  0.29883360  1
  Bi2+  Bi87  1  0.39070136  0.94238052  0.79953802  1
  Bi2+  Bi88  1  0.74891463  0.12471297  0.27681702  1
  Bi2+  Bi89  1  0.73065847  0.12477411  0.80604136  1
  Bi2+  Bi90  1  0.76058607  0.39755553  0.28898916  1
  Bi2+  Bi91  1  0.67676138  0.36088954  0.80298352  1
  Bi2+  Bi92  1  0.75433752  0.62264811  0.29688702  1
  Bi2+  Bi93  1  0.73797838  0.60937165  0.80205423  1
  Bi2+  Bi94  1  0.74947482  0.87064010  0.28801963  1
  Bi2+  Bi95  1  0.78281724  0.89869150  0.80760369  1
  Bi2+  Bi96  1  0.14182479  0.03248458  0.21410866  1
  Bi2+  Bi97  1  0.13096386  -0.08760716  0.72269917  1
  Bi2+  Bi98  1  0.14910063  0.24828280  0.21313196  1
  Bi2+  Bi99  1  0.10813035  0.23199038  0.70676723  1
  Bi2+  Bi100  1  0.20781062  0.53833591  0.24794463  1
  Bi2+  Bi101  1  0.11189231  0.49978394  0.70590928  1
  Bi2+  Bi102  1  0.12980272  0.71220355  0.21349294  1
  Bi2+  Bi103  1  0.13115056  0.70515147  0.70350283  1
  Bi2+  Bi104  1  0.37038326  0.01014754  0.21361572  1
  Bi2+  Bi105  1  0.29688146  0.04164997  0.71810508  1
  Bi2+  Bi106  1  0.36629586  0.27263957  0.19742210  1
  Bi2+  Bi107  1  0.36106349  0.27103323  0.67528708  1
  Bi2+  Bi108  1  0.40012604  0.54638478  0.21300883  1
  Bi2+  Bi109  1  0.31005044  0.45694022  0.69471369  1
  Bi2+  Bi110  1  0.39187522  0.74834948  0.21157602  1
  Bi2+  Bi111  1  0.37468111  0.79770512  0.69693604  1
  Bi2+  Bi112  1  0.61754587  -0.06531947  0.21120739  1
  Bi2+  Bi113  1  0.57226848  -0.03861119  0.75093304  1
  Bi2+  Bi114  1  0.61277223  0.28471524  0.19681494  1
  Bi2+  Bi115  1  0.61405206  0.14590338  0.71559712  1
  Bi2+  Bi116  1  0.59863845  0.55438267  0.23622353  1
  Bi2+  Bi117  1  0.60018305  0.53833410  0.70771135  1
  Bi2+  Bi118  1  0.64724159  0.74265897  0.19797666  1
  Bi2+  Bi119  1  0.62566140  0.78331169  0.71080859  1
  Bi2+  Bi120  1  0.88861501  -0.04180996  0.21665099  1
  Bi2+  Bi121  1  0.85299466  -0.00070870  0.72028090  1
  Bi2+  Bi122  1  0.86877397  0.29702086  0.17346307  1
  Bi2+  Bi123  1  0.86418602  0.25369102  0.71398819  1
  Bi2+  Bi124  1  0.87929704  0.54241406  0.21329281  1
  Bi2+  Bi125  1  0.87914918  0.51481215  0.71123578  1
  Bi2+  Bi126  1  0.85810511  0.74533664  0.21736887  1
  Bi2+  Bi127  1  0.87633207  0.80498999  0.71917609  1
  S2-  S128  1  0.01826928  0.21726596  0.14442515  1
  S2-  S129  1  -0.01637886  0.15662593  0.65765241  1
  S2-  S130  1  -0.02549815  0.44862007  0.14989751  1
  S2-  S131  1  -0.08861877  0.38611942  0.65136066  1
  S2-  S132  1  -0.00228897  0.73380719  0.15094636  1
  S2-  S133  1  -0.01960044  0.63255678  0.65967618  1
  S2-  S134  1  0.01656103  0.97578602  0.14561239  1
  S2-  S135  1  -0.00797749  0.89115847  0.65850205  1
  S2-  S136  1  0.27123406  0.09131620  0.14655772  1
  S2-  S137  1  0.22865885  0.14833685  0.64496899  1
  S2-  S138  1  0.24538405  0.35236199  0.15056802  1
  S2-  S139  1  0.12339068  0.36801646  0.63811099  1
  S2-  S140  1  0.15820040  0.58221119  0.14787510  1
  S2-  S141  1  0.27659408  0.67368936  0.65372233  1
  S2-  S142  1  0.26213754  0.81139253  0.14540911  1
  S2-  S143  1  0.26764077  0.90815736  0.64972695  1
  S2-  S144  1  0.50569773  0.19319583  0.14739251  1
  S2-  S145  1  0.47775974  0.14663658  0.65187719  1
  S2-  S146  1  0.48809109  0.39439347  0.16100351  1
  S2-  S147  1  0.57947132  0.39550574  0.64735792  1
  S2-  S148  1  0.50887137  0.70658092  0.13461851  1
  S2-  S149  1  0.52493497  0.65952094  0.65775410  1
  S2-  S150  1  0.49649223  0.96397540  0.14156819  1
  S2-  S151  1  0.52067229  0.88863910  0.65696837  1
  S2-  S152  1  0.74555780  0.16960001  0.17089855  1
  S2-  S153  1  0.74349701  0.21339181  0.65037128  1
  S2-  S154  1  0.72685615  0.39374562  0.15453227  1
  S2-  S155  1  0.75816930  0.38783872  0.72290689  1
  S2-  S156  1  0.76631028  0.64317631  0.14617034  1
  S2-  S157  1  0.74758709  0.54841699  0.65095081  1
  S2-  S158  1  0.75938318  0.94948104  0.14504404  1
  S2-  S159  1  0.74888113  0.76674445  0.64384600  1
  S2-  S160  1  0.11226754  -0.07086370  0.35499274  1
  S2-  S161  1  0.11498279  -0.00422000  0.84488641  1
  S2-  S162  1  0.03505246  0.22245036  0.34638030  1
  S2-  S163  1  0.03635974  0.22687085  0.85458089  1
  S2-  S164  1  0.14084975  0.40478208  0.36020024  1
  S2-  S165  1  0.01342428  0.48103373  0.86062795  1
  S2-  S166  1  -0.00955169  0.71410821  0.35197854  1
  S2-  S167  1  0.12472397  0.71280933  0.84927509  1
  S2-  S168  1  0.40471558  -0.03642433  0.34306010  1
  S2-  S169  1  0.40691905  0.08585901  0.85903265  1
  S2-  S170  1  0.48976259  0.24482904  0.34577596  1
  S2-  S171  1  0.39263149  0.35766292  0.85711443  1
  S2-  S172  1  0.37076427  0.42502666  0.36311493  1
  S2-  S173  1  0.36503901  0.58835455  0.85922688  1
  S2-  S174  1  0.26059114  0.75652820  0.34720027  1
  S2-  S175  1  0.48110167  0.76957190  0.85583079  1
  S2-  S176  1  0.63189048  0.07643278  0.33686389  1
  S2-  S177  1  0.63715436  -0.01398735  0.84865244  1
  S2-  S178  1  0.73337923  0.25268906  0.33801476  1
  S2-  S179  1  0.59415598  0.22558487  0.85275740  1
  S2-  S180  1  0.62166200  0.42495624  0.35208261  1
  S2-  S181  1  0.60086715  0.55964744  0.84512951  1
  S2-  S182  1  0.63041943  0.86939823  0.36351702  1
  S2-  S183  1  0.68220266  0.75962988  0.82052331  1
  S2-  S184  1  0.86849364  0.08995510  0.34882945  1
  S2-  S185  1  0.87119384  0.07297491  0.85858799  1
  S2-  S186  1  0.88357203  0.27373840  0.26479728  1
  S2-  S187  1  0.81988272  0.26700661  0.82207073  1
  S2-  S188  1  0.89095828  0.42403653  0.35273915  1
  S2-  S189  1  0.77681112  0.46436611  0.85646627  1
  S2-  S190  1  0.86555696  0.87982890  0.36462455  1
  S2-  S191  1  0.88536222  0.67773823  0.84894845  1
  S2-  S192  1  -0.00753896  0.13461794  0.45555670  1
  S2-  S193  1  0.01036574  0.09433842  0.96088049  1
  S2-  S194  1  -0.00186826  0.38388810  0.45904963  1
  S2-  S195  1  0.00465437  0.34495892  0.95958524  1
  S2-  S196  1  0.00203632  0.63398136  0.45677031  1
  S2-  S197  1  0.00984710  0.60344880  0.96272246  1
  S2-  S198  1  0.00356128  0.88334898  0.45829255  1
  S2-  S199  1  0.01134143  0.84715774  0.95766192  1
  S2-  S200  1  0.25349999  0.14005377  0.44145418  1
  S2-  S201  1  0.25742751  0.09730593  0.94545004  1
  S2-  S202  1  0.25286244  0.38783431  0.46423112  1
  S2-  S203  1  0.25294612  0.34665360  0.94969199  1
  S2-  S204  1  0.24824185  0.63635452  0.45211406  1
  S2-  S205  1  0.25225037  0.59467950  0.95887744  1
  S2-  S206  1  0.25078389  0.88860193  0.45139391  1
  S2-  S207  1  0.26074269  0.84863274  0.94477589  1
  S2-  S208  1  0.50351997  0.13310099  0.44962909  1
  S2-  S209  1  0.51204464  0.09571393  0.96273028  1
  S2-  S210  1  0.50289706  0.39188985  0.45699487  1
  S2-  S211  1  0.51462349  0.34938183  0.95873871  1
  S2-  S212  1  0.49913681  0.63585361  0.45470173  1
  S2-  S213  1  0.50852206  0.59596322  0.95449291  1
  S2-  S214  1  0.49814197  0.88362846  0.45537246  1
  S2-  S215  1  0.50904895  0.85414538  0.95890147  1
  S2-  S216  1  0.75117442  0.13156452  0.45177735  1
  S2-  S217  1  0.75939379  0.09734792  0.96231771  1
  S2-  S218  1  0.75081091  0.38490296  0.44747980  1
  S2-  S219  1  0.76298527  0.34400632  0.95442235  1
  S2-  S220  1  0.75262994  0.63834410  0.45331875  1
  S2-  S221  1  0.75752422  0.60522452  0.95031381  1
  S2-  S222  1  0.75168335  0.88182062  0.46487556  1
  S2-  S223  1  0.75769953  0.84564662  0.95352076  1
  S2-  S224  1  0.13993820  -0.02955303  0.04473980  1
  S2-  S225  1  0.12717308  0.01287142  0.54733118  1
  S2-  S226  1  0.13802995  0.22185644  0.04230334  1
  S2-  S227  1  0.12390045  0.25657617  0.53678178  1
  S2-  S228  1  0.13490514  0.46810409  0.04378551  1
  S2-  S229  1  0.12711027  0.51204146  0.54653198  1
  S2-  S230  1  0.13518109  0.72277335  0.04838503  1
  S2-  S231  1  0.12717058  0.76154015  0.55030128  1
  S2-  S232  1  0.38156658  -0.02997340  0.03845771  1
  S2-  S233  1  0.37580164  0.01093933  0.54409609  1
  S2-  S234  1  0.38516557  0.22246262  0.03815747  1
  S2-  S235  1  0.37939075  0.26352242  0.53733123  1
  S2-  S236  1  0.38407667  0.47098658  0.04514229  1
  S2-  S237  1  0.37692339  0.50973949  0.55199432  1
  S2-  S238  1  0.38012060  0.71977277  0.03591956  1
  S2-  S239  1  0.37532393  0.76134249  0.53929791  1
  S2-  S240  1  0.63412529  -0.02824991  0.04851049  1
  S2-  S241  1  0.62649369  0.00889906  0.54785328  1
  S2-  S242  1  0.63603967  0.21848196  0.05237526  1
  S2-  S243  1  0.62521559  0.26413973  0.54174632  1
  S2-  S244  1  0.63277548  0.47325196  0.04245290  1
  S2-  S245  1  0.62619468  0.51367320  0.54300596  1
  S2-  S246  1  0.63648478  0.72274473  0.03574054  1
  S2-  S247  1  0.62330379  0.76151113  0.54374735  1
  S2-  S248  1  0.88311834  -0.02907681  0.04494792  1
  S2-  S249  1  0.87613174  0.01121530  0.54969254  1
  S2-  S250  1  0.87882631  0.21902345  0.04916890  1
  S2-  S251  1  0.87667450  0.26260494  0.55130344  1
  S2-  S252  1  0.88050541  0.47659904  0.04153236  1
  S2-  S253  1  0.87537410  0.51118699  0.54676050  1
  S2-  S254  1  0.88264006  0.72176491  0.04673746  1
  S2-  S255  1  0.87926244  0.76092048  0.54258919  1
