# generated using pymatgen
data_La6Ce7Pr13Nd19Sm19(BiS2)64
_symmetry_space_group_name_H-M   'P 1'
_cell_length_a   16.00436647
_cell_length_b   16.08059575
_cell_length_c   27.33144374
_cell_angle_alpha   90.09060232
_cell_angle_beta   89.95479549
_cell_angle_gamma   89.93309391
_symmetry_Int_Tables_number   1
_chemical_formula_structural   La6Ce7Pr13Nd19Sm19(BiS2)64
_chemical_formula_sum   'La6 Ce7 Pr13 Nd19 Sm19 Bi64 S128'
_cell_volume   7033.99766549
_cell_formula_units_Z   1
loop_
 _symmetry_equiv_pos_site_id
 _symmetry_equiv_pos_as_xyz
  1  'x, y, z'
loop_
 _atom_type_symbol
 _atom_type_oxidation_number
  La3+  3.0
  Ce3+  3.0
  Pr3+  3.0
  Nd3+  3.0
  Sm3+  3.0
  Bi2+  2.0
  S2-  -2.0
loop_
 _atom_site_type_symbol
 _atom_site_label
 _atom_site_symmetry_multiplicity
 _atom_site_fract_x
 _atom_site_fract_y
 _atom_site_fract_z
 _atom_site_occupancy
  La3+  La0  1  0.48070458  0.61877270  0.06772570  1
  La3+  La1  1  0.51829315  0.87601178  0.58686318  1
  La3+  La2  1  0.13575435  0.75053553  0.39785441  1
  La3+  La3  1  0.14933336  -0.00472399  0.43240531  1
  La3+  La4  1  0.12739696  0.49213447  0.41613683  1
  La3+  La5  1  -0.02625159  0.61390213  0.08999490  1
  Ce3+  Ce6  1  0.39463258  -0.00748180  0.44407301  1
  Ce3+  Ce7  1  0.23072021  0.12016347  0.05362629  1
  Ce3+  Ce8  1  0.76085364  0.87453183  0.55642723  1
  Ce3+  Ce9  1  0.47882588  0.86851011  0.06791490  1
  Ce3+  Ce10  1  0.85669478  -0.00314170  0.94077444  1
  Ce3+  Ce11  1  0.60770771  0.49667383  0.93938540  1
  Ce3+  Ce12  1  0.11317197  0.24595150  0.92963655  1
  Pr3+  Pr13  1  0.35473058  0.73945174  0.92141753  1
  Pr3+  Pr14  1  0.22915900  0.86706643  0.05665070  1
  Pr3+  Pr15  1  0.09944709  0.74817301  0.90883153  1
  Pr3+  Pr16  1  -0.01786610  0.12156066  0.05324825  1
  Pr3+  Pr17  1  0.38742056  0.75015765  0.44283728  1
  Pr3+  Pr18  1  0.51382122  0.12369354  0.56686604  1
  Pr3+  Pr19  1  0.35476617  0.49551431  0.93287126  1
  Pr3+  Pr20  1  0.48143032  0.36873799  0.06551614  1
  Pr3+  Pr21  1  0.01495234  0.61823265  0.56670931  1
  Pr3+  Pr22  1  0.89129546  0.74695223  0.44084314  1
  Pr3+  Pr23  1  0.25903911  0.62681411  0.55441583  1
  Pr3+  Pr24  1  0.73105758  0.86804841  0.05719767  1
  Pr3+  Pr25  1  0.48202339  0.11869763  0.07024844  1
  Nd3+  Nd26  1  0.76322057  0.12860299  0.56267823  1
  Nd3+  Nd27  1  0.22964469  0.62302440  0.05693233  1
  Nd3+  Nd28  1  0.02085403  0.36912726  0.57465690  1
  Nd3+  Nd29  1  0.36193907  0.24141215  0.93246079  1
  Nd3+  Nd30  1  0.23004600  0.37100515  0.06012831  1
  Nd3+  Nd31  1  0.89131586  0.49445352  0.44697908  1
  Nd3+  Nd32  1  0.25316064  0.88108285  0.58435215  1
  Nd3+  Nd33  1  0.88954246  0.24824930  0.44241271  1
  Nd3+  Nd34  1  0.39314575  0.24771352  0.43526412  1
  Nd3+  Nd35  1  0.60711223  0.24346359  0.92590079  1
  Nd3+  Nd36  1  0.63709439  0.24888050  0.43483963  1
  Nd3+  Nd37  1  0.51221379  0.37094893  0.56624136  1
  Nd3+  Nd38  1  0.86566833  0.49201448  0.92764204  1
  Nd3+  Nd39  1  0.14779005  0.24507640  0.43172988  1
  Nd3+  Nd40  1  0.51382183  0.62456832  0.56244086  1
  Nd3+  Nd41  1  -0.02736150  0.36956171  0.07014972  1
  Nd3+  Nd42  1  0.76422754  0.62132898  0.55693116  1
  Nd3+  Nd43  1  0.63450442  0.74861296  0.43439226  1
  Nd3+  Nd44  1  0.76049227  0.37080810  0.59931709  1
  Sm3+  Sm45  1  0.63870949  0.49617174  0.44657105  1
  Sm3+  Sm46  1  0.63476379  -0.00314455  0.43962159  1
  Sm3+  Sm47  1  0.89150037  -0.00212577  0.44575313  1
  Sm3+  Sm48  1  0.73544061  0.61902799  0.05227160  1
  Sm3+  Sm49  1  -0.01658254  0.86906995  0.05950502  1
  Sm3+  Sm50  1  0.60574566  -0.00942532  0.94026813  1
  Sm3+  Sm51  1  0.26530776  0.12314782  0.56358165  1
  Sm3+  Sm52  1  0.73159965  0.36882592  0.05284080  1
  Sm3+  Sm53  1  0.01379422  0.87032426  0.56183740  1
  Sm3+  Sm54  1  0.85432902  0.24736233  0.92868087  1
  Sm3+  Sm55  1  0.35850066  -0.01137415  0.93806893  1
  Sm3+  Sm56  1  0.60666734  0.74488699  0.93458053  1
  Sm3+  Sm57  1  0.73093349  0.12224530  0.05472063  1
  Sm3+  Sm58  1  0.38478702  0.50039991  0.44431351  1
  Sm3+  Sm59  1  0.85943122  0.74502763  0.93958098  1
  Sm3+  Sm60  1  0.10296173  0.49778649  0.94818393  1
  Sm3+  Sm61  1  0.26024546  0.37366184  0.55545057  1
  Sm3+  Sm62  1  0.10586448  -0.00666912  0.93349352  1
  Sm3+  Sm63  1  0.01459955  0.12844340  0.55732293  1
  Bi2+  Bi64  1  0.02651973  0.09866611  0.29403201  1
  Bi2+  Bi65  1  0.03944000  0.13339127  0.81757024  1
  Bi2+  Bi66  1  -0.10320109  0.40640218  0.28582893  1
  Bi2+  Bi67  1  0.02532863  0.32237243  0.78120351  1
  Bi2+  Bi68  1  -0.01759005  0.64069095  0.28067820  1
  Bi2+  Bi69  1  -0.01016931  0.60106526  0.79581048  1
  Bi2+  Bi70  1  -0.02360356  0.90426009  0.28791303  1
  Bi2+  Bi71  1  0.00396825  0.92019811  0.77006601  1
  Bi2+  Bi72  1  0.22109457  0.13907177  0.27354173  1
  Bi2+  Bi73  1  0.23313559  0.11327682  0.78625740  1
  Bi2+  Bi74  1  0.26978207  0.37710902  0.31106355  1
  Bi2+  Bi75  1  0.30749977  0.38941701  0.81177100  1
  Bi2+  Bi76  1  0.29185251  0.62612205  0.29063575  1
  Bi2+  Bi77  1  0.24353347  0.57208372  0.79049543  1
  Bi2+  Bi78  1  0.26869620  0.89875899  0.29109184  1
  Bi2+  Bi79  1  0.25537169  0.87129509  0.79047631  1
  Bi2+  Bi80  1  0.54599064  0.11391479  0.29805853  1
  Bi2+  Bi81  1  0.60003913  0.15925550  0.78539983  1
  Bi2+  Bi82  1  0.51636714  0.34671509  0.27007619  1
  Bi2+  Bi83  1  0.49888742  0.35654620  0.78496723  1
  Bi2+  Bi84  1  0.53487725  0.62244287  0.29055416  1
  Bi2+  Bi85  1  0.52344475  0.56534059  0.79457225  1
  Bi2+  Bi86  1  0.52866764  0.81842736  0.26991775  1
  Bi2+  Bi87  1  0.49486560  0.91538956  0.79266106  1
  Bi2+  Bi88  1  0.73679307  0.18035645  0.30505171  1
  Bi2+  Bi89  1  0.84104821  0.10479564  0.81414952  1
  Bi2+  Bi90  1  0.70389190  0.37554414  0.31421382  1
  Bi2+  Bi91  1  0.77431535  0.38715742  0.79734729  1
  Bi2+  Bi92  1  0.72998769  0.72443282  0.31411549  1
  Bi2+  Bi93  1  0.70412057  0.67752004  0.80450613  1
  Bi2+  Bi94  1  0.68117459  0.91847635  0.31469537  1
  Bi2+  Bi95  1  0.74557469  0.94145587  0.75716198  1
  Bi2+  Bi96  1  0.11815403  0.02547206  0.19665550  1
  Bi2+  Bi97  1  0.11348613  0.03565168  0.70194122  1
  Bi2+  Bi98  1  0.08388750  0.28103842  0.25855146  1
  Bi2+  Bi99  1  0.15405433  0.24502941  0.70444476  1
  Bi2+  Bi100  1  0.13288484  0.49643034  0.20596821  1
  Bi2+  Bi101  1  0.10886662  0.47137400  0.72181244  1
  Bi2+  Bi102  1  0.13777934  0.76974647  0.19241229  1
  Bi2+  Bi103  1  0.12120372  0.73523510  0.69507508  1
  Bi2+  Bi104  1  0.42297131  -0.02094263  0.23339645  1
  Bi2+  Bi105  1  0.38692262  0.09698175  0.71099129  1
  Bi2+  Bi106  1  0.38834348  0.17888308  0.21311210  1
  Bi2+  Bi107  1  0.33984424  0.27919519  0.66514361  1
  Bi2+  Bi108  1  0.36019485  0.40246555  0.21010682  1
  Bi2+  Bi109  1  0.37991531  0.45900001  0.71389891  1
  Bi2+  Bi110  1  0.36322046  0.72961904  0.19962464  1
  Bi2+  Bi111  1  0.37285157  0.69692059  0.70183377  1
  Bi2+  Bi112  1  0.64347268  0.01742316  0.21200448  1
  Bi2+  Bi113  1  0.67288042  0.07870537  0.68579919  1
  Bi2+  Bi114  1  0.67437598  0.31489047  0.20220411  1
  Bi2+  Bi115  1  0.52999745  0.23029303  0.68240615  1
  Bi2+  Bi116  1  0.60597989  0.50769097  0.20387641  1
  Bi2+  Bi117  1  0.64655507  0.51112872  0.70816321  1
  Bi2+  Bi118  1  0.68686531  0.70535055  0.18779422  1
  Bi2+  Bi119  1  0.62308934  0.74872323  0.70550994  1
  Bi2+  Bi120  1  0.83993918  0.10022935  0.21881396  1
  Bi2+  Bi121  1  0.89355451  0.00666474  0.69027805  1
  Bi2+  Bi122  1  0.92104634  0.27573538  0.19594996  1
  Bi2+  Bi123  1  0.90033989  0.19824469  0.72016609  1
  Bi2+  Bi124  1  0.78794798  0.56030432  0.24357804  1
  Bi2+  Bi125  1  0.88563802  0.58246182  0.70378869  1
  Bi2+  Bi126  1  0.81979390  0.83445915  0.23505249  1
  Bi2+  Bi127  1  0.85991946  0.77869409  0.76446161  1
  S2-  S128  1  -0.01725972  0.11772307  0.15350831  1
  S2-  S129  1  0.01212562  0.22563559  0.64012898  1
  S2-  S130  1  0.00407434  0.47107768  0.15193595  1
  S2-  S131  1  -0.00059207  0.49841483  0.64556643  1
  S2-  S132  1  0.00134423  0.68824203  0.18178786  1
  S2-  S133  1  -0.01991783  0.71422055  0.65335836  1
  S2-  S134  1  0.03700570  0.89637282  0.15250964  1
  S2-  S135  1  0.10053844  0.88723144  0.64627387  1
  S2-  S136  1  0.25140852  0.11555951  0.14981591  1
  S2-  S137  1  0.26443649  0.03021883  0.64722991  1
  S2-  S138  1  0.21439639  0.36669887  0.16036916  1
  S2-  S139  1  0.16678657  0.38404361  0.63879348  1
  S2-  S140  1  0.23694196  0.61482433  0.15785680  1
  S2-  S141  1  0.23343910  0.62076883  0.65525366  1
  S2-  S142  1  0.28380812  0.85759049  0.15274605  1
  S2-  S143  1  0.27907819  0.82423851  0.68510702  1
  S2-  S144  1  0.49467160  -0.00956078  0.14228246  1
  S2-  S145  1  0.51058230  0.02287210  0.65044779  1
  S2-  S146  1  0.47619528  0.24697555  0.14121060  1
  S2-  S147  1  0.60655347  0.38541735  0.65058679  1
  S2-  S148  1  0.46754866  0.49142509  0.14124095  1
  S2-  S149  1  0.51535549  0.61516750  0.66143657  1
  S2-  S150  1  0.49107389  0.74528066  0.14037343  1
  S2-  S151  1  0.48251609  0.83010501  0.69172597  1
  S2-  S152  1  0.70495718  0.14229056  0.15115000  1
  S2-  S153  1  0.76274585  0.21744620  0.64961923  1
  S2-  S154  1  0.81289107  0.36529116  0.13896024  1
  S2-  S155  1  0.80221050  0.42638628  0.69598408  1
  S2-  S156  1  0.80959294  0.61253943  0.14071530  1
  S2-  S157  1  0.74318579  0.63575460  0.65528120  1
  S2-  S158  1  0.71687520  0.87982528  0.15670416  1
  S2-  S159  1  0.67802380  0.85824786  0.64072538  1
  S2-  S160  1  0.12098728  -0.09685945  0.34587923  1
  S2-  S161  1  0.10885894  -0.09559277  0.84892951  1
  S2-  S162  1  0.10958961  0.34449929  0.35273577  1
  S2-  S163  1  0.24109380  0.24516021  0.85695533  1
  S2-  S164  1  0.17087780  0.52231161  0.31310617  1
  S2-  S165  1  0.10179023  0.50820131  0.84966052  1
  S2-  S166  1  0.13522989  0.71181165  0.28618952  1
  S2-  S167  1  0.20839936  0.72751644  0.82974757  1
  S2-  S168  1  0.29381833  0.00138537  0.36253955  1
  S2-  S169  1  0.35595088  0.00064113  0.83875207  1
  S2-  S170  1  0.28162228  0.22781314  0.35782053  1
  S2-  S171  1  0.47915150  0.22708594  0.85545975  1
  S2-  S172  1  0.38228030  0.50401299  0.34597087  1
  S2-  S173  1  0.38419115  0.59964505  0.85348507  1
  S2-  S174  1  0.29729188  0.76082410  0.35320743  1
  S2-  S175  1  0.39617043  0.80417872  0.82763349  1
  S2-  S176  1  0.51381879  -0.00531774  0.36817265  1
  S2-  S177  1  0.59832711  0.02648369  0.84393693  1
  S2-  S178  1  0.51546687  0.25701497  0.36121243  1
  S2-  S179  1  0.72999563  0.24063846  0.85037092  1
  S2-  S180  1  0.63080808  0.52325149  0.34944178  1
  S2-  S181  1  0.62382636  0.44422992  0.84618395  1
  S2-  S182  1  0.50890937  0.74771958  0.36365964  1
  S2-  S183  1  0.60808398  0.80582052  0.84153012  1
  S2-  S184  1  0.89686574  0.00950571  0.34815457  1
  S2-  S185  1  0.83789291  -0.05656792  0.84946087  1
  S2-  S186  1  0.87961950  0.25734909  0.34294977  1
  S2-  S187  1  0.89960838  0.36093794  0.85718332  1
  S2-  S188  1  0.96204518  0.51473723  0.35643439  1
  S2-  S189  1  0.82325976  0.54377014  0.83193104  1
  S2-  S190  1  0.96723089  0.75268135  0.35106291  1
  S2-  S191  1  0.94878056  0.73920647  0.85402537  1
  S2-  S192  1  0.01594916  0.12279291  0.45222648  1
  S2-  S193  1  -0.01751873  0.12240012  0.94726190  1
  S2-  S194  1  0.01328265  0.36808290  0.46183287  1
  S2-  S195  1  -0.01136734  0.36570374  0.96121129  1
  S2-  S196  1  0.01764051  0.62541276  0.45752712  1
  S2-  S197  1  -0.01791544  0.62181070  0.95394615  1
  S2-  S198  1  0.01420451  0.87415743  0.45749603  1
  S2-  S199  1  -0.01784849  0.87062017  0.95561017  1
  S2-  S200  1  0.27094697  0.12225120  0.46181908  1
  S2-  S201  1  0.23332637  0.11261432  0.94839284  1
  S2-  S202  1  0.26492644  0.37666588  0.45269199  1
  S2-  S203  1  0.22956460  0.37306305  0.95412301  1
  S2-  S204  1  0.25712107  0.62170173  0.44740254  1
  S2-  S205  1  0.22444253  0.62274452  0.95091516  1
  S2-  S206  1  0.26170699  0.86827040  0.46390520  1
  S2-  S207  1  0.23094159  0.86730689  0.94898540  1
  S2-  S208  1  0.51713215  0.12518478  0.46214788  1
  S2-  S209  1  0.48236894  0.11196510  0.95845445  1
  S2-  S210  1  0.51261222  0.37979421  0.45976456  1
  S2-  S211  1  0.48288111  0.37260395  0.95374587  1
  S2-  S212  1  0.51294716  0.61768024  0.45813492  1
  S2-  S213  1  0.48603493  0.62143056  0.95639326  1
  S2-  S214  1  0.51918030  0.87073837  0.46937239  1
  S2-  S215  1  0.48316253  0.86746565  0.95343312  1
  S2-  S216  1  0.76251534  0.12056246  0.45359567  1
  S2-  S217  1  0.72988502  0.11739094  0.95134838  1
  S2-  S218  1  0.76299751  0.37333353  0.44738781  1
  S2-  S219  1  0.73402206  0.37201617  0.95099690  1
  S2-  S220  1  0.76367088  0.62106544  0.45076245  1
  S2-  S221  1  0.73499695  0.62263780  0.94790621  1
  S2-  S222  1  0.76407664  0.87490154  0.45056948  1
  S2-  S223  1  0.73227754  0.86738058  0.95143819  1
  S2-  S224  1  0.10547896  -0.00624641  0.03869619  1
  S2-  S225  1  0.13451684  0.00461392  0.54314111  1
  S2-  S226  1  0.10512310  0.24790532  0.04425987  1
  S2-  S227  1  0.14401949  0.24376885  0.53908923  1
  S2-  S228  1  0.10506747  0.49644166  0.04997293  1
  S2-  S229  1  0.13927420  0.49715801  0.53614592  1
  S2-  S230  1  0.10065575  0.74243167  0.05363448  1
  S2-  S231  1  0.13621204  0.75062764  0.55276177  1
  S2-  S232  1  0.35455529  -0.00577248  0.04281640  1
  S2-  S233  1  0.38756112  -0.00486579  0.54977993  1
  S2-  S234  1  0.35375486  0.24561401  0.04038031  1
  S2-  S235  1  0.38776189  0.24896996  0.54287064  1
  S2-  S236  1  0.35146509  0.49459009  0.03998897  1
  S2-  S237  1  0.38692000  0.49771964  0.55126530  1
  S2-  S238  1  0.35482918  0.74302736  0.03605909  1
  S2-  S239  1  0.38907616  0.75092857  0.55623659  1
  S2-  S240  1  0.61045669  -0.00465114  0.04332807  1
  S2-  S241  1  0.64184387  0.00227125  0.54357216  1
  S2-  S242  1  0.60963364  0.24570874  0.03705635  1
  S2-  S243  1  0.64104116  0.25346999  0.54269408  1
  S2-  S244  1  0.61360399  0.49505257  0.04578182  1
  S2-  S245  1  0.64099996  0.49658220  0.54990274  1
  S2-  S246  1  0.61088988  0.74219209  0.03948621  1
  S2-  S247  1  0.63904424  0.74424172  0.54117664  1
  S2-  S248  1  0.85641627  -0.00485018  0.04900522  1
  S2-  S249  1  0.89056064  0.00139112  0.54997845  1
  S2-  S250  1  0.85439837  0.24255788  0.03716942  1
  S2-  S251  1  0.88471527  0.25451594  0.54664594  1
  S2-  S252  1  0.85702456  0.49349996  0.03615054  1
  S2-  S253  1  0.87803028  0.48747691  0.55118571  1
  S2-  S254  1  0.86043336  0.74582976  0.04459729  1
  S2-  S255  1  0.88621019  0.75005995  0.54663695  1
