# generated using pymatgen
data_La6Ce7Pr13Nd19Sm19(BiS2)64
_symmetry_space_group_name_H-M   'P 1'
_cell_length_a   16.07510969
_cell_length_b   16.04069384
_cell_length_c   27.34428966
_cell_angle_alpha   90.20851799
_cell_angle_beta   89.96741016
_cell_angle_gamma   90.07331075
_symmetry_Int_Tables_number   1
_chemical_formula_structural   La6Ce7Pr13Nd19Sm19(BiS2)64
_chemical_formula_sum   'La6 Ce7 Pr13 Nd19 Sm19 Bi64 S128'
_cell_volume   7050.83318935
_cell_formula_units_Z   1
loop_
 _symmetry_equiv_pos_site_id
 _symmetry_equiv_pos_as_xyz
  1  'x, y, z'
loop_
 _atom_type_symbol
 _atom_type_oxidation_number
  La3+  3.0
  Ce3+  3.0
  Pr3+  3.0
  Nd3+  3.0
  Sm3+  3.0
  Bi2+  2.0
  S2-  -2.0
loop_
 _atom_site_type_symbol
 _atom_site_label
 _atom_site_symmetry_multiplicity
 _atom_site_fract_x
 _atom_site_fract_y
 _atom_site_fract_z
 _atom_site_occupancy
  La3+  La0  1  0.49185743  0.15796961  0.57513272  1
  La3+  La1  1  0.59911128  0.28022039  0.41526446  1
  La3+  La2  1  0.00793366  0.12557444  0.08744767  1
  La3+  La3  1  0.59862264  0.02128286  0.42981161  1
  La3+  La4  1  0.00044852  0.62823649  0.07738331  1
  La3+  La5  1  -0.01893124  0.15048769  0.57445800  1
  Ce3+  Ce6  1  0.25572155  0.37308457  0.05732685  1
  Ce3+  Ce7  1  0.11057696  0.02546475  0.44641910  1
  Ce3+  Ce8  1  0.62635961  0.24096687  0.93549139  1
  Ce3+  Ce9  1  0.35960653  0.02608677  0.44647195  1
  Ce3+  Ce10  1  0.50401190  0.87598957  0.04878262  1
  Ce3+  Ce11  1  0.10699643  0.53572123  0.43039405  1
  Ce3+  Ce12  1  0.75321474  0.62284898  0.06709822  1
  Pr3+  Pr13  1  0.86113973  0.27201003  0.43088798  1
  Pr3+  Pr14  1  0.73296184  0.90443487  0.56630063  1
  Pr3+  Pr15  1  0.62876793  0.49592679  0.93908305  1
  Pr3+  Pr16  1  0.12633277  0.74543414  0.93489890  1
  Pr3+  Pr17  1  0.87837585  0.74922910  0.93466868  1
  Pr3+  Pr18  1  0.50254126  0.12175193  0.05628862  1
  Pr3+  Pr19  1  0.37582938  -0.00213169  0.90941111  1
  Pr3+  Pr20  1  0.62937831  -0.00266091  0.89366490  1
  Pr3+  Pr21  1  0.37784567  0.77075529  0.41216439  1
  Pr3+  Pr22  1  0.60603332  0.53122580  0.42913151  1
  Pr3+  Pr23  1  0.50060571  0.62431540  0.05400492  1
  Pr3+  Pr24  1  0.37540087  0.24598569  0.92802225  1
  Pr3+  Pr25  1  0.35223813  0.52625954  0.43442770  1
  Nd3+  Nd26  1  0.88100593  -0.00168576  0.93763263  1
  Nd3+  Nd27  1  -0.01465979  0.65026274  0.57004572  1
  Nd3+  Nd28  1  -0.00272910  0.36634676  0.06693925  1
  Nd3+  Nd29  1  0.63274530  0.74886571  0.93181060  1
  Nd3+  Nd30  1  -0.00185441  0.87843505  0.06888780  1
  Nd3+  Nd31  1  0.23463498  0.40577102  0.56701962  1
  Nd3+  Nd32  1  0.25021817  0.61167030  0.07030788  1
  Nd3+  Nd33  1  0.23950046  0.90233725  0.56357349  1
  Nd3+  Nd34  1  0.48885213  0.40423814  0.56028846  1
  Nd3+  Nd35  1  0.48323108  0.90060710  0.57121216  1
  Nd3+  Nd36  1  0.23812301  0.15791691  0.57121974  1
  Nd3+  Nd37  1  0.48516601  0.64640100  0.56925203  1
  Nd3+  Nd38  1  -0.01373371  0.89795768  0.57646537  1
  Nd3+  Nd39  1  0.87833488  0.49396792  0.94389071  1
  Nd3+  Nd40  1  0.74242834  0.10881052  0.09413752  1
  Nd3+  Nd41  1  0.25661674  0.85993858  0.06492889  1
  Nd3+  Nd42  1  0.25302999  0.12030183  0.06157621  1
  Nd3+  Nd43  1  0.73474313  0.40123378  0.54266410  1
  Nd3+  Nd44  1  0.12535779  0.49761739  0.94390773  1
  Sm3+  Sm45  1  0.86465266  0.53100227  0.43426082  1
  Sm3+  Sm46  1  0.60918986  0.77689847  0.45273365  1
  Sm3+  Sm47  1  0.86043911  0.77908561  0.44623670  1
  Sm3+  Sm48  1  0.50373595  0.37034793  0.05263424  1
  Sm3+  Sm49  1  0.35877067  0.27518107  0.44117434  1
  Sm3+  Sm50  1  0.37672876  0.74968198  0.92920283  1
  Sm3+  Sm51  1  0.11138001  0.77668890  0.44651390  1
  Sm3+  Sm52  1  0.75013122  0.87799416  0.05337503  1
  Sm3+  Sm53  1  0.73757144  0.64882373  0.55403289  1
  Sm3+  Sm54  1  0.85998399  0.02364596  0.44246932  1
  Sm3+  Sm55  1  0.73087600  0.15310583  0.54750636  1
  Sm3+  Sm56  1  0.12788477  -0.00417097  0.94892968  1
  Sm3+  Sm57  1  0.23546106  0.64804874  0.56187774  1
  Sm3+  Sm58  1  0.74851522  0.36650588  0.05732713  1
  Sm3+  Sm59  1  0.87409069  0.23793039  0.95338510  1
  Sm3+  Sm60  1  -0.01625428  0.40291771  0.56373163  1
  Sm3+  Sm61  1  0.10770953  0.27653773  0.44869399  1
  Sm3+  Sm62  1  0.37518666  0.49502770  0.92758354  1
  Sm3+  Sm63  1  0.12392254  0.24371210  0.94184515  1
  Bi2+  Bi64  1  0.01839706  0.13798134  0.31759011  1
  Bi2+  Bi65  1  0.01769296  0.12414091  0.80334069  1
  Bi2+  Bi66  1  0.03813512  0.38951260  0.29988919  1
  Bi2+  Bi67  1  -0.02469694  0.36889464  0.80333798  1
  Bi2+  Bi68  1  -0.00555444  0.65674806  0.29328235  1
  Bi2+  Bi69  1  0.07317010  0.62203733  0.78323635  1
  Bi2+  Bi70  1  0.01914373  0.83973755  0.25000958  1
  Bi2+  Bi71  1  -0.01506371  0.81008714  0.77251110  1
  Bi2+  Bi72  1  0.26353259  0.11161936  0.29679695  1
  Bi2+  Bi73  1  0.25214026  0.10111879  0.76290600  1
  Bi2+  Bi74  1  0.29070610  0.38635605  0.29293865  1
  Bi2+  Bi75  1  0.24577005  0.41772442  0.78901377  1
  Bi2+  Bi76  1  0.25713087  0.64854990  0.30331869  1
  Bi2+  Bi77  1  0.25435413  0.62776843  0.84250149  1
  Bi2+  Bi78  1  0.30034312  0.93328001  0.25108132  1
  Bi2+  Bi79  1  0.20757853  0.81371235  0.80391234  1
  Bi2+  Bi80  1  0.53457906  0.13143053  0.30207909  1
  Bi2+  Bi81  1  0.47948086  0.14745945  0.77730997  1
  Bi2+  Bi82  1  0.48332234  0.36684000  0.27502584  1
  Bi2+  Bi83  1  0.49338533  0.41639225  0.78097623  1
  Bi2+  Bi84  1  0.55623105  0.58737849  0.30274288  1
  Bi2+  Bi85  1  0.44770948  0.60744953  0.81371097  1
  Bi2+  Bi86  1  0.47662374  0.87923515  0.29343773  1
  Bi2+  Bi87  1  0.48400244  0.86246501  0.77549715  1
  Bi2+  Bi88  1  0.76965206  0.10239322  0.28954958  1
  Bi2+  Bi89  1  0.76040611  0.16589848  0.79770360  1
  Bi2+  Bi90  1  0.78071725  0.44218415  0.25729940  1
  Bi2+  Bi91  1  0.75400654  0.37685819  0.78567640  1
  Bi2+  Bi92  1  0.75093715  0.60824175  0.31621218  1
  Bi2+  Bi93  1  0.76961773  0.59834391  0.78515436  1
  Bi2+  Bi94  1  0.75213165  0.80946524  0.30602178  1
  Bi2+  Bi95  1  0.75193981  0.85063665  0.79362646  1
  Bi2+  Bi96  1  0.10317547  0.01193718  0.21426544  1
  Bi2+  Bi97  1  0.10752950  -0.03843361  0.75180794  1
  Bi2+  Bi98  1  0.18537083  0.24599222  0.22569571  1
  Bi2+  Bi99  1  0.14694437  0.27196745  0.73788660  1
  Bi2+  Bi100  1  0.15382631  0.46536798  0.21574048  1
  Bi2+  Bi101  1  0.11000520  0.47227557  0.70857752  1
  Bi2+  Bi102  1  0.16265807  0.74820881  0.19442370  1
  Bi2+  Bi103  1  0.20807926  0.70029518  0.71070235  1
  Bi2+  Bi104  1  0.40596364  0.09272241  0.21458791  1
  Bi2+  Bi105  1  0.34310683  -0.04219434  0.69596575  1
  Bi2+  Bi106  1  0.36645027  0.28140117  0.18851457  1
  Bi2+  Bi107  1  0.36860450  0.23698102  0.70126116  1
  Bi2+  Bi108  1  0.37876875  0.51074704  0.21864159  1
  Bi2+  Bi109  1  0.36575321  0.49714705  0.70859280  1
  Bi2+  Bi110  1  0.43194954  0.72022742  0.20252161  1
  Bi2+  Bi111  1  0.40729301  0.69487507  0.70926854  1
  Bi2+  Bi112  1  0.59542909  -0.02529841  0.20497447  1
  Bi2+  Bi113  1  0.63400266  0.00779924  0.69399259  1
  Bi2+  Bi114  1  0.65016597  0.26178311  0.19828112  1
  Bi2+  Bi115  1  0.63959421  0.27259294  0.69957548  1
  Bi2+  Bi116  1  0.65445167  0.57025862  0.20482050  1
  Bi2+  Bi117  1  0.63766468  0.50532844  0.70129870  1
  Bi2+  Bi118  1  0.62353665  0.77333214  0.20930427  1
  Bi2+  Bi119  1  0.59659230  0.67753576  0.74538169  1
  Bi2+  Bi120  1  0.85069021  -0.07312488  0.22311403  1
  Bi2+  Bi121  1  0.89150064  -0.03220641  0.72235343  1
  Bi2+  Bi122  1  0.89882261  0.28748644  0.22559993  1
  Bi2+  Bi123  1  0.88293898  0.22640231  0.71961267  1
  Bi2+  Bi124  1  0.95662282  0.49790967  0.21240700  1
  Bi2+  Bi125  1  0.89048318  0.42338145  0.70390377  1
  Bi2+  Bi126  1  0.82141023  0.73300267  0.20773036  1
  Bi2+  Bi127  1  0.87421840  0.69106558  0.70664423  1
  S2-  S128  1  -0.02639674  -0.00718807  0.15023182  1
  S2-  S129  1  -0.02244743  0.02238862  0.64833961  1
  S2-  S130  1  -0.00036645  0.27221249  0.15095464  1
  S2-  S131  1  -0.03178368  0.28653330  0.64067447  1
  S2-  S132  1  0.12790358  0.60632043  0.14885122  1
  S2-  S133  1  -0.01574018  0.52267679  0.63935764  1
  S2-  S134  1  0.01162764  0.77271632  0.14790720  1
  S2-  S135  1  -0.01501249  0.76830933  0.64695328  1
  S2-  S136  1  0.16337350  0.12932022  0.14841978  1
  S2-  S137  1  0.24009684  0.06474219  0.65688175  1
  S2-  S138  1  0.28244056  0.47195253  0.13676493  1
  S2-  S139  1  0.24063890  0.28809020  0.64522013  1
  S2-  S140  1  0.30870058  0.72919214  0.13740599  1
  S2-  S141  1  0.23120406  0.53403992  0.63909391  1
  S2-  S142  1  0.21150781  0.91055488  0.15850406  1
  S2-  S143  1  0.22596599  0.85335954  0.65917324  1
  S2-  S144  1  0.58890524  0.12007528  0.14602888  1
  S2-  S145  1  0.47985726  0.08991630  0.67272357  1
  S2-  S146  1  0.51819855  0.33658339  0.14855732  1
  S2-  S147  1  0.49674821  0.29677284  0.64106976  1
  S2-  S148  1  0.50167124  0.57748601  0.15082541  1
  S2-  S149  1  0.49702088  0.52093647  0.63794995  1
  S2-  S150  1  0.49503943  0.86260554  0.14785654  1
  S2-  S151  1  0.51788015  0.88293840  0.66932357  1
  S2-  S152  1  0.79472032  0.16151607  0.18788336  1
  S2-  S153  1  0.70652271  0.13880762  0.64511436  1
  S2-  S154  1  0.74311548  0.37482986  0.15566768  1
  S2-  S155  1  0.71352909  0.37889034  0.64132332  1
  S2-  S156  1  0.86222754  0.60458419  0.14427187  1
  S2-  S157  1  0.74356332  0.62616903  0.65022983  1
  S2-  S158  1  0.74072339  0.95088264  0.14493701  1
  S2-  S159  1  0.76008487  0.89853956  0.66647162  1
  S2-  S160  1  0.13715402  0.02288947  0.34910034  1
  S2-  S161  1  0.08023054  -0.00494184  0.85435806  1
  S2-  S162  1  0.12678622  0.26900894  0.35123944  1
  S2-  S163  1  0.13412632  0.22670306  0.84413310  1
  S2-  S164  1  0.22487186  0.50986755  0.35977280  1
  S2-  S165  1  0.09683699  0.46263736  0.84771632  1
  S2-  S166  1  0.11943581  0.69932583  0.35805893  1
  S2-  S167  1  0.00348592  0.72835635  0.86118954  1
  S2-  S168  1  0.45259125  0.01177209  0.36438488  1
  S2-  S169  1  0.49129184  0.00706597  0.83026028  1
  S2-  S170  1  0.44918131  0.25066727  0.35605139  1
  S2-  S171  1  0.35021417  0.14170769  0.84669664  1
  S2-  S172  1  0.40460438  0.62099417  0.35337129  1
  S2-  S173  1  0.37409908  0.37450545  0.85407591  1
  S2-  S174  1  0.30143639  0.81295772  0.32424856  1
  S2-  S175  1  0.35814754  0.85195381  0.84755285  1
  S2-  S176  1  0.67067379  0.00523544  0.33557020  1
  S2-  S177  1  0.68921648  0.01740639  0.79242943  1
  S2-  S178  1  0.67856408  0.22299072  0.32548605  1
  S2-  S179  1  0.60383997  0.20131046  0.84182682  1
  S2-  S180  1  0.58811863  0.42776178  0.34738539  1
  S2-  S181  1  0.62859129  0.44661916  0.84196899  1
  S2-  S182  1  0.54153479  0.78993803  0.36320477  1
  S2-  S183  1  0.60374068  0.83735407  0.84597417  1
  S2-  S184  1  0.90251741  0.03421378  0.34708723  1
  S2-  S185  1  0.86053428  -0.06787813  0.84519329  1
  S2-  S186  1  0.90532564  0.27026625  0.33358385  1
  S2-  S187  1  0.90095153  0.22799697  0.85663453  1
  S2-  S188  1  0.97829802  0.52574548  0.36062146  1
  S2-  S189  1  0.87080020  0.49341467  0.84470277  1
  S2-  S190  1  0.90374318  0.77961002  0.35164189  1
  S2-  S191  1  0.76331991  0.71751357  0.85878026  1
  S2-  S192  1  -0.01561103  0.14887368  0.46069374  1
  S2-  S193  1  0.00435777  0.12153457  0.96319843  1
  S2-  S194  1  -0.01734782  0.39814066  0.45842917  1
  S2-  S195  1  -0.00108011  0.36472230  0.95989640  1
  S2-  S196  1  -0.01789913  0.65796907  0.46301340  1
  S2-  S197  1  -0.00030607  0.61815751  0.96359997  1
  S2-  S198  1  -0.01475646  0.90067292  0.46258723  1
  S2-  S199  1  0.00321144  0.87363979  0.96077977  1
  S2-  S200  1  0.23472496  0.15327592  0.45979992  1
  S2-  S201  1  0.24968994  0.11940353  0.95584636  1
  S2-  S202  1  0.23287348  0.39467979  0.45959340  1
  S2-  S203  1  0.24733612  0.37079334  0.95208716  1
  S2-  S204  1  0.24205426  0.66241935  0.45950736  1
  S2-  S205  1  0.25396675  0.61906814  0.95819088  1
  S2-  S206  1  0.23898317  0.89592979  0.45483818  1
  S2-  S207  1  0.25207191  0.87372966  0.95495854  1
  S2-  S208  1  0.48160310  0.15175262  0.46250391  1
  S2-  S209  1  0.49926284  0.11636573  0.94909893  1
  S2-  S210  1  0.47902042  0.40429309  0.45337554  1
  S2-  S211  1  0.50353061  0.37075376  0.94945059  1
  S2-  S212  1  0.48654567  0.65351935  0.46447439  1
  S2-  S213  1  0.50187188  0.62340846  0.94604593  1
  S2-  S214  1  0.47846202  0.89331180  0.46651629  1
  S2-  S215  1  0.49982902  0.87543466  0.94621333  1
  S2-  S216  1  0.73406589  0.14619865  0.44448448  1
  S2-  S217  1  0.75010879  0.11628362  0.93809697  1
  S2-  S218  1  0.74074742  0.40517516  0.43758633  1
  S2-  S219  1  0.75386893  0.36648410  0.95201985  1
  S2-  S220  1  0.73631787  0.65483553  0.44946852  1
  S2-  S221  1  0.75366112  0.61777197  0.96103123  1
  S2-  S222  1  0.73393270  0.90059020  0.45665030  1
  S2-  S223  1  0.74850422  0.87905629  0.95101377  1
  S2-  S224  1  0.12981473  -0.00565414  0.04981123  1
  S2-  S225  1  0.11329731  0.02514955  0.55157707  1
  S2-  S226  1  0.13005783  0.24918375  0.04598528  1
  S2-  S227  1  0.10841440  0.27776222  0.55029628  1
  S2-  S228  1  0.12044837  0.48820339  0.04764106  1
  S2-  S229  1  0.10855589  0.52680387  0.53795613  1
  S2-  S230  1  0.12915309  0.74527644  0.04160516  1
  S2-  S231  1  0.11529228  0.77521606  0.54942277  1
  S2-  S232  1  0.37506219  -0.00363237  0.05444981  1
  S2-  S233  1  0.36354176  0.02869468  0.55227605  1
  S2-  S234  1  0.37760612  0.24745372  0.04005511  1
  S2-  S235  1  0.36110650  0.27963615  0.54324130  1
  S2-  S236  1  0.38337618  0.49438206  0.03247656  1
  S2-  S237  1  0.36000734  0.52715265  0.54072483  1
  S2-  S238  1  0.38270090  0.74764103  0.03115143  1
  S2-  S239  1  0.36105729  0.77045479  0.56371756  1
  S2-  S240  1  0.62783209  -0.00035317  0.04123437  1
  S2-  S241  1  0.60733895  0.02487985  0.54370926  1
  S2-  S242  1  0.62924198  0.24451116  0.04149627  1
  S2-  S243  1  0.61205468  0.27759813  0.53050945  1
  S2-  S244  1  0.62798724  0.49463755  0.04638317  1
  S2-  S245  1  0.61480424  0.52914059  0.53573330  1
  S2-  S246  1  0.62949273  0.74861961  0.04303037  1
  S2-  S247  1  0.61134655  0.77241285  0.55715445  1
  S2-  S248  1  0.87053170  0.00479342  0.04431173  1
  S2-  S249  1  0.85544323  0.02726500  0.54644179  1
  S2-  S250  1  0.86559531  0.23755253  0.05585344  1
  S2-  S251  1  0.85524325  0.27493469  0.53799987  1
  S2-  S252  1  0.87405989  0.48795435  0.04840431  1
  S2-  S253  1  0.85831632  0.52653414  0.53798356  1
  S2-  S254  1  0.87107976  0.75324007  0.04453633  1
  S2-  S255  1  0.85566175  0.77745002  0.54966264  1
