# generated using pymatgen
data_La6Ce7Pr13Nd19Sm19(BiS2)64
_symmetry_space_group_name_H-M   'P 1'
_cell_length_a   16.11561411
_cell_length_b   16.05056318
_cell_length_c   27.26740765
_cell_angle_alpha   89.69538736
_cell_angle_beta   89.94721387
_cell_angle_gamma   89.92956393
_symmetry_Int_Tables_number   1
_chemical_formula_structural   La6Ce7Pr13Nd19Sm19(BiS2)64
_chemical_formula_sum   'La6 Ce7 Pr13 Nd19 Sm19 Bi64 S128'
_cell_volume   7053.00738607
_cell_formula_units_Z   1
loop_
 _symmetry_equiv_pos_site_id
 _symmetry_equiv_pos_as_xyz
  1  'x, y, z'
loop_
 _atom_type_symbol
 _atom_type_oxidation_number
  La3+  3.0
  Ce3+  3.0
  Pr3+  3.0
  Nd3+  3.0
  Sm3+  3.0
  Bi2+  2.0
  S2-  -2.0
loop_
 _atom_site_type_symbol
 _atom_site_label
 _atom_site_symmetry_multiplicity
 _atom_site_fract_x
 _atom_site_fract_y
 _atom_site_fract_z
 _atom_site_occupancy
  La3+  La0  1  -0.00170106  0.61147886  0.07259343  1
  La3+  La1  1  0.75253454  0.63969213  0.57609881  1
  La3+  La2  1  0.12982679  0.72648039  0.38736208  1
  La3+  La3  1  0.25230725  0.60776423  0.06161135  1
  La3+  La4  1  0.36725099  0.24800583  0.88115173  1
  La3+  La5  1  0.50297110  0.85921698  0.09495950  1
  Ce3+  Ce6  1  0.75234501  0.85767223  0.07421908  1
  Ce3+  Ce7  1  0.74675074  0.11456688  0.05830450  1
  Ce3+  Ce8  1  0.00577687  0.63600512  0.56604746  1
  Ce3+  Ce9  1  0.12706609  -0.01325103  0.93963224  1
  Ce3+  Ce10  1  0.11975260  0.25615147  0.43888173  1
  Ce3+  Ce11  1  0.37546212  -0.00516230  0.94797575  1
  Ce3+  Ce12  1  -0.00366840  0.88688941  0.56220799  1
  Pr3+  Pr13  1  0.37249391  0.26053833  0.43050296  1
  Pr3+  Pr14  1  0.24954755  0.11312614  0.06016521  1
  Pr3+  Pr15  1  0.12258379  0.73358031  0.92861961  1
  Pr3+  Pr16  1  0.49298483  0.64146615  0.57058495  1
  Pr3+  Pr17  1  0.62345156  0.75422550  0.43021475  1
  Pr3+  Pr18  1  0.38399405  0.49683624  0.92277722  1
  Pr3+  Pr19  1  0.36136183  0.53146008  0.43107381  1
  Pr3+  Pr20  1  0.50022149  0.61062521  0.06359261  1
  Pr3+  Pr21  1  0.50182987  0.88914893  0.56514537  1
  Pr3+  Pr22  1  -0.00878424  0.13998749  0.57780055  1
  Pr3+  Pr23  1  0.87276944  0.24117471  0.93043235  1
  Pr3+  Pr24  1  0.87756456  0.76138015  0.43537410  1
  Pr3+  Pr25  1  0.24792054  0.85420228  0.07129058  1
  Nd3+  Nd26  1  0.87200477  -0.01430008  0.94419813  1
  Nd3+  Nd27  1  0.74198383  0.14064658  0.58913282  1
  Nd3+  Nd28  1  0.12600558  0.48699276  0.93486570  1
  Nd3+  Nd29  1  0.62684052  0.01289140  0.43843411  1
  Nd3+  Nd30  1  0.24932483  0.38458854  0.55700444  1
  Nd3+  Nd31  1  0.87357378  0.73414288  0.92482611  1
  Nd3+  Nd32  1  0.12106692  0.23796190  0.93109109  1
  Nd3+  Nd33  1  0.74910764  0.36848871  0.06884178  1
  Nd3+  Nd34  1  0.62008569  0.23813263  0.93911917  1
  Nd3+  Nd35  1  0.12108487  0.00440312  0.43537826  1
  Nd3+  Nd36  1  0.24153615  0.13415386  0.56265291  1
  Nd3+  Nd37  1  0.24738357  0.88712185  0.55885566  1
  Nd3+  Nd38  1  -0.00608165  0.38158894  0.56186271  1
  Nd3+  Nd39  1  0.49783905  0.11629520  0.06621801  1
  Nd3+  Nd40  1  -0.00203766  0.36248157  0.06180747  1
  Nd3+  Nd41  1  0.24882877  0.64389673  0.57105281  1
  Nd3+  Nd42  1  0.62789577  0.48809262  0.93460297  1
  Nd3+  Nd43  1  0.62643917  0.26556921  0.44190050  1
  Nd3+  Nd44  1  0.49471437  0.38813784  0.55201770  1
  Sm3+  Sm45  1  0.87421427  0.49107363  0.94178607  1
  Sm3+  Sm46  1  0.62346055  -0.01394925  0.94649634  1
  Sm3+  Sm47  1  0.37559933  0.01587714  0.43352382  1
  Sm3+  Sm48  1  0.87104908  0.01267758  0.44785644  1
  Sm3+  Sm49  1  0.49744844  0.13670456  0.55646536  1
  Sm3+  Sm50  1  0.62160148  0.51581762  0.44707658  1
  Sm3+  Sm51  1  0.87057817  0.26127163  0.44717697  1
  Sm3+  Sm52  1  0.62771376  0.74181767  0.94318539  1
  Sm3+  Sm53  1  -0.00243297  0.11530566  0.05456701  1
  Sm3+  Sm54  1  0.36817699  0.74372668  0.93450812  1
  Sm3+  Sm55  1  0.74360000  0.38931794  0.57202556  1
  Sm3+  Sm56  1  0.74663504  0.88304810  0.55972838  1
  Sm3+  Sm57  1  0.25033777  0.36357176  0.05119676  1
  Sm3+  Sm58  1  0.12027371  0.50693803  0.44890915  1
  Sm3+  Sm59  1  0.37759271  0.77566929  0.43331770  1
  Sm3+  Sm60  1  -0.00254069  0.86164174  0.05669522  1
  Sm3+  Sm61  1  0.49684402  0.36765249  0.05456114  1
  Sm3+  Sm62  1  0.74873255  0.61482238  0.06327459  1
  Sm3+  Sm63  1  0.87347975  0.51372320  0.44518302  1
  Bi2+  Bi64  1  0.04963060  0.13253146  0.33471533  1
  Bi2+  Bi65  1  -0.07098264  0.12491013  0.79079452  1
  Bi2+  Bi66  1  0.02229058  0.30790783  0.27524740  1
  Bi2+  Bi67  1  -0.03136736  0.38480804  0.79237539  1
  Bi2+  Bi68  1  -0.00140334  0.60887802  0.28982214  1
  Bi2+  Bi69  1  -0.00094065  0.62521269  0.78964400  1
  Bi2+  Bi70  1  -0.02410729  0.93512014  0.30482613  1
  Bi2+  Bi71  1  -0.05604604  0.86581954  0.77925764  1
  Bi2+  Bi72  1  0.23976332  0.14986508  0.30634552  1
  Bi2+  Bi73  1  0.25806627  0.10194014  0.78614620  1
  Bi2+  Bi74  1  0.29512388  0.33491614  0.27137295  1
  Bi2+  Bi75  1  0.22345419  0.37194530  0.77615914  1
  Bi2+  Bi76  1  0.26387622  0.58410008  0.29193209  1
  Bi2+  Bi77  1  0.25746364  0.64088722  0.79340194  1
  Bi2+  Bi78  1  0.24147836  0.92896871  0.27902492  1
  Bi2+  Bi79  1  0.26192845  0.89786146  0.78236359  1
  Bi2+  Bi80  1  0.52212195  0.13762131  0.28570593  1
  Bi2+  Bi81  1  0.51567008  0.07495353  0.79183288  1
  Bi2+  Bi82  1  0.57601465  0.37036680  0.27850548  1
  Bi2+  Bi83  1  0.60422423  0.35565449  0.79333001  1
  Bi2+  Bi84  1  0.50728583  0.62634003  0.29205205  1
  Bi2+  Bi85  1  0.52202056  0.62757424  0.78788489  1
  Bi2+  Bi86  1  0.49229078  0.88847102  0.29183656  1
  Bi2+  Bi87  1  0.46292355  0.84516384  0.79399497  1
  Bi2+  Bi88  1  0.79916078  0.15488824  0.27609521  1
  Bi2+  Bi89  1  0.75538586  0.20931740  0.81594284  1
  Bi2+  Bi90  1  0.76706644  0.38989689  0.29803113  1
  Bi2+  Bi91  1  0.77994690  0.40439106  0.83624188  1
  Bi2+  Bi92  1  0.76221449  0.61510841  0.29309905  1
  Bi2+  Bi93  1  0.73054890  0.60607227  0.80982131  1
  Bi2+  Bi94  1  0.72864614  0.81073127  0.29801088  1
  Bi2+  Bi95  1  0.66024448  0.87321624  0.78076428  1
  Bi2+  Bi96  1  0.10463995  0.05311297  0.23665544  1
  Bi2+  Bi97  1  0.09389240  -0.02712567  0.73496790  1
  Bi2+  Bi98  1  0.16097735  0.27006027  0.19098113  1
  Bi2+  Bi99  1  0.13532570  0.23068855  0.69295755  1
  Bi2+  Bi100  1  0.14164532  0.45466542  0.21191180  1
  Bi2+  Bi101  1  0.09104381  0.47826020  0.71949980  1
  Bi2+  Bi102  1  0.09755129  0.78861796  0.19370472  1
  Bi2+  Bi103  1  0.09115221  0.74084904  0.69087016  1
  Bi2+  Bi104  1  0.37530209  0.07204757  0.21835153  1
  Bi2+  Bi105  1  0.43373898  -0.03171486  0.70885010  1
  Bi2+  Bi106  1  0.44693467  0.29480218  0.20202343  1
  Bi2+  Bi107  1  0.38414424  0.26387661  0.67774629  1
  Bi2+  Bi108  1  0.37593110  0.48304611  0.20477963  1
  Bi2+  Bi109  1  0.41685386  0.50867541  0.71806811  1
  Bi2+  Bi110  1  0.34447353  0.77597587  0.20379029  1
  Bi2+  Bi111  1  0.36121222  0.75354108  0.70752749  1
  Bi2+  Bi112  1  0.70006543  -0.01895866  0.23177343  1
  Bi2+  Bi113  1  0.64553171  -0.03745722  0.67511332  1
  Bi2+  Bi114  1  0.73319642  0.27652933  0.19388576  1
  Bi2+  Bi115  1  0.64989221  0.14918557  0.71476046  1
  Bi2+  Bi116  1  0.63228014  0.52975885  0.21887554  1
  Bi2+  Bi117  1  0.62033408  0.49270660  0.71162792  1
  Bi2+  Bi118  1  0.61797732  0.73228359  0.21061976  1
  Bi2+  Bi119  1  0.62276446  0.68755877  0.69196947  1
  Bi2+  Bi120  1  0.88723603  0.01409562  0.21233003  1
  Bi2+  Bi121  1  0.82168370  -0.00022500  0.72350382  1
  Bi2+  Bi122  1  0.92911725  0.25373331  0.17754325  1
  Bi2+  Bi123  1  0.86044872  0.26504390  0.71340233  1
  Bi2+  Bi124  1  0.87345535  0.43508762  0.20400781  1
  Bi2+  Bi125  1  0.89771365  0.51547838  0.71144350  1
  Bi2+  Bi126  1  0.86311401  0.76564679  0.21547746  1
  Bi2+  Bi127  1  0.79863691  0.74553357  0.73841716  1
  S2-  S128  1  0.00929221  0.10067629  0.15216036  1
  S2-  S129  1  0.09333987  0.08644980  0.65555562  1
  S2-  S130  1  0.01098254  0.46764894  0.14170156  1
  S2-  S131  1  0.00101548  0.29003378  0.64761812  1
  S2-  S132  1  -0.01202490  0.66813699  0.17200646  1
  S2-  S133  1  -0.05737970  0.66069738  0.65658476  1
  S2-  S134  1  -0.04240780  0.87659236  0.15346778  1
  S2-  S135  1  0.00122774  0.88577789  0.66192857  1
  S2-  S136  1  0.25587804  0.13468755  0.15979307  1
  S2-  S137  1  0.28100651  0.14044961  0.65992973  1
  S2-  S138  1  0.25627159  0.46894257  0.13214620  1
  S2-  S139  1  0.24343157  0.36541973  0.65674648  1
  S2-  S140  1  0.23491198  0.70741387  0.14453041  1
  S2-  S141  1  0.14185926  0.60565907  0.64938443  1
  S2-  S142  1  0.23013874  0.90242896  0.17017575  1
  S2-  S143  1  0.23802186  0.80900254  0.65033954  1
  S2-  S144  1  0.50698602  0.13876053  0.16598481  1
  S2-  S145  1  0.50800502  0.14729972  0.65446319  1
  S2-  S146  1  0.49607519  0.47446298  0.13399300  1
  S2-  S147  1  0.50077595  0.39651884  0.65154700  1
  S2-  S148  1  0.47832761  0.70690119  0.15022116  1
  S2-  S149  1  0.36876873  0.60351213  0.64434383  1
  S2-  S150  1  0.44496087  0.91281539  0.18877826  1
  S2-  S151  1  0.50198476  0.77381117  0.64207374  1
  S2-  S152  1  0.73510895  0.10540263  0.15566958  1
  S2-  S153  1  0.87131902  0.11629796  0.65576132  1
  S2-  S154  1  0.74766256  0.49617515  0.13990710  1
  S2-  S155  1  0.72673080  0.28059880  0.65123764  1
  S2-  S156  1  0.76687549  0.72180492  0.14176611  1
  S2-  S157  1  0.75780851  0.50542806  0.64685504  1
  S2-  S158  1  0.64809100  0.88985804  0.15451840  1
  S2-  S159  1  0.75411786  0.77937113  0.64038877  1
  S2-  S160  1  0.13387190  -0.10245646  0.35361387  1
  S2-  S161  1  0.13264548  0.00077734  0.84031161  1
  S2-  S162  1  0.13552410  0.32042554  0.34922875  1
  S2-  S163  1  0.20052430  0.23542690  0.84020264  1
  S2-  S164  1  0.12294316  0.55075033  0.35349872  1
  S2-  S165  1  0.13810881  0.57748852  0.84891177  1
  S2-  S166  1  0.13733412  0.71159759  0.27585875  1
  S2-  S167  1  0.24480710  0.77947959  0.85681311  1
  S2-  S168  1  0.36412833  -0.08475454  0.35148628  1
  S2-  S169  1  0.37629396  0.07145723  0.85857629  1
  S2-  S170  1  0.38709811  0.13943076  0.35731544  1
  S2-  S171  1  0.37001412  0.23051293  0.77008102  1
  S2-  S172  1  0.40697165  0.50582197  0.33381186  1
  S2-  S173  1  0.33313298  0.41068644  0.83860039  1
  S2-  S174  1  0.30021705  0.68693160  0.36260186  1
  S2-  S175  1  0.38339808  0.63618024  0.85549542  1
  S2-  S176  1  0.58890763  0.00407526  0.34088957  1
  S2-  S177  1  0.63540181  0.00114268  0.84684636  1
  S2-  S178  1  0.60297273  0.23589236  0.34455746  1
  S2-  S179  1  0.53881072  0.23050165  0.85032607  1
  S2-  S180  1  0.63370186  0.60246883  0.36206727  1
  S2-  S181  1  0.53521000  0.48573647  0.85066834  1
  S2-  S182  1  0.50111502  0.76535598  0.35674450  1
  S2-  S183  1  0.73008518  0.75474661  0.86216960  1
  S2-  S184  1  0.84502589  -0.01204447  0.35100288  1
  S2-  S185  1  0.87601766  -0.01998633  0.84451075  1
  S2-  S186  1  0.84618783  0.26041889  0.34875105  1
  S2-  S187  1  0.99405543  0.24519720  0.85603135  1
  S2-  S188  1  0.88558907  0.51378452  0.34591539  1
  S2-  S189  1  0.88224626  0.59190522  0.85963834  1
  S2-  S190  1  0.96262098  0.73721539  0.34635543  1
  S2-  S191  1  1.00336213  0.76073863  0.85299131  1
  S2-  S192  1  -0.00838630  0.13631885  0.46331912  1
  S2-  S193  1  -0.00262809  0.11012601  0.95142549  1
  S2-  S194  1  -0.00630392  0.38456447  0.45473132  1
  S2-  S195  1  -0.00272424  0.36730457  0.95512755  1
  S2-  S196  1  -0.00043274  0.63266110  0.45751618  1
  S2-  S197  1  0.00024740  0.60967775  0.95979655  1
  S2-  S198  1  -0.00770721  0.89107478  0.45597826  1
  S2-  S199  1  -0.00023226  0.86615168  0.95367741  1
  S2-  S200  1  0.24578883  0.13443600  0.45467734  1
  S2-  S201  1  0.24540990  0.11565789  0.95482284  1
  S2-  S202  1  0.25076515  0.38810947  0.45019782  1
  S2-  S203  1  0.24799183  0.35959509  0.94908357  1
  S2-  S204  1  0.23204973  0.63734443  0.46552677  1
  S2-  S205  1  0.24958361  0.61333749  0.95473332  1
  S2-  S206  1  0.25433013  0.89339901  0.45628856  1
  S2-  S207  1  0.25104091  0.86894099  0.96321219  1
  S2-  S208  1  0.50332957  0.13853562  0.45448122  1
  S2-  S209  1  0.50467032  0.11090834  0.96123354  1
  S2-  S210  1  0.49680901  0.39046185  0.44511070  1
  S2-  S211  1  0.49722190  0.36074557  0.95161259  1
  S2-  S212  1  0.49463400  0.63725553  0.46009493  1
  S2-  S213  1  0.50798616  0.62033284  0.95599341  1
  S2-  S214  1  0.50148763  0.89552379  0.45848063  1
  S2-  S215  1  0.49967315  0.86346085  0.94285252  1
  S2-  S216  1  0.74784466  0.13865070  0.45144289  1
  S2-  S217  1  0.74781147  0.11304146  0.95199968  1
  S2-  S218  1  0.74750839  0.39179268  0.45882784  1
  S2-  S219  1  0.74833915  0.36203788  0.96035267  1
  S2-  S220  1  0.75255279  0.63525232  0.46162872  1
  S2-  S221  1  0.74756299  0.61250141  0.95959970  1
  S2-  S222  1  0.74738231  0.88386941  0.45476039  1
  S2-  S223  1  0.74842991  0.86618622  0.96407566  1
  S2-  S224  1  0.12080968  -0.01166590  0.04923781  1
  S2-  S225  1  0.12100745  0.01026991  0.54275007  1
  S2-  S226  1  0.12305027  0.23968622  0.04336560  1
  S2-  S227  1  0.12274220  0.26027070  0.54467339  1
  S2-  S228  1  0.12292163  0.48522610  0.03844118  1
  S2-  S229  1  0.12097693  0.50106575  0.55118118  1
  S2-  S230  1  0.11868611  0.73830506  0.04216847  1
  S2-  S231  1  0.11995670  0.76637612  0.55090579  1
  S2-  S232  1  0.37714528  -0.01451920  0.05661263  1
  S2-  S233  1  0.37445743  0.01347917  0.54725570  1
  S2-  S234  1  0.37458629  0.24369429  0.05639134  1
  S2-  S235  1  0.37262284  0.25765512  0.53929596  1
  S2-  S236  1  0.37554670  0.48565978  0.03047249  1
  S2-  S237  1  0.37032788  0.51001289  0.53905653  1
  S2-  S238  1  0.37803610  0.74092558  0.04074424  1
  S2-  S239  1  0.37296310  0.76741040  0.54021327  1
  S2-  S240  1  0.62035674  -0.01106559  0.05008710  1
  S2-  S241  1  0.62748263  0.01736315  0.54633306  1
  S2-  S242  1  0.62243983  0.24379510  0.04945045  1
  S2-  S243  1  0.62048761  0.26186174  0.54653928  1
  S2-  S244  1  0.62678194  0.48786701  0.03911754  1
  S2-  S245  1  0.61855136  0.51406816  0.54960728  1
  S2-  S246  1  0.62274820  0.74080227  0.04636001  1
  S2-  S247  1  0.62339600  0.76202095  0.53860241  1
  S2-  S248  1  0.87426165  -0.00928905  0.05022103  1
  S2-  S249  1  0.86477620  0.01070399  0.55220498  1
  S2-  S250  1  0.87185153  0.23969326  0.04233511  1
  S2-  S251  1  0.86147967  0.26208732  0.54929651  1
  S2-  S252  1  0.87351086  0.48832649  0.04316784  1
  S2-  S253  1  0.87570587  0.50927346  0.54881595  1
  S2-  S254  1  0.87796244  0.73800829  0.03906324  1
  S2-  S255  1  0.87601417  0.76335991  0.54188970  1
