# generated using pymatgen
data_La6Ce7Pr13Nd19Sm19(BiS2)64
_symmetry_space_group_name_H-M   'P 1'
_cell_length_a   16.05451330
_cell_length_b   16.09969973
_cell_length_c   27.58354236
_cell_angle_alpha   89.98445409
_cell_angle_beta   89.83222708
_cell_angle_gamma   90.06982163
_symmetry_Int_Tables_number   1
_chemical_formula_structural   La6Ce7Pr13Nd19Sm19(BiS2)64
_chemical_formula_sum   'La6 Ce7 Pr13 Nd19 Sm19 Bi64 S128'
_cell_volume   7129.56049456
_cell_formula_units_Z   1
loop_
 _symmetry_equiv_pos_site_id
 _symmetry_equiv_pos_as_xyz
  1  'x, y, z'
loop_
 _atom_type_symbol
 _atom_type_oxidation_number
  La3+  3.0
  Ce3+  3.0
  Pr3+  3.0
  Nd3+  3.0
  Sm3+  3.0
  Bi2+  2.0
  S2-  -2.0
loop_
 _atom_site_type_symbol
 _atom_site_label
 _atom_site_symmetry_multiplicity
 _atom_site_fract_x
 _atom_site_fract_y
 _atom_site_fract_z
 _atom_site_occupancy
  La3+  La0  1  0.86260461  0.01390839  0.41173301  1
  La3+  La1  1  0.35714749  0.25534042  0.42723099  1
  La3+  La2  1  0.35872679  0.51042651  0.39533753  1
  La3+  La3  1  0.10562384  0.76158450  0.43320281  1
  La3+  La4  1  0.49610386  0.36989030  0.11344155  1
  La3+  La5  1  0.75607152  0.37503574  0.06475553  1
  Ce3+  Ce6  1  0.13624195  0.00051315  0.94487090  1
  Ce3+  Ce7  1  0.26540611  0.12486190  0.05825838  1
  Ce3+  Ce8  1  0.73501462  0.88580056  0.56034048  1
  Ce3+  Ce9  1  0.01169058  0.62407551  0.05898911  1
  Ce3+  Ce10  1  0.23694883  0.38546641  0.55352562  1
  Ce3+  Ce11  1  0.26387396  0.37532455  0.05957516  1
  Ce3+  Ce12  1  0.38666308  0.74966556  0.94163805  1
  Pr3+  Pr13  1  0.35362027  0.76039475  0.43198268  1
  Pr3+  Pr14  1  0.38791304  0.50289095  0.94184252  1
  Pr3+  Pr15  1  0.75997738  0.87435158  0.06073206  1
  Pr3+  Pr16  1  0.35959422  0.00955665  0.42926525  1
  Pr3+  Pr17  1  0.63617308  0.00047105  0.94223665  1
  Pr3+  Pr18  1  0.00795850  0.37597466  0.07303818  1
  Pr3+  Pr19  1  0.63566736  0.50720337  0.93006985  1
  Pr3+  Pr20  1  -0.01916406  0.89009213  0.57094950  1
  Pr3+  Pr21  1  -0.01790999  0.38558217  0.56493663  1
  Pr3+  Pr22  1  0.60869995  0.76069227  0.44500454  1
  Pr3+  Pr23  1  0.39015070  0.00070974  0.94065416  1
  Pr3+  Pr24  1  0.61223513  0.25730978  0.43580880  1
  Pr3+  Pr25  1  0.89075001  0.25117515  0.93846896  1
  Nd3+  Nd26  1  0.89043776  0.50080005  0.93753146  1
  Nd3+  Nd27  1  0.10971197  0.50736076  0.43326586  1
  Nd3+  Nd28  1  -0.01919061  0.14144503  0.57025149  1
  Nd3+  Nd29  1  0.51318078  0.62325319  0.06745360  1
  Nd3+  Nd30  1  0.47055030  0.88393123  0.56710138  1
  Nd3+  Nd31  1  0.10812968  0.25699121  0.44383742  1
  Nd3+  Nd32  1  0.63647833  0.25514461  0.93342409  1
  Nd3+  Nd33  1  0.23352284  0.63307390  0.55878528  1
  Nd3+  Nd34  1  0.75890657  0.62269599  0.05592855  1
  Nd3+  Nd35  1  0.51469481  0.12610697  0.06107271  1
  Nd3+  Nd36  1  0.48277211  0.38464871  0.55052669  1
  Nd3+  Nd37  1  0.00874634  0.87311290  0.07089054  1
  Nd3+  Nd38  1  0.26275843  0.62697740  0.06816478  1
  Nd3+  Nd39  1  0.89066612  -0.00393834  0.93803016  1
  Nd3+  Nd40  1  0.23723211  0.13243585  0.56189567  1
  Nd3+  Nd41  1  0.01023619  0.12288003  0.06489381  1
  Nd3+  Nd42  1  0.38839746  0.25314943  0.94144404  1
  Nd3+  Nd43  1  -0.01856312  0.63527753  0.55713309  1
  Nd3+  Nd44  1  0.48058019  0.63321048  0.56005850  1
  Sm3+  Sm45  1  0.88975962  0.74983557  0.94558650  1
  Sm3+  Sm46  1  0.48190377  0.13283554  0.55600619  1
  Sm3+  Sm47  1  0.13736816  0.74939951  0.94464696  1
  Sm3+  Sm48  1  0.86272782  0.76594735  0.42865765  1
  Sm3+  Sm49  1  0.85993060  0.50796436  0.44450036  1
  Sm3+  Sm50  1  0.26249351  0.87558158  0.05422845  1
  Sm3+  Sm51  1  0.61167064  0.51213610  0.43851342  1
  Sm3+  Sm52  1  0.73278605  0.63691609  0.55328814  1
  Sm3+  Sm53  1  0.76156736  0.12415445  0.05177939  1
  Sm3+  Sm54  1  0.63530277  0.75178196  0.93706792  1
  Sm3+  Sm55  1  0.13625264  0.25031260  0.95475569  1
  Sm3+  Sm56  1  0.73191246  0.13337255  0.55826270  1
  Sm3+  Sm57  1  0.10396969  0.01055125  0.44605204  1
  Sm3+  Sm58  1  0.51191549  0.87061296  0.06690409  1
  Sm3+  Sm59  1  0.73015717  0.38524664  0.55252975  1
  Sm3+  Sm60  1  0.13729560  0.50049411  0.94815243  1
  Sm3+  Sm61  1  0.22266939  0.88289175  0.55968395  1
  Sm3+  Sm62  1  0.86119554  0.25663111  0.44179436  1
  Sm3+  Sm63  1  0.61231159  0.00687079  0.44788488  1
  Bi2+  Bi64  1  0.01017135  0.12730570  0.29737195  1
  Bi2+  Bi65  1  -0.00445200  0.15690673  0.81269347  1
  Bi2+  Bi66  1  0.01576515  0.38306229  0.30348368  1
  Bi2+  Bi67  1  -0.04404822  0.41186630  0.80642234  1
  Bi2+  Bi68  1  0.04249236  0.59710338  0.26666683  1
  Bi2+  Bi69  1  0.00435862  0.66930822  0.80557608  1
  Bi2+  Bi70  1  -0.03149687  0.86361674  0.29075439  1
  Bi2+  Bi71  1  -0.01972558  0.92986516  0.79126445  1
  Bi2+  Bi72  1  0.22852229  0.09749319  0.29562442  1
  Bi2+  Bi73  1  0.19137514  0.13651244  0.78938048  1
  Bi2+  Bi74  1  0.21123475  0.36872214  0.28924987  1
  Bi2+  Bi75  1  0.24026444  0.33622781  0.78995374  1
  Bi2+  Bi76  1  0.26032911  0.66088348  0.28944993  1
  Bi2+  Bi77  1  0.25862864  0.62635693  0.81306624  1
  Bi2+  Bi78  1  0.22424484  0.90937691  0.28969309  1
  Bi2+  Bi79  1  0.25517067  0.87270025  0.74244136  1
  Bi2+  Bi80  1  0.48553792  0.06343295  0.28255459  1
  Bi2+  Bi81  1  0.49931816  0.09727388  0.81326832  1
  Bi2+  Bi82  1  0.52692594  0.37945078  0.31262251  1
  Bi2+  Bi83  1  0.51447553  0.33623738  0.78931121  1
  Bi2+  Bi84  1  0.52098406  0.73366769  0.27965731  1
  Bi2+  Bi85  1  0.51073987  0.57659029  0.80314654  1
  Bi2+  Bi86  1  0.41606054  0.89270808  0.31945401  1
  Bi2+  Bi87  1  0.49123210  0.86012231  0.80718355  1
  Bi2+  Bi88  1  0.74016854  0.13164032  0.28906381  1
  Bi2+  Bi89  1  0.75384225  0.07017489  0.75359942  1
  Bi2+  Bi90  1  0.82375821  0.39429500  0.28141634  1
  Bi2+  Bi91  1  0.80114517  0.36154556  0.74051135  1
  Bi2+  Bi92  1  0.71465852  0.63490404  0.29002181  1
  Bi2+  Bi93  1  0.78283836  0.58592476  0.73998768  1
  Bi2+  Bi94  1  0.69949977  0.90369591  0.28355949  1
  Bi2+  Bi95  1  0.78680861  0.84124204  0.78365863  1
  Bi2+  Bi96  1  0.09486743  0.02090393  0.21610716  1
  Bi2+  Bi97  1  0.11847733  0.00364716  0.71058579  1
  Bi2+  Bi98  1  0.09822641  0.26663250  0.21147488  1
  Bi2+  Bi99  1  0.08810238  0.27236730  0.72615270  1
  Bi2+  Bi100  1  0.08081769  0.45710033  0.19201794  1
  Bi2+  Bi101  1  0.11445287  0.47193262  0.74791545  1
  Bi2+  Bi102  1  0.14026997  0.74927610  0.19648190  1
  Bi2+  Bi103  1  0.09864112  0.75660765  0.71823494  1
  Bi2+  Bi104  1  0.35922231  0.00309098  0.20071282  1
  Bi2+  Bi105  1  0.37219323  0.02006361  0.69597610  1
  Bi2+  Bi106  1  0.37007029  0.23191314  0.21071310  1
  Bi2+  Bi107  1  0.37326455  0.31301842  0.70915503  1
  Bi2+  Bi108  1  0.36800555  0.50433142  0.21284515  1
  Bi2+  Bi109  1  0.36383480  0.51043533  0.68844353  1
  Bi2+  Bi110  1  0.39136838  0.79742160  0.20998506  1
  Bi2+  Bi111  1  0.38497804  0.74834862  0.70018897  1
  Bi2+  Bi112  1  0.55557869  -0.02465975  0.18685757  1
  Bi2+  Bi113  1  0.61735427  -0.06098436  0.72100812  1
  Bi2+  Bi114  1  0.64840017  0.23180041  0.20960046  1
  Bi2+  Bi115  1  0.60978426  0.19826196  0.73235137  1
  Bi2+  Bi116  1  0.65204536  0.51460884  0.21141580  1
  Bi2+  Bi117  1  0.63040166  0.48232092  0.69509094  1
  Bi2+  Bi118  1  0.66360003  0.81628111  0.18594016  1
  Bi2+  Bi119  1  0.63055271  0.72784216  0.76624452  1
  Bi2+  Bi120  1  0.82604097  0.01899999  0.20867294  1
  Bi2+  Bi121  1  0.86884502  -0.07808525  0.68805539  1
  Bi2+  Bi122  1  0.90178017  0.25095290  0.21769994  1
  Bi2+  Bi123  1  0.87814557  0.18953988  0.70371659  1
  Bi2+  Bi124  1  0.88731609  0.51581635  0.19738193  1
  Bi2+  Bi125  1  0.93842061  0.48199423  0.69167768  1
  Bi2+  Bi126  1  0.88162827  0.70307712  0.25328792  1
  Bi2+  Bi127  1  0.90175066  0.72935426  0.69915461  1
  S2-  S128  1  -0.03454248  0.09514355  0.15839281  1
  S2-  S129  1  -0.01669774  0.04527849  0.65257374  1
  S2-  S130  1  -0.12022049  0.36503067  0.14229851  1
  S2-  S131  1  -0.01819811  0.27229416  0.64079487  1
  S2-  S132  1  0.01883075  0.67078064  0.15033118  1
  S2-  S133  1  0.02472622  0.62801612  0.65231732  1
  S2-  S134  1  0.04564337  0.88042577  0.16761496  1
  S2-  S135  1  0.10740401  0.86684006  0.63951924  1
  S2-  S136  1  0.26472785  0.12660623  0.15467416  1
  S2-  S137  1  0.23781265  0.10489924  0.65892780  1
  S2-  S138  1  0.32303732  0.36679474  0.15031385  1
  S2-  S139  1  0.24733942  0.39365227  0.64983748  1
  S2-  S140  1  0.26414421  0.62036028  0.16731325  1
  S2-  S141  1  0.26953062  0.63611177  0.65698463  1
  S2-  S142  1  0.26353842  0.85059514  0.14990007  1
  S2-  S143  1  0.32201423  0.88166689  0.63782808  1
  S2-  S144  1  0.50696788  0.19820904  0.15030516  1
  S2-  S145  1  0.46628724  0.12905710  0.65270946  1
  S2-  S146  1  0.48451563  0.34944163  0.22279347  1
  S2-  S147  1  0.49320549  0.39903823  0.64867471  1
  S2-  S148  1  0.50635622  0.53386862  0.15436275  1
  S2-  S149  1  0.48152253  0.63351619  0.65993914  1
  S2-  S150  1  0.51739336  0.75195213  0.13826352  1
  S2-  S151  1  0.50668289  0.87552904  0.66446981  1
  S2-  S152  1  0.73274994  0.13059092  0.14832442  1
  S2-  S153  1  0.72101494  0.13585109  0.65552168  1
  S2-  S154  1  0.66219743  0.36932596  0.15106443  1
  S2-  S155  1  0.72343040  0.36953812  0.64870367  1
  S2-  S156  1  0.74577240  0.60618173  0.15401542  1
  S2-  S157  1  0.71253508  0.60948108  0.64833989  1
  S2-  S158  1  0.82408963  0.87923774  0.15331674  1
  S2-  S159  1  0.71937804  0.85157483  0.65429193  1
  S2-  S160  1  0.02460641  -0.00785060  0.35902527  1
  S2-  S161  1  0.11334228  0.00733750  0.84870486  1
  S2-  S162  1  0.15378834  0.23371832  0.34917558  1
  S2-  S163  1  0.12739122  0.25916053  0.85877643  1
  S2-  S164  1  0.20011042  0.52437062  0.34712186  1
  S2-  S165  1  0.15001960  0.52036312  0.85184773  1
  S2-  S166  1  0.21586652  0.77295986  0.35451146  1
  S2-  S167  1  0.15377064  0.74287833  0.84787458  1
  S2-  S168  1  0.37170829  0.12768515  0.35385593  1
  S2-  S169  1  0.38059642  -0.01584628  0.84143785  1
  S2-  S170  1  0.36036695  0.35204772  0.34441511  1
  S2-  S171  1  0.40310615  0.22570349  0.84436523  1
  S2-  S172  1  0.43874600  0.51331406  0.29776723  1
  S2-  S173  1  0.38043206  0.50264548  0.84110185  1
  S2-  S174  1  0.39493590  0.67237979  0.34965917  1
  S2-  S175  1  0.39513689  0.72318934  0.84580943  1
  S2-  S176  1  0.65097812  0.01911865  0.35352802  1
  S2-  S177  1  0.60855586  -0.03540110  0.84685221  1
  S2-  S178  1  0.64698701  0.24980727  0.33815997  1
  S2-  S179  1  0.63550408  0.20705913  0.83862257  1
  S2-  S180  1  0.64206884  0.50630352  0.34324391  1
  S2-  S181  1  0.61412835  0.44398069  0.83418541  1
  S2-  S182  1  0.64152145  0.76905335  0.34771796  1
  S2-  S183  1  0.63814015  0.64903279  0.85986453  1
  S2-  S184  1  0.83283362  -0.12092111  0.35100121  1
  S2-  S185  1  0.87815714  0.03742446  0.84297943  1
  S2-  S186  1  0.87437160  0.16745364  0.35793174  1
  S2-  S187  1  0.87347589  0.26871011  0.84059475  1
  S2-  S188  1  0.90076967  0.49321417  0.35115001  1
  S2-  S189  1  0.88823776  0.56523581  0.84568522  1
  S2-  S190  1  0.98804468  0.74686457  0.35714528  1
  S2-  S191  1  0.91362851  0.79591565  0.85309970  1
  S2-  S192  1  -0.01709427  0.13506558  0.46264602  1
  S2-  S193  1  0.01257901  0.12456992  0.95844859  1
  S2-  S194  1  -0.01662611  0.38223843  0.45755715  1
  S2-  S195  1  0.01443012  0.37685362  0.96173301  1
  S2-  S196  1  -0.01879325  0.62905202  0.45342544  1
  S2-  S197  1  0.01441438  0.62625588  0.95412422  1
  S2-  S198  1  -0.02129804  0.88673799  0.46279144  1
  S2-  S199  1  0.01397477  0.87294463  0.96188503  1
  S2-  S200  1  0.23068981  0.13016822  0.45607487  1
  S2-  S201  1  0.26202510  0.12675942  0.95209024  1
  S2-  S202  1  0.23371894  0.38498209  0.44954327  1
  S2-  S203  1  0.25981980  0.37553698  0.95357955  1
  S2-  S204  1  0.23370343  0.62975866  0.45359002  1
  S2-  S205  1  0.25902147  0.62594351  0.96104883  1
  S2-  S206  1  0.23138778  0.89148778  0.45631833  1
  S2-  S207  1  0.26134305  0.87531726  0.95032950  1
  S2-  S208  1  0.49033011  0.13147082  0.45258355  1
  S2-  S209  1  0.51341520  0.12776714  0.95499401  1
  S2-  S210  1  0.48768430  0.38837462  0.44581213  1
  S2-  S211  1  0.51170803  0.37700075  0.94424688  1
  S2-  S212  1  0.48728718  0.62991131  0.45377810  1
  S2-  S213  1  0.51115494  0.62903519  0.95937339  1
  S2-  S214  1  0.48405219  0.88619473  0.45667499  1
  S2-  S215  1  0.51268030  0.87284163  0.96033491  1
  S2-  S216  1  0.73655949  0.13215256  0.45531333  1
  S2-  S217  1  0.76414950  0.12420556  0.94843090  1
  S2-  S218  1  0.73751689  0.38398331  0.44869265  1
  S2-  S219  1  0.76323635  0.37811797  0.94987549  1
  S2-  S220  1  0.74055021  0.63591924  0.44949496  1
  S2-  S221  1  0.76711157  0.62889426  0.95276403  1
  S2-  S222  1  0.73689573  0.88542622  0.45685281  1
  S2-  S223  1  0.76255272  0.87261565  0.95197133  1
  S2-  S224  1  0.13659136  -0.00146866  0.05197940  1
  S2-  S225  1  0.10741388  0.01459410  0.54722862  1
  S2-  S226  1  0.13476379  0.25015799  0.05805976  1
  S2-  S227  1  0.11315380  0.25971588  0.54823605  1
  S2-  S228  1  0.13733530  0.49942420  0.05210085  1
  S2-  S229  1  0.10649278  0.50824491  0.54286270  1
  S2-  S230  1  0.13748637  0.75225802  0.04838501  1
  S2-  S231  1  0.10673877  0.75459722  0.54006405  1
  S2-  S232  1  0.39038324  -0.00336273  0.04815033  1
  S2-  S233  1  0.35780913  0.01100181  0.53837642  1
  S2-  S234  1  0.39046435  0.25270418  0.04617587  1
  S2-  S235  1  0.36099022  0.25732198  0.54030987  1
  S2-  S236  1  0.38619908  0.50069026  0.04819823  1
  S2-  S237  1  0.35996225  0.50930253  0.54644688  1
  S2-  S238  1  0.38423228  0.75112043  0.04609478  1
  S2-  S239  1  0.35525778  0.75713136  0.53935572  1
  S2-  S240  1  0.63578618  -0.00165577  0.04806653  1
  S2-  S241  1  0.60471341  0.00862867  0.55178436  1
  S2-  S242  1  0.63916666  0.24554908  0.03959148  1
  S2-  S243  1  0.60794684  0.25767368  0.54312510  1
  S2-  S244  1  0.63557515  0.50223978  0.04000621  1
  S2-  S245  1  0.60955312  0.51085193  0.54216175  1
  S2-  S246  1  0.63827231  0.74937924  0.03947533  1
  S2-  S247  1  0.60501849  0.75932674  0.54977800  1
  S2-  S248  1  0.88626901  -0.00063180  0.04444431  1
  S2-  S249  1  0.85472613  0.01430368  0.55075281  1
  S2-  S250  1  0.88670070  0.24529586  0.04432212  1
  S2-  S251  1  0.85145884  0.26086998  0.54431471  1
  S2-  S252  1  0.88710679  0.50137336  0.04349561  1
  S2-  S253  1  0.85442333  0.50929861  0.54822301  1
  S2-  S254  1  0.88577685  0.74906897  0.04886677  1
  S2-  S255  1  0.85804882  0.75879816  0.54413051  1
