# generated using pymatgen
data_La6Ce7Pr13Nd19Sm19(BiS2)64
_symmetry_space_group_name_H-M   'P 1'
_cell_length_a   16.07965554
_cell_length_b   16.01495785
_cell_length_c   27.44192177
_cell_angle_alpha   90.59610806
_cell_angle_beta   90.00077541
_cell_angle_gamma   89.95696874
_symmetry_Int_Tables_number   1
_chemical_formula_structural   La6Ce7Pr13Nd19Sm19(BiS2)64
_chemical_formula_sum   'La6 Ce7 Pr13 Nd19 Sm19 Bi64 S128'
_cell_volume   7066.32218693
_cell_formula_units_Z   1
loop_
 _symmetry_equiv_pos_site_id
 _symmetry_equiv_pos_as_xyz
  1  'x, y, z'
loop_
 _atom_type_symbol
 _atom_type_oxidation_number
  La3+  3.0
  Ce3+  3.0
  Pr3+  3.0
  Nd3+  3.0
  Sm3+  3.0
  Bi2+  2.0
  S2-  -2.0
loop_
 _atom_site_type_symbol
 _atom_site_label
 _atom_site_symmetry_multiplicity
 _atom_site_fract_x
 _atom_site_fract_y
 _atom_site_fract_z
 _atom_site_occupancy
  La3+  La0  1  0.37350912  -0.01562477  0.42046724  1
  La3+  La1  1  0.62714584  0.24288687  0.87878267  1
  La3+  La2  1  0.74125846  0.88708247  0.07377571  1
  La3+  La3  1  0.24954642  0.87601131  0.08633046  1
  La3+  La4  1  0.74422274  0.36668571  0.58056494  1
  La3+  La5  1  -0.00836366  0.63601624  0.10679925  1
  Ce3+  Ce6  1  0.00033819  0.11270302  0.55371178  1
  Ce3+  Ce7  1  0.24758406  0.11060324  0.55129322  1
  Ce3+  Ce8  1  0.24128963  0.63553666  0.05889597  1
  Ce3+  Ce9  1  0.74887620  0.11024229  0.55756439  1
  Ce3+  Ce10  1  0.74437585  0.86845961  0.56998536  1
  Ce3+  Ce11  1  0.87015039  0.23696029  0.44218288  1
  Ce3+  Ce12  1  0.50166072  0.63222213  0.06000515  1
  Pr3+  Pr13  1  0.74625903  0.61798724  0.57589377  1
  Pr3+  Pr14  1  0.86844058  0.75684896  0.94689058  1
  Pr3+  Pr15  1  0.37184011  0.25703178  0.92882703  1
  Pr3+  Pr16  1  0.62434018  0.48299688  0.43891466  1
  Pr3+  Pr17  1  0.62513169  0.73126294  0.43701631  1
  Pr3+  Pr18  1  0.12129098  -0.02344005  0.42890789  1
  Pr3+  Pr19  1  0.00647413  0.62253742  0.58553733  1
  Pr3+  Pr20  1  0.12176713  0.23742144  0.43661356  1
  Pr3+  Pr21  1  0.37351742  0.48312702  0.43021511  1
  Pr3+  Pr22  1  0.86990720  0.51052744  0.93608390  1
  Pr3+  Pr23  1  0.11714245  0.51393573  0.93890809  1
  Pr3+  Pr24  1  -0.00891815  0.38390279  0.06255793  1
  Pr3+  Pr25  1  0.24094941  0.38495554  0.05898437  1
  Nd3+  Nd26  1  0.62165556  0.75409398  0.93370955  1
  Nd3+  Nd27  1  0.12092692  0.00294315  0.94395208  1
  Nd3+  Nd28  1  -0.00376322  0.88675636  0.06898344  1
  Nd3+  Nd29  1  0.62029642  0.50390144  0.92997614  1
  Nd3+  Nd30  1  0.37037029  0.50470007  0.94252762  1
  Nd3+  Nd31  1  0.11606530  0.25619246  0.93523420  1
  Nd3+  Nd32  1  0.62196444  0.00659595  0.93392391  1
  Nd3+  Nd33  1  0.37018424  0.75749177  0.94206420  1
  Nd3+  Nd34  1  0.87166043  -0.02472662  0.43705951  1
  Nd3+  Nd35  1  0.25117442  0.36243933  0.56834633  1
  Nd3+  Nd36  1  0.24714105  0.13403624  0.05632118  1
  Nd3+  Nd37  1  0.74488821  0.38188237  0.04860800  1
  Nd3+  Nd38  1  0.37280209  0.73229884  0.42739840  1
  Nd3+  Nd39  1  0.74226589  0.13561001  0.06065091  1
  Nd3+  Nd40  1  0.62624935  -0.02203381  0.42916555  1
  Nd3+  Nd41  1  0.49376642  0.38211193  0.05717070  1
  Nd3+  Nd42  1  0.11945983  0.76275493  0.93893776  1
  Nd3+  Nd43  1  0.87287238  0.72361888  0.43941202  1
  Nd3+  Nd44  1  0.49589261  0.61290387  0.56092790  1
  Sm3+  Sm45  1  0.86693203  0.00791055  0.94955411  1
  Sm3+  Sm46  1  0.12118504  0.72785047  0.43360473  1
  Sm3+  Sm47  1  -0.00117519  0.36484873  0.55758161  1
  Sm3+  Sm48  1  0.49563239  0.36121671  0.56809767  1
  Sm3+  Sm49  1  0.24888850  0.61445728  0.56082644  1
  Sm3+  Sm50  1  0.37047777  0.23980137  0.43709650  1
  Sm3+  Sm51  1  0.62277995  0.23926605  0.43828192  1
  Sm3+  Sm52  1  0.49458622  0.13499733  0.04995331  1
  Sm3+  Sm53  1  0.49766284  0.11158774  0.55021779  1
  Sm3+  Sm54  1  0.87276529  0.48748615  0.45133535  1
  Sm3+  Sm55  1  0.74239351  0.63223877  0.07034712  1
  Sm3+  Sm56  1  -0.00123866  0.86066962  0.55543338  1
  Sm3+  Sm57  1  0.12284493  0.49010469  0.44372460  1
  Sm3+  Sm58  1  0.36943245  0.00363779  0.94194629  1
  Sm3+  Sm59  1  0.87182943  0.25357837  0.93312279  1
  Sm3+  Sm60  1  -0.00395583  0.13162905  0.06740596  1
  Sm3+  Sm61  1  0.49246412  0.88417743  0.05763573  1
  Sm3+  Sm62  1  0.49558676  0.86388298  0.55146534  1
  Sm3+  Sm63  1  0.24908078  0.86327643  0.55270335  1
  Bi2+  Bi64  1  -0.03619873  0.16907266  0.25965816  1
  Bi2+  Bi65  1  0.04619019  0.04813426  0.77604074  1
  Bi2+  Bi66  1  0.01734972  0.35728403  0.29908075  1
  Bi2+  Bi67  1  0.06727917  0.32449594  0.78474051  1
  Bi2+  Bi68  1  -0.01269400  0.55564380  0.30005479  1
  Bi2+  Bi69  1  -0.00741711  0.58728167  0.80470911  1
  Bi2+  Bi70  1  -0.01231920  0.91211101  0.30704370  1
  Bi2+  Bi71  1  0.04344733  0.84660257  0.78514180  1
  Bi2+  Bi72  1  0.24368291  0.18121394  0.27405737  1
  Bi2+  Bi73  1  0.18949715  0.17559665  0.81531190  1
  Bi2+  Bi74  1  0.18739836  0.46012089  0.30548019  1
  Bi2+  Bi75  1  0.28632867  0.37786272  0.80989635  1
  Bi2+  Bi76  1  0.28547190  0.62065923  0.23437187  1
  Bi2+  Bi77  1  0.24194317  0.63699580  0.78478971  1
  Bi2+  Bi78  1  0.24270676  0.93601744  0.30223883  1
  Bi2+  Bi79  1  0.27794643  0.89677180  0.79846488  1
  Bi2+  Bi80  1  0.55716586  0.18305401  0.27332684  1
  Bi2+  Bi81  1  0.37624620  0.13785998  0.78299195  1
  Bi2+  Bi82  1  0.49498402  0.44278591  0.30253060  1
  Bi2+  Bi83  1  0.47894784  0.41099357  0.78305529  1
  Bi2+  Bi84  1  0.49928257  0.64392300  0.29836961  1
  Bi2+  Bi85  1  0.49633367  0.71590658  0.78916678  1
  Bi2+  Bi86  1  0.51002557  0.91885539  0.29524538  1
  Bi2+  Bi87  1  0.59462391  0.88005837  0.82212354  1
  Bi2+  Bi88  1  0.75978927  0.20024776  0.28476544  1
  Bi2+  Bi89  1  0.77563191  0.08810628  0.78802346  1
  Bi2+  Bi90  1  0.74269891  0.40586812  0.29840516  1
  Bi2+  Bi91  1  0.75204841  0.35962807  0.77757540  1
  Bi2+  Bi92  1  0.72567349  0.61566130  0.27714546  1
  Bi2+  Bi93  1  0.74713082  0.60257065  0.79645219  1
  Bi2+  Bi94  1  0.75596317  0.91291639  0.29929752  1
  Bi2+  Bi95  1  0.79160437  0.85374739  0.82168224  1
  Bi2+  Bi96  1  0.10861544  0.06280252  0.20874551  1
  Bi2+  Bi97  1  0.20714483  0.00703362  0.71416391  1
  Bi2+  Bi98  1  0.04981239  0.29620394  0.17986948  1
  Bi2+  Bi99  1  0.09454859  0.22714130  0.68348115  1
  Bi2+  Bi100  1  0.19323802  0.44625350  0.19466473  1
  Bi2+  Bi101  1  0.22764090  0.48007990  0.71610882  1
  Bi2+  Bi102  1  0.12299387  0.77747943  0.21774818  1
  Bi2+  Bi103  1  0.14411152  0.74337582  0.70779292  1
  Bi2+  Bi104  1  0.36438798  0.03652603  0.19527066  1
  Bi2+  Bi105  1  0.44074343  0.00325168  0.70595449  1
  Bi2+  Bi106  1  0.39476879  0.29219925  0.25998777  1
  Bi2+  Bi107  1  0.30197041  0.27713457  0.70883614  1
  Bi2+  Bi108  1  0.40498888  0.48770661  0.19321493  1
  Bi2+  Bi109  1  0.38009171  0.60311356  0.69971063  1
  Bi2+  Bi110  1  0.42294012  0.76787004  0.22135403  1
  Bi2+  Bi111  1  0.38721946  0.80305201  0.70579111  1
  Bi2+  Bi112  1  0.58259785  0.01805236  0.20882619  1
  Bi2+  Bi113  1  0.63020793  -0.04257419  0.71514384  1
  Bi2+  Bi114  1  0.66535520  0.27888580  0.19463699  1
  Bi2+  Bi115  1  0.64762001  0.18804496  0.67780976  1
  Bi2+  Bi116  1  0.62319642  0.50063916  0.20538689  1
  Bi2+  Bi117  1  0.61454127  0.49020821  0.71332526  1
  Bi2+  Bi118  1  0.61862455  0.75516589  0.21851234  1
  Bi2+  Bi119  1  0.66995260  0.75453323  0.73696395  1
  Bi2+  Bi120  1  0.82118042  0.03788904  0.22036596  1
  Bi2+  Bi121  1  0.89329385  -0.07258336  0.73153730  1
  Bi2+  Bi122  1  0.86376777  0.21923752  0.16386879  1
  Bi2+  Bi123  1  0.91112308  0.18149629  0.72228218  1
  Bi2+  Bi124  1  0.88102245  0.42035800  0.21731326  1
  Bi2+  Bi125  1  0.88539959  0.43180333  0.70505905  1
  Bi2+  Bi126  1  0.86658212  0.73859100  0.21888882  1
  Bi2+  Bi127  1  0.88980929  0.73013397  0.70849476  1
  S2-  S128  1  -0.00341068  0.02039454  0.14310659  1
  S2-  S129  1  -0.00296357  0.08417580  0.64885488  1
  S2-  S130  1  -0.00348792  0.46978389  0.15004357  1
  S2-  S131  1  0.02809038  0.37500177  0.65394290  1
  S2-  S132  1  0.04063258  0.64134887  0.21408024  1
  S2-  S133  1  -0.04710113  0.57682620  0.68369739  1
  S2-  S134  1  -0.00890572  0.80119476  0.15552323  1
  S2-  S135  1  0.00882573  0.78170223  0.64166331  1
  S2-  S136  1  0.24601114  0.13594953  0.15547492  1
  S2-  S137  1  0.24539608  0.13146758  0.64827503  1
  S2-  S138  1  0.31318442  0.35413267  0.14807854  1
  S2-  S139  1  0.37243947  0.37236313  0.64034325  1
  S2-  S140  1  0.23312137  0.71423757  0.14616369  1
  S2-  S141  1  0.15825988  0.61124821  0.64428720  1
  S2-  S142  1  0.20535378  0.92654602  0.18339321  1
  S2-  S143  1  0.23774204  0.86367211  0.65050555  1
  S2-  S144  1  0.47640149  0.12234535  0.14837966  1
  S2-  S145  1  0.49475691  0.13604096  0.64767515  1
  S2-  S146  1  0.52857683  0.37531982  0.15474769  1
  S2-  S147  1  0.60105102  0.34809732  0.64615518  1
  S2-  S148  1  0.60683365  0.63388404  0.13775540  1
  S2-  S149  1  0.54529855  0.60561281  0.65688299  1
  S2-  S150  1  0.40730810  0.88525177  0.14363824  1
  S2-  S151  1  0.51810524  0.86649911  0.64874890  1
  S2-  S152  1  0.71442117  0.03161054  0.14121169  1
  S2-  S153  1  0.72861166  0.01079693  0.63693931  1
  S2-  S154  1  0.74654515  0.41538982  0.14683508  1
  S2-  S155  1  0.80725856  0.26629815  0.66090493  1
  S2-  S156  1  0.83619908  0.62521040  0.15436985  1
  S2-  S157  1  0.75585415  0.50236601  0.65385484  1
  S2-  S158  1  0.75190449  0.82093258  0.16881134  1
  S2-  S159  1  0.75217173  0.75280341  0.64354865  1
  S2-  S160  1  0.11086896  0.03331983  0.33339979  1
  S2-  S161  1  0.13830058  -0.10771577  0.86656680  1
  S2-  S162  1  0.16176673  0.28246943  0.34317394  1
  S2-  S163  1  0.00051605  0.24898529  0.86204124  1
  S2-  S164  1  0.11760281  0.59591102  0.36435052  1
  S2-  S165  1  0.07991276  0.46770908  0.84347165  1
  S2-  S166  1  0.12494440  0.82854322  0.35012925  1
  S2-  S167  1  0.11011287  0.66568895  0.85268517  1
  S2-  S168  1  0.33622010  0.07270473  0.33043107  1
  S2-  S169  1  0.38739731  -0.00832637  0.84459079  1
  S2-  S170  1  0.38275125  0.34696544  0.36080145  1
  S2-  S171  1  0.46005633  0.25110283  0.84249176  1
  S2-  S172  1  0.36527762  0.60742507  0.35573248  1
  S2-  S173  1  0.39745107  0.50835387  0.84413988  1
  S2-  S174  1  0.36774703  0.84981581  0.35054251  1
  S2-  S175  1  0.34698325  0.74978575  0.84350132  1
  S2-  S176  1  0.58560778  0.05288447  0.34210793  1
  S2-  S177  1  0.63276502  0.07265638  0.84313232  1
  S2-  S178  1  0.62050172  0.35606039  0.36423119  1
  S2-  S179  1  0.63205732  0.24076150  0.76567118  1
  S2-  S180  1  0.63958446  0.60554362  0.36303052  1
  S2-  S181  1  0.62316858  0.41128263  0.84320846  1
  S2-  S182  1  0.63361756  0.84545990  0.35593193  1
  S2-  S183  1  0.62382610  0.63318284  0.85817263  1
  S2-  S184  1  0.86769406  0.02712628  0.34271709  1
  S2-  S185  1  0.87935490  0.00167741  0.85245746  1
  S2-  S186  1  0.85830379  0.30564360  0.35442087  1
  S2-  S187  1  0.79379699  0.23707631  0.84431330  1
  S2-  S188  1  0.87889165  0.58578090  0.37007541  1
  S2-  S189  1  0.85896583  0.47895716  0.83494198  1
  S2-  S190  1  0.87412224  0.81854184  0.35018749  1
  S2-  S191  1  0.86848793  0.69787536  0.84963463  1
  S2-  S192  1  -0.00325031  0.10914236  0.44719257  1
  S2-  S193  1  -0.00372129  0.12517456  0.96166436  1
  S2-  S194  1  -0.00113103  0.36592021  0.45324010  1
  S2-  S195  1  -0.00627197  0.38388865  0.95694924  1
  S2-  S196  1  0.00190469  0.60932447  0.47066322  1
  S2-  S197  1  -0.00605890  0.63530490  0.95496797  1
  S2-  S198  1  -0.00183657  0.85362093  0.45391325  1
  S2-  S199  1  -0.00908167  0.88516687  0.96096616  1
  S2-  S200  1  0.24707945  0.11169644  0.44604707  1
  S2-  S201  1  0.24575343  0.12981524  0.95009928  1
  S2-  S202  1  0.24544552  0.36341635  0.46047963  1
  S2-  S203  1  0.24168128  0.38115295  0.95154891  1
  S2-  S204  1  0.24867755  0.61099615  0.45943654  1
  S2-  S205  1  0.24698162  0.63356509  0.95323101  1
  S2-  S206  1  0.24760558  0.85537103  0.45124485  1
  S2-  S207  1  0.25096835  0.88142803  0.96717833  1
  S2-  S208  1  0.49527308  0.11775405  0.44606493  1
  S2-  S209  1  0.49358760  0.12810138  0.94741579  1
  S2-  S210  1  0.49651343  0.35767176  0.46411851  1
  S2-  S211  1  0.49442734  0.38169599  0.95144641  1
  S2-  S212  1  0.49587545  0.60961096  0.45703661  1
  S2-  S213  1  0.49374706  0.63176192  0.95493677  1
  S2-  S214  1  0.49506442  0.85831605  0.45017549  1
  S2-  S215  1  0.49526232  0.88140506  0.95339282  1
  S2-  S216  1  0.74523126  0.11097878  0.44946951  1
  S2-  S217  1  0.74500832  0.13263510  0.95499207  1
  S2-  S218  1  0.75073818  0.36179476  0.46660625  1
  S2-  S219  1  0.74787125  0.37730135  0.94516963  1
  S2-  S220  1  0.74760085  0.60761965  0.46987056  1
  S2-  S221  1  0.74273297  0.63185886  0.96184504  1
  S2-  S222  1  0.75042633  0.85638887  0.46136638  1
  S2-  S223  1  0.74293369  0.88308856  0.96045303  1
  S2-  S224  1  0.12699908  0.00694398  0.04819352  1
  S2-  S225  1  0.12297216  -0.01623439  0.54008120  1
  S2-  S226  1  0.11845189  0.25558460  0.04327072  1
  S2-  S227  1  0.12440911  0.24035337  0.54351232  1
  S2-  S228  1  0.11694283  0.51323434  0.04786523  1
  S2-  S229  1  0.12691224  0.48461641  0.54756128  1
  S2-  S230  1  0.11558110  0.75831716  0.04716222  1
  S2-  S231  1  0.12856921  0.74033039  0.53957658  1
  S2-  S232  1  0.37008066  0.00903160  0.04507762  1
  S2-  S233  1  0.37313004  -0.01250975  0.53785043  1
  S2-  S234  1  0.37008527  0.25780106  0.03710817  1
  S2-  S235  1  0.37227133  0.23486727  0.54059424  1
  S2-  S236  1  0.36926697  0.51014788  0.04807636  1
  S2-  S237  1  0.37055394  0.49090598  0.54225312  1
  S2-  S238  1  0.37462513  0.75382127  0.04690301  1
  S2-  S239  1  0.37133232  0.73872195  0.54562740  1
  S2-  S240  1  0.61230165  0.00811319  0.04044650  1
  S2-  S241  1  0.61671062  -0.01255643  0.53525804  1
  S2-  S242  1  0.61802027  0.25693300  0.04973206  1
  S2-  S243  1  0.62219479  0.23316108  0.54138334  1
  S2-  S244  1  0.61989339  0.50410885  0.03810689  1
  S2-  S245  1  0.61693617  0.48702539  0.54693242  1
  S2-  S246  1  0.61878534  0.76338428  0.04223080  1
  S2-  S247  1  0.61728295  0.74012994  0.54443268  1
  S2-  S248  1  0.86768669  0.01054079  0.05052995  1
  S2-  S249  1  0.87718466  -0.01495419  0.54334655  1
  S2-  S250  1  0.87198829  0.25375515  0.03931107  1
  S2-  S251  1  0.87688683  0.23744977  0.54610303  1
  S2-  S252  1  0.86706598  0.51039538  0.04384119  1
  S2-  S253  1  0.88055930  0.49047807  0.55415919  1
  S2-  S254  1  0.86727153  0.75806045  0.05212853  1
  S2-  S255  1  0.87483356  0.73910088  0.54522534  1
