# generated using pymatgen
data_La6Ce7Pr13Nd19Sm19(BiS2)64
_symmetry_space_group_name_H-M   'P 1'
_cell_length_a   16.12682722
_cell_length_b   16.09942951
_cell_length_c   27.34850144
_cell_angle_alpha   90.03992488
_cell_angle_beta   90.00413105
_cell_angle_gamma   89.97022641
_symmetry_Int_Tables_number   1
_chemical_formula_structural   La6Ce7Pr13Nd19Sm19(BiS2)64
_chemical_formula_sum   'La6 Ce7 Pr13 Nd19 Sm19 Bi64 S128'
_cell_volume   7100.56306223
_cell_formula_units_Z   1
loop_
 _symmetry_equiv_pos_site_id
 _symmetry_equiv_pos_as_xyz
  1  'x, y, z'
loop_
 _atom_type_symbol
 _atom_type_oxidation_number
  La3+  3.0
  Ce3+  3.0
  Pr3+  3.0
  Nd3+  3.0
  Sm3+  3.0
  Bi2+  2.0
  S2-  -2.0
loop_
 _atom_site_type_symbol
 _atom_site_label
 _atom_site_symmetry_multiplicity
 _atom_site_fract_x
 _atom_site_fract_y
 _atom_site_fract_z
 _atom_site_occupancy
  La3+  La0  1  0.63213472  0.49202921  0.39640663  1
  La3+  La1  1  0.37248017  0.23641329  0.41700166  1
  La3+  La2  1  0.00841151  0.12127493  0.11799792  1
  La3+  La3  1  0.25988788  0.36347038  0.60147415  1
  La3+  La4  1  0.25226317  0.40177246  0.06922765  1
  La3+  La5  1  -0.00321131  0.36967753  0.60465638  1
  Ce3+  Ce6  1  0.12712013  0.48697055  0.44690047  1
  Ce3+  Ce7  1  0.37592541  -0.01326484  0.43187921  1
  Ce3+  Ce8  1  0.62802720  0.24302861  0.43868529  1
  Ce3+  Ce9  1  0.25243888  0.87139528  0.56221307  1
  Ce3+  Ce10  1  0.12862644  0.52230834  0.93607120  1
  Ce3+  Ce11  1  0.37774317  0.52090511  0.93809338  1
  Ce3+  Ce12  1  0.75614685  0.89797077  0.04904429  1
  Pr3+  Pr13  1  0.49923666  0.61203535  0.55309374  1
  Pr3+  Pr14  1  0.25224831  0.64965112  0.06672842  1
  Pr3+  Pr15  1  0.75104061  0.61288633  0.56408477  1
  Pr3+  Pr16  1  0.49862991  0.86641983  0.56127726  1
  Pr3+  Pr17  1  0.00302777  0.39310608  0.06062603  1
  Pr3+  Pr18  1  0.13082329  0.02513690  0.94207300  1
  Pr3+  Pr19  1  0.87565979  0.24280501  0.43822992  1
  Pr3+  Pr20  1  0.50477541  0.40676603  0.07082412  1
  Pr3+  Pr21  1  0.00191728  0.11837140  0.56705414  1
  Pr3+  Pr22  1  0.75163409  0.11871249  0.56093019  1
  Pr3+  Pr23  1  0.25042808  0.90002386  0.05838104  1
  Pr3+  Pr24  1  0.87940803  0.76872084  0.93411361  1
  Pr3+  Pr25  1  0.62872787  0.27244728  0.94510303  1
  Nd3+  Nd26  1  0.12517630  0.74190494  0.44606120  1
  Nd3+  Nd27  1  0.62803586  0.02361845  0.93921924  1
  Nd3+  Nd28  1  0.87683298  0.52655943  0.92547128  1
  Nd3+  Nd29  1  0.75118016  0.36688038  0.56171498  1
  Nd3+  Nd30  1  0.13041811  0.27145075  0.94060232  1
  Nd3+  Nd31  1  0.00107627  0.64223152  0.06544026  1
  Nd3+  Nd32  1  0.24795827  0.61337066  0.55996073  1
  Nd3+  Nd33  1  0.62486660  -0.00977790  0.44075750  1
  Nd3+  Nd34  1  0.50475804  0.89828939  0.06118229  1
  Nd3+  Nd35  1  0.50477772  0.64816382  0.05858597  1
  Nd3+  Nd36  1  0.75731668  0.64858103  0.06278067  1
  Nd3+  Nd37  1  0.75791597  0.14709406  0.06455778  1
  Nd3+  Nd38  1  0.12652678  0.24262815  0.44346794  1
  Nd3+  Nd39  1  0.75673773  0.39897114  0.05819746  1
  Nd3+  Nd40  1  0.87621124  0.49111889  0.43979503  1
  Nd3+  Nd41  1  0.25436517  0.15662488  0.07208108  1
  Nd3+  Nd42  1  0.88220257  0.02422756  0.94072931  1
  Nd3+  Nd43  1  0.62819434  0.73844146  0.43809981  1
  Nd3+  Nd44  1  0.50492316  0.14970612  0.06154102  1
  Sm3+  Sm45  1  0.87597862  0.73985444  0.45080738  1
  Sm3+  Sm46  1  0.37393048  0.49228531  0.43455531  1
  Sm3+  Sm47  1  0.49509457  0.36543015  0.54600544  1
  Sm3+  Sm48  1  0.87648890  -0.00790944  0.43883598  1
  Sm3+  Sm49  1  0.12556985  -0.00926726  0.44181179  1
  Sm3+  Sm50  1  0.25182348  0.11486046  0.56140124  1
  Sm3+  Sm51  1  0.37891903  0.77126041  0.94370922  1
  Sm3+  Sm52  1  0.00010179  0.87078911  0.56681721  1
  Sm3+  Sm53  1  0.12948301  0.76936872  0.94208395  1
  Sm3+  Sm54  1  0.37844289  0.27369924  0.94621105  1
  Sm3+  Sm55  1  0.37601146  0.74058854  0.43975306  1
  Sm3+  Sm56  1  0.62685851  0.77149069  0.94348646  1
  Sm3+  Sm57  1  0.49718860  0.11935670  0.55030128  1
  Sm3+  Sm58  1  0.00318593  0.61347362  0.56117313  1
  Sm3+  Sm59  1  0.37722427  0.02197545  0.94826276  1
  Sm3+  Sm60  1  0.88011289  0.27090527  0.94206585  1
  Sm3+  Sm61  1  0.00377794  0.89715127  0.05542421  1
  Sm3+  Sm62  1  0.75070370  0.86667858  0.55529104  1
  Sm3+  Sm63  1  0.62903253  0.52135958  0.94090126  1
  Bi2+  Bi64  1  0.00246340  0.14529928  0.32208095  1
  Bi2+  Bi65  1  -0.01010064  0.12136418  0.80803146  1
  Bi2+  Bi66  1  0.00175432  0.44729098  0.28473806  1
  Bi2+  Bi67  1  0.00738641  0.37403781  0.81762588  1
  Bi2+  Bi68  1  -0.03888060  0.64220230  0.28562753  1
  Bi2+  Bi69  1  -0.00018467  0.66799037  0.78363229  1
  Bi2+  Bi70  1  0.00949892  0.84053771  0.29734402  1
  Bi2+  Bi71  1  -0.02248256  0.86204570  0.77705621  1
  Bi2+  Bi72  1  0.24145766  0.03918405  0.28271419  1
  Bi2+  Bi73  1  0.24534890  0.10998386  0.80672343  1
  Bi2+  Bi74  1  0.23881303  0.38268255  0.30961845  1
  Bi2+  Bi75  1  0.26807952  0.37668518  0.81295214  1
  Bi2+  Bi76  1  0.22727620  0.65496780  0.27887406  1
  Bi2+  Bi77  1  0.23902067  0.69613963  0.69759534  1
  Bi2+  Bi78  1  0.28990981  0.85186656  0.31237882  1
  Bi2+  Bi79  1  0.23504932  0.82883131  0.78877927  1
  Bi2+  Bi80  1  0.51460148  0.07207949  0.29349032  1
  Bi2+  Bi81  1  0.53102704  0.15327361  0.78567876  1
  Bi2+  Bi82  1  0.47216568  0.37164418  0.26928060  1
  Bi2+  Bi83  1  0.50517063  0.35560102  0.78585070  1
  Bi2+  Bi84  1  0.49507651  0.69744164  0.27982676  1
  Bi2+  Bi85  1  0.41913974  0.67015671  0.76171322  1
  Bi2+  Bi86  1  0.48251143  0.88233311  0.32853291  1
  Bi2+  Bi87  1  0.51837050  0.85801418  0.79976449  1
  Bi2+  Bi88  1  0.75786380  0.11042633  0.28449743  1
  Bi2+  Bi89  1  0.72533541  0.08397084  0.79337232  1
  Bi2+  Bi90  1  0.74492644  0.35831999  0.29407971  1
  Bi2+  Bi91  1  0.71686475  0.37204453  0.80217535  1
  Bi2+  Bi92  1  0.75920799  0.63787509  0.28920247  1
  Bi2+  Bi93  1  0.72262538  0.63678349  0.79721414  1
  Bi2+  Bi94  1  0.73615046  0.83559950  0.29142921  1
  Bi2+  Bi95  1  0.71314705  0.88346887  0.74664367  1
  Bi2+  Bi96  1  0.12769188  -0.09823390  0.21941396  1
  Bi2+  Bi97  1  0.13551469  -0.05669874  0.71024143  1
  Bi2+  Bi98  1  0.13704484  0.24969596  0.21473905  1
  Bi2+  Bi99  1  0.13363111  0.23030427  0.71593036  1
  Bi2+  Bi100  1  0.12550672  0.51866413  0.20989595  1
  Bi2+  Bi101  1  0.13140111  0.50652778  0.71730694  1
  Bi2+  Bi102  1  0.07509962  0.70839015  0.19088501  1
  Bi2+  Bi103  1  0.04851153  0.76188063  0.68022685  1
  Bi2+  Bi104  1  0.39530660  -0.04666005  0.22934570  1
  Bi2+  Bi105  1  0.34897392  -0.02805377  0.74684528  1
  Bi2+  Bi106  1  0.34043377  0.19274740  0.21197890  1
  Bi2+  Bi107  1  0.40361675  0.22583610  0.70439583  1
  Bi2+  Bi108  1  0.37222478  0.55278350  0.21873225  1
  Bi2+  Bi109  1  0.44202543  0.49240314  0.71249974  1
  Bi2+  Bi110  1  0.34931994  0.73850906  0.19926236  1
  Bi2+  Bi111  1  0.37422816  0.82765434  0.67279341  1
  Bi2+  Bi112  1  0.65841216  -0.00773924  0.21086659  1
  Bi2+  Bi113  1  0.60770290  0.04061427  0.70092531  1
  Bi2+  Bi114  1  0.61601053  0.17967718  0.21432107  1
  Bi2+  Bi115  1  0.61502598  0.25510630  0.69061308  1
  Bi2+  Bi116  1  0.62750906  0.48046433  0.18917469  1
  Bi2+  Bi117  1  0.63101672  0.45084351  0.71189627  1
  Bi2+  Bi118  1  0.61676537  0.79044420  0.20843910  1
  Bi2+  Bi119  1  0.58658311  0.73525835  0.71508478  1
  Bi2+  Bi120  1  0.87620680  -0.10922894  0.21870430  1
  Bi2+  Bi121  1  0.88351922  -0.00947435  0.70679174  1
  Bi2+  Bi122  1  0.88272658  0.26397007  0.20783656  1
  Bi2+  Bi123  1  0.79625642  0.23560253  0.72765869  1
  Bi2+  Bi124  1  0.86975011  0.50320707  0.20546077  1
  Bi2+  Bi125  1  0.86643708  0.49472397  0.71226138  1
  Bi2+  Bi126  1  0.87846802  0.70143543  0.17712612  1
  Bi2+  Bi127  1  0.85448050  0.74088236  0.71338533  1
  S2-  S128  1  0.00576333  0.13966626  0.22592211  1
  S2-  S129  1  0.02110696  0.21448471  0.65018961  1
  S2-  S130  1  0.01641110  0.29479734  0.14771676  1
  S2-  S131  1  0.02406577  0.37071911  0.71992340  1
  S2-  S132  1  -0.00698991  0.51361012  0.13580535  1
  S2-  S133  1  0.00068310  0.53691802  0.64947203  1
  S2-  S134  1  -0.00034506  0.95170206  0.14822090  1
  S2-  S135  1  0.00862500  0.98783403  0.64006901  1
  S2-  S136  1  0.18485620  0.11269363  0.15920972  1
  S2-  S137  1  0.25925220  0.20170214  0.64713029  1
  S2-  S138  1  0.27069559  0.30364537  0.15391604  1
  S2-  S139  1  0.22984387  0.37067537  0.71085844  1
  S2-  S140  1  0.25783690  0.53150940  0.14198227  1
  S2-  S141  1  0.25229460  0.53255597  0.64683357  1
  S2-  S142  1  0.23755970  0.84181753  0.15131463  1
  S2-  S143  1  0.25128453  0.98170228  0.63742630  1
  S2-  S144  1  0.47067908  0.13306882  0.15826404  1
  S2-  S145  1  0.47059417  0.10263021  0.64687439  1
  S2-  S146  1  0.52008219  0.35476704  0.16716268  1
  S2-  S147  1  0.42629782  0.36268380  0.63643874  1
  S2-  S148  1  0.49967912  0.55624751  0.14285288  1
  S2-  S149  1  0.49598388  0.62395008  0.65278449  1
  S2-  S150  1  0.48727627  0.85835578  0.15634055  1
  S2-  S151  1  0.53955581  0.87946810  0.65800236  1
  S2-  S152  1  0.83723992  0.13990967  0.15221346  1
  S2-  S153  1  0.81712443  0.11898719  0.65401454  1
  S2-  S154  1  0.76399667  0.37691419  0.15779960  1
  S2-  S155  1  0.83470458  0.37110019  0.65081462  1
  S2-  S156  1  0.71760695  0.61975217  0.15792573  1
  S2-  S157  1  0.77548396  0.60308264  0.66392056  1
  S2-  S158  1  0.74653679  0.88885812  0.14491641  1
  S2-  S159  1  0.78436259  0.87279068  0.65030984  1
  S2-  S160  1  0.10722637  0.01221126  0.34509659  1
  S2-  S161  1  0.11793802  0.01383924  0.84257421  1
  S2-  S162  1  0.14595042  0.25124638  0.34180609  1
  S2-  S163  1  0.12311225  0.24304922  0.84020838  1
  S2-  S164  1  0.12862925  0.50019334  0.34900262  1
  S2-  S165  1  0.13833697  0.49105002  0.83885112  1
  S2-  S166  1  0.12684605  0.75187578  0.34782562  1
  S2-  S167  1  0.12844165  0.73781945  0.84633738  1
  S2-  S168  1  0.36130403  0.08663694  0.35449454  1
  S2-  S169  1  0.34957387  0.01087997  0.85245836  1
  S2-  S170  1  0.37052928  0.26992612  0.31244660  1
  S2-  S171  1  0.34061332  0.24420513  0.85223313  1
  S2-  S172  1  0.38135622  0.46881044  0.33725151  1
  S2-  S173  1  0.38441039  0.47750923  0.84366812  1
  S2-  S174  1  0.36301247  0.68578299  0.34750269  1
  S2-  S175  1  0.38481830  0.76278186  0.84666502  1
  S2-  S176  1  0.65873599  0.02823959  0.34599173  1
  S2-  S177  1  0.58872899  -0.00850522  0.84497778  1
  S2-  S178  1  0.63406149  0.27968739  0.34432784  1
  S2-  S179  1  0.65906533  0.22563231  0.85090929  1
  S2-  S180  1  0.60658290  0.46639007  0.29346734  1
  S2-  S181  1  0.63525857  0.52245247  0.84335975  1
  S2-  S182  1  0.62411808  0.65288524  0.35189206  1
  S2-  S183  1  0.64087069  0.75142237  0.84698173  1
  S2-  S184  1  0.88287181  0.03411792  0.34392154  1
  S2-  S185  1  0.87343414  0.02063838  0.84125156  1
  S2-  S186  1  0.87993900  0.26911149  0.33781275  1
  S2-  S187  1  0.89999950  0.24214009  0.84493825  1
  S2-  S188  1  0.79323525  0.49492564  0.35197806  1
  S2-  S189  1  0.86948307  0.45580863  0.83214694  1
  S2-  S190  1  0.85301580  0.74514010  0.35416953  1
  S2-  S191  1  0.86916969  0.66177609  0.85571666  1
  S2-  S192  1  0.00066453  0.11466573  0.45686758  1
  S2-  S193  1  0.00380630  0.14830360  0.95031650  1
  S2-  S194  1  0.00013217  0.36706019  0.44485310  1
  S2-  S195  1  0.00214453  0.39653471  0.95126866  1
  S2-  S196  1  0.00009008  0.61737259  0.45524460  1
  S2-  S197  1  0.00586924  0.64665387  0.95573478  1
  S2-  S198  1  -0.00181944  0.86704173  0.45783110  1
  S2-  S199  1  0.00563473  0.89425450  0.94911254  1
  S2-  S200  1  0.24639315  0.11352157  0.45467078  1
  S2-  S201  1  0.25746973  0.14766852  0.96287898  1
  S2-  S202  1  0.25493040  0.36553143  0.44211049  1
  S2-  S203  1  0.25442578  0.39639218  0.95691251  1
  S2-  S204  1  0.25077111  0.61730422  0.45335763  1
  S2-  S205  1  0.25477026  0.64876268  0.95494122  1
  S2-  S206  1  0.25061485  0.86531310  0.45383262  1
  S2-  S207  1  0.25408309  0.89349592  0.95210204  1
  S2-  S208  1  0.50426904  0.11719364  0.44675447  1
  S2-  S209  1  0.50039918  0.14585275  0.95410427  1
  S2-  S210  1  0.50257791  0.37171251  0.44149961  1
  S2-  S211  1  0.50432515  0.39748940  0.95673168  1
  S2-  S212  1  0.50047892  0.61359617  0.44803458  1
  S2-  S213  1  0.50476488  0.64665974  0.95151141  1
  S2-  S214  1  0.50268406  0.86164013  0.45468690  1
  S2-  S215  1  0.50178545  0.89634580  0.95519425  1
  S2-  S216  1  0.75171564  0.11495692  0.45393516  1
  S2-  S217  1  0.75580816  0.14532737  0.95708666  1
  S2-  S218  1  0.74802112  0.37079579  0.45526615  1
  S2-  S219  1  0.75503228  0.39774175  0.95100907  1
  S2-  S220  1  0.75098782  0.61586797  0.45811419  1
  S2-  S221  1  0.74800398  0.64716421  0.95573775  1
  S2-  S222  1  0.75226136  0.86653483  0.45092435  1
  S2-  S223  1  0.75306554  0.89629250  0.94294103  1
  S2-  S224  1  0.12543835  0.02429521  0.04843365  1
  S2-  S225  1  0.12522453  -0.00891845  0.54236299  1
  S2-  S226  1  0.13240285  0.27280225  0.04507715  1
  S2-  S227  1  0.13279637  0.24667764  0.54760204  1
  S2-  S228  1  0.12777652  0.52560318  0.04084315  1
  S2-  S229  1  0.12365684  0.48412508  0.55073935  1
  S2-  S230  1  0.12444915  0.77044406  0.04660061  1
  S2-  S231  1  0.12432712  0.74320293  0.55125416  1
  S2-  S232  1  0.37794539  0.02336278  0.05332217  1
  S2-  S233  1  0.37907548  -0.00701848  0.53783998  1
  S2-  S234  1  0.38455616  0.27584852  0.04991853  1
  S2-  S235  1  0.37607880  0.23955407  0.53293878  1
  S2-  S236  1  0.37899633  0.52636045  0.04179258  1
  S2-  S237  1  0.37150123  0.48904330  0.53931368  1
  S2-  S238  1  0.37896444  0.77259363  0.04767620  1
  S2-  S239  1  0.37326456  0.73873573  0.54451923  1
  S2-  S240  1  0.62877430  0.02361869  0.04730799  1
  S2-  S241  1  0.62638121  -0.00774710  0.54687258  1
  S2-  S242  1  0.63060471  0.27278356  0.05192088  1
  S2-  S243  1  0.62327331  0.24315602  0.54570157  1
  S2-  S244  1  0.63266532  0.52417227  0.04416480  1
  S2-  S245  1  0.62314552  0.48683848  0.55552251  1
  S2-  S246  1  0.62908278  0.77241244  0.04781424  1
  S2-  S247  1  0.62766075  0.74115790  0.54659971  1
  S2-  S248  1  0.88221185  0.02189245  0.04550219  1
  S2-  S249  1  0.87331078  -0.01111559  0.54272613  1
  S2-  S250  1  0.87580060  0.27253148  0.04479555  1
  S2-  S251  1  0.87773276  0.24533114  0.54518093  1
  S2-  S252  1  0.87542505  0.52376303  0.03558536  1
  S2-  S253  1  0.87905967  0.49090291  0.54532180  1
  S2-  S254  1  0.88184476  0.77261192  0.04115892  1
  S2-  S255  1  0.87864516  0.74150247  0.55425687  1
