# generated using pymatgen
data_La6Ce7Pr13Nd19Sm19(BiS2)64
_symmetry_space_group_name_H-M   'P 1'
_cell_length_a   16.16304157
_cell_length_b   16.15211149
_cell_length_c   27.24054936
_cell_angle_alpha   90.04326678
_cell_angle_beta   90.07700669
_cell_angle_gamma   89.97029257
_symmetry_Int_Tables_number   1
_chemical_formula_structural   La6Ce7Pr13Nd19Sm19(BiS2)64
_chemical_formula_sum   'La6 Ce7 Pr13 Nd19 Sm19 Bi64 S128'
_cell_volume   7111.60589567
_cell_formula_units_Z   1
loop_
 _symmetry_equiv_pos_site_id
 _symmetry_equiv_pos_as_xyz
  1  'x, y, z'
loop_
 _atom_type_symbol
 _atom_type_oxidation_number
  La3+  3.0
  Ce3+  3.0
  Pr3+  3.0
  Nd3+  3.0
  Sm3+  3.0
  Bi2+  2.0
  S2-  -2.0
loop_
 _atom_site_type_symbol
 _atom_site_label
 _atom_site_symmetry_multiplicity
 _atom_site_fract_x
 _atom_site_fract_y
 _atom_site_fract_z
 _atom_site_occupancy
  La3+  La0  1  0.88402584  0.25906714  0.38858095  1
  La3+  La1  1  0.12351814  0.51198324  0.92232798  1
  La3+  La2  1  0.25603453  0.13421021  0.60683640  1
  La3+  La3  1  0.37470788  0.24306833  0.41652213  1
  La3+  La4  1  0.01314278  0.38507360  0.07967568  1
  La3+  La5  1  0.50331016  0.12241325  0.07938619  1
  Ce3+  Ce6  1  0.25179882  0.61849890  0.56318630  1
  Ce3+  Ce7  1  0.62321343  0.74407982  0.44014184  1
  Ce3+  Ce8  1  0.75384284  0.13070794  0.06161579  1
  Ce3+  Ce9  1  0.49384063  0.12011256  0.55775323  1
  Ce3+  Ce10  1  0.87638338  -0.00045484  0.43792571  1
  Ce3+  Ce11  1  0.87848362  0.49421716  0.44337299  1
  Ce3+  Ce12  1  0.75102959  0.36616443  0.54868967  1
  Pr3+  Pr13  1  0.62472875  0.25578833  0.94929838  1
  Pr3+  Pr14  1  0.50044602  0.63082757  0.06460196  1
  Pr3+  Pr15  1  0.12122871  0.23954901  0.44766134  1
  Pr3+  Pr16  1  0.62420486  0.50496784  0.93697469  1
  Pr3+  Pr17  1  0.86730551  0.00628706  0.92854005  1
  Pr3+  Pr18  1  0.87319310  0.74992854  0.93691640  1
  Pr3+  Pr19  1  0.00089538  0.86937769  0.56362900  1
  Pr3+  Pr20  1  0.62621419  0.49276968  0.42912271  1
  Pr3+  Pr21  1  0.37010254  0.74487792  0.42738958  1
  Pr3+  Pr22  1  0.12623377  -0.00203697  0.44383410  1
  Pr3+  Pr23  1  0.74842714  0.86707850  0.55638315  1
  Pr3+  Pr24  1  0.75028448  0.12014638  0.56019003  1
  Pr3+  Pr25  1  -0.00583336  0.11021397  0.57594891  1
  Nd3+  Nd26  1  0.24631596  0.13061764  0.06466328  1
  Nd3+  Nd27  1  0.49979298  0.36700891  0.55647754  1
  Nd3+  Nd28  1  0.49710694  0.86854196  0.55607431  1
  Nd3+  Nd29  1  0.00129947  0.36103392  0.56810928  1
  Nd3+  Nd30  1  0.00072442  0.62987209  0.06715956  1
  Nd3+  Nd31  1  0.37503969  0.50281533  0.94399328  1
  Nd3+  Nd32  1  0.87705728  0.50139950  0.94408345  1
  Nd3+  Nd33  1  0.49767192  0.61698158  0.55081441  1
  Nd3+  Nd34  1  0.62735852  0.23896698  0.42881394  1
  Nd3+  Nd35  1  0.74811909  0.61480454  0.55972812  1
  Nd3+  Nd36  1  0.74385710  0.38956252  0.08130283  1
  Nd3+  Nd37  1  0.37406815  0.00571889  0.94532800  1
  Nd3+  Nd38  1  0.00087631  0.61633322  0.56398226  1
  Nd3+  Nd39  1  0.62290519  0.00885409  0.93615579  1
  Nd3+  Nd40  1  0.75181625  0.87888846  0.05133666  1
  Nd3+  Nd41  1  0.61456913  0.75182785  0.92729717  1
  Nd3+  Nd42  1  0.13427365  0.24469666  0.91989437  1
  Nd3+  Nd43  1  -0.00049046  0.13216221  0.05875032  1
  Nd3+  Nd44  1  0.87940597  0.25816221  0.94615682  1
  Sm3+  Sm45  1  0.37344541  -0.00418078  0.43478574  1
  Sm3+  Sm46  1  0.25044648  0.62937610  0.05738844  1
  Sm3+  Sm47  1  0.25090424  0.36857110  0.55738132  1
  Sm3+  Sm48  1  -0.00040969  0.87897698  0.05100546  1
  Sm3+  Sm49  1  0.49980007  0.37933535  0.06253405  1
  Sm3+  Sm50  1  0.11913768  0.00394650  0.93875536  1
  Sm3+  Sm51  1  0.62499880  -0.00568729  0.44392719  1
  Sm3+  Sm52  1  0.87630861  0.74435899  0.44555160  1
  Sm3+  Sm53  1  0.24786252  0.37895719  0.05108025  1
  Sm3+  Sm54  1  0.24871053  0.88033881  0.05403140  1
  Sm3+  Sm55  1  0.50297148  0.87931415  0.06049487  1
  Sm3+  Sm56  1  0.37646544  0.75685879  0.94548548  1
  Sm3+  Sm57  1  0.25280989  0.87482338  0.56294907  1
  Sm3+  Sm58  1  0.37230587  0.49044224  0.43875986  1
  Sm3+  Sm59  1  0.12474405  0.75324663  0.94519636  1
  Sm3+  Sm60  1  0.37519212  0.25102833  0.94690386  1
  Sm3+  Sm61  1  0.12627161  0.74341143  0.45167829  1
  Sm3+  Sm62  1  0.12252748  0.49274197  0.44717628  1
  Sm3+  Sm63  1  0.75017451  0.62994841  0.05972969  1
  Bi2+  Bi64  1  0.01765573  0.11670430  0.29531213  1
  Bi2+  Bi65  1  0.00451291  0.13176251  0.80033978  1
  Bi2+  Bi66  1  0.01730245  0.39646064  0.29420369  1
  Bi2+  Bi67  1  -0.03521004  0.37824035  0.80705760  1
  Bi2+  Bi68  1  -0.00570837  0.65656876  0.28976163  1
  Bi2+  Bi69  1  -0.02102181  0.62210224  0.80522134  1
  Bi2+  Bi70  1  -0.02594456  0.87290548  0.29141107  1
  Bi2+  Bi71  1  0.02630996  0.85436541  0.79210464  1
  Bi2+  Bi72  1  0.25288948  0.08500121  0.26924310  1
  Bi2+  Bi73  1  0.27940850  0.12995374  0.79859529  1
  Bi2+  Bi74  1  0.21558821  0.37823957  0.24381473  1
  Bi2+  Bi75  1  0.33514955  0.40456143  0.76012000  1
  Bi2+  Bi76  1  0.25688622  0.63421747  0.31114734  1
  Bi2+  Bi77  1  0.25475871  0.67262227  0.79077385  1
  Bi2+  Bi78  1  0.24072982  0.84694917  0.29485836  1
  Bi2+  Bi79  1  0.24485892  0.87055191  0.79138024  1
  Bi2+  Bi80  1  0.49030454  0.11590149  0.28842013  1
  Bi2+  Bi81  1  0.52889494  0.10403722  0.79768903  1
  Bi2+  Bi82  1  0.47589803  0.38748798  0.29132230  1
  Bi2+  Bi83  1  0.49640929  0.36640786  0.81153086  1
  Bi2+  Bi84  1  0.44217224  0.66491107  0.29759456  1
  Bi2+  Bi85  1  0.53673336  0.60118681  0.80763862  1
  Bi2+  Bi86  1  0.51382483  0.85007384  0.29968510  1
  Bi2+  Bi87  1  0.45816251  0.85552834  0.79117359  1
  Bi2+  Bi88  1  0.74079699  0.05572253  0.28390634  1
  Bi2+  Bi89  1  0.75819815  0.13169021  0.79088887  1
  Bi2+  Bi90  1  0.75309603  0.37981225  0.28676269  1
  Bi2+  Bi91  1  0.75320883  0.37384514  0.74934260  1
  Bi2+  Bi92  1  0.71837150  0.68433550  0.25768733  1
  Bi2+  Bi93  1  0.74084373  0.70275741  0.75324733  1
  Bi2+  Bi94  1  0.77902109  0.86413372  0.30104636  1
  Bi2+  Bi95  1  0.65975900  0.87340383  0.79070507  1
  Bi2+  Bi96  1  0.11926403  -0.06111308  0.22051520  1
  Bi2+  Bi97  1  0.12577763  -0.02898513  0.71829450  1
  Bi2+  Bi98  1  0.11495900  0.23161012  0.18970915  1
  Bi2+  Bi99  1  0.13557366  0.29630828  0.71193215  1
  Bi2+  Bi100  1  0.12501809  0.56519005  0.21568411  1
  Bi2+  Bi101  1  0.13220519  0.55917097  0.72633095  1
  Bi2+  Bi102  1  0.06573727  0.74791647  0.19399164  1
  Bi2+  Bi103  1  0.12376273  0.75657257  0.70343210  1
  Bi2+  Bi104  1  0.38638204  -0.06228903  0.21880723  1
  Bi2+  Bi105  1  0.39712382  -0.02339300  0.70570320  1
  Bi2+  Bi106  1  0.35096821  0.24105985  0.23133031  1
  Bi2+  Bi107  1  0.45133969  0.25108897  0.72131897  1
  Bi2+  Bi108  1  0.35609936  0.51700043  0.23533856  1
  Bi2+  Bi109  1  0.38605665  0.57993299  0.71773862  1
  Bi2+  Bi110  1  0.32428380  0.75455975  0.20406208  1
  Bi2+  Bi111  1  0.32281266  0.77228361  0.69411609  1
  Bi2+  Bi112  1  0.62106618  -0.06507699  0.21555279  1
  Bi2+  Bi113  1  0.61485246  0.02046165  0.70546586  1
  Bi2+  Bi114  1  0.62345838  0.25030487  0.20655885  1
  Bi2+  Bi115  1  0.64601292  0.21635479  0.71086013  1
  Bi2+  Bi116  1  0.61351940  0.51137988  0.21322216  1
  Bi2+  Bi117  1  0.61301843  0.48157592  0.69383711  1
  Bi2+  Bi118  1  0.55952388  0.74891612  0.19780480  1
  Bi2+  Bi119  1  0.56827486  0.74847103  0.71408921  1
  Bi2+  Bi120  1  0.86303884  -0.03894544  0.21013168  1
  Bi2+  Bi121  1  0.80676601  -0.02223521  0.72382379  1
  Bi2+  Bi122  1  0.86526406  0.20268120  0.19250743  1
  Bi2+  Bi123  1  0.88151615  0.24795263  0.69244398  1
  Bi2+  Bi124  1  0.87097674  0.56138651  0.21571298  1
  Bi2+  Bi125  1  0.87528842  0.50724475  0.69690350  1
  Bi2+  Bi126  1  0.86469996  0.74622337  0.18860239  1
  Bi2+  Bi127  1  0.92950926  0.82043031  0.69397946  1
  S2-  S128  1  0.00626205  0.11366451  0.15820993  1
  S2-  S129  1  0.02642523  0.19288045  0.66451469  1
  S2-  S130  1  -0.02426771  0.31886092  0.17122969  1
  S2-  S131  1  -0.00306914  0.39485138  0.66748421  1
  S2-  S132  1  0.00142066  0.52639782  0.14675626  1
  S2-  S133  1  -0.01538241  0.61196716  0.66378652  1
  S2-  S134  1  -0.00425628  0.89563559  0.14741191  1
  S2-  S135  1  0.00690394  0.96871912  0.64692835  1
  S2-  S136  1  0.26130076  0.13168333  0.16373475  1
  S2-  S137  1  0.20868346  0.14798162  0.70940744  1
  S2-  S138  1  0.17522546  0.37369079  0.13846122  1
  S2-  S139  1  0.25899833  0.30914672  0.64827974  1
  S2-  S140  1  0.26441619  0.60999601  0.15440108  1
  S2-  S141  1  0.24828177  0.54997634  0.65365765  1
  S2-  S142  1  0.25121884  0.89437536  0.15114596  1
  S2-  S143  1  0.25745210  0.96692088  0.64659710  1
  S2-  S144  1  0.48985325  0.17874967  0.17528918  1
  S2-  S145  1  0.41879398  0.12334033  0.64686143  1
  S2-  S146  1  0.55371874  0.38417595  0.15566205  1
  S2-  S147  1  0.49916550  0.38490107  0.65660674  1
  S2-  S148  1  0.50353899  0.59417791  0.16254018  1
  S2-  S149  1  0.52267019  0.60696111  0.64912762  1
  S2-  S150  1  0.50075468  0.97328059  0.14236949  1
  S2-  S151  1  0.52351410  0.88495005  0.65372064  1
  S2-  S152  1  0.71252858  0.12535221  0.15602611  1
  S2-  S153  1  0.83470118  0.10976913  0.64877826  1
  S2-  S154  1  0.76443975  0.33934576  0.17675220  1
  S2-  S155  1  0.74079782  0.38109919  0.64549891  1
  S2-  S156  1  0.74063471  0.54079399  0.14321791  1
  S2-  S157  1  0.75331701  0.61174885  0.65963863  1
  S2-  S158  1  0.74809677  0.86936809  0.14992698  1
  S2-  S159  1  0.77456636  0.85136616  0.65516826  1
  S2-  S160  1  0.13213635  0.03610717  0.34328160  1
  S2-  S161  1  0.14301297  0.09306544  0.85692600  1
  S2-  S162  1  0.05579712  0.25336724  0.35298341  1
  S2-  S163  1  0.09174283  0.27923749  0.82264152  1
  S2-  S164  1  0.11111603  0.48652713  0.34882953  1
  S2-  S165  1  0.09135025  0.47720298  0.82203659  1
  S2-  S166  1  0.13898364  0.73959086  0.35391186  1
  S2-  S167  1  0.12101621  0.66587473  0.86224495  1
  S2-  S168  1  0.36753050  0.09682279  0.35063657  1
  S2-  S169  1  0.39441133  0.02795242  0.84810734  1
  S2-  S170  1  0.51276029  0.24745229  0.34976180  1
  S2-  S171  1  0.30816384  0.25354486  0.85711551  1
  S2-  S172  1  0.35674374  0.39594843  0.35658637  1
  S2-  S173  1  0.37220270  0.49435137  0.84484599  1
  S2-  S174  1  0.36943132  0.87709170  0.36011308  1
  S2-  S175  1  0.47008446  0.73762081  0.86390337  1
  S2-  S176  1  0.61374440  0.03617670  0.34839871  1
  S2-  S177  1  0.73117937  0.00814625  0.85817732  1
  S2-  S178  1  0.72423731  0.25500055  0.34410759  1
  S2-  S179  1  0.58704446  0.23248173  0.85239779  1
  S2-  S180  1  0.62169674  0.47578025  0.32762982  1
  S2-  S181  1  0.62476442  0.46471367  0.83886492  1
  S2-  S182  1  0.62080268  0.72312305  0.34413165  1
  S2-  S183  1  0.67588498  0.66857138  0.84583000  1
  S2-  S184  1  0.88487303  0.08613550  0.35224030  1
  S2-  S185  1  0.96105560  -0.00229925  0.84342063  1
  S2-  S186  1  0.89110095  0.27013538  0.27997950  1
  S2-  S187  1  0.87765434  0.23061398  0.84683816  1
  S2-  S188  1  0.87817861  0.44223760  0.34982054  1
  S2-  S189  1  0.86933699  0.51539055  0.84436675  1
  S2-  S190  1  0.87822116  0.73034074  0.34821636  1
  S2-  S191  1  0.89619482  0.75491640  0.83727881  1
  S2-  S192  1  -0.00128544  0.11746100  0.46290071  1
  S2-  S193  1  -0.00066268  0.12902323  0.95296781  1
  S2-  S194  1  -0.00037825  0.37028681  0.46000469  1
  S2-  S195  1  0.00548275  0.37980509  0.94968402  1
  S2-  S196  1  0.00194159  0.62142891  0.45669217  1
  S2-  S197  1  -0.00169416  0.62999447  0.96058212  1
  S2-  S198  1  0.00133796  0.86686788  0.45438265  1
  S2-  S199  1  0.00068161  0.87608520  0.94804345  1
  S2-  S200  1  0.25055963  0.12158365  0.44938835  1
  S2-  S201  1  0.25115734  0.12670324  0.95966036  1
  S2-  S202  1  0.24399078  0.36979971  0.45424204  1
  S2-  S203  1  0.24783346  0.38056031  0.94817362  1
  S2-  S204  1  0.24903971  0.61603530  0.45605516  1
  S2-  S205  1  0.25665231  0.63304105  0.95351175  1
  S2-  S206  1  0.24630706  0.86665090  0.45899656  1
  S2-  S207  1  0.24811922  0.87900399  0.94844115  1
  S2-  S208  1  0.50043991  0.11516946  0.45414439  1
  S2-  S209  1  0.49798469  0.12897647  0.96426218  1
  S2-  S210  1  0.50171019  0.37238066  0.45162953  1
  S2-  S211  1  0.49607159  0.37778547  0.95741885  1
  S2-  S212  1  0.49493251  0.61664200  0.44462627  1
  S2-  S213  1  0.49764612  0.62612425  0.95977192  1
  S2-  S214  1  0.50256148  0.86828146  0.45190416  1
  S2-  S215  1  0.50015219  0.88311999  0.95613955  1
  S2-  S216  1  0.74713062  0.11675382  0.45412706  1
  S2-  S217  1  0.75045426  0.13403161  0.95633541  1
  S2-  S218  1  0.75241994  0.36929374  0.44635348  1
  S2-  S219  1  0.75008139  0.38040526  0.95770817  1
  S2-  S220  1  0.75123254  0.61970919  0.45125886  1
  S2-  S221  1  0.74972213  0.62648292  0.95701208  1
  S2-  S222  1  0.75020220  0.86874192  0.44887425  1
  S2-  S223  1  0.74403930  0.87140847  0.94691424  1
  S2-  S224  1  0.12372866  0.00289836  0.04487620  1
  S2-  S225  1  0.13009432  -0.00375955  0.54874857  1
  S2-  S226  1  0.12544059  0.25224504  0.03814614  1
  S2-  S227  1  0.12951985  0.24075591  0.55331712  1
  S2-  S228  1  0.13049038  0.50938852  0.03723182  1
  S2-  S229  1  0.12448819  0.49148346  0.55224819  1
  S2-  S230  1  0.12643465  0.75470592  0.04943463  1
  S2-  S231  1  0.12804177  0.74455083  0.55675969  1
  S2-  S232  1  0.37042197  0.00321220  0.04991532  1
  S2-  S233  1  0.37556860  -0.00792971  0.54040284  1
  S2-  S234  1  0.37412910  0.25591882  0.05369910  1
  S2-  S235  1  0.37376056  0.24712247  0.54031433  1
  S2-  S236  1  0.37340425  0.50198663  0.05118302  1
  S2-  S237  1  0.37455640  0.49111214  0.54399180  1
  S2-  S238  1  0.37486561  0.75801307  0.05033445  1
  S2-  S239  1  0.37379818  0.74419746  0.54185769  1
  S2-  S240  1  0.62871542  0.00267138  0.04265427  1
  S2-  S241  1  0.62356043  -0.00597527  0.54892859  1
  S2-  S242  1  0.62534408  0.25733876  0.05485114  1
  S2-  S243  1  0.62370115  0.24286066  0.54316138  1
  S2-  S244  1  0.62079474  0.50424261  0.04446544  1
  S2-  S245  1  0.62395645  0.49376296  0.53819577  1
  S2-  S246  1  0.62541113  0.75413877  0.04356769  1
  S2-  S247  1  0.62313902  0.74086599  0.54746515  1
  S2-  S248  1  0.87688050  0.00311437  0.04073634  1
  S2-  S249  1  0.87156164  -0.01094254  0.54329950  1
  S2-  S250  1  0.87579176  0.26076289  0.05266265  1
  S2-  S251  1  0.87594350  0.24440341  0.55221563  1
  S2-  S252  1  0.87368100  0.50314157  0.04862763  1
  S2-  S253  1  0.87693129  0.49315776  0.54955952  1
  S2-  S254  1  0.87612651  0.75207110  0.04521585  1
  S2-  S255  1  0.87548813  0.74004131  0.54968247  1
