# generated using pymatgen
data_La6Ce7Pr13Nd19Sm19(BiS2)64
_symmetry_space_group_name_H-M   'P 1'
_cell_length_a   16.08651328
_cell_length_b   16.11322146
_cell_length_c   27.33860434
_cell_angle_alpha   90.20529066
_cell_angle_beta   89.93182095
_cell_angle_gamma   89.98913646
_symmetry_Int_Tables_number   1
_chemical_formula_structural   La6Ce7Pr13Nd19Sm19(BiS2)64
_chemical_formula_sum   'La6 Ce7 Pr13 Nd19 Sm19 Bi64 S128'
_cell_volume   7086.26736453
_cell_formula_units_Z   1
loop_
 _symmetry_equiv_pos_site_id
 _symmetry_equiv_pos_as_xyz
  1  'x, y, z'
loop_
 _atom_type_symbol
 _atom_type_oxidation_number
  La3+  3.0
  Ce3+  3.0
  Pr3+  3.0
  Nd3+  3.0
  Sm3+  3.0
  Bi2+  2.0
  S2-  -2.0
loop_
 _atom_site_type_symbol
 _atom_site_label
 _atom_site_symmetry_multiplicity
 _atom_site_fract_x
 _atom_site_fract_y
 _atom_site_fract_z
 _atom_site_occupancy
  La3+  La0  1  0.89339587  0.74202208  0.42146968  1
  La3+  La1  1  0.51432800  0.12011412  0.07316702  1
  La3+  La2  1  0.25771143  0.62101476  0.06386379  1
  La3+  La3  1  0.86562054  0.00292363  0.38619477  1
  La3+  La4  1  0.14578757  0.24520853  0.42170840  1
  La3+  La5  1  0.76961022  0.37790916  0.61554055  1
  Ce3+  Ce6  1  0.37693886  -0.00600342  0.43358826  1
  Ce3+  Ce7  1  0.63588789  0.74411971  0.94329862  1
  Ce3+  Ce8  1  0.88923182  -0.00625624  0.95749328  1
  Ce3+  Ce9  1  0.13576465  0.49939093  0.93598750  1
  Ce3+  Ce10  1  0.26074618  0.36610133  0.56158188  1
  Ce3+  Ce11  1  0.38519798  0.23723986  0.92713416  1
  Ce3+  Ce12  1  0.25929630  0.62601364  0.56773447  1
  Pr3+  Pr13  1  0.75697280  0.11980412  0.56393290  1
  Pr3+  Pr14  1  0.13378117  -0.00481577  0.43236911  1
  Pr3+  Pr15  1  0.50734864  0.86563731  0.05726190  1
  Pr3+  Pr16  1  0.75426123  0.87811769  0.07185315  1
  Pr3+  Pr17  1  0.63682828  0.74224301  0.43676260  1
  Pr3+  Pr18  1  0.76249833  0.62920415  0.56651568  1
  Pr3+  Pr19  1  0.89459387  0.23749261  0.93208223  1
  Pr3+  Pr20  1  0.26189894  0.86848011  0.05851951  1
  Pr3+  Pr21  1  0.51260513  0.62020192  0.56616047  1
  Pr3+  Pr22  1  -0.00222597  0.61701213  0.07079258  1
  Pr3+  Pr23  1  0.23152598  0.87954074  0.61407922  1
  Pr3+  Pr24  1  0.39593825  0.24554400  0.43135369  1
  Pr3+  Pr25  1  0.02045835  0.12944075  0.07852792  1
  Nd3+  Nd26  1  0.75903121  0.12331015  0.06531396  1
  Nd3+  Nd27  1  0.00910750  0.12138134  0.55227100  1
  Nd3+  Nd28  1  0.12647310  0.73778641  0.93539658  1
  Nd3+  Nd29  1  0.37970380  0.74548814  0.44072113  1
  Nd3+  Nd30  1  0.01013959  0.87275782  0.55002275  1
  Nd3+  Nd31  1  0.75799528  0.36359336  0.06443337  1
  Nd3+  Nd32  1  0.38748750  0.49569060  0.45084914  1
  Nd3+  Nd33  1  0.49812217  0.87333208  0.56578950  1
  Nd3+  Nd34  1  0.13473192  -0.01594697  0.93618289  1
  Nd3+  Nd35  1  0.01179869  0.36860444  0.05304826  1
  Nd3+  Nd36  1  0.88227172  0.24295816  0.43889436  1
  Nd3+  Nd37  1  0.88408211  0.49176587  0.94005306  1
  Nd3+  Nd38  1  0.13978605  0.23764675  0.92708754  1
  Nd3+  Nd39  1  0.13727879  0.49397053  0.44778794  1
  Nd3+  Nd40  1  0.01985213  0.86539330  0.08076310  1
  Nd3+  Nd41  1  0.51048331  0.61810361  0.06185490  1
  Nd3+  Nd42  1  0.38889639  0.73830040  0.92096901  1
  Nd3+  Nd43  1  0.26467798  0.12373986  0.06320570  1
  Nd3+  Nd44  1  0.00966715  0.62349818  0.55962828  1
  Sm3+  Sm45  1  0.63072806  -0.01849348  0.43206466  1
  Sm3+  Sm46  1  0.63632137  0.49162877  0.94242182  1
  Sm3+  Sm47  1  0.64195637  0.23863374  0.93091934  1
  Sm3+  Sm48  1  0.88373834  0.49646964  0.44077416  1
  Sm3+  Sm49  1  0.50811584  0.11937289  0.54869514  1
  Sm3+  Sm50  1  0.88442229  0.74639025  0.94695000  1
  Sm3+  Sm51  1  0.50987424  0.36847622  0.04726817  1
  Sm3+  Sm52  1  0.63571070  -0.00652319  0.93539368  1
  Sm3+  Sm53  1  0.63718816  0.49905952  0.44094748  1
  Sm3+  Sm54  1  0.76038062  0.87057379  0.55467175  1
  Sm3+  Sm55  1  0.75898291  0.61970942  0.05596464  1
  Sm3+  Sm56  1  0.00468753  0.36962423  0.55252566  1
  Sm3+  Sm57  1  0.14065511  0.74624351  0.43428311  1
  Sm3+  Sm58  1  0.38662521  0.49638356  0.94132785  1
  Sm3+  Sm59  1  0.26097444  0.36846535  0.04787115  1
  Sm3+  Sm60  1  0.64151451  0.24146790  0.44104604  1
  Sm3+  Sm61  1  0.25886956  0.12539754  0.56253316  1
  Sm3+  Sm62  1  0.51679925  0.37006397  0.56162409  1
  Sm3+  Sm63  1  0.38592303  -0.00627849  0.94453555  1
  Bi2+  Bi64  1  -0.00970805  0.12285521  0.27915314  1
  Bi2+  Bi65  1  -0.08095137  0.13266918  0.79663252  1
  Bi2+  Bi66  1  -0.01970848  0.39850572  0.28290874  1
  Bi2+  Bi67  1  0.04581377  0.36254694  0.78622281  1
  Bi2+  Bi68  1  0.01917849  0.59655367  0.29692563  1
  Bi2+  Bi69  1  -0.00588544  0.60254698  0.80222966  1
  Bi2+  Bi70  1  -0.01491190  0.86486113  0.28635730  1
  Bi2+  Bi71  1  0.01098139  0.89685138  0.81297120  1
  Bi2+  Bi72  1  0.23970659  0.13993234  0.29579063  1
  Bi2+  Bi73  1  0.29642645  0.17207012  0.76270525  1
  Bi2+  Bi74  1  0.24246371  0.43370240  0.23499012  1
  Bi2+  Bi75  1  0.22485371  0.43337397  0.80499625  1
  Bi2+  Bi76  1  0.26993131  0.59787900  0.29968240  1
  Bi2+  Bi77  1  0.27348060  0.64915110  0.79468471  1
  Bi2+  Bi78  1  0.27197710  0.86401396  0.28393366  1
  Bi2+  Bi79  1  0.25845378  0.93823580  0.80954573  1
  Bi2+  Bi80  1  0.43727107  0.10855882  0.31010559  1
  Bi2+  Bi81  1  0.48053811  0.16124642  0.80890367  1
  Bi2+  Bi82  1  0.57420522  0.41050288  0.30171965  1
  Bi2+  Bi83  1  0.42014462  0.40897835  0.78996383  1
  Bi2+  Bi84  1  0.49598404  0.60518589  0.29160685  1
  Bi2+  Bi85  1  0.52223229  0.61246972  0.79110350  1
  Bi2+  Bi86  1  0.46268651  0.90585780  0.30134955  1
  Bi2+  Bi87  1  0.57213462  0.90051919  0.75360648  1
  Bi2+  Bi88  1  0.72348070  0.22782352  0.29695357  1
  Bi2+  Bi89  1  0.69991165  0.09879077  0.74494386  1
  Bi2+  Bi90  1  0.77925760  0.41897728  0.30212398  1
  Bi2+  Bi91  1  0.74460366  0.37401923  0.81989562  1
  Bi2+  Bi92  1  0.75297821  0.62006258  0.28908839  1
  Bi2+  Bi93  1  0.71514156  0.65845576  0.79614428  1
  Bi2+  Bi94  1  0.71025988  0.85530502  0.27884567  1
  Bi2+  Bi95  1  0.74423759  0.90451960  0.81237796  1
  Bi2+  Bi96  1  0.11273009  -0.00583169  0.19878226  1
  Bi2+  Bi97  1  0.10682418  0.02540034  0.70534446  1
  Bi2+  Bi98  1  0.14335016  0.27021259  0.20323113  1
  Bi2+  Bi99  1  0.12817050  0.23280994  0.71666607  1
  Bi2+  Bi100  1  0.06562122  0.49946859  0.19150192  1
  Bi2+  Bi101  1  0.11002359  0.51398932  0.71910935  1
  Bi2+  Bi102  1  0.13609291  0.69061539  0.22477643  1
  Bi2+  Bi103  1  0.10065747  0.74862515  0.70793583  1
  Bi2+  Bi104  1  0.36419566  -0.00671856  0.21237029  1
  Bi2+  Bi105  1  0.43407167  0.02803956  0.72087986  1
  Bi2+  Bi106  1  0.42273827  0.23285104  0.21905072  1
  Bi2+  Bi107  1  0.38270131  0.31092271  0.69136339  1
  Bi2+  Bi108  1  0.44161603  0.45422175  0.22055329  1
  Bi2+  Bi109  1  0.31016173  0.50486609  0.70070220  1
  Bi2+  Bi110  1  0.35732387  0.77364549  0.19147098  1
  Bi2+  Bi111  1  0.38764193  0.76799856  0.71685229  1
  Bi2+  Bi112  1  0.60467331  0.03896632  0.26480124  1
  Bi2+  Bi113  1  0.67077467  -0.03549142  0.66166147  1
  Bi2+  Bi114  1  0.61459720  0.23365607  0.20233265  1
  Bi2+  Bi115  1  0.56348991  0.22884754  0.71292960  1
  Bi2+  Bi116  1  0.65521857  0.43705697  0.19246655  1
  Bi2+  Bi117  1  0.51037623  0.49645363  0.69872491  1
  Bi2+  Bi118  1  0.62508747  0.62915810  0.20441295  1
  Bi2+  Bi119  1  0.65264755  0.74476512  0.69831771  1
  Bi2+  Bi120  1  0.81937006  -0.00171342  0.18626682  1
  Bi2+  Bi121  1  0.84774087  -0.02500951  0.71955852  1
  Bi2+  Bi122  1  0.87857641  0.28252518  0.21116438  1
  Bi2+  Bi123  1  0.89774182  0.25213474  0.70995778  1
  Bi2+  Bi124  1  0.86200614  0.47905453  0.19713572  1
  Bi2+  Bi125  1  0.88697701  0.51556276  0.70908908  1
  Bi2+  Bi126  1  0.88482995  0.74341840  0.20333720  1
  Bi2+  Bi127  1  0.83834784  0.77666029  0.73734679  1
  S2-  S128  1  -0.03836686  0.09308652  0.17488493  1
  S2-  S129  1  0.01394635  0.14218018  0.65276479  1
  S2-  S130  1  0.01234720  0.28572731  0.13940849  1
  S2-  S131  1  -0.05431147  0.38401649  0.64492432  1
  S2-  S132  1  0.03147202  0.72250942  0.14694851  1
  S2-  S133  1  -0.00269062  0.63639706  0.65958390  1
  S2-  S134  1  -0.03625798  0.89374839  0.17786658  1
  S2-  S135  1  0.05667671  0.87374220  0.64789680  1
  S2-  S136  1  0.16396013  0.12799667  0.14539914  1
  S2-  S137  1  0.23805155  0.04495374  0.64964149  1
  S2-  S138  1  0.25702331  0.34694507  0.14497923  1
  S2-  S139  1  0.24023461  0.25759828  0.63507467  1
  S2-  S140  1  0.26046072  0.63300149  0.16389472  1
  S2-  S141  1  0.24488070  0.71301990  0.65262283  1
  S2-  S142  1  0.18441089  0.87936655  0.14858172  1
  S2-  S143  1  0.21070324  0.88271506  0.72352031  1
  S2-  S144  1  0.38627110  0.12582233  0.14185799  1
  S2-  S145  1  0.48450150  0.12030179  0.64719343  1
  S2-  S146  1  0.49577422  0.33456844  0.14288509  1
  S2-  S147  1  0.59845853  0.36917837  0.64817320  1
  S2-  S148  1  0.47677236  0.66800933  0.15461213  1
  S2-  S149  1  0.49400428  0.69043986  0.65906533  1
  S2-  S150  1  0.46537415  0.88827003  0.15464019  1
  S2-  S151  1  0.40024038  0.88620418  0.64973810  1
  S2-  S152  1  0.67344628  0.04447025  0.14041484  1
  S2-  S153  1  0.77154834  0.20827249  0.65092404  1
  S2-  S154  1  0.76071776  0.24838116  0.13933777  1
  S2-  S155  1  0.78110567  0.38064775  0.72609006  1
  S2-  S156  1  0.84681188  0.62482365  0.13921568  1
  S2-  S157  1  0.75863529  0.54312267  0.65419110  1
  S2-  S158  1  0.74336659  0.83660204  0.17212406  1
  S2-  S159  1  0.78804229  0.76733246  0.63410853  1
  S2-  S160  1  0.03396590  -0.00751964  0.34475328  1
  S2-  S161  1  0.12017654  0.02968144  0.83780816  1
  S2-  S162  1  0.09509839  0.22722607  0.32455239  1
  S2-  S163  1  0.01748132  0.23006762  0.85483978  1
  S2-  S164  1  0.14809720  0.50354846  0.34906189  1
  S2-  S165  1  0.13518298  0.61173220  0.86029696  1
  S2-  S166  1  0.04206146  0.74741918  0.35067312  1
  S2-  S167  1  0.14467049  0.84075674  0.85647807  1
  S2-  S168  1  0.25868115  -0.00572196  0.35696997  1
  S2-  S169  1  0.39779034  0.02837998  0.84927485  1
  S2-  S170  1  0.29282761  0.26319358  0.35135973  1
  S2-  S171  1  0.26737096  0.23063035  0.85517202  1
  S2-  S172  1  0.39111622  0.50757515  0.35205511  1
  S2-  S173  1  0.38801318  0.59275178  0.85979398  1
  S2-  S174  1  0.27053974  0.73604591  0.35950956  1
  S2-  S175  1  0.35768431  0.79350655  0.82518167  1
  S2-  S176  1  0.69669744  0.03562581  0.34750286  1
  S2-  S177  1  0.64158143  0.03845758  0.84081694  1
  S2-  S178  1  0.57071938  0.26175144  0.35168188  1
  S2-  S179  1  0.59972447  0.28968853  0.84019372  1
  S2-  S180  1  0.63196029  0.61235346  0.36294264  1
  S2-  S181  1  0.64339919  0.51339279  0.84530298  1
  S2-  S182  1  0.60741698  0.84355432  0.35453423  1
  S2-  S183  1  0.58265976  0.74197187  0.85097654  1
  S2-  S184  1  0.86773672  -0.00235556  0.27786744  1
  S2-  S185  1  0.88738726  -0.00903300  0.85951956  1
  S2-  S186  1  0.87168999  0.17516490  0.34714663  1
  S2-  S187  1  0.79456560  0.22453058  0.84979594  1
  S2-  S188  1  0.87767501  0.59508493  0.35926165  1
  S2-  S189  1  0.88472677  0.48528364  0.84096923  1
  S2-  S190  1  0.83520095  0.83347859  0.33986755  1
  S2-  S191  1  0.95277279  0.74697461  0.85693444  1
  S2-  S192  1  0.01033107  0.12401919  0.44774664  1
  S2-  S193  1  0.01670523  0.11388011  0.96084248  1
  S2-  S194  1  0.00844443  0.37041845  0.44574542  1
  S2-  S195  1  0.01435547  0.37229447  0.94815443  1
  S2-  S196  1  0.01592836  0.61613893  0.45529769  1
  S2-  S197  1  0.00150443  0.61676162  0.96335780  1
  S2-  S198  1  0.01317762  0.86915630  0.44855247  1
  S2-  S199  1  0.00871369  0.86610134  0.96695286  1
  S2-  S200  1  0.26502233  0.12535685  0.45598942  1
  S2-  S201  1  0.26011450  0.11186481  0.95648255  1
  S2-  S202  1  0.26480280  0.37183234  0.45657757  1
  S2-  S203  1  0.26290956  0.37500831  0.94552381  1
  S2-  S204  1  0.25975433  0.61648481  0.46229120  1
  S2-  S205  1  0.26268989  0.62026519  0.95711943  1
  S2-  S206  1  0.25873184  0.86922668  0.45501975  1
  S2-  S207  1  0.26812093  0.86477040  0.95271859  1
  S2-  S208  1  0.51538148  0.11457876  0.44583453  1
  S2-  S209  1  0.51376559  0.11834255  0.95500682  1
  S2-  S210  1  0.51610515  0.37357058  0.45657448  1
  S2-  S211  1  0.50924262  0.37041016  0.94465137  1
  S2-  S212  1  0.50723878  0.62162501  0.45980511  1
  S2-  S213  1  0.51503057  0.61582168  0.95643469  1
  S2-  S214  1  0.50121750  0.86942858  0.45852002  1
  S2-  S215  1  0.50909446  0.87003350  0.94869003  1
  S2-  S216  1  0.75963126  0.11594185  0.45622831  1
  S2-  S217  1  0.75840646  0.11511510  0.95827289  1
  S2-  S218  1  0.75798841  0.37293967  0.44176661  1
  S2-  S219  1  0.75803745  0.36625751  0.95604694  1
  S2-  S220  1  0.76170767  0.61927266  0.46011546  1
  S2-  S221  1  0.76087428  0.61884736  0.95218158  1
  S2-  S222  1  0.76250967  0.87296916  0.45231459  1
  S2-  S223  1  0.75893159  0.86984701  0.95971145  1
  S2-  S224  1  0.13572127  -0.00624809  0.04462782  1
  S2-  S225  1  0.13515139  -0.00067432  0.54223500  1
  S2-  S226  1  0.14019690  0.24838639  0.03440840  1
  S2-  S227  1  0.12917649  0.24830505  0.53423522  1
  S2-  S228  1  0.13483425  0.49396664  0.04525922  1
  S2-  S229  1  0.13314253  0.49282087  0.55515455  1
  S2-  S230  1  0.13435235  0.74270917  0.04227154  1
  S2-  S231  1  0.13471493  0.74709859  0.54362566  1
  S2-  S232  1  0.38657437  -0.00607262  0.04628927  1
  S2-  S233  1  0.38246358  0.00335844  0.54068339  1
  S2-  S234  1  0.38691247  0.24758145  0.03484351  1
  S2-  S235  1  0.39143787  0.24806798  0.53980558  1
  S2-  S236  1  0.38623969  0.49335948  0.04696422  1
  S2-  S237  1  0.38658589  0.49289775  0.55677899  1
  S2-  S238  1  0.38599699  0.74124520  0.03841642  1
  S2-  S239  1  0.38560861  0.74161972  0.54524730  1
  S2-  S240  1  0.62787501  -0.00823086  0.03690440  1
  S2-  S241  1  0.63069896  -0.00767511  0.53865546  1
  S2-  S242  1  0.63056512  0.24457349  0.03852156  1
  S2-  S243  1  0.63174058  0.24263686  0.54343361  1
  S2-  S244  1  0.63616655  0.49308780  0.04787028  1
  S2-  S245  1  0.63670203  0.49638939  0.54451603  1
  S2-  S246  1  0.63674764  0.74302079  0.05158988  1
  S2-  S247  1  0.62924332  0.75209605  0.54433921  1
  S2-  S248  1  0.88814367  -0.00303293  0.06129962  1
  S2-  S249  1  0.88342239  -0.00558205  0.55742640  1
  S2-  S250  1  0.88726434  0.24426787  0.03894654  1
  S2-  S251  1  0.88291813  0.24801577  0.54332716  1
  S2-  S252  1  0.87931420  0.48784112  0.04606376  1
  S2-  S253  1  0.88558363  0.49700157  0.54346059  1
  S2-  S254  1  0.87832302  0.75269267  0.04905006  1
  S2-  S255  1  0.89082862  0.74732250  0.53394434  1
