# generated using pymatgen
data_La6Ce7Pr13Nd19Sm19(BiS2)64
_symmetry_space_group_name_H-M   'P 1'
_cell_length_a   16.07982779
_cell_length_b   16.03772467
_cell_length_c   27.38591766
_cell_angle_alpha   89.88294213
_cell_angle_beta   90.27891663
_cell_angle_gamma   89.89438930
_symmetry_Int_Tables_number   1
_chemical_formula_structural   La6Ce7Pr13Nd19Sm19(BiS2)64
_chemical_formula_sum   'La6 Ce7 Pr13 Nd19 Sm19 Bi64 S128'
_cell_volume   7062.27535995
_cell_formula_units_Z   1
loop_
 _symmetry_equiv_pos_site_id
 _symmetry_equiv_pos_as_xyz
  1  'x, y, z'
loop_
 _atom_type_symbol
 _atom_type_oxidation_number
  La3+  3.0
  Ce3+  3.0
  Pr3+  3.0
  Nd3+  3.0
  Sm3+  3.0
  Bi2+  2.0
  S2-  -2.0
loop_
 _atom_site_type_symbol
 _atom_site_label
 _atom_site_symmetry_multiplicity
 _atom_site_fract_x
 _atom_site_fract_y
 _atom_site_fract_z
 _atom_site_occupancy
  La3+  La0  1  0.88002356  0.01239881  0.89195768  1
  La3+  La1  1  0.13981582  0.49773063  0.40772041  1
  La3+  La2  1  0.11118408  0.49688451  0.91710191  1
  La3+  La3  1  0.75475983  0.15058501  0.61552988  1
  La3+  La4  1  0.48965648  0.88100902  0.06933737  1
  La3+  La5  1  0.88048076  0.51626349  0.37888525  1
  Ce3+  Ce6  1  0.38223702  0.50864188  0.43259031  1
  Ce3+  Ce7  1  0.23279447  0.39170276  0.06329490  1
  Ce3+  Ce8  1  0.23925622  0.63242472  0.06058309  1
  Ce3+  Ce9  1  -0.00914211  0.12667545  0.06393993  1
  Ce3+  Ce10  1  0.38239959  0.76874092  0.43461665  1
  Ce3+  Ce11  1  0.00513824  0.13235177  0.56766698  1
  Ce3+  Ce12  1  0.36861469  0.74821516  0.94003426  1
  Pr3+  Pr13  1  0.51016635  0.88030968  0.56858265  1
  Pr3+  Pr14  1  -0.01322240  0.87370962  0.05680936  1
  Pr3+  Pr15  1  0.76129543  0.63222026  0.55571799  1
  Pr3+  Pr16  1  0.36592195  -0.00476852  0.92949496  1
  Pr3+  Pr17  1  0.63373284  0.76713211  0.43226979  1
  Pr3+  Pr18  1  0.01021045  0.62677974  0.53988294  1
  Pr3+  Pr19  1  0.88351208  0.26005277  0.43549617  1
  Pr3+  Pr20  1  0.25831202  0.13366129  0.56726755  1
  Pr3+  Pr21  1  0.88420462  0.00846096  0.44136427  1
  Pr3+  Pr22  1  0.13307336  0.76670054  0.42307311  1
  Pr3+  Pr23  1  0.86160968  0.50139910  0.93241011  1
  Pr3+  Pr24  1  0.01595555  0.87407179  0.56877459  1
  Pr3+  Pr25  1  0.88310190  0.76389471  0.43191928  1
  Nd3+  Nd26  1  0.50540144  0.12488692  0.57804447  1
  Nd3+  Nd27  1  0.74297763  0.87709685  0.05797039  1
  Nd3+  Nd28  1  0.00390484  0.59908651  0.09854566  1
  Nd3+  Nd29  1  0.36185904  0.50316927  0.93615148  1
  Nd3+  Nd30  1  0.00733476  0.38200327  0.55234617  1
  Nd3+  Nd31  1  0.38380072  0.01676347  0.43851924  1
  Nd3+  Nd32  1  0.76916022  0.88409323  0.57205851  1
  Nd3+  Nd33  1  0.10963442  0.74968973  0.94344950  1
  Nd3+  Nd34  1  0.61072071  0.24457005  0.94824006  1
  Nd3+  Nd35  1  0.61592942  -0.00738619  0.92643714  1
  Nd3+  Nd36  1  0.23290455  0.12217510  0.08333303  1
  Nd3+  Nd37  1  0.23870258  0.87335601  0.06510962  1
  Nd3+  Nd38  1  0.36118830  0.24763692  0.95103591  1
  Nd3+  Nd39  1  0.63366504  0.01055976  0.44955451  1
  Nd3+  Nd40  1  0.13221823  0.25802955  0.43999891  1
  Nd3+  Nd41  1  0.86256098  0.24461292  0.94400197  1
  Nd3+  Nd42  1  0.74057957  0.62327786  0.06831011  1
  Nd3+  Nd43  1  0.63714869  0.50896915  0.43770836  1
  Nd3+  Nd44  1  0.26533080  0.38505587  0.56416608  1
  Sm3+  Sm45  1  0.49413958  0.62987375  0.07304786  1
  Sm3+  Sm46  1  0.61492745  0.74991910  0.94477207  1
  Sm3+  Sm47  1  0.63457839  0.25493629  0.44913675  1
  Sm3+  Sm48  1  0.86328523  0.74950268  0.94365766  1
  Sm3+  Sm49  1  0.51005407  0.37977114  0.55458449  1
  Sm3+  Sm50  1  0.73914161  0.12563564  0.05999816  1
  Sm3+  Sm51  1  0.48627260  0.37725095  0.05455959  1
  Sm3+  Sm52  1  0.25891097  0.63092621  0.54522702  1
  Sm3+  Sm53  1  0.61547257  0.50124462  0.93564717  1
  Sm3+  Sm54  1  0.11591773  0.24704995  0.94279646  1
  Sm3+  Sm55  1  0.48468040  0.12197919  0.06774957  1
  Sm3+  Sm56  1  -0.00936838  0.37534201  0.05086086  1
  Sm3+  Sm57  1  0.25637511  0.87946286  0.56246556  1
  Sm3+  Sm58  1  0.73856184  0.37746519  0.05519020  1
  Sm3+  Sm59  1  0.13158720  0.00921246  0.44436174  1
  Sm3+  Sm60  1  0.50968279  0.63409541  0.55010371  1
  Sm3+  Sm61  1  0.11485518  -0.00055910  0.94523054  1
  Sm3+  Sm62  1  0.76049829  0.38161536  0.55773897  1
  Sm3+  Sm63  1  0.38442742  0.25640541  0.43996399  1
  Bi2+  Bi64  1  0.00905328  0.11873600  0.34974538  1
  Bi2+  Bi65  1  0.09669756  0.14983132  0.78682016  1
  Bi2+  Bi66  1  0.00350095  0.28020678  0.28604375  1
  Bi2+  Bi67  1  0.03314839  0.38463493  0.78043407  1
  Bi2+  Bi68  1  -0.00480685  0.65572516  0.28592069  1
  Bi2+  Bi69  1  -0.01584547  0.64325007  0.80068145  1
  Bi2+  Bi70  1  0.00055594  0.93593075  0.29441567  1
  Bi2+  Bi71  1  0.05492872  0.87867359  0.78677984  1
  Bi2+  Bi72  1  0.25919697  0.12327547  0.29064504  1
  Bi2+  Bi73  1  0.28187187  0.09002931  0.80030854  1
  Bi2+  Bi74  1  0.29016226  0.33059189  0.30251683  1
  Bi2+  Bi75  1  0.33050514  0.39046918  0.79890333  1
  Bi2+  Bi76  1  0.23745766  0.59000856  0.26751856  1
  Bi2+  Bi77  1  0.33017649  0.63728929  0.78818408  1
  Bi2+  Bi78  1  0.26105744  0.84381663  0.30014147  1
  Bi2+  Bi79  1  0.24501365  0.89172181  0.78830771  1
  Bi2+  Bi80  1  0.52193932  0.10624014  0.30184248  1
  Bi2+  Bi81  1  0.47344444  0.15169324  0.79017572  1
  Bi2+  Bi82  1  0.47377248  0.38574345  0.29535317  1
  Bi2+  Bi83  1  0.52676251  0.41782924  0.81060849  1
  Bi2+  Bi84  1  0.49464256  0.58353980  0.27434128  1
  Bi2+  Bi85  1  0.49322615  0.61282533  0.84769666  1
  Bi2+  Bi86  1  0.50726792  0.84025019  0.30562721  1
  Bi2+  Bi87  1  0.49225951  0.87893515  0.79432475  1
  Bi2+  Bi88  1  0.80959334  0.11878606  0.32514777  1
  Bi2+  Bi89  1  0.73051834  0.17286645  0.81081999  1
  Bi2+  Bi90  1  0.73544683  0.29485220  0.29210171  1
  Bi2+  Bi91  1  0.73410498  0.40255782  0.77787567  1
  Bi2+  Bi92  1  0.73061392  0.62373894  0.28241607  1
  Bi2+  Bi93  1  0.67311535  0.63194345  0.79663613  1
  Bi2+  Bi94  1  0.74806023  0.93779767  0.28803556  1
  Bi2+  Bi95  1  0.74782751  0.83893042  0.79513849  1
  Bi2+  Bi96  1  0.13424905  0.01785779  0.22383202  1
  Bi2+  Bi97  1  0.13847130  0.00932265  0.69916322  1
  Bi2+  Bi98  1  0.15425311  0.24339291  0.21607469  1
  Bi2+  Bi99  1  0.16493463  0.20528402  0.68713486  1
  Bi2+  Bi100  1  0.11991031  0.46941578  0.21340457  1
  Bi2+  Bi101  1  0.10778634  0.51918516  0.66750332  1
  Bi2+  Bi102  1  0.12829326  0.82441861  0.20204751  1
  Bi2+  Bi103  1  0.21673615  0.74290537  0.70845276  1
  Bi2+  Bi104  1  0.37620527  -0.01197053  0.21838426  1
  Bi2+  Bi105  1  0.34083470  -0.00839269  0.69988786  1
  Bi2+  Bi106  1  0.35940394  0.17465575  0.19204975  1
  Bi2+  Bi107  1  0.36186349  0.25949047  0.71592158  1
  Bi2+  Bi108  1  0.36648936  0.48356517  0.20498078  1
  Bi2+  Bi109  1  0.36649200  0.50529542  0.70603900  1
  Bi2+  Bi110  1  0.36851625  0.70434037  0.21305937  1
  Bi2+  Bi111  1  0.40911430  0.77568375  0.70577455  1
  Bi2+  Bi112  1  0.62261423  0.04229154  0.21833075  1
  Bi2+  Bi113  1  0.61312229  0.01818637  0.71721281  1
  Bi2+  Bi114  1  0.53301531  0.24410104  0.22002807  1
  Bi2+  Bi115  1  0.59140177  0.32376036  0.70597332  1
  Bi2+  Bi116  1  0.61286001  0.46577906  0.21134543  1
  Bi2+  Bi117  1  0.56478708  0.52929474  0.71584211  1
  Bi2+  Bi118  1  0.61942730  0.73396725  0.20745218  1
  Bi2+  Bi119  1  0.60609723  0.75605857  0.71920960  1
  Bi2+  Bi120  1  0.87154986  0.04094087  0.22265395  1
  Bi2+  Bi121  1  0.87705430  -0.01150284  0.70184301  1
  Bi2+  Bi122  1  0.85731364  0.23407691  0.21187462  1
  Bi2+  Bi123  1  0.88568857  0.31693449  0.72229795  1
  Bi2+  Bi124  1  0.84259539  0.46073593  0.18767624  1
  Bi2+  Bi125  1  0.85479890  0.51533529  0.71261552  1
  Bi2+  Bi126  1  0.87161727  0.78198096  0.19466131  1
  Bi2+  Bi127  1  0.89736539  0.71024607  0.70714089  1
  S2-  S128  1  0.08758916  0.13293138  0.14478858  1
  S2-  S129  1  -0.07775977  0.12705229  0.65282712  1
  S2-  S130  1  -0.00339617  0.43410158  0.14383536  1
  S2-  S131  1  -0.01955666  0.39614826  0.65180485  1
  S2-  S132  1  0.03049148  0.69139802  0.18504576  1
  S2-  S133  1  0.01777416  0.65483662  0.64014282  1
  S2-  S134  1  -0.02723526  0.89168627  0.15696103  1
  S2-  S135  1  -0.09646409  0.85417770  0.64577558  1
  S2-  S136  1  0.25531947  -0.01863355  0.14591086  1
  S2-  S137  1  0.36964186  0.14142792  0.64533070  1
  S2-  S138  1  0.23885318  0.36036159  0.16009715  1
  S2-  S139  1  0.20533032  0.36735753  0.65663124  1
  S2-  S140  1  0.17007517  0.54821819  0.13448486  1
  S2-  S141  1  0.25827488  0.60497968  0.64241893  1
  S2-  S142  1  0.24651499  0.75274230  0.14048005  1
  S2-  S143  1  0.15041901  0.85528066  0.63940164  1
  S2-  S144  1  0.49849933  0.00619559  0.14346884  1
  S2-  S145  1  0.59449163  0.16719018  0.66169743  1
  S2-  S146  1  0.48361325  0.40237482  0.15046898  1
  S2-  S147  1  0.44534066  0.37744767  0.64502957  1
  S2-  S148  1  0.61960708  0.60332616  0.14276364  1
  S2-  S149  1  0.51112909  0.66122425  0.64650855  1
  S2-  S150  1  0.48421717  0.76338585  0.14706742  1
  S2-  S151  1  0.49506837  0.97752855  0.65124610  1
  S2-  S152  1  0.73979620  0.12640206  0.15892069  1
  S2-  S153  1  0.76003721  0.11194088  0.72206962  1
  S2-  S154  1  0.71182134  0.36955986  0.15182558  1
  S2-  S155  1  0.74837826  0.32301933  0.65054501  1
  S2-  S156  1  0.84658617  0.62188077  0.14882603  1
  S2-  S157  1  0.76847127  0.62794873  0.65687438  1
  S2-  S158  1  0.72841956  0.84448197  0.15737270  1
  S2-  S159  1  0.72116954  0.93852238  0.66421125  1
  S2-  S160  1  0.13924502  -0.08513595  0.36113896  1
  S2-  S161  1  0.05354285  0.01568344  0.85373148  1
  S2-  S162  1  0.14658466  0.33178693  0.35011955  1
  S2-  S163  1  0.11677863  0.30461346  0.84897138  1
  S2-  S164  1  0.03998850  0.51519112  0.32584998  1
  S2-  S165  1  0.10691124  0.54077342  0.76007390  1
  S2-  S166  1  0.14441725  0.71118932  0.32558171  1
  S2-  S167  1  0.10526168  0.73420815  0.84359462  1
  S2-  S168  1  0.38428229  -0.07996075  0.35528085  1
  S2-  S169  1  0.48877762  0.02349508  0.85558137  1
  S2-  S170  1  0.38860363  0.14483413  0.36469664  1
  S2-  S171  1  0.35001149  0.23259123  0.85260388  1
  S2-  S172  1  0.28982527  0.50119194  0.34941792  1
  S2-  S173  1  0.25396106  0.51247010  0.85631664  1
  S2-  S174  1  0.37831727  0.73124303  0.33821460  1
  S2-  S175  1  0.36184450  0.85114359  0.86164758  1
  S2-  S176  1  0.62877312  -0.08668992  0.36448675  1
  S2-  S177  1  0.72095529  0.01847807  0.84551584  1
  S2-  S178  1  0.61639857  0.23111454  0.35209609  1
  S2-  S179  1  0.58399083  0.24615965  0.85001467  1
  S2-  S180  1  0.70592442  0.49750039  0.34804416  1
  S2-  S181  1  0.73300035  0.50747248  0.86097699  1
  S2-  S182  1  0.60429422  0.70871233  0.33671958  1
  S2-  S183  1  0.61346134  0.83726880  0.85900260  1
  S2-  S184  1  0.87521621  -0.10263458  0.36034873  1
  S2-  S185  1  0.89282385  -0.07354221  0.80013419  1
  S2-  S186  1  0.87854086  0.34624209  0.34695964  1
  S2-  S187  1  0.87950187  0.18019806  0.85258760  1
  S2-  S188  1  0.87336906  0.52888165  0.27059664  1
  S2-  S189  1  0.96933763  0.49061103  0.85126854  1
  S2-  S190  1  0.85363412  0.68694491  0.34193167  1
  S2-  S191  1  0.84271314  0.72795251  0.84566048  1
  S2-  S192  1  0.00919193  0.13524108  0.46377939  1
  S2-  S193  1  -0.00879947  0.12427684  0.95910340  1
  S2-  S194  1  0.00893852  0.38614920  0.44803817  1
  S2-  S195  1  -0.01284497  0.36762833  0.94998158  1
  S2-  S196  1  0.00882511  0.63068791  0.43491508  1
  S2-  S197  1  -0.01378350  0.62707146  0.94510152  1
  S2-  S198  1  0.01178578  0.88526740  0.46102109  1
  S2-  S199  1  -0.01691395  0.87978455  0.94965077  1
  S2-  S200  1  0.25393374  0.13442843  0.45912841  1
  S2-  S201  1  0.23690338  0.12190779  0.95439970  1
  S2-  S202  1  0.26394276  0.37883599  0.45659150  1
  S2-  S203  1  0.23875425  0.37408647  0.95672687  1
  S2-  S204  1  0.25801186  0.63612254  0.44315980  1
  S2-  S205  1  0.23863639  0.63018778  0.95468276  1
  S2-  S206  1  0.25837152  0.88828026  0.45993547  1
  S2-  S207  1  0.23450322  0.87428113  0.95837055  1
  S2-  S208  1  0.50969787  0.13497795  0.46641925  1
  S2-  S209  1  0.48658906  0.12384652  0.96376779  1
  S2-  S210  1  0.50908180  0.38136562  0.44933243  1
  S2-  S211  1  0.48756503  0.37593096  0.95133335  1
  S2-  S212  1  0.50806242  0.63464518  0.44684530  1
  S2-  S213  1  0.49312066  0.62432821  0.96412333  1
  S2-  S214  1  0.50666006  0.88620941  0.46358228  1
  S2-  S215  1  0.49137617  0.87374090  0.96159836  1
  S2-  S216  1  0.75833795  0.13408782  0.45176359  1
  S2-  S217  1  0.73862005  0.12214355  0.95615106  1
  S2-  S218  1  0.75389662  0.37986762  0.45545519  1
  S2-  S219  1  0.73618601  0.36961351  0.95243553  1
  S2-  S220  1  0.75507765  0.63603603  0.45034399  1
  S2-  S221  1  0.73656945  0.62813646  0.96028724  1
  S2-  S222  1  0.75777247  0.88524845  0.46475882  1
  S2-  S223  1  0.74451742  0.87502214  0.95398605  1
  S2-  S224  1  0.11302480  -0.00056842  0.04760540  1
  S2-  S225  1  0.13524933  0.00900757  0.54869862  1
  S2-  S226  1  0.11888733  0.25423670  0.04629958  1
  S2-  S227  1  0.13426066  0.25868334  0.54652598  1
  S2-  S228  1  0.10516784  0.50169309  0.02988749  1
  S2-  S229  1  0.13922364  0.50316160  0.53586203  1
  S2-  S230  1  0.10207576  0.74260931  0.04892908  1
  S2-  S231  1  0.13810509  0.75253469  0.53200366  1
  S2-  S232  1  0.35974087  0.00553340  0.04151040  1
  S2-  S233  1  0.37777687  0.00232834  0.54518129  1
  S2-  S234  1  0.36165729  0.25009867  0.05605960  1
  S2-  S235  1  0.38529909  0.25806620  0.54266012  1
  S2-  S236  1  0.36758514  0.50657476  0.04595982  1
  S2-  S237  1  0.38878332  0.50898027  0.53957606  1
  S2-  S238  1  0.36873269  0.75081972  0.04284577  1
  S2-  S239  1  0.38166394  0.75656436  0.54505013  1
  S2-  S240  1  0.61964510  0.00410891  0.04332127  1
  S2-  S241  1  0.63864669  0.01049043  0.55364181  1
  S2-  S242  1  0.61056025  0.24933676  0.05402668  1
  S2-  S243  1  0.63393075  0.25712434  0.55094297  1
  S2-  S244  1  0.61221612  0.49575976  0.03957530  1
  S2-  S245  1  0.63141756  0.50608311  0.54691305  1
  S2-  S246  1  0.61749854  0.75188772  0.04671539  1
  S2-  S247  1  0.63525565  0.75865909  0.54729182  1
  S2-  S248  1  0.86435393  0.00588093  0.05748921  1
  S2-  S249  1  0.88923599  0.00533525  0.54820049  1
  S2-  S250  1  0.86362148  0.25197781  0.05137206  1
  S2-  S251  1  0.88065383  0.25750592  0.54695411  1
  S2-  S252  1  0.86483574  0.49666508  0.04074143  1
  S2-  S253  1  0.88130188  0.50475331  0.54761756  1
  S2-  S254  1  0.86429762  0.74858347  0.04712265  1
  S2-  S255  1  0.88565663  0.75422300  0.53888171  1
