# generated using pymatgen
data_La6Ce7Pr13Nd19Sm19(BiS2)64
_symmetry_space_group_name_H-M   'P 1'
_cell_length_a   16.04809726
_cell_length_b   16.04527367
_cell_length_c   27.46374796
_cell_angle_alpha   89.84814308
_cell_angle_beta   90.31444839
_cell_angle_gamma   90.00881168
_symmetry_Int_Tables_number   1
_chemical_formula_structural   La6Ce7Pr13Nd19Sm19(BiS2)64
_chemical_formula_sum   'La6 Ce7 Pr13 Nd19 Sm19 Bi64 S128'
_cell_volume   7071.67692204
_cell_formula_units_Z   1
loop_
 _symmetry_equiv_pos_site_id
 _symmetry_equiv_pos_as_xyz
  1  'x, y, z'
loop_
 _atom_type_symbol
 _atom_type_oxidation_number
  La3+  3.0
  Ce3+  3.0
  Pr3+  3.0
  Nd3+  3.0
  Sm3+  3.0
  Bi2+  2.0
  S2-  -2.0
loop_
 _atom_site_type_symbol
 _atom_site_label
 _atom_site_symmetry_multiplicity
 _atom_site_fract_x
 _atom_site_fract_y
 _atom_site_fract_z
 _atom_site_occupancy
  La3+  La0  1  0.25258473  0.14085874  0.57387276  1
  La3+  La1  1  0.61791473  -0.01432797  0.92003214  1
  La3+  La2  1  0.25878071  0.61520825  0.10163211  1
  La3+  La3  1  0.74127763  0.64138240  0.55553128  1
  La3+  La4  1  0.50684579  0.40538264  0.60292603  1
  La3+  La5  1  0.51035091  0.87145467  0.08161578  1
  Ce3+  Ce6  1  0.12788296  0.24271997  0.94378685  1
  Ce3+  Ce7  1  0.00143212  0.61887526  0.07227392  1
  Ce3+  Ce8  1  0.74345869  0.89457674  0.56002399  1
  Ce3+  Ce9  1  0.62693344  0.74167624  0.94119721  1
  Ce3+  Ce10  1  0.61616522  0.77233299  0.43658790  1
  Ce3+  Ce11  1  0.24415609  0.89171071  0.55727245  1
  Ce3+  Ce12  1  0.49177993  0.64251248  0.54552495  1
  Pr3+  Pr13  1  0.11591576  0.02467942  0.44105967  1
  Pr3+  Pr14  1  0.36797361  0.02601895  0.42771177  1
  Pr3+  Pr15  1  0.61372700  0.24687417  0.90591619  1
  Pr3+  Pr16  1  0.89083933  0.73049449  0.91494768  1
  Pr3+  Pr17  1  -0.00561511  0.89736571  0.56981675  1
  Pr3+  Pr18  1  0.51501486  0.60841001  0.09020779  1
  Pr3+  Pr19  1  0.25644698  0.36845105  0.06766316  1
  Pr3+  Pr20  1  0.87648757  0.24082628  0.93081984  1
  Pr3+  Pr21  1  0.74039441  0.14730344  0.57447086  1
  Pr3+  Pr22  1  0.00177687  0.86718559  0.05942448  1
  Pr3+  Pr23  1  0.61876252  0.02738435  0.43392673  1
  Pr3+  Pr24  1  0.35919043  0.77488577  0.41431600  1
  Pr3+  Pr25  1  0.00212527  0.36577149  0.06019651  1
  Nd3+  Nd26  1  0.86751816  0.02752539  0.44360812  1
  Nd3+  Nd27  1  -0.00767060  0.14678113  0.58007579  1
  Nd3+  Nd28  1  0.36563556  0.52078538  0.42497248  1
  Nd3+  Nd29  1  0.24875386  0.64984679  0.55585650  1
  Nd3+  Nd30  1  -0.00515702  0.64939044  0.56821250  1
  Nd3+  Nd31  1  0.86853321  -0.01798599  0.91170033  1
  Nd3+  Nd32  1  0.87008284  0.77834462  0.43174001  1
  Nd3+  Nd33  1  0.11680706  0.26614186  0.44186591  1
  Nd3+  Nd34  1  0.51298714  0.11845550  0.06089052  1
  Nd3+  Nd35  1  0.62763305  0.49695588  0.93225465  1
  Nd3+  Nd36  1  0.50758791  0.36854027  0.06182239  1
  Nd3+  Nd37  1  0.11164357  0.77712528  0.42688204  1
  Nd3+  Nd38  1  0.12603100  -0.00904309  0.93587781  1
  Nd3+  Nd39  1  0.49837025  0.14254068  0.56570885  1
  Nd3+  Nd40  1  0.61819252  0.51876348  0.42963122  1
  Nd3+  Nd41  1  0.25518696  0.11577710  0.05810876  1
  Nd3+  Nd42  1  0.37833228  0.74103463  0.95369039  1
  Nd3+  Nd43  1  -0.00127692  0.39656282  0.57068409  1
  Nd3+  Nd44  1  0.87303072  0.52003073  0.44093479  1
  Sm3+  Sm45  1  0.12976006  0.49456281  0.95388830  1
  Sm3+  Sm46  1  0.00131499  0.11465201  0.05061006  1
  Sm3+  Sm47  1  0.12948517  0.74158870  0.95224409  1
  Sm3+  Sm48  1  0.75082450  0.86751900  0.05131864  1
  Sm3+  Sm49  1  0.37664112  0.49557881  0.94885288  1
  Sm3+  Sm50  1  0.86834436  0.26555349  0.44537216  1
  Sm3+  Sm51  1  0.36856734  0.26763570  0.44025240  1
  Sm3+  Sm52  1  0.61445307  0.27387668  0.44834740  1
  Sm3+  Sm53  1  0.74376985  0.39439131  0.55153831  1
  Sm3+  Sm54  1  0.75299873  0.61722877  0.06110080  1
  Sm3+  Sm55  1  0.88074576  0.49546340  0.94311509  1
  Sm3+  Sm56  1  0.49176479  0.89543519  0.55139117  1
  Sm3+  Sm57  1  0.11810536  0.52179302  0.44865007  1
  Sm3+  Sm58  1  0.37924652  0.24435340  0.94374769  1
  Sm3+  Sm59  1  0.75135619  0.11663759  0.04331812  1
  Sm3+  Sm60  1  0.37985605  -0.00999310  0.94322918  1
  Sm3+  Sm61  1  0.25587128  0.86726869  0.06297802  1
  Sm3+  Sm62  1  0.75303490  0.36693024  0.04590417  1
  Sm3+  Sm63  1  0.25692897  0.39457256  0.55292665  1
  Bi2+  Bi64  1  -0.00718367  0.13962001  0.25345954  1
  Bi2+  Bi65  1  0.07326185  0.13117856  0.77851869  1
  Bi2+  Bi66  1  -0.03842382  0.29013594  0.32738569  1
  Bi2+  Bi67  1  0.03829327  0.42271935  0.78450932  1
  Bi2+  Bi68  1  -0.02216225  0.61112401  0.29274820  1
  Bi2+  Bi69  1  0.00660005  0.62058153  0.79111027  1
  Bi2+  Bi70  1  -0.01971152  0.87628281  0.29093512  1
  Bi2+  Bi71  1  0.01660094  0.87252200  0.80323846  1
  Bi2+  Bi72  1  0.18312048  0.11188009  0.27985772  1
  Bi2+  Bi73  1  0.27185432  0.10670369  0.77634241  1
  Bi2+  Bi74  1  0.23562423  0.29963523  0.29463765  1
  Bi2+  Bi75  1  0.22393162  0.34897163  0.78241887  1
  Bi2+  Bi76  1  0.22073430  0.59635199  0.28845287  1
  Bi2+  Bi77  1  0.26401332  0.59411975  0.80941950  1
  Bi2+  Bi78  1  0.22134560  0.87683029  0.28864145  1
  Bi2+  Bi79  1  0.25681726  0.84307676  0.78157301  1
  Bi2+  Bi80  1  0.44950294  0.12482398  0.27996518  1
  Bi2+  Bi81  1  0.52409617  0.12251356  0.78822647  1
  Bi2+  Bi82  1  0.50630786  0.31599185  0.29344414  1
  Bi2+  Bi83  1  0.48762710  0.38319043  0.79242204  1
  Bi2+  Bi84  1  0.56106858  0.62009858  0.27751160  1
  Bi2+  Bi85  1  0.48886232  0.59166494  0.79340323  1
  Bi2+  Bi86  1  0.50494697  0.87635878  0.30259880  1
  Bi2+  Bi87  1  0.46310861  0.85056090  0.80726888  1
  Bi2+  Bi88  1  0.73308074  0.15469132  0.29624471  1
  Bi2+  Bi89  1  0.81339111  0.10889726  0.78840402  1
  Bi2+  Bi90  1  0.78457614  0.34863280  0.28723741  1
  Bi2+  Bi91  1  0.75082304  0.47436476  0.79179496  1
  Bi2+  Bi92  1  0.75932877  0.63176391  0.28484176  1
  Bi2+  Bi93  1  0.67166015  0.64364249  0.82156769  1
  Bi2+  Bi94  1  0.75203791  0.92345785  0.28673376  1
  Bi2+  Bi95  1  0.74254188  0.87322595  0.76022799  1
  Bi2+  Bi96  1  0.10809161  0.00190171  0.18504187  1
  Bi2+  Bi97  1  0.13578852  -0.01960762  0.71377245  1
  Bi2+  Bi98  1  0.17406778  0.30687491  0.18766985  1
  Bi2+  Bi99  1  0.17140102  0.21338335  0.69241758  1
  Bi2+  Bi100  1  0.07729951  0.40968180  0.26803753  1
  Bi2+  Bi101  1  0.17641868  0.49949941  0.71057587  1
  Bi2+  Bi102  1  0.03757080  0.74292211  0.20597758  1
  Bi2+  Bi103  1  0.16405471  0.69773730  0.72032762  1
  Bi2+  Bi104  1  0.35310062  -0.02276939  0.19956018  1
  Bi2+  Bi105  1  0.38593453  0.00550658  0.70314592  1
  Bi2+  Bi106  1  0.37585644  0.26804248  0.20522102  1
  Bi2+  Bi107  1  0.35852881  0.26551624  0.71345222  1
  Bi2+  Bi108  1  0.38626242  0.47573433  0.22073610  1
  Bi2+  Bi109  1  0.37190170  0.54407108  0.69993424  1
  Bi2+  Bi110  1  0.35150156  0.73584631  0.23044212  1
  Bi2+  Bi111  1  0.36318712  0.74195469  0.70210914  1
  Bi2+  Bi112  1  0.62854424  0.00725960  0.20366895  1
  Bi2+  Bi113  1  0.61346687  0.00184111  0.71488085  1
  Bi2+  Bi114  1  0.57000925  0.21866766  0.19626650  1
  Bi2+  Bi115  1  0.68116456  0.26351345  0.70215473  1
  Bi2+  Bi116  1  0.63005625  0.40621032  0.21913428  1
  Bi2+  Bi117  1  0.64804947  0.55366271  0.70444583  1
  Bi2+  Bi118  1  0.63473864  0.74736880  0.20568804  1
  Bi2+  Bi119  1  0.57997292  0.74693802  0.73526412  1
  Bi2+  Bi120  1  0.82360518  0.06102776  0.21171495  1
  Bi2+  Bi121  1  0.91016378  -0.10187233  0.70463356  1
  Bi2+  Bi122  1  0.89032630  0.30095822  0.19611277  1
  Bi2+  Bi123  1  0.92154842  0.26524652  0.72664793  1
  Bi2+  Bi124  1  0.83100295  0.50049778  0.20861299  1
  Bi2+  Bi125  1  0.88029781  0.45874786  0.70802310  1
  Bi2+  Bi126  1  0.83662518  0.78025492  0.22413622  1
  Bi2+  Bi127  1  0.88637093  0.65806942  0.70287750  1
  S2-  S128  1  0.01727446  0.12950712  0.14669068  1
  S2-  S129  1  -0.00416262  0.01525745  0.64932019  1
  S2-  S130  1  0.02161237  0.39032918  0.15841864  1
  S2-  S131  1  0.02173689  0.27910099  0.64466592  1
  S2-  S132  1  -0.05964656  0.60546714  0.16295642  1
  S2-  S133  1  -0.01292506  0.52607887  0.64087780  1
  S2-  S134  1  -0.01097541  0.89973726  0.15727420  1
  S2-  S135  1  -0.01666994  0.77005816  0.64285774  1
  S2-  S136  1  0.26172562  0.09285743  0.15623588  1
  S2-  S137  1  0.38931431  0.14681370  0.64327027  1
  S2-  S138  1  0.26052959  0.45808164  0.15545277  1
  S2-  S139  1  0.33968675  0.40146642  0.63962355  1
  S2-  S140  1  0.18086920  0.65876696  0.19057847  1
  S2-  S141  1  0.24446889  0.76628054  0.63150109  1
  S2-  S142  1  0.23475265  0.87543871  0.16013846  1
  S2-  S143  1  0.24829154  0.99178988  0.63901884  1
  S2-  S144  1  0.49222358  0.02242989  0.14216441  1
  S2-  S145  1  0.61362489  0.13838804  0.64732541  1
  S2-  S146  1  0.51206061  0.45381177  0.14847308  1
  S2-  S147  1  0.53019529  0.32741754  0.69790448  1
  S2-  S148  1  0.40018113  0.62446098  0.16666042  1
  S2-  S149  1  0.51121866  0.57538005  0.63588730  1
  S2-  S150  1  0.45273584  0.82817101  0.18074601  1
  S2-  S151  1  0.50027411  0.91944730  0.64967993  1
  S2-  S152  1  0.71019178  0.12313885  0.13844477  1
  S2-  S153  1  0.82591525  0.17375119  0.66514384  1
  S2-  S154  1  0.75413008  0.37587319  0.14254234  1
  S2-  S155  1  0.69028364  0.40940062  0.64332244  1
  S2-  S156  1  0.66558575  0.61889192  0.14563912  1
  S2-  S157  1  0.74175522  0.67742899  0.65348903  1
  S2-  S158  1  0.66779436  0.87767312  0.13700355  1
  S2-  S159  1  0.74865681  0.92526706  0.65685540  1
  S2-  S160  1  0.10103775  -0.07980280  0.35694600  1
  S2-  S161  1  0.16547093  -0.05638959  0.84420810  1
  S2-  S162  1  0.11345765  0.15019980  0.36696445  1
  S2-  S163  1  0.16036454  0.23547966  0.84985522  1
  S2-  S164  1  0.10406152  0.52438517  0.35116831  1
  S2-  S165  1  0.13681405  0.51173521  0.85699770  1
  S2-  S166  1  0.21766945  0.74203000  0.34595922  1
  S2-  S167  1  0.05521145  0.73472934  0.86372155  1
  S2-  S168  1  0.35004443  -0.08230592  0.34637691  1
  S2-  S169  1  0.46442319  -0.00056898  0.85780573  1
  S2-  S170  1  0.36266468  0.16314281  0.36105015  1
  S2-  S171  1  0.45404443  0.24291796  0.85524491  1
  S2-  S172  1  0.34313612  0.50533492  0.32465020  1
  S2-  S173  1  0.37224167  0.47372836  0.85138833  1
  S2-  S174  1  0.43610177  0.71962119  0.32528352  1
  S2-  S175  1  0.33996091  0.73988217  0.85587577  1
  S2-  S176  1  0.54672486  0.01810372  0.34211279  1
  S2-  S177  1  0.73656329  0.00354491  0.84452906  1
  S2-  S178  1  0.61840873  0.22733931  0.35462979  1
  S2-  S179  1  0.66494800  0.19976097  0.80865619  1
  S2-  S180  1  0.60497566  0.49459178  0.33213729  1
  S2-  S181  1  0.61982833  0.39782169  0.84969359  1
  S2-  S182  1  0.64331335  0.81097489  0.34302535  1
  S2-  S183  1  0.60016023  0.83463511  0.86141396  1
  S2-  S184  1  0.86658263  -0.08293909  0.36349245  1
  S2-  S185  1  0.95749348  0.03124500  0.83054419  1
  S2-  S186  1  0.86219263  0.15180598  0.36990318  1
  S2-  S187  1  0.88074133  0.25015843  0.83138007  1
  S2-  S188  1  0.86085675  0.52228599  0.34269376  1
  S2-  S189  1  0.88559088  0.58009928  0.85844100  1
  S2-  S190  1  0.98211214  0.73695078  0.35635089  1
  S2-  S191  1  0.86149218  0.83885877  0.83863259  1
  S2-  S192  1  -0.00883968  0.14995534  0.47243655  1
  S2-  S193  1  0.00039414  0.11433291  0.94678387  1
  S2-  S194  1  -0.00468648  0.39423468  0.46063484  1
  S2-  S195  1  0.00313286  0.36979988  0.95145973  1
  S2-  S196  1  -0.00576015  0.64159150  0.46138228  1
  S2-  S197  1  0.00568544  0.61638475  0.96666596  1
  S2-  S198  1  -0.01026487  0.89952878  0.46379860  1
  S2-  S199  1  0.00067024  0.86786922  0.95410198  1
  S2-  S200  1  0.24578809  0.14845348  0.46510029  1
  S2-  S201  1  0.25663534  0.11590440  0.95145342  1
  S2-  S202  1  0.24291322  0.39401868  0.44714624  1
  S2-  S203  1  0.25441501  0.36817360  0.95929364  1
  S2-  S204  1  0.24243800  0.64243472  0.45098259  1
  S2-  S205  1  0.25105042  0.61752715  0.96216397  1
  S2-  S206  1  0.24206338  0.89769594  0.45336194  1
  S2-  S207  1  0.25278970  0.86753417  0.95860541  1
  S2-  S208  1  0.49513372  0.14878280  0.45923280  1
  S2-  S209  1  0.50043616  0.12077655  0.95665404  1
  S2-  S210  1  0.48974623  0.39403361  0.43617883  1
  S2-  S211  1  0.50052537  0.37045282  0.95689560  1
  S2-  S212  1  0.49232529  0.64334201  0.44063265  1
  S2-  S213  1  0.50134056  0.61645752  0.94890663  1
  S2-  S214  1  0.49356675  0.89666662  0.44767148  1
  S2-  S215  1  0.49715930  0.86656651  0.96714029  1
  S2-  S216  1  0.73772643  0.15145554  0.46674962  1
  S2-  S217  1  0.74545025  0.12383400  0.94134370  1
  S2-  S218  1  0.74511614  0.39312266  0.44635427  1
  S2-  S219  1  0.75630201  0.37074683  0.94315594  1
  S2-  S220  1  0.74454316  0.64545858  0.44577998  1
  S2-  S221  1  0.75579423  0.61819741  0.95709148  1
  S2-  S222  1  0.73861471  0.89797896  0.45583546  1
  S2-  S223  1  0.75933308  0.85918586  0.95049295  1
  S2-  S224  1  0.12936034  -0.00753574  0.04294458  1
  S2-  S225  1  0.11755696  0.02402124  0.54651161  1
  S2-  S226  1  0.12844996  0.24038232  0.04827817  1
  S2-  S227  1  0.13052370  0.27454452  0.54577631  1
  S2-  S228  1  0.12880433  0.49546726  0.05696922  1
  S2-  S229  1  0.13012479  0.51861847  0.55101500  1
  S2-  S230  1  0.13159331  0.74195377  0.05669897  1
  S2-  S231  1  0.11714088  0.76785232  0.53579776  1
  S2-  S232  1  0.37756008  -0.00833568  0.04546150  1
  S2-  S233  1  0.37331613  0.01716686  0.53683164  1
  S2-  S234  1  0.38164856  0.24170561  0.04951104  1
  S2-  S235  1  0.38035439  0.27599067  0.54188565  1
  S2-  S236  1  0.38156962  0.49690981  0.05092015  1
  S2-  S237  1  0.36920387  0.52192785  0.53240543  1
  S2-  S238  1  0.37796887  0.74131018  0.05913718  1
  S2-  S239  1  0.37345732  0.77062822  0.53123253  1
  S2-  S240  1  0.63056200  -0.00609449  0.03247662  1
  S2-  S241  1  0.61795261  0.01648180  0.54150226  1
  S2-  S242  1  0.63019507  0.24591077  0.04026849  1
  S2-  S243  1  0.61208480  0.28006004  0.55005566  1
  S2-  S244  1  0.63119546  0.49204471  0.03856548  1
  S2-  S245  1  0.61620216  0.51417787  0.53473465  1
  S2-  S246  1  0.62655702  0.73867333  0.04467866  1
  S2-  S247  1  0.61551698  0.77020132  0.54421940  1
  S2-  S248  1  0.87425519  -0.00610678  0.04425024  1
  S2-  S249  1  0.86401159  0.02285919  0.54979061  1
  S2-  S250  1  0.87749409  0.24026395  0.03951494  1
  S2-  S251  1  0.86783371  0.27467584  0.54910969  1
  S2-  S252  1  0.87707307  0.49249430  0.04696480  1
  S2-  S253  1  0.86706715  0.51728555  0.54488738  1
  S2-  S254  1  0.87339057  0.74315287  0.05698469  1
  S2-  S255  1  0.86456090  0.76855962  0.53995578  1
