# generated using pymatgen
data_La6Ce7Pr13Nd19Sm19(BiS2)64
_symmetry_space_group_name_H-M   'P 1'
_cell_length_a   16.04687257
_cell_length_b   16.07893391
_cell_length_c   27.47664860
_cell_angle_alpha   89.79559837
_cell_angle_beta   90.03918034
_cell_angle_gamma   89.99970909
_symmetry_Int_Tables_number   1
_chemical_formula_structural   La6Ce7Pr13Nd19Sm19(BiS2)64
_chemical_formula_sum   'La6 Ce7 Pr13 Nd19 Sm19 Bi64 S128'
_cell_volume   7089.38477867
_cell_formula_units_Z   1
loop_
 _symmetry_equiv_pos_site_id
 _symmetry_equiv_pos_as_xyz
  1  'x, y, z'
loop_
 _atom_type_symbol
 _atom_type_oxidation_number
  La3+  3.0
  Ce3+  3.0
  Pr3+  3.0
  Nd3+  3.0
  Sm3+  3.0
  Bi2+  2.0
  S2-  -2.0
loop_
 _atom_site_type_symbol
 _atom_site_label
 _atom_site_symmetry_multiplicity
 _atom_site_fract_x
 _atom_site_fract_y
 _atom_site_fract_z
 _atom_site_occupancy
  La3+  La0  1  0.24681238  0.63005336  0.11045989  1
  La3+  La1  1  0.12533114  0.75971012  0.89990041  1
  La3+  La2  1  0.73276171  0.13066406  0.09327094  1
  La3+  La3  1  0.24197903  0.36912386  0.07359180  1
  La3+  La4  1  0.89806343  -0.00856419  0.39004915  1
  La3+  La5  1  0.63058867  0.49217436  0.91285286  1
  Ce3+  Ce6  1  0.75135866  0.62196831  0.06001683  1
  Ce3+  Ce7  1  0.38100388  0.49372736  0.43787157  1
  Ce3+  Ce8  1  0.49273447  0.61898734  0.05426171  1
  Ce3+  Ce9  1  -0.00455223  0.12114622  0.05989442  1
  Ce3+  Ce10  1  0.50812231  0.87000498  0.55448885  1
  Ce3+  Ce11  1  0.88274555  0.49019660  0.44233062  1
  Ce3+  Ce12  1  0.88276262  0.74686347  0.43767337  1
  Pr3+  Pr13  1  0.37997410  0.74532581  0.43662741  1
  Pr3+  Pr14  1  0.00477520  0.62150414  0.56710888  1
  Pr3+  Pr15  1  0.38140031  0.24544284  0.44173742  1
  Pr3+  Pr16  1  0.12982195  0.74542085  0.44322578  1
  Pr3+  Pr17  1  0.00347040  0.11880569  0.56722936  1
  Pr3+  Pr18  1  0.00256690  0.36651064  0.56914303  1
  Pr3+  Pr19  1  0.50014162  0.37139589  0.05005711  1
  Pr3+  Pr20  1  0.26069933  0.61789267  0.56665011  1
  Pr3+  Pr21  1  0.49406052  0.39729640  0.61713202  1
  Pr3+  Pr22  1  0.75604023  0.87186968  0.55583690  1
  Pr3+  Pr23  1  0.26134107  0.12115982  0.56931959  1
  Pr3+  Pr24  1  0.51349915  0.12503925  0.57903597  1
  Pr3+  Pr25  1  -0.00055856  0.86638327  0.06095858  1
  Nd3+  Nd26  1  0.37073973  0.74607612  0.93451768  1
  Nd3+  Nd27  1  0.86927158  -0.00220004  0.94877298  1
  Nd3+  Nd28  1  0.74616127  0.86598432  0.07005015  1
  Nd3+  Nd29  1  0.63681579  -0.00363276  0.43274145  1
  Nd3+  Nd30  1  0.75469243  0.61919958  0.55477903  1
  Nd3+  Nd31  1  0.63192711  0.24538181  0.43922122  1
  Nd3+  Nd32  1  0.12106380  0.24679399  0.93356560  1
  Nd3+  Nd33  1  0.36787990  0.24672520  0.93116121  1
  Nd3+  Nd34  1  0.86444382  0.76099390  0.92556430  1
  Nd3+  Nd35  1  0.36558037  0.49900981  0.94021021  1
  Nd3+  Nd36  1  0.12906011  0.24397202  0.44967490  1
  Nd3+  Nd37  1  0.24645394  0.12079191  0.06535558  1
  Nd3+  Nd38  1  0.62158418  0.74507148  0.93938705  1
  Nd3+  Nd39  1  0.38124415  -0.00250709  0.44856221  1
  Nd3+  Nd40  1  0.63367051  0.74589400  0.43613610  1
  Nd3+  Nd41  1  0.62316230  0.23411931  0.91573347  1
  Nd3+  Nd42  1  0.87938438  0.51151188  0.92783226  1
  Nd3+  Nd43  1  0.36907486  -0.00433401  0.94590680  1
  Nd3+  Nd44  1  0.49672838  0.12541447  0.05558969  1
  Sm3+  Sm45  1  0.13122422  0.49488044  0.45319644  1
  Sm3+  Sm46  1  0.12903527  -0.00142859  0.44637678  1
  Sm3+  Sm47  1  0.87058866  0.24808284  0.94681795  1
  Sm3+  Sm48  1  0.50694901  0.62136455  0.55252049  1
  Sm3+  Sm49  1  0.25800788  0.86906005  0.55867333  1
  Sm3+  Sm50  1  0.74764420  0.37531982  0.05259683  1
  Sm3+  Sm51  1  -0.00110751  0.37270810  0.05607904  1
  Sm3+  Sm52  1  0.62349841  -0.00115475  0.94509676  1
  Sm3+  Sm53  1  0.24749002  0.86616747  0.05758043  1
  Sm3+  Sm54  1  0.12413113  0.50212735  0.94254411  1
  Sm3+  Sm55  1  0.00576735  0.87333805  0.55805316  1
  Sm3+  Sm56  1  0.74774832  0.36928804  0.56206912  1
  Sm3+  Sm57  1  0.87983633  0.24820107  0.43533319  1
  Sm3+  Sm58  1  0.00327621  0.62326204  0.05250460  1
  Sm3+  Sm59  1  0.75545310  0.11943244  0.55514358  1
  Sm3+  Sm60  1  0.49652630  0.86912273  0.05593896  1
  Sm3+  Sm61  1  0.62970119  0.49392508  0.43957986  1
  Sm3+  Sm62  1  0.12125691  -0.00321810  0.94317748  1
  Sm3+  Sm63  1  0.26154978  0.36921837  0.56074026  1
  Bi2+  Bi64  1  -0.01512799  0.22498201  0.27107989  1
  Bi2+  Bi65  1  0.01891336  0.14661303  0.81890678  1
  Bi2+  Bi66  1  0.00679475  0.41539045  0.29788852  1
  Bi2+  Bi67  1  -0.03334345  0.33610619  0.81754562  1
  Bi2+  Bi68  1  -0.04592508  0.60855469  0.28435096  1
  Bi2+  Bi69  1  -0.00317479  0.58891345  0.77856792  1
  Bi2+  Bi70  1  0.07970824  0.87821978  0.28721516  1
  Bi2+  Bi71  1  -0.10360765  0.86982975  0.76704796  1
  Bi2+  Bi72  1  0.23673263  0.11786504  0.29613080  1
  Bi2+  Bi73  1  0.20241726  0.08461350  0.80787691  1
  Bi2+  Bi74  1  0.26543391  0.36707733  0.31697763  1
  Bi2+  Bi75  1  0.24354823  0.34970078  0.78341925  1
  Bi2+  Bi76  1  0.24011920  0.62539427  0.32277373  1
  Bi2+  Bi77  1  0.23657502  0.61445859  0.80257255  1
  Bi2+  Bi78  1  0.27505891  0.90955578  0.28830655  1
  Bi2+  Bi79  1  0.32790412  0.88896196  0.77915565  1
  Bi2+  Bi80  1  0.42120520  0.15486063  0.25554723  1
  Bi2+  Bi81  1  0.48861096  0.07965674  0.79383722  1
  Bi2+  Bi82  1  0.56834717  0.39182360  0.29246256  1
  Bi2+  Bi83  1  0.47724277  0.38043215  0.81642549  1
  Bi2+  Bi84  1  0.50104137  0.66355150  0.29815487  1
  Bi2+  Bi85  1  0.48209607  0.68692359  0.77973954  1
  Bi2+  Bi86  1  0.46474100  0.93728354  0.25114167  1
  Bi2+  Bi87  1  0.52114330  0.87030467  0.81620220  1
  Bi2+  Bi88  1  0.75886794  0.13507478  0.29004050  1
  Bi2+  Bi89  1  0.82446298  0.12524491  0.77632249  1
  Bi2+  Bi90  1  0.76513524  0.38365531  0.28353407  1
  Bi2+  Bi91  1  0.75865949  0.30239616  0.71995491  1
  Bi2+  Bi92  1  0.75962548  0.58451239  0.28610764  1
  Bi2+  Bi93  1  0.74750353  0.64386688  0.79976432  1
  Bi2+  Bi94  1  0.74107272  0.86568129  0.29622602  1
  Bi2+  Bi95  1  0.71516822  0.94026971  0.81113067  1
  Bi2+  Bi96  1  0.13237164  0.01976179  0.21003547  1
  Bi2+  Bi97  1  0.06065433  -0.01659507  0.75695967  1
  Bi2+  Bi98  1  0.14743141  0.24353707  0.21322031  1
  Bi2+  Bi99  1  0.06921601  0.27306496  0.72359730  1
  Bi2+  Bi100  1  0.13593868  0.48617167  0.20942964  1
  Bi2+  Bi101  1  0.13358978  0.46035902  0.72144772  1
  Bi2+  Bi102  1  0.10993251  0.74633249  0.20909389  1
  Bi2+  Bi103  1  0.11985366  0.74799916  0.69614350  1
  Bi2+  Bi104  1  0.32232177  0.03076728  0.18620030  1
  Bi2+  Bi105  1  0.34570907  0.03943051  0.70002133  1
  Bi2+  Bi106  1  0.35217860  0.32497395  0.21504893  1
  Bi2+  Bi107  1  0.34973066  0.23567412  0.71651140  1
  Bi2+  Bi108  1  0.51275728  0.53130099  0.21288114  1
  Bi2+  Bi109  1  0.37039045  0.52521364  0.71228205  1
  Bi2+  Bi110  1  0.39557439  0.77316963  0.20172557  1
  Bi2+  Bi111  1  0.36157082  0.76592681  0.69841742  1
  Bi2+  Bi112  1  0.62654104  0.02622709  0.21819446  1
  Bi2+  Bi113  1  0.53610211  -0.01160915  0.68944873  1
  Bi2+  Bi114  1  0.59620604  0.27138891  0.20410269  1
  Bi2+  Bi115  1  0.62421975  0.15998701  0.72819217  1
  Bi2+  Bi116  1  0.69703338  0.51223482  0.17509762  1
  Bi2+  Bi117  1  0.63159114  0.53145225  0.70882578  1
  Bi2+  Bi118  1  0.63414253  0.69238625  0.21349525  1
  Bi2+  Bi119  1  0.62497038  0.81168675  0.72502756  1
  Bi2+  Bi120  1  0.88738944  -0.00734950  0.18998212  1
  Bi2+  Bi121  1  0.84922746  0.00489999  0.68747347  1
  Bi2+  Bi122  1  0.90653807  0.36000360  0.20052982  1
  Bi2+  Bi123  1  0.90326602  0.19888278  0.67266619  1
  Bi2+  Bi124  1  0.89153451  0.55490343  0.17572221  1
  Bi2+  Bi125  1  0.85166596  0.45965968  0.75757688  1
  Bi2+  Bi126  1  0.86406815  0.74080179  0.21729663  1
  Bi2+  Bi127  1  0.86242623  0.72898391  0.68765509  1
  S2-  S128  1  0.01189942  0.10683923  0.15621358  1
  S2-  S129  1  0.01311519  0.04439261  0.65907404  1
  S2-  S130  1  0.07741641  0.36281442  0.14335185  1
  S2-  S131  1  0.00439014  0.41068795  0.66506839  1
  S2-  S132  1  0.07356037  0.61551803  0.14485288  1
  S2-  S133  1  -0.00037451  0.62858261  0.66727869  1
  S2-  S134  1  -0.02210797  0.84244172  0.16022277  1
  S2-  S135  1  -0.00069766  0.82535935  0.65135390  1
  S2-  S136  1  0.26377675  0.23104805  0.14098935  1
  S2-  S137  1  0.22628716  0.15326595  0.66534157  1
  S2-  S138  1  0.26744051  0.46919420  0.15558171  1
  S2-  S139  1  0.31942302  0.40267314  0.65008283  1
  S2-  S140  1  0.23500501  0.62952349  0.22665855  1
  S2-  S141  1  0.24474345  0.63071132  0.66570207  1
  S2-  S142  1  0.24374597  0.80078705  0.14920934  1
  S2-  S143  1  0.22963046  0.86439279  0.65453535  1
  S2-  S144  1  0.57440699  0.12615221  0.14457630  1
  S2-  S145  1  0.48409147  0.23393436  0.65771683  1
  S2-  S146  1  0.47384408  0.34941008  0.14905030  1
  S2-  S147  1  0.50139869  0.41930306  0.72288472  1
  S2-  S148  1  0.41980917  0.63461349  0.14357511  1
  S2-  S149  1  0.50196844  0.57575995  0.64676212  1
  S2-  S150  1  0.50552198  0.86448762  0.15352064  1
  S2-  S151  1  0.50131759  0.81477486  0.64646374  1
  S2-  S152  1  0.79806123  0.13062794  0.19051255  1
  S2-  S153  1  0.66146375  0.09888587  0.63799814  1
  S2-  S154  1  0.70968943  0.29921151  0.13696019  1
  S2-  S155  1  0.66646899  0.39356771  0.64713910  1
  S2-  S156  1  0.75174793  0.73253501  0.13775817  1
  S2-  S157  1  0.75487361  0.61034963  0.65392450  1
  S2-  S158  1  0.72786305  0.94974071  0.15727093  1
  S2-  S159  1  0.75040279  0.85846207  0.65569960  1
  S2-  S160  1  0.06609963  -0.00022586  0.35635266  1
  S2-  S161  1  0.12034274  -0.06882777  0.85306889  1
  S2-  S162  1  0.15403715  0.24331062  0.35229534  1
  S2-  S163  1  0.23965675  0.24083634  0.85917914  1
  S2-  S164  1  0.14254409  0.48914442  0.35577821  1
  S2-  S165  1  0.11412188  0.51399950  0.84400385  1
  S2-  S166  1  0.10805860  0.72789882  0.34531082  1
  S2-  S167  1  0.09836721  0.72301769  0.79952652  1
  S2-  S168  1  0.35415639  0.01643146  0.35272772  1
  S2-  S169  1  0.34697993  0.02458672  0.84995687  1
  S2-  S170  1  0.38949900  0.27023146  0.34225444  1
  S2-  S171  1  0.47116837  0.22637044  0.85064545  1
  S2-  S172  1  0.36697292  0.50541347  0.34114658  1
  S2-  S173  1  0.34889266  0.50092278  0.84006658  1
  S2-  S174  1  0.36628818  0.74797328  0.33741187  1
  S2-  S175  1  0.28529924  0.76085805  0.84780032  1
  S2-  S176  1  0.65863606  0.00923122  0.33462512  1
  S2-  S177  1  0.64275565  0.07870973  0.85844024  1
  S2-  S178  1  0.65776754  0.25497077  0.34074365  1
  S2-  S179  1  0.62820988  0.35637267  0.84471183  1
  S2-  S180  1  0.61242787  0.53306744  0.34431743  1
  S2-  S181  1  0.58686182  0.58310439  0.82499529  1
  S2-  S182  1  0.61669617  0.77605201  0.34010906  1
  S2-  S183  1  0.71746474  0.76885697  0.85844650  1
  S2-  S184  1  0.86199398  -0.00727725  0.28473722  1
  S2-  S185  1  0.87167090  -0.08935077  0.86304966  1
  S2-  S186  1  0.89451914  0.15945480  0.35201353  1
  S2-  S187  1  0.82889614  0.24312840  0.85226669  1
  S2-  S188  1  0.87689971  0.38258386  0.36602337  1
  S2-  S189  1  0.77875064  0.49193350  0.84765345  1
  S2-  S190  1  0.87316372  0.82184804  0.35090709  1
  S2-  S191  1  0.90102849  0.65200416  0.85008342  1
  S2-  S192  1  0.00421146  0.12103107  0.46025978  1
  S2-  S193  1  -0.00370371  0.12079904  0.95403126  1
  S2-  S194  1  0.00929564  0.37022557  0.46292957  1
  S2-  S195  1  -0.00250335  0.37413638  0.95138536  1
  S2-  S196  1  0.00554955  0.61741268  0.45872015  1
  S2-  S197  1  0.00766293  0.63148282  0.95006760  1
  S2-  S198  1  0.00521816  0.87362264  0.45513378  1
  S2-  S199  1  0.00189794  0.87046709  0.95567641  1
  S2-  S200  1  0.25480742  0.11987937  0.46173915  1
  S2-  S201  1  0.24405239  0.11858682  0.96054855  1
  S2-  S202  1  0.25453872  0.37035585  0.45831827  1
  S2-  S203  1  0.24182274  0.37426105  0.95597277  1
  S2-  S204  1  0.25522428  0.61896444  0.45941676  1
  S2-  S205  1  0.24234942  0.62642648  0.94222303  1
  S2-  S206  1  0.25416480  0.87320423  0.45332914  1
  S2-  S207  1  0.24389619  0.87128751  0.95483394  1
  S2-  S208  1  0.50825886  0.11929327  0.44965539  1
  S2-  S209  1  0.49442900  0.11787126  0.95321106  1
  S2-  S210  1  0.50848063  0.37126397  0.44397042  1
  S2-  S211  1  0.49457780  0.37482722  0.94573266  1
  S2-  S212  1  0.50731635  0.62141700  0.44913206  1
  S2-  S213  1  0.49590201  0.62113050  0.94696995  1
  S2-  S214  1  0.50681356  0.87186018  0.44726030  1
  S2-  S215  1  0.49733521  0.87371336  0.95163638  1
  S2-  S216  1  0.75913139  0.12085875  0.45171889  1
  S2-  S217  1  0.75008293  0.12255840  0.96000524  1
  S2-  S218  1  0.75130462  0.37185900  0.45899172  1
  S2-  S219  1  0.75466640  0.37363469  0.95180137  1
  S2-  S220  1  0.75701840  0.61802864  0.44839386  1
  S2-  S221  1  0.74861024  0.62364653  0.95394712  1
  S2-  S222  1  0.75875741  0.87305787  0.45037552  1
  S2-  S223  1  0.74154549  0.87629419  0.96486582  1
  S2-  S224  1  0.12504160  -0.00597040  0.04972564  1
  S2-  S225  1  0.13417452  -0.00611217  0.55073378  1
  S2-  S226  1  0.11819128  0.24316043  0.03940893  1
  S2-  S227  1  0.13303280  0.24657404  0.55598503  1
  S2-  S228  1  0.12150025  0.49707687  0.04404275  1
  S2-  S229  1  0.13268661  0.49215194  0.55755978  1
  S2-  S230  1  0.12703069  0.74467107  0.04870567  1
  S2-  S231  1  0.13263567  0.74570000  0.54943216  1
  S2-  S232  1  0.37259053  -0.00567832  0.05047941  1
  S2-  S233  1  0.38452301  -0.00481038  0.55422397  1
  S2-  S234  1  0.37219875  0.24646120  0.03770457  1
  S2-  S235  1  0.38398896  0.24646917  0.54807600  1
  S2-  S236  1  0.36935732  0.49558500  0.04406952  1
  S2-  S237  1  0.38602498  0.49393874  0.54441956  1
  S2-  S238  1  0.37174091  0.74789112  0.03960969  1
  S2-  S239  1  0.38065197  0.74459313  0.54343680  1
  S2-  S240  1  0.61871697  -0.00430606  0.04751627  1
  S2-  S241  1  0.62956562  -0.00454086  0.53813204  1
  S2-  S242  1  0.62143609  0.24557270  0.03170707  1
  S2-  S243  1  0.63336249  0.24414912  0.54409959  1
  S2-  S244  1  0.62404241  0.49777054  0.03993412  1
  S2-  S245  1  0.62762407  0.49687739  0.54274260  1
  S2-  S246  1  0.61652969  0.74500037  0.04406312  1
  S2-  S247  1  0.63153450  0.74307734  0.54273088  1
  S2-  S248  1  0.87003559  -0.00383539  0.05353853  1
  S2-  S249  1  0.88016055  -0.00472291  0.55136469  1
  S2-  S250  1  0.87293031  0.24897732  0.05134112  1
  S2-  S251  1  0.87479213  0.24780899  0.54283693  1
  S2-  S252  1  0.87724440  0.49687598  0.03889696  1
  S2-  S253  1  0.87777669  0.49231480  0.55086035  1
  S2-  S254  1  0.87638165  0.74380095  0.03823512  1
  S2-  S255  1  0.88181927  0.74587309  0.54393716  1
