# generated using pymatgen
data_La6Ce7Pr13Nd19Sm19(BiS2)64
_symmetry_space_group_name_H-M   'P 1'
_cell_length_a   16.02864017
_cell_length_b   16.08463430
_cell_length_c   27.33358406
_cell_angle_alpha   89.55029208
_cell_angle_beta   89.93537320
_cell_angle_gamma   90.06875212
_symmetry_Int_Tables_number   1
_chemical_formula_structural   La6Ce7Pr13Nd19Sm19(BiS2)64
_chemical_formula_sum   'La6 Ce7 Pr13 Nd19 Sm19 Bi64 S128'
_cell_volume   7046.77623783
_cell_formula_units_Z   1
loop_
 _symmetry_equiv_pos_site_id
 _symmetry_equiv_pos_as_xyz
  1  'x, y, z'
loop_
 _atom_type_symbol
 _atom_type_oxidation_number
  La3+  3.0
  Ce3+  3.0
  Pr3+  3.0
  Nd3+  3.0
  Sm3+  3.0
  Bi2+  2.0
  S2-  -2.0
loop_
 _atom_site_type_symbol
 _atom_site_label
 _atom_site_symmetry_multiplicity
 _atom_site_fract_x
 _atom_site_fract_y
 _atom_site_fract_z
 _atom_site_occupancy
  La3+  La0  1  0.76467836  0.61518323  0.09279244  1
  La3+  La1  1  -0.00416742  0.62210630  0.60822468  1
  La3+  La2  1  0.24141074  0.12273023  0.59253834  1
  La3+  La3  1  0.74112801  0.61616228  0.56855335  1
  La3+  La4  1  0.62475014  0.74267603  0.41101002  1
  La3+  La5  1  0.26802937  0.62030355  0.08123952  1
  Ce3+  Ce6  1  0.87219143  -0.00070204  0.44373806  1
  Ce3+  Ce7  1  -0.00289653  0.12552866  0.56280031  1
  Ce3+  Ce8  1  0.86625242  0.74772648  0.44349679  1
  Ce3+  Ce9  1  0.26168275  0.37121726  0.06352083  1
  Ce3+  Ce10  1  0.74542503  0.37624291  0.55281215  1
  Ce3+  Ce11  1  0.88670846  0.25339611  0.92954797  1
  Ce3+  Ce12  1  0.76401924  0.12518586  0.06467435  1
  Pr3+  Pr13  1  0.12905996  0.50340233  0.43538713  1
  Pr3+  Pr14  1  0.12535000  0.00087496  0.44663013  1
  Pr3+  Pr15  1  0.13887939  0.25187674  0.92536797  1
  Pr3+  Pr16  1  0.74663747  0.87036607  0.56305787  1
  Pr3+  Pr17  1  0.51309065  0.87311310  0.07157389  1
  Pr3+  Pr18  1  0.37117262  0.00207082  0.43954672  1
  Pr3+  Pr19  1  0.24903916  0.62502374  0.56747208  1
  Pr3+  Pr20  1  0.62548995  0.00731017  0.42446279  1
  Pr3+  Pr21  1  0.87499099  0.50044444  0.43189286  1
  Pr3+  Pr22  1  0.25862692  0.87503881  0.05663305  1
  Pr3+  Pr23  1  0.36355001  0.25041806  0.41440637  1
  Pr3+  Pr24  1  0.77031516  0.87633281  0.07652474  1
  Pr3+  Pr25  1  0.13847930  0.50585986  0.93959566  1
  Nd3+  Nd26  1  -0.00790172  0.87137308  0.57218348  1
  Nd3+  Nd27  1  0.38740291  0.50224926  0.94251135  1
  Nd3+  Nd28  1  0.88490317  0.00011372  0.93350124  1
  Nd3+  Nd29  1  0.63766823  0.00017235  0.94704018  1
  Nd3+  Nd30  1  0.01461000  0.62772743  0.06653174  1
  Nd3+  Nd31  1  0.87604530  0.75175035  0.93026341  1
  Nd3+  Nd32  1  0.74203633  0.12376445  0.56261314  1
  Nd3+  Nd33  1  0.24935246  0.12682204  0.06996130  1
  Nd3+  Nd34  1  0.51241207  0.12688260  0.06257067  1
  Nd3+  Nd35  1  0.88197777  0.50657940  0.93701967  1
  Nd3+  Nd36  1  0.49225254  0.36950215  0.55775645  1
  Nd3+  Nd37  1  0.14250535  0.00076348  0.92786141  1
  Nd3+  Nd38  1  0.63935885  0.25239604  0.93009808  1
  Nd3+  Nd39  1  0.14451416  0.74769862  0.92869011  1
  Nd3+  Nd40  1  0.51282975  0.36835112  0.06034222  1
  Nd3+  Nd41  1  0.38573214  0.24903528  0.92843158  1
  Nd3+  Nd42  1  0.01085249  0.12560742  0.04907038  1
  Nd3+  Nd43  1  0.24286236  0.87223232  0.57728447  1
  Nd3+  Nd44  1  0.76505280  0.37116938  0.06500865  1
  Sm3+  Sm45  1  0.12541734  0.25020921  0.44714967  1
  Sm3+  Sm46  1  0.37311543  0.50337488  0.44642926  1
  Sm3+  Sm47  1  0.87258571  0.25131060  0.44631505  1
  Sm3+  Sm48  1  0.63841120  0.75219885  0.95419815  1
  Sm3+  Sm49  1  0.63959054  0.50339348  0.95176699  1
  Sm3+  Sm50  1  0.24525697  0.37593733  0.56110939  1
  Sm3+  Sm51  1  0.11838061  0.74954217  0.45444148  1
  Sm3+  Sm52  1  0.38835414  0.00366868  0.95003704  1
  Sm3+  Sm53  1  0.01280931  0.37617621  0.05142884  1
  Sm3+  Sm54  1  0.49852874  0.62912436  0.55285489  1
  Sm3+  Sm55  1  -0.00378557  0.38018805  0.55749863  1
  Sm3+  Sm56  1  0.61808928  0.49886532  0.43432532  1
  Sm3+  Sm57  1  0.51267166  0.62300281  0.06065796  1
  Sm3+  Sm58  1  0.01088692  0.87228548  0.04823780  1
  Sm3+  Sm59  1  0.49253305  0.12311097  0.55331618  1
  Sm3+  Sm60  1  0.35411804  0.75919796  0.41862825  1
  Sm3+  Sm61  1  0.38914139  0.75131112  0.94174698  1
  Sm3+  Sm62  1  0.50291939  0.87236898  0.55002349  1
  Sm3+  Sm63  1  0.62004316  0.25058120  0.43837847  1
  Bi2+  Bi64  1  0.02319143  0.11392343  0.28767254  1
  Bi2+  Bi65  1  -0.06158424  0.15644251  0.77904036  1
  Bi2+  Bi66  1  -0.02240512  0.30282736  0.26879708  1
  Bi2+  Bi67  1  0.00726800  0.37125174  0.77783535  1
  Bi2+  Bi68  1  -0.00123401  0.60852528  0.28738027  1
  Bi2+  Bi69  1  0.02344956  0.63056600  0.80568313  1
  Bi2+  Bi70  1  -0.08145359  0.89097852  0.29328001  1
  Bi2+  Bi71  1  0.02202512  0.92053540  0.79360033  1
  Bi2+  Bi72  1  0.21894779  0.12375894  0.30359995  1
  Bi2+  Bi73  1  0.27172756  0.12124745  0.79195791  1
  Bi2+  Bi74  1  0.21030105  0.35062469  0.27185435  1
  Bi2+  Bi75  1  0.34001888  0.35839678  0.77457932  1
  Bi2+  Bi76  1  0.19669430  0.58928037  0.30918327  1
  Bi2+  Bi77  1  0.29160900  0.59061068  0.79504367  1
  Bi2+  Bi78  1  0.20211280  0.86386675  0.29316290  1
  Bi2+  Bi79  1  0.28593330  0.84975639  0.79415797  1
  Bi2+  Bi80  1  0.44573748  0.13053561  0.25903925  1
  Bi2+  Bi81  1  0.52137647  0.11028638  0.79140077  1
  Bi2+  Bi82  1  0.50757600  0.30008705  0.31428827  1
  Bi2+  Bi83  1  0.53644530  0.37423960  0.78925349  1
  Bi2+  Bi84  1  0.48210621  0.49529414  0.30796434  1
  Bi2+  Bi85  1  0.50226526  0.63915671  0.78199109  1
  Bi2+  Bi86  1  0.45160558  0.87340310  0.29021447  1
  Bi2+  Bi87  1  0.47835681  0.82004260  0.82282592  1
  Bi2+  Bi88  1  0.72193565  0.16079401  0.26372716  1
  Bi2+  Bi89  1  0.72833949  0.13681743  0.79095434  1
  Bi2+  Bi90  1  0.77053878  0.34882766  0.28949673  1
  Bi2+  Bi91  1  0.73439826  0.35724299  0.76966753  1
  Bi2+  Bi92  1  0.74302090  0.61839607  0.28520921  1
  Bi2+  Bi93  1  0.76311945  0.60857798  0.81045451  1
  Bi2+  Bi94  1  0.71322897  0.88982883  0.30005932  1
  Bi2+  Bi95  1  0.66932204  0.86307464  0.79070778  1
  Bi2+  Bi96  1  0.09912121  -0.02262104  0.19552252  1
  Bi2+  Bi97  1  0.13531527  -0.01480893  0.70850071  1
  Bi2+  Bi98  1  0.11884545  0.26247263  0.18972135  1
  Bi2+  Bi99  1  0.14432467  0.25628774  0.70815337  1
  Bi2+  Bi100  1  0.13178369  0.52145480  0.20272505  1
  Bi2+  Bi101  1  0.12988416  0.47359623  0.71580603  1
  Bi2+  Bi102  1  0.04996793  0.77891386  0.23386033  1
  Bi2+  Bi103  1  0.23320855  0.74329048  0.70442501  1
  Bi2+  Bi104  1  0.28711664  0.05100967  0.20826663  1
  Bi2+  Bi105  1  0.42480790  -0.05220352  0.73604243  1
  Bi2+  Bi106  1  0.37601120  0.30171170  0.22237663  1
  Bi2+  Bi107  1  0.46070332  0.24130383  0.71182356  1
  Bi2+  Bi108  1  0.37552129  0.53740418  0.21725298  1
  Bi2+  Bi109  1  0.38076582  0.60323318  0.69198384  1
  Bi2+  Bi110  1  0.30875907  0.71505185  0.24641004  1
  Bi2+  Bi111  1  0.41065543  0.79305774  0.66379181  1
  Bi2+  Bi112  1  0.61744427  -0.02704167  0.19242517  1
  Bi2+  Bi113  1  0.61446006  -0.00297386  0.70160583  1
  Bi2+  Bi114  1  0.65228119  0.24033515  0.16316266  1
  Bi2+  Bi115  1  0.70617127  0.22600597  0.68705494  1
  Bi2+  Bi116  1  0.61476319  0.40230925  0.22828429  1
  Bi2+  Bi117  1  0.60286715  0.49499132  0.70325789  1
  Bi2+  Bi118  1  0.56609054  0.72653133  0.20614752  1
  Bi2+  Bi119  1  0.61529461  0.74601538  0.70872963  1
  Bi2+  Bi120  1  0.87523022  0.05065110  0.22150043  1
  Bi2+  Bi121  1  0.86906007  -0.00356485  0.73404806  1
  Bi2+  Bi122  1  0.84532345  0.23869601  0.17968647  1
  Bi2+  Bi123  1  0.89668963  0.28265618  0.69578854  1
  Bi2+  Bi124  1  0.90867113  0.49708559  0.20845279  1
  Bi2+  Bi125  1  0.85572809  0.49838217  0.71010980  1
  Bi2+  Bi126  1  0.85602928  0.76899301  0.20926118  1
  Bi2+  Bi127  1  0.86587232  0.76622729  0.72234006  1
  S2-  S128  1  0.09876556  0.11901835  0.13448223  1
  S2-  S129  1  0.07721061  0.12343948  0.65013103  1
  S2-  S130  1  0.02683724  0.40401571  0.14862907  1
  S2-  S131  1  -0.00958532  0.45670392  0.64593720  1
  S2-  S132  1  -0.09190734  0.64028225  0.14856622  1
  S2-  S133  1  0.00181558  0.68077107  0.71186576  1
  S2-  S134  1  -0.02376765  0.87596447  0.14463079  1
  S2-  S135  1  0.10717506  0.85808836  0.65141687  1
  S2-  S136  1  0.27438315  0.25273991  0.13765971  1
  S2-  S137  1  0.28606958  0.18293728  0.68916239  1
  S2-  S138  1  0.26628602  0.47608610  0.14446715  1
  S2-  S139  1  0.23476651  0.38588292  0.66002399  1
  S2-  S140  1  0.13326629  0.65470094  0.14340896  1
  S2-  S141  1  0.15971875  0.60427450  0.65298243  1
  S2-  S142  1  0.24314569  0.91292699  0.15411401  1
  S2-  S143  1  0.27314893  0.98414401  0.65301940  1
  S2-  S144  1  0.51696758  0.10181112  0.16167725  1
  S2-  S145  1  0.51427997  0.10805253  0.65020549  1
  S2-  S146  1  0.49100144  0.39134589  0.15861864  1
  S2-  S147  1  0.49562700  0.38940074  0.65630050  1
  S2-  S148  1  0.42834149  0.64504258  0.14529049  1
  S2-  S149  1  0.59879196  0.62781143  0.63434786  1
  S2-  S150  1  0.48627038  0.87901969  0.17186522  1
  S2-  S151  1  0.61377084  0.87158785  0.63071658  1
  S2-  S152  1  0.76897837  0.01677084  0.14274107  1
  S2-  S153  1  0.76374397  0.06524729  0.65576814  1
  S2-  S154  1  0.78600706  0.45664828  0.15025946  1
  S2-  S155  1  0.73808694  0.45400283  0.63889503  1
  S2-  S156  1  0.66752562  0.61457666  0.18376898  1
  S2-  S157  1  0.83426040  0.63763735  0.65589637  1
  S2-  S158  1  0.70260033  0.82361866  0.16787150  1
  S2-  S159  1  0.86467049  0.86439130  0.64521955  1
  S2-  S160  1  0.11091677  -0.00805491  0.34628949  1
  S2-  S161  1  0.13341863  0.05133252  0.83217961  1
  S2-  S162  1  0.20887383  0.26972824  0.36123805  1
  S2-  S163  1  0.00928500  0.26042769  0.85369134  1
  S2-  S164  1  0.06398902  0.48003003  0.34252376  1
  S2-  S165  1  0.15580941  0.51797264  0.83909349  1
  S2-  S166  1  0.19242911  0.74529164  0.36601445  1
  S2-  S167  1  0.09666337  0.78064885  0.83271637  1
  S2-  S168  1  0.33673325  -0.09616595  0.35819627  1
  S2-  S169  1  0.36225640  0.04298874  0.85535186  1
  S2-  S170  1  0.37086839  0.11091365  0.35335005  1
  S2-  S171  1  0.26550405  0.26248985  0.85160635  1
  S2-  S172  1  0.32214633  0.48713629  0.35406192  1
  S2-  S173  1  0.39429726  0.46346313  0.84525803  1
  S2-  S174  1  0.40784855  0.71434516  0.32709393  1
  S2-  S175  1  0.28806200  0.72023423  0.86403373  1
  S2-  S176  1  0.57567720  -0.02731677  0.32911148  1
  S2-  S177  1  0.63709502  0.00990587  0.84788692  1
  S2-  S178  1  0.62951256  0.17632621  0.35144507  1
  S2-  S179  1  0.51521802  0.24259055  0.85802195  1
  S2-  S180  1  0.61986213  0.58736906  0.35032485  1
  S2-  S181  1  0.66639496  0.50694000  0.85530571  1
  S2-  S182  1  0.59468801  0.77571709  0.30579162  1
  S2-  S183  1  0.71151635  0.74810756  0.86610494  1
  S2-  S184  1  0.82172995  0.00416242  0.35143396  1
  S2-  S185  1  0.87281004  -0.05063716  0.83897151  1
  S2-  S186  1  0.87906435  0.25683706  0.34908510  1
  S2-  S187  1  0.76664934  0.26479898  0.85808159  1
  S2-  S188  1  0.82079497  0.50298068  0.33449955  1
  S2-  S189  1  0.90386187  0.50581980  0.83712955  1
  S2-  S190  1  0.78763553  0.73922846  0.35574011  1
  S2-  S191  1  0.89754897  0.72381059  0.82996216  1
  S2-  S192  1  -0.00223475  0.12902115  0.45447396  1
  S2-  S193  1  0.01256498  0.12087984  0.94490934  1
  S2-  S194  1  0.00025508  0.37277864  0.45270190  1
  S2-  S195  1  0.01055318  0.38343711  0.94861820  1
  S2-  S196  1  -0.00187986  0.62804659  0.44121482  1
  S2-  S197  1  0.01010447  0.63106358  0.95035099  1
  S2-  S198  1  -0.00367503  0.87356340  0.45767377  1
  S2-  S199  1  0.01185819  0.87513807  0.94384106  1
  S2-  S200  1  0.24705322  0.12883051  0.46241309  1
  S2-  S201  1  0.26056500  0.12400504  0.95922665  1
  S2-  S202  1  0.25120810  0.37493909  0.45943819  1
  S2-  S203  1  0.26325658  0.37870502  0.95452448  1
  S2-  S204  1  0.25159558  0.62752004  0.46075716  1
  S2-  S205  1  0.26696313  0.62443309  0.96658199  1
  S2-  S206  1  0.24225647  0.87298330  0.46910833  1
  S2-  S207  1  0.26668286  0.87822058  0.95044800  1
  S2-  S208  1  0.49517817  0.13106154  0.45111792  1
  S2-  S209  1  0.51285398  0.12332611  0.95716654  1
  S2-  S210  1  0.49074078  0.37147380  0.45083697  1
  S2-  S211  1  0.51516960  0.37925883  0.95437286  1
  S2-  S212  1  0.49156437  0.62772463  0.44917693  1
  S2-  S213  1  0.51380166  0.62830724  0.95461108  1
  S2-  S214  1  0.49737545  0.87122863  0.44606601  1
  S2-  S215  1  0.51131026  0.87613749  0.96250442  1
  S2-  S216  1  0.74883468  0.13005124  0.45586063  1
  S2-  S217  1  0.76232947  0.12378823  0.95543044  1
  S2-  S218  1  0.74427003  0.37444937  0.44647977  1
  S2-  S219  1  0.76171492  0.38050851  0.95888446  1
  S2-  S220  1  0.74449526  0.61625506  0.45635219  1
  S2-  S221  1  0.76013263  0.62648490  0.96617113  1
  S2-  S222  1  0.74458664  0.87715886  0.45417650  1
  S2-  S223  1  0.76164633  0.87737827  0.96334655  1
  S2-  S224  1  0.13379095  -0.00278735  0.03517810  1
  S2-  S225  1  0.11826301  -0.00171972  0.55091925  1
  S2-  S226  1  0.13306085  0.25283060  0.03345995  1
  S2-  S227  1  0.12127216  0.25433483  0.55076272  1
  S2-  S228  1  0.13488183  0.50016796  0.04429592  1
  S2-  S229  1  0.12240764  0.49882321  0.54278015  1
  S2-  S230  1  0.13502029  0.75341631  0.03665748  1
  S2-  S231  1  0.11279579  0.74043050  0.55467622  1
  S2-  S232  1  0.38513363  0.00308538  0.05413920  1
  S2-  S233  1  0.37622428  -0.00397656  0.54669147  1
  S2-  S234  1  0.38917429  0.24669133  0.03781121  1
  S2-  S235  1  0.36608447  0.24609722  0.55875648  1
  S2-  S236  1  0.39388898  0.49670472  0.04625049  1
  S2-  S237  1  0.37339894  0.49992888  0.55136407  1
  S2-  S238  1  0.38738038  0.75251608  0.04521565  1
  S2-  S239  1  0.37313946  0.75146507  0.54463403  1
  S2-  S240  1  0.63556176  -0.00147835  0.05129816  1
  S2-  S241  1  0.62000145  0.00436591  0.53424347  1
  S2-  S242  1  0.63982938  0.24852397  0.03829732  1
  S2-  S243  1  0.61914392  0.24863261  0.54457586  1
  S2-  S244  1  0.63449459  0.49809341  0.05633796  1
  S2-  S245  1  0.61209867  0.49458046  0.53657541  1
  S2-  S246  1  0.63815136  0.74549290  0.05698376  1
  S2-  S247  1  0.62152955  0.74740599  0.53016385  1
  S2-  S248  1  0.89036393  -0.00008167  0.04029238  1
  S2-  S249  1  0.87189097  0.00241245  0.54777107  1
  S2-  S250  1  0.88922675  0.25165831  0.03969771  1
  S2-  S251  1  0.87190679  0.25149442  0.55099914  1
  S2-  S252  1  0.89047384  0.50009100  0.04364373  1
  S2-  S253  1  0.87477530  0.49899077  0.53933844  1
  S2-  S254  1  0.88629276  0.75124589  0.04170663  1
  S2-  S255  1  0.87562707  0.74046444  0.54672872  1
