# generated using pymatgen
data_La6Ce7Pr13Nd19Sm19(BiS2)64
_symmetry_space_group_name_H-M   'P 1'
_cell_length_a   16.03090998
_cell_length_b   16.02459893
_cell_length_c   27.43123219
_cell_angle_alpha   89.96124173
_cell_angle_beta   89.96631678
_cell_angle_gamma   90.21459825
_symmetry_Int_Tables_number   1
_chemical_formula_structural   La6Ce7Pr13Nd19Sm19(BiS2)64
_chemical_formula_sum   'La6 Ce7 Pr13 Nd19 Sm19 Bi64 S128'
_cell_volume   7046.72687758
_cell_formula_units_Z   1
loop_
 _symmetry_equiv_pos_site_id
 _symmetry_equiv_pos_as_xyz
  1  'x, y, z'
loop_
 _atom_type_symbol
 _atom_type_oxidation_number
  La3+  3.0
  Ce3+  3.0
  Pr3+  3.0
  Nd3+  3.0
  Sm3+  3.0
  Bi2+  2.0
  S2-  -2.0
loop_
 _atom_site_type_symbol
 _atom_site_label
 _atom_site_symmetry_multiplicity
 _atom_site_fract_x
 _atom_site_fract_y
 _atom_site_fract_z
 _atom_site_occupancy
  La3+  La0  1  0.85950932  0.50982068  0.90419962  1
  La3+  La1  1  0.23250545  0.63120246  0.11416131  1
  La3+  La2  1  0.87458979  0.01459038  0.42834817  1
  La3+  La3  1  0.74846063  0.88866362  0.60800213  1
  La3+  La4  1  0.12252894  0.52052253  0.41724872  1
  La3+  La5  1  0.47320084  0.12298463  0.09233526  1
  Ce3+  Ce6  1  -0.00378134  0.38760530  0.56155398  1
  Ce3+  Ce7  1  0.00006489  0.88908934  0.56840761  1
  Ce3+  Ce8  1  0.73103656  0.86787731  0.06334112  1
  Ce3+  Ce9  1  0.61094070  0.74555751  0.93783556  1
  Ce3+  Ce10  1  0.76391491  0.63614882  0.57784422  1
  Ce3+  Ce11  1  0.74773826  0.13287882  0.56112618  1
  Ce3+  Ce12  1  0.50554032  0.64019945  0.56624093  1
  Pr3+  Pr13  1  0.23541681  0.37494042  0.06233687  1
  Pr3+  Pr14  1  0.87296893  0.51902730  0.43548894  1
  Pr3+  Pr15  1  0.87422687  0.26590388  0.43540310  1
  Pr3+  Pr16  1  0.35774115  0.24754009  0.93349528  1
  Pr3+  Pr17  1  0.10775162  0.24783946  0.94074754  1
  Pr3+  Pr18  1  0.35976728  -0.00824146  0.89898259  1
  Pr3+  Pr19  1  0.35558908  0.74061534  0.93338890  1
  Pr3+  Pr20  1  0.25315790  0.89100722  0.55953733  1
  Pr3+  Pr21  1  0.85584374  0.24419668  0.93144186  1
  Pr3+  Pr22  1  0.75196961  0.38870276  0.57175812  1
  Pr3+  Pr23  1  0.60487969  -0.00309451  0.94113769  1
  Pr3+  Pr24  1  0.26132901  0.63708397  0.56553048  1
  Pr3+  Pr25  1  -0.00318244  0.13577320  0.56217888  1
  Nd3+  Nd26  1  0.37462442  0.25635768  0.42413201  1
  Nd3+  Nd27  1  0.62998957  0.76825017  0.45658078  1
  Nd3+  Nd28  1  -0.02237538  0.61785359  0.06704003  1
  Nd3+  Nd29  1  0.38441813  0.01244197  0.43236180  1
  Nd3+  Nd30  1  0.85795469  -0.00728042  0.93805017  1
  Nd3+  Nd31  1  0.48026653  0.86982207  0.05453351  1
  Nd3+  Nd32  1  0.62825271  0.51697424  0.43965608  1
  Nd3+  Nd33  1  0.11195025  -0.00676057  0.93004910  1
  Nd3+  Nd34  1  0.01394424  0.62794088  0.57568323  1
  Nd3+  Nd35  1  0.73259981  0.36668100  0.05184289  1
  Nd3+  Nd36  1  0.23573329  0.86917066  0.05666873  1
  Nd3+  Nd37  1  0.37624508  0.51322118  0.44176928  1
  Nd3+  Nd38  1  0.38174142  0.76457588  0.44008614  1
  Nd3+  Nd39  1  0.73457418  0.61791513  0.06294815  1
  Nd3+  Nd40  1  0.49582415  0.89923581  0.58447485  1
  Nd3+  Nd41  1  0.50025223  0.14259630  0.56312509  1
  Nd3+  Nd42  1  -0.01661763  0.11955609  0.05582706  1
  Nd3+  Nd43  1  0.12229749  0.01315492  0.43740471  1
  Nd3+  Nd44  1  0.62312256  0.26390719  0.43046533  1
  Sm3+  Sm45  1  0.25039279  0.38907574  0.54836380  1
  Sm3+  Sm46  1  0.73202717  0.11759785  0.06001581  1
  Sm3+  Sm47  1  0.12423751  0.26416518  0.44496864  1
  Sm3+  Sm48  1  0.87469079  0.76354547  0.45736406  1
  Sm3+  Sm49  1  0.62913457  0.01128605  0.43922797  1
  Sm3+  Sm50  1  0.50284924  0.38360921  0.55798174  1
  Sm3+  Sm51  1  -0.01621421  0.86792493  0.05469499  1
  Sm3+  Sm52  1  0.60531289  0.24307499  0.93961095  1
  Sm3+  Sm53  1  -0.02026055  0.37036595  0.05236633  1
  Sm3+  Sm54  1  0.61385134  0.49709581  0.93526126  1
  Sm3+  Sm55  1  0.10836329  0.74054620  0.94614361  1
  Sm3+  Sm56  1  0.25197782  0.14039429  0.55451928  1
  Sm3+  Sm57  1  0.85165018  0.75384592  0.92802046  1
  Sm3+  Sm58  1  0.35881857  0.49857279  0.93896341  1
  Sm3+  Sm59  1  0.48139401  0.61867011  0.05892444  1
  Sm3+  Sm60  1  0.48431370  0.36726683  0.05704914  1
  Sm3+  Sm61  1  0.23478682  0.11846784  0.05309347  1
  Sm3+  Sm62  1  0.12515437  0.76054250  0.44631455  1
  Sm3+  Sm63  1  0.10696751  0.49954906  0.94657405  1
  Bi2+  Bi64  1  -0.01462752  0.09403467  0.28067011  1
  Bi2+  Bi65  1  0.03574857  0.10349649  0.81084103  1
  Bi2+  Bi66  1  -0.06831058  0.34815832  0.30458228  1
  Bi2+  Bi67  1  0.02736516  0.36112924  0.80087146  1
  Bi2+  Bi68  1  -0.01849720  0.64268471  0.29932542  1
  Bi2+  Bi69  1  0.03457182  0.61935926  0.80603307  1
  Bi2+  Bi70  1  0.08171864  0.88048247  0.29161668  1
  Bi2+  Bi71  1  0.00410047  0.91588328  0.79685387  1
  Bi2+  Bi72  1  0.22667037  0.12700045  0.28104417  1
  Bi2+  Bi73  1  0.15193644  0.11477955  0.71734352  1
  Bi2+  Bi74  1  0.34417482  0.37425612  0.29260519  1
  Bi2+  Bi75  1  0.30898981  0.38329638  0.81387654  1
  Bi2+  Bi76  1  0.28082926  0.63067897  0.31528888  1
  Bi2+  Bi77  1  0.28055239  0.61216807  0.77186135  1
  Bi2+  Bi78  1  0.26004816  0.89939024  0.24126847  1
  Bi2+  Bi79  1  0.22165066  0.87541453  0.79027128  1
  Bi2+  Bi80  1  0.49737418  0.14286242  0.30369237  1
  Bi2+  Bi81  1  0.51659528  0.20844348  0.78473222  1
  Bi2+  Bi82  1  0.56432082  0.39479004  0.24848445  1
  Bi2+  Bi83  1  0.49867536  0.43775607  0.82709238  1
  Bi2+  Bi84  1  0.54145107  0.58783674  0.28526643  1
  Bi2+  Bi85  1  0.50066360  0.63819640  0.80414839  1
  Bi2+  Bi86  1  0.51250221  0.85333983  0.30428749  1
  Bi2+  Bi87  1  0.49528613  0.87824539  0.78183762  1
  Bi2+  Bi88  1  0.75936978  0.09948917  0.28753437  1
  Bi2+  Bi89  1  0.78457850  0.12243262  0.79889634  1
  Bi2+  Bi90  1  0.74317044  0.38033031  0.29649237  1
  Bi2+  Bi91  1  0.64735807  0.35602108  0.76337401  1
  Bi2+  Bi92  1  0.74453229  0.58331812  0.26834692  1
  Bi2+  Bi93  1  0.68515638  0.62384865  0.77783598  1
  Bi2+  Bi94  1  0.76299852  0.83093003  0.30875903  1
  Bi2+  Bi95  1  0.73229740  0.87478893  0.78872628  1
  Bi2+  Bi96  1  0.12216397  0.02258389  0.20429327  1
  Bi2+  Bi97  1  0.11483413  -0.06692279  0.68413008  1
  Bi2+  Bi98  1  0.09266719  0.27404314  0.25688327  1
  Bi2+  Bi99  1  0.17870482  0.31174873  0.72876684  1
  Bi2+  Bi100  1  0.13682420  0.49942611  0.22789094  1
  Bi2+  Bi101  1  0.15700512  0.50336277  0.70736058  1
  Bi2+  Bi102  1  0.09364753  0.75710517  0.20316382  1
  Bi2+  Bi103  1  0.12103632  0.74973093  0.71859038  1
  Bi2+  Bi104  1  0.40836848  0.01136640  0.20942814  1
  Bi2+  Bi105  1  0.37549930  0.02771845  0.70881776  1
  Bi2+  Bi106  1  0.35452746  0.23378961  0.21576076  1
  Bi2+  Bi107  1  0.38622864  0.27779947  0.70536595  1
  Bi2+  Bi108  1  0.40193014  0.47343130  0.20035770  1
  Bi2+  Bi109  1  0.40440145  0.47822556  0.72207726  1
  Bi2+  Bi110  1  0.48273644  0.73654212  0.21306244  1
  Bi2+  Bi111  1  0.34616071  0.76294113  0.71122582  1
  Bi2+  Bi112  1  0.64055949  -0.04664315  0.23669895  1
  Bi2+  Bi113  1  0.63000715  0.07953136  0.72383354  1
  Bi2+  Bi114  1  0.64334453  0.23757624  0.18992234  1
  Bi2+  Bi115  1  0.70672911  0.23940021  0.67762438  1
  Bi2+  Bi116  1  0.61314857  0.56291932  0.17561092  1
  Bi2+  Bi117  1  0.58452770  0.47619789  0.68224618  1
  Bi2+  Bi118  1  0.67143210  0.75709678  0.18023818  1
  Bi2+  Bi119  1  0.55232031  0.69753725  0.69809286  1
  Bi2+  Bi120  1  0.90154049  -0.08550675  0.23752129  1
  Bi2+  Bi121  1  0.90421191  0.03523011  0.72262030  1
  Bi2+  Bi122  1  0.89882343  0.24032034  0.19393727  1
  Bi2+  Bi123  1  0.88721144  0.24434232  0.72102606  1
  Bi2+  Bi124  1  0.86512209  0.45615220  0.20496307  1
  Bi2+  Bi125  1  0.89270104  0.49959918  0.70138342  1
  Bi2+  Bi126  1  0.86284850  0.72211886  0.21381168  1
  Bi2+  Bi127  1  0.90882110  0.77042091  0.72532235  1
  S2-  S128  1  0.00736031  0.13213894  0.15299172  1
  S2-  S129  1  0.00712201  0.15817495  0.66170085  1
  S2-  S130  1  -0.01412493  0.37562926  0.15053116  1
  S2-  S131  1  0.02962894  0.48250181  0.64158891  1
  S2-  S132  1  0.06894019  0.60647862  0.15398073  1
  S2-  S133  1  -0.09761754  0.64685477  0.65369511  1
  S2-  S134  1  -0.01821573  0.86421731  0.15202922  1
  S2-  S135  1  -0.08495947  0.90152213  0.65413709  1
  S2-  S136  1  0.30994670  0.12036224  0.14182563  1
  S2-  S137  1  0.29045626  0.14308592  0.64924929  1
  S2-  S138  1  0.23995611  0.45407104  0.15193440  1
  S2-  S139  1  0.25732230  0.39640793  0.64574578  1
  S2-  S140  1  0.23256962  0.63495322  0.22449185  1
  S2-  S141  1  0.15306463  0.64160440  0.64430817  1
  S2-  S142  1  0.23431493  0.80641010  0.14929447  1
  S2-  S143  1  0.34508583  0.89602587  0.64574334  1
  S2-  S144  1  0.56134523  0.08176316  0.17860983  1
  S2-  S145  1  0.50023171  0.04839148  0.64906757  1
  S2-  S146  1  0.48654669  0.28247852  0.14301181  1
  S2-  S147  1  0.49346294  0.27380029  0.63430488  1
  S2-  S148  1  0.40102852  0.62232922  0.14549121  1
  S2-  S149  1  0.39132766  0.64526608  0.64041822  1
  S2-  S150  1  0.46297934  0.87911992  0.15392013  1
  S2-  S151  1  0.57490188  0.85755606  0.67194129  1
  S2-  S152  1  0.77156188  0.14390404  0.15446343  1
  S2-  S153  1  0.74460333  0.05008559  0.65001544  1
  S2-  S154  1  0.74056892  0.36398956  0.15112444  1
  S2-  S155  1  0.88114067  0.35813817  0.64280244  1
  S2-  S156  1  0.84982282  0.60392106  0.13903948  1
  S2-  S157  1  0.74188565  0.51602272  0.64845046  1
  S2-  S158  1  0.73548662  0.91809041  0.15578544  1
  S2-  S159  1  0.75597979  0.78593393  0.69622197  1
  S2-  S160  1  0.01167858  -0.00876975  0.36090853  1
  S2-  S161  1  0.20910035  0.00863882  0.84745872  1
  S2-  S162  1  0.13149306  0.22742400  0.35017330  1
  S2-  S163  1  0.13414737  0.23342939  0.84316093  1
  S2-  S164  1  0.19809212  0.47282435  0.32429260  1
  S2-  S165  1  0.11899194  0.48988543  0.84781509  1
  S2-  S166  1  0.12712907  0.67836098  0.35895685  1
  S2-  S167  1  0.12952064  0.74665375  0.84853653  1
  S2-  S168  1  0.35234663  0.12221644  0.35469589  1
  S2-  S169  1  0.43374301  0.02472323  0.80463907  1
  S2-  S170  1  0.47716329  0.30032569  0.34728798  1
  S2-  S171  1  0.36173752  0.22469240  0.83386532  1
  S2-  S172  1  0.41814511  0.53783384  0.34720089  1
  S2-  S173  1  0.35010094  0.61027771  0.86179100  1
  S2-  S174  1  0.36298839  0.78255768  0.34218752  1
  S2-  S175  1  0.37112492  0.83839286  0.84696803  1
  S2-  S176  1  0.51539025  -0.00376528  0.36107694  1
  S2-  S177  1  0.62125378  -0.05389354  0.84374596  1
  S2-  S178  1  0.64978079  0.18126914  0.34262766  1
  S2-  S179  1  0.66030591  0.21413286  0.84901260  1
  S2-  S180  1  0.74125928  0.51999533  0.36356109  1
  S2-  S181  1  0.70530262  0.51063455  0.85136374  1
  S2-  S182  1  0.62801459  0.75412638  0.35583372  1
  S2-  S183  1  0.69955301  0.74388901  0.85286384  1
  S2-  S184  1  0.74241215  -0.01339705  0.35980387  1
  S2-  S185  1  0.85772397  -0.10897224  0.85718453  1
  S2-  S186  1  0.87903556  0.16406784  0.35263536  1
  S2-  S187  1  0.89262836  0.25364546  0.83389166  1
  S2-  S188  1  0.97767187  0.50555091  0.35249956  1
  S2-  S189  1  0.90658005  0.46788296  0.80413389  1
  S2-  S190  1  0.87999198  0.73551891  0.35920039  1
  S2-  S191  1  0.89889469  0.66044664  0.85110640  1
  S2-  S192  1  0.00290072  0.14031137  0.45707316  1
  S2-  S193  1  -0.01599345  0.11766961  0.95001604  1
  S2-  S194  1  0.00325318  0.38705322  0.45451930  1
  S2-  S195  1  -0.02090914  0.37454960  0.94668864  1
  S2-  S196  1  0.00131184  0.64066995  0.46474625  1
  S2-  S197  1  -0.01733070  0.62065854  0.95860003  1
  S2-  S198  1  0.00293925  0.88300738  0.46216488  1
  S2-  S199  1  -0.01248568  0.86884976  0.95201567  1
  S2-  S200  1  0.24556294  0.13629223  0.45299328  1
  S2-  S201  1  0.23517764  0.11943135  0.95108833  1
  S2-  S202  1  0.25182100  0.38567595  0.44349002  1
  S2-  S203  1  0.23327504  0.37481223  0.95489836  1
  S2-  S204  1  0.25574435  0.64071397  0.45789596  1
  S2-  S205  1  0.22975729  0.61688038  0.95711587  1
  S2-  S206  1  0.24965124  0.88903510  0.44987997  1
  S2-  S207  1  0.23267053  0.86969216  0.95163908  1
  S2-  S208  1  0.50392892  0.14087805  0.45614599  1
  S2-  S209  1  0.47938326  0.11898154  0.93753480  1
  S2-  S210  1  0.50260518  0.39083659  0.45463416  1
  S2-  S211  1  0.48659955  0.37139762  0.95294162  1
  S2-  S212  1  0.50325630  0.63888092  0.45829523  1
  S2-  S213  1  0.48947586  0.61754614  0.95468993  1
  S2-  S214  1  0.50280280  0.88792588  0.46515562  1
  S2-  S215  1  0.48184542  0.87011340  0.94997565  1
  S2-  S216  1  0.74751646  0.14049932  0.45682922  1
  S2-  S217  1  0.73416215  0.11830095  0.95488688  1
  S2-  S218  1  0.74901778  0.38691574  0.45832135  1
  S2-  S219  1  0.73195018  0.36819527  0.94643882  1
  S2-  S220  1  0.75051113  0.64069024  0.46850145  1
  S2-  S221  1  0.73704750  0.62236877  0.95761161  1
  S2-  S222  1  0.75473340  0.88720341  0.46181451  1
  S2-  S223  1  0.73038284  0.87320089  0.95928892  1
  S2-  S224  1  0.10921457  -0.00564946  0.04210902  1
  S2-  S225  1  0.12737081  0.01580954  0.54467251  1
  S2-  S226  1  0.11015816  0.24601755  0.04759979  1
  S2-  S227  1  0.12638601  0.26336176  0.55012023  1
  S2-  S228  1  0.10411023  0.49239332  0.04851221  1
  S2-  S229  1  0.13371457  0.51118286  0.53406885  1
  S2-  S230  1  0.10686492  0.74361436  0.04958605  1
  S2-  S231  1  0.12867977  0.76515923  0.54904692  1
  S2-  S232  1  0.35908743  -0.00331861  0.04603802  1
  S2-  S233  1  0.37425671  0.01889956  0.53880099  1
  S2-  S234  1  0.35774605  0.24600541  0.04039854  1
  S2-  S235  1  0.37171231  0.26496110  0.53307531  1
  S2-  S236  1  0.36540900  0.49114868  0.04184978  1
  S2-  S237  1  0.38158661  0.50642749  0.54604245  1
  S2-  S238  1  0.35821513  0.74233170  0.04232948  1
  S2-  S239  1  0.38157926  0.76900324  0.54471160  1
  S2-  S240  1  0.60293699  0.00039008  0.04887057  1
  S2-  S241  1  0.62455657  0.00913952  0.54667311  1
  S2-  S242  1  0.60579698  0.23784795  0.04274951  1
  S2-  S243  1  0.62952682  0.26475927  0.53900965  1
  S2-  S244  1  0.60735711  0.49249437  0.04166514  1
  S2-  S245  1  0.62340976  0.51208961  0.54429097  1
  S2-  S246  1  0.60608361  0.74233870  0.04593670  1
  S2-  S247  1  0.63320616  0.76425769  0.56172371  1
  S2-  S248  1  0.85939050  -0.00521334  0.04530540  1
  S2-  S249  1  0.87448791  0.01082041  0.54572639  1
  S2-  S250  1  0.85770970  0.24199866  0.03953593  1
  S2-  S251  1  0.87237431  0.25788591  0.54100863  1
  S2-  S252  1  0.85647971  0.48838908  0.03925135  1
  S2-  S253  1  0.87756186  0.51293557  0.54275523  1
  S2-  S254  1  0.85737710  0.74905781  0.04182590  1
  S2-  S255  1  0.87477271  0.76872341  0.55830722  1
