# generated using pymatgen
data_La6Ce7Pr13Nd19Sm19(BiS2)64
_symmetry_space_group_name_H-M   'P 1'
_cell_length_a   16.04683341
_cell_length_b   16.07124046
_cell_length_c   27.33056220
_cell_angle_alpha   90.18651451
_cell_angle_beta   90.43414256
_cell_angle_gamma   90.00318355
_symmetry_Int_Tables_number   1
_chemical_formula_structural   La6Ce7Pr13Nd19Sm19(BiS2)64
_chemical_formula_sum   'La6 Ce7 Pr13 Nd19 Sm19 Bi64 S128'
_cell_volume   7048.10781022
_cell_formula_units_Z   1
loop_
 _symmetry_equiv_pos_site_id
 _symmetry_equiv_pos_as_xyz
  1  'x, y, z'
loop_
 _atom_type_symbol
 _atom_type_oxidation_number
  La3+  3.0
  Ce3+  3.0
  Pr3+  3.0
  Nd3+  3.0
  Sm3+  3.0
  Bi2+  2.0
  S2-  -2.0
loop_
 _atom_site_type_symbol
 _atom_site_label
 _atom_site_symmetry_multiplicity
 _atom_site_fract_x
 _atom_site_fract_y
 _atom_site_fract_z
 _atom_site_occupancy
  La3+  La0  1  0.51851769  0.38424727  0.08388066  1
  La3+  La1  1  0.75703882  0.89208083  0.06760575  1
  La3+  La2  1  0.24028389  0.60486607  0.59184956  1
  La3+  La3  1  0.62543182  0.26277606  0.90327340  1
  La3+  La4  1  0.51370672  0.13009323  0.06657057  1
  La3+  La5  1  0.01514883  0.13089770  0.08412407  1
  Ce3+  Ce6  1  0.74369522  0.36096113  0.54894232  1
  Ce3+  Ce7  1  0.26246960  0.63171421  0.06190713  1
  Ce3+  Ce8  1  0.26135730  0.88185662  0.05285653  1
  Ce3+  Ce9  1  0.26445941  0.38429879  0.05846707  1
  Ce3+  Ce10  1  0.49857172  0.86471767  0.56157747  1
  Ce3+  Ce11  1  -0.01193787  0.35785660  0.55537034  1
  Ce3+  Ce12  1  0.11245019  0.23650997  0.43561338  1
  Pr3+  Pr13  1  0.76454359  0.64233792  0.07616417  1
  Pr3+  Pr14  1  0.36411597  0.73365935  0.45392626  1
  Pr3+  Pr15  1  0.63776568  0.00154884  0.90872194  1
  Pr3+  Pr16  1  0.00956741  0.38339943  0.07057371  1
  Pr3+  Pr17  1  0.24679409  0.35719210  0.56645757  1
  Pr3+  Pr18  1  0.86442135  -0.01957628  0.43391477  1
  Pr3+  Pr19  1  0.36380885  0.48543479  0.43886827  1
  Pr3+  Pr20  1  0.86487555  0.73530235  0.43154732  1
  Pr3+  Pr21  1  0.11868527  -0.01632335  0.43395702  1
  Pr3+  Pr22  1  0.60917461  0.48565950  0.42189090  1
  Pr3+  Pr23  1  0.88215660  0.50480217  0.94535435  1
  Pr3+  Pr24  1  0.75009106  0.11639755  0.59623375  1
  Pr3+  Pr25  1  0.51391695  0.88162532  0.05626408  1
  Nd3+  Nd26  1  0.24475003  0.86061824  0.56851193  1
  Nd3+  Nd27  1  0.86717810  0.22796122  0.42324111  1
  Nd3+  Nd28  1  0.61867329  -0.01302046  0.44217610  1
  Nd3+  Nd29  1  0.13338511  0.25626669  0.94648893  1
  Nd3+  Nd30  1  0.63603301  0.50637458  0.94249035  1
  Nd3+  Nd31  1  0.38891782  0.25789666  0.94379475  1
  Nd3+  Nd32  1  -0.00966431  0.60732609  0.56245185  1
  Nd3+  Nd33  1  0.13377859  0.50597271  0.94349125  1
  Nd3+  Nd34  1  0.50202719  0.60751866  0.56650224  1
  Nd3+  Nd35  1  0.38633129  0.75500973  0.94055598  1
  Nd3+  Nd36  1  0.74164468  0.86221387  0.57164480  1
  Nd3+  Nd37  1  0.76142468  0.38011965  0.06781310  1
  Nd3+  Nd38  1  0.61072088  0.73872575  0.43265631  1
  Nd3+  Nd39  1  0.35890300  0.22636387  0.42251551  1
  Nd3+  Nd40  1  0.51541166  0.63085775  0.07468014  1
  Nd3+  Nd41  1  0.89367236  0.01545171  0.92604228  1
  Nd3+  Nd42  1  0.13720062  0.01325974  0.93602780  1
  Nd3+  Nd43  1  -0.00166034  0.86437473  0.56288521  1
  Nd3+  Nd44  1  0.26508807  0.13041843  0.06874422  1
  Sm3+  Sm45  1  0.61770761  0.23572760  0.43792716  1
  Sm3+  Sm46  1  0.86787326  0.48987862  0.42724300  1
  Sm3+  Sm47  1  0.88394959  0.76028270  0.93901762  1
  Sm3+  Sm48  1  0.39048329  0.50580835  0.94306921  1
  Sm3+  Sm49  1  0.00980062  0.88364355  0.05244719  1
  Sm3+  Sm50  1  0.63846385  0.76014557  0.93747925  1
  Sm3+  Sm51  1  0.49762141  0.35787428  0.55292927  1
  Sm3+  Sm52  1  0.49690081  0.11376067  0.55502372  1
  Sm3+  Sm53  1  -0.01161212  0.10942610  0.55626413  1
  Sm3+  Sm54  1  0.13764371  0.75597694  0.94096579  1
  Sm3+  Sm55  1  0.76205342  0.12916386  0.04933751  1
  Sm3+  Sm56  1  0.74027825  0.61227117  0.54897575  1
  Sm3+  Sm57  1  0.12116608  0.48492204  0.44246729  1
  Sm3+  Sm58  1  0.01030110  0.63367158  0.05407840  1
  Sm3+  Sm59  1  0.36565431  -0.01230403  0.45052044  1
  Sm3+  Sm60  1  0.87851729  0.25544899  0.93988378  1
  Sm3+  Sm61  1  0.38948514  0.01111441  0.93755090  1
  Sm3+  Sm62  1  0.24181610  0.11557040  0.56421335  1
  Sm3+  Sm63  1  0.11955078  0.73229235  0.44977214  1
  Bi2+  Bi64  1  -0.01926508  0.11609164  0.28778771  1
  Bi2+  Bi65  1  0.03670361  0.13305914  0.79148670  1
  Bi2+  Bi66  1  0.02917947  0.42042414  0.32088669  1
  Bi2+  Bi67  1  -0.00445527  0.40049102  0.80087238  1
  Bi2+  Bi68  1  0.01721634  0.60894510  0.29119872  1
  Bi2+  Bi69  1  -0.04796422  0.67769914  0.77232306  1
  Bi2+  Bi70  1  -0.03438138  0.85357355  0.28259107  1
  Bi2+  Bi71  1  0.01558608  0.87174326  0.78302949  1
  Bi2+  Bi72  1  0.23915559  0.10378993  0.29794028  1
  Bi2+  Bi73  1  0.27871453  0.08916492  0.82054557  1
  Bi2+  Bi74  1  0.22586442  0.41212814  0.28357895  1
  Bi2+  Bi75  1  0.19283520  0.36478181  0.78933305  1
  Bi2+  Bi76  1  0.25920938  0.66041771  0.30886125  1
  Bi2+  Bi77  1  0.24212049  0.62766531  0.81187229  1
  Bi2+  Bi78  1  0.29129365  0.87479571  0.25182951  1
  Bi2+  Bi79  1  0.21928532  0.91731654  0.78051840  1
  Bi2+  Bi80  1  0.50384401  0.12369562  0.30514837  1
  Bi2+  Bi81  1  0.47472786  0.12971637  0.78695265  1
  Bi2+  Bi82  1  0.53799458  0.36679908  0.29779064  1
  Bi2+  Bi83  1  0.47136801  0.40370236  0.78829025  1
  Bi2+  Bi84  1  0.50392862  0.63428621  0.29428978  1
  Bi2+  Bi85  1  0.48944619  0.66278790  0.78773195  1
  Bi2+  Bi86  1  0.47966539  0.86693577  0.29502391  1
  Bi2+  Bi87  1  0.50172452  0.86364370  0.78143896  1
  Bi2+  Bi88  1  0.76200042  0.10068064  0.26466202  1
  Bi2+  Bi89  1  0.78706945  0.14271368  0.79703379  1
  Bi2+  Bi90  1  0.84012910  0.37190684  0.30061554  1
  Bi2+  Bi91  1  0.74873259  0.41344441  0.78639169  1
  Bi2+  Bi92  1  0.78344780  0.56124544  0.27191296  1
  Bi2+  Bi93  1  0.67438592  0.60235082  0.79570032  1
  Bi2+  Bi94  1  0.70294118  0.86059700  0.29430754  1
  Bi2+  Bi95  1  0.75873698  0.86367206  0.78317262  1
  Bi2+  Bi96  1  0.12411704  -0.01163315  0.19369814  1
  Bi2+  Bi97  1  0.13655517  0.04156711  0.69054899  1
  Bi2+  Bi98  1  0.09403855  0.30400754  0.23256155  1
  Bi2+  Bi99  1  0.12824288  0.24266806  0.70048088  1
  Bi2+  Bi100  1  0.05887081  0.49210015  0.19807780  1
  Bi2+  Bi101  1  0.09207835  0.47969526  0.70880646  1
  Bi2+  Bi102  1  0.12608747  0.75799161  0.24769843  1
  Bi2+  Bi103  1  0.12026659  0.75168461  0.71083781  1
  Bi2+  Bi104  1  0.43214371  0.00860928  0.21839886  1
  Bi2+  Bi105  1  0.33971458  0.04034080  0.70761740  1
  Bi2+  Bi106  1  0.35064210  0.24265249  0.21035442  1
  Bi2+  Bi107  1  0.32748350  0.24245965  0.73885295  1
  Bi2+  Bi108  1  0.33405100  0.51141475  0.21309085  1
  Bi2+  Bi109  1  0.34214563  0.51108359  0.72756473  1
  Bi2+  Bi110  1  0.39778002  0.72368871  0.20423667  1
  Bi2+  Bi111  1  0.35830911  0.84658672  0.70492721  1
  Bi2+  Bi112  1  0.61949616  0.05569074  0.18996615  1
  Bi2+  Bi113  1  0.63097776  -0.00123922  0.70447306  1
  Bi2+  Bi114  1  0.64539231  0.25170955  0.20846542  1
  Bi2+  Bi115  1  0.59937167  0.26056886  0.69824909  1
  Bi2+  Bi116  1  0.60041672  0.52289065  0.21620862  1
  Bi2+  Bi117  1  0.57348110  0.47863070  0.68495289  1
  Bi2+  Bi118  1  0.59131865  0.77484703  0.21253657  1
  Bi2+  Bi119  1  0.62379194  0.73025750  0.71111615  1
  Bi2+  Bi120  1  0.87253515  -0.06431687  0.19413453  1
  Bi2+  Bi121  1  0.94349376  0.00665405  0.70924739  1
  Bi2+  Bi122  1  0.84225705  0.25454518  0.20739436  1
  Bi2+  Bi123  1  0.93814389  0.28305120  0.71506303  1
  Bi2+  Bi124  1  0.86232328  0.45063979  0.18789174  1
  Bi2+  Bi125  1  0.82547722  0.55462349  0.72022510  1
  Bi2+  Bi126  1  0.87892924  0.71017810  0.21808286  1
  Bi2+  Bi127  1  0.82520703  0.74230680  0.68981485  1
  S2-  S128  1  -0.02995774  0.06992165  0.18290273  1
  S2-  S129  1  -0.08714278  0.13713573  0.64331226  1
  S2-  S130  1  -0.00126059  0.27674425  0.15001343  1
  S2-  S131  1  -0.03877349  0.41176027  0.64748302  1
  S2-  S132  1  -0.00140680  0.63439335  0.15115925  1
  S2-  S133  1  0.07519856  0.61496601  0.64971555  1
  S2-  S134  1  0.02010861  0.87234264  0.15028595  1
  S2-  S135  1  -0.06408881  0.85498807  0.65486953  1
  S2-  S136  1  0.16112147  0.12529451  0.14770307  1
  S2-  S137  1  0.26967885  0.22889942  0.63722388  1
  S2-  S138  1  0.27653303  0.36571977  0.15594068  1
  S2-  S139  1  0.23987846  0.46034886  0.65103182  1
  S2-  S140  1  0.25834765  0.63778698  0.15974871  1
  S2-  S141  1  0.26675850  0.70236742  0.67924095  1
  S2-  S142  1  0.26179482  0.91266492  0.14795043  1
  S2-  S143  1  0.13790356  0.88341914  0.64381717  1
  S2-  S144  1  0.38997198  0.12013863  0.14243627  1
  S2-  S145  1  0.53925321  0.11513554  0.64996739  1
  S2-  S146  1  0.48647166  0.29417189  0.17452027  1
  S2-  S147  1  0.47232826  0.35232750  0.65039503  1
  S2-  S148  1  0.47068579  0.51585207  0.15056039  1
  S2-  S149  1  0.43944124  0.57992246  0.66037987  1
  S2-  S150  1  0.60666380  0.89549364  0.14081993  1
  S2-  S151  1  0.58917760  0.85864426  0.64399273  1
  S2-  S152  1  0.77088223  0.03602476  0.13332312  1
  S2-  S153  1  0.72207226  0.15345856  0.69932829  1
  S2-  S154  1  0.66860593  0.40073279  0.15250487  1
  S2-  S155  1  0.69834434  0.36347052  0.64354712  1
  S2-  S156  1  0.63928848  0.64063483  0.14761423  1
  S2-  S157  1  0.64682762  0.60535639  0.63094826  1
  S2-  S158  1  0.79543904  0.77912927  0.14494493  1
  S2-  S159  1  0.75878712  0.96886142  0.65116311  1
  S2-  S160  1  0.10548525  0.01656074  0.33447969  1
  S2-  S161  1  0.03662108  -0.00811537  0.85434478  1
  S2-  S162  1  0.21843196  0.22884089  0.35786337  1
  S2-  S163  1  0.16130008  0.21826414  0.85044386  1
  S2-  S164  1  0.23553426  0.51310677  0.36767282  1
  S2-  S165  1  0.12775634  0.50911234  0.84477851  1
  S2-  S166  1  0.14767676  0.76466913  0.35529609  1
  S2-  S167  1  0.13592476  0.73559223  0.84371755  1
  S2-  S168  1  0.35345364  0.04742338  0.35873018  1
  S2-  S169  1  0.46072713  -0.00688157  0.84855874  1
  S2-  S170  1  0.42053555  0.26287216  0.32660410  1
  S2-  S171  1  0.45964473  0.27077334  0.85308934  1
  S2-  S172  1  0.46935206  0.49385598  0.35440523  1
  S2-  S173  1  0.36940003  0.50223296  0.84480074  1
  S2-  S174  1  0.39573993  0.74105291  0.35508824  1
  S2-  S175  1  0.36526563  0.74180838  0.84188458  1
  S2-  S176  1  0.60674030  -0.02449701  0.34197913  1
  S2-  S177  1  0.63051330  0.12785679  0.83586998  1
  S2-  S178  1  0.62499258  0.22661670  0.33904026  1
  S2-  S179  1  0.77782000  0.28743643  0.85197492  1
  S2-  S180  1  0.68268547  0.45021492  0.33191116  1
  S2-  S181  1  0.61282020  0.42585522  0.85320830  1
  S2-  S182  1  0.65008593  0.71205535  0.33724600  1
  S2-  S183  1  0.63177758  0.84682658  0.85149847  1
  S2-  S184  1  0.85073277  0.09072104  0.35078299  1
  S2-  S185  1  0.78828884  -0.01051165  0.84486312  1
  S2-  S186  1  1.00033541  0.23225141  0.35511932  1
  S2-  S187  1  0.92147511  0.15870010  0.86121360  1
  S2-  S188  1  0.88062762  0.61440975  0.35666947  1
  S2-  S189  1  0.87261187  0.49662648  0.84572036  1
  S2-  S190  1  0.85206735  0.85786241  0.35621072  1
  S2-  S191  1  0.85523367  0.75657597  0.84136664  1
  S2-  S192  1  -0.00803267  0.10490769  0.45383851  1
  S2-  S193  1  0.01534280  0.13402036  0.96557511  1
  S2-  S194  1  -0.01217338  0.36706689  0.45160368  1
  S2-  S195  1  0.00806641  0.38005881  0.95851115  1
  S2-  S196  1  -0.00205853  0.60936838  0.45617647  1
  S2-  S197  1  0.00941168  0.63433463  0.94889732  1
  S2-  S198  1  -0.00313119  0.85665524  0.45467549  1
  S2-  S199  1  0.01327332  0.87694437  0.94943586  1
  S2-  S200  1  0.23905579  0.10819536  0.46142369  1
  S2-  S201  1  0.26422345  0.13307311  0.96056534  1
  S2-  S202  1  0.24087084  0.35851893  0.45869639  1
  S2-  S203  1  0.26195621  0.38371506  0.95066528  1
  S2-  S204  1  0.24019588  0.61231658  0.47286870  1
  S2-  S205  1  0.26102150  0.62909381  0.95482226  1
  S2-  S206  1  0.24321782  0.86314603  0.46156395  1
  S2-  S207  1  0.26148159  0.88359179  0.94494126  1
  S2-  S208  1  0.49300231  0.11169444  0.45107094  1
  S2-  S209  1  0.51158610  0.13370779  0.95439391  1
  S2-  S210  1  0.48959448  0.35301256  0.44835194  1
  S2-  S211  1  0.51191661  0.38394189  0.96386873  1
  S2-  S212  1  0.49272741  0.61342132  0.45834773  1
  S2-  S213  1  0.51265124  0.63309287  0.95111079  1
  S2-  S214  1  0.48930077  0.86534402  0.45561663  1
  S2-  S215  1  0.50825851  0.87965918  0.95127877  1
  S2-  S216  1  0.73764912  0.11199606  0.44787118  1
  S2-  S217  1  0.75472910  0.13360406  0.94845727  1
  S2-  S218  1  0.74712611  0.35910552  0.44313932  1
  S2-  S219  1  0.75721259  0.38076276  0.96202009  1
  S2-  S220  1  0.73631290  0.60960807  0.44682518  1
  S2-  S221  1  0.76024397  0.63538886  0.95318226  1
  S2-  S222  1  0.73644226  0.85714704  0.45981471  1
  S2-  S223  1  0.76384542  0.88107478  0.95530391  1
  S2-  S224  1  0.13617912  0.00339477  0.04163541  1
  S2-  S225  1  0.11896427  -0.00807420  0.54227964  1
  S2-  S226  1  0.13919002  0.26191103  0.05051673  1
  S2-  S227  1  0.11221076  0.23336527  0.54508066  1
  S2-  S228  1  0.13390985  0.50856754  0.04986280  1
  S2-  S229  1  0.11462938  0.48194141  0.54535867  1
  S2-  S230  1  0.13442846  0.75629877  0.04623105  1
  S2-  S231  1  0.11872580  0.73526866  0.55209266  1
  S2-  S232  1  0.38728667  0.00338727  0.04080089  1
  S2-  S233  1  0.36815068  -0.00922559  0.55512134  1
  S2-  S234  1  0.38963300  0.26180267  0.04821196  1
  S2-  S235  1  0.37420025  0.23282711  0.53551118  1
  S2-  S236  1  0.38698612  0.51006537  0.04525594  1
  S2-  S237  1  0.37452376  0.48170360  0.54594413  1
  S2-  S238  1  0.38932809  0.75379220  0.04775785  1
  S2-  S239  1  0.37272227  0.73712440  0.55963975  1
  S2-  S240  1  0.63306943  0.01040760  0.03249824  1
  S2-  S241  1  0.62314834  -0.00603089  0.54639000  1
  S2-  S242  1  0.64098406  0.25166966  0.05882633  1
  S2-  S243  1  0.62284235  0.23196033  0.54284071  1
  S2-  S244  1  0.63995752  0.51169460  0.04654495  1
  S2-  S245  1  0.61842652  0.48162197  0.53060446  1
  S2-  S246  1  0.63500599  0.75460813  0.03965686  1
  S2-  S247  1  0.61849308  0.73928889  0.53928886  1
  S2-  S248  1  0.89343148  0.00828648  0.03774509  1
  S2-  S249  1  0.86678470  -0.01440961  0.54182055  1
  S2-  S250  1  0.88414057  0.25502519  0.04622438  1
  S2-  S251  1  0.86368625  0.23304979  0.53650447  1
  S2-  S252  1  0.88391024  0.51113434  0.05185576  1
  S2-  S253  1  0.86374929  0.49006007  0.53505380  1
  S2-  S254  1  0.88994196  0.75794981  0.04148015  1
  S2-  S255  1  0.86648752  0.73474837  0.54268923  1
