# generated using pymatgen
data_La6Ce7Pr13Nd19Sm19(BiS2)64
_symmetry_space_group_name_H-M   'P 1'
_cell_length_a   16.12798702
_cell_length_b   16.13589058
_cell_length_c   27.46203455
_cell_angle_alpha   89.98840427
_cell_angle_beta   89.95235691
_cell_angle_gamma   89.99274681
_symmetry_Int_Tables_number   1
_chemical_formula_structural   La6Ce7Pr13Nd19Sm19(BiS2)64
_chemical_formula_sum   'La6 Ce7 Pr13 Nd19 Sm19 Bi64 S128'
_cell_volume   7146.70164904
_cell_formula_units_Z   1
loop_
 _symmetry_equiv_pos_site_id
 _symmetry_equiv_pos_as_xyz
  1  'x, y, z'
loop_
 _atom_type_symbol
 _atom_type_oxidation_number
  La3+  3.0
  Ce3+  3.0
  Pr3+  3.0
  Nd3+  3.0
  Sm3+  3.0
  Bi2+  2.0
  S2-  -2.0
loop_
 _atom_site_type_symbol
 _atom_site_label
 _atom_site_symmetry_multiplicity
 _atom_site_fract_x
 _atom_site_fract_y
 _atom_site_fract_z
 _atom_site_occupancy
  La3+  La0  1  0.87529273  0.25310710  0.42581448  1
  La3+  La1  1  0.38402643  0.26156727  0.38961346  1
  La3+  La2  1  0.61911763  0.22686254  0.92936776  1
  La3+  La3  1  0.86934896  0.26051285  0.88451715  1
  La3+  La4  1  0.49773710  0.62693628  0.56960712  1
  La3+  La5  1  0.00048068  0.63049586  0.56519076  1
  Ce3+  Ce6  1  -0.00348371  0.36508107  0.07065057  1
  Ce3+  Ce7  1  0.87093194  -0.00446750  0.93437716  1
  Ce3+  Ce8  1  0.11385720  0.73110724  0.93561257  1
  Ce3+  Ce9  1  0.49523519  0.35780542  0.05454140  1
  Ce3+  Ce10  1  0.75279958  0.37401067  0.56165854  1
  Ce3+  Ce11  1  0.86934504  0.73255060  0.93703339  1
  Ce3+  Ce12  1  0.24685686  0.61204694  0.05676936  1
  Pr3+  Pr13  1  0.23476728  0.10242223  0.07796788  1
  Pr3+  Pr14  1  0.49485518  0.60679505  0.07153816  1
  Pr3+  Pr15  1  0.75007110  0.63076883  0.55985118  1
  Pr3+  Pr16  1  0.49821124  0.37564362  0.55878630  1
  Pr3+  Pr17  1  0.12387468  0.23145863  0.93198468  1
  Pr3+  Pr18  1  0.37462113  0.00646062  0.43964766  1
  Pr3+  Pr19  1  0.38185436  0.51146326  0.42396142  1
  Pr3+  Pr20  1  0.00774270  0.13248022  0.57029543  1
  Pr3+  Pr21  1  0.75072232  0.86148824  0.05924402  1
  Pr3+  Pr22  1  0.49746927  0.11211915  0.07012363  1
  Pr3+  Pr23  1  0.12588075  0.00529366  0.43619160  1
  Pr3+  Pr24  1  0.36709388  0.23117829  0.94189991  1
  Pr3+  Pr25  1  0.12648738  -0.02279738  0.92833637  1
  Nd3+  Nd26  1  0.74957374  0.87982228  0.55592521  1
  Nd3+  Nd27  1  0.87526381  0.00653122  0.44558905  1
  Nd3+  Nd28  1  0.62569818  0.75176908  0.44042004  1
  Nd3+  Nd29  1  0.24383841  0.85918354  0.06356237  1
  Nd3+  Nd30  1  0.62207146  0.73413858  0.94733080  1
  Nd3+  Nd31  1  0.25135087  0.87883888  0.55222012  1
  Nd3+  Nd32  1  0.37625645  0.73287388  0.94926202  1
  Nd3+  Nd33  1  0.12528666  0.25411893  0.42732176  1
  Nd3+  Nd34  1  0.36994537  -0.01640811  0.94788393  1
  Nd3+  Nd35  1  0.24906667  0.13086756  0.55484399  1
  Nd3+  Nd36  1  0.74556108  0.60963999  0.05922724  1
  Nd3+  Nd37  1  -0.00463280  0.86229011  0.04968839  1
  Nd3+  Nd38  1  0.37246955  0.48582003  0.94235090  1
  Nd3+  Nd39  1  0.24668488  0.35839022  0.06904123  1
  Nd3+  Nd40  1  0.62212208  0.00651005  0.44262437  1
  Nd3+  Nd41  1  0.75218318  0.12906270  0.56095355  1
  Nd3+  Nd42  1  0.50070073  0.86282684  0.06281079  1
  Nd3+  Nd43  1  0.25191038  0.37882028  0.54896616  1
  Nd3+  Nd44  1  0.11911087  0.48158138  0.94691076  1
  Sm3+  Sm45  1  0.00068569  0.87989832  0.55366511  1
  Sm3+  Sm46  1  -0.00288164  0.11575913  0.05368851  1
  Sm3+  Sm47  1  0.87367628  0.75242185  0.44009263  1
  Sm3+  Sm48  1  0.74798442  0.35654166  0.05592591  1
  Sm3+  Sm49  1  0.87427810  0.50303745  0.44844220  1
  Sm3+  Sm50  1  0.74979785  0.11490721  0.05735278  1
  Sm3+  Sm51  1  0.49915297  0.87890824  0.55490415  1
  Sm3+  Sm52  1  0.49864552  0.13098437  0.55640935  1
  Sm3+  Sm53  1  -0.00510460  0.61088586  0.06917014  1
  Sm3+  Sm54  1  0.62334750  0.50215895  0.44988066  1
  Sm3+  Sm55  1  0.37646709  0.75057652  0.43850523  1
  Sm3+  Sm56  1  0.12537354  0.50243017  0.43921225  1
  Sm3+  Sm57  1  0.25067873  0.62828913  0.55366302  1
  Sm3+  Sm58  1  0.62224105  -0.01271392  0.94571548  1
  Sm3+  Sm59  1  0.62270101  0.25550153  0.44307814  1
  Sm3+  Sm60  1  0.00293819  0.37642837  0.55560310  1
  Sm3+  Sm61  1  0.87415714  0.48308127  0.94737728  1
  Sm3+  Sm62  1  0.62225984  0.48257749  0.94693397  1
  Sm3+  Sm63  1  0.12251887  0.75298018  0.44494660  1
  Bi2+  Bi64  1  -0.02017724  0.13072520  0.28738583  1
  Bi2+  Bi65  1  -0.00469256  0.12812807  0.78625911  1
  Bi2+  Bi66  1  -0.03779121  0.38293199  0.28389581  1
  Bi2+  Bi67  1  0.03339737  0.40826300  0.78626467  1
  Bi2+  Bi68  1  0.00225022  0.66712663  0.29269455  1
  Bi2+  Bi69  1  0.08865895  0.65501324  0.80263311  1
  Bi2+  Bi70  1  0.02451376  0.86443013  0.30424997  1
  Bi2+  Bi71  1  -0.02805472  0.88059668  0.76754379  1
  Bi2+  Bi72  1  0.24153315  0.11287147  0.29179426  1
  Bi2+  Bi73  1  0.24163566  0.14637848  0.79174727  1
  Bi2+  Bi74  1  0.23463881  0.39572276  0.28134373  1
  Bi2+  Bi75  1  0.26553960  0.38127457  0.74538153  1
  Bi2+  Bi76  1  0.27831098  0.62998368  0.24945102  1
  Bi2+  Bi77  1  0.26672499  0.66320049  0.75403629  1
  Bi2+  Bi78  1  0.22131135  0.84614068  0.27981415  1
  Bi2+  Bi79  1  0.24551177  0.88151248  0.79157599  1
  Bi2+  Bi80  1  0.49757388  0.06514091  0.29602592  1
  Bi2+  Bi81  1  0.44771005  0.19505979  0.81685005  1
  Bi2+  Bi82  1  0.51153722  0.42756869  0.27785968  1
  Bi2+  Bi83  1  0.45753007  0.37663862  0.78476581  1
  Bi2+  Bi84  1  0.50561868  0.64255214  0.29838166  1
  Bi2+  Bi85  1  0.49825683  0.61310213  0.82059951  1
  Bi2+  Bi86  1  0.55448847  0.88111579  0.27373797  1
  Bi2+  Bi87  1  0.50766911  0.81849194  0.79283043  1
  Bi2+  Bi88  1  0.78109061  0.17187057  0.30868473  1
  Bi2+  Bi89  1  0.72750215  0.13369389  0.78955583  1
  Bi2+  Bi90  1  0.77372299  0.36611769  0.31630205  1
  Bi2+  Bi91  1  0.70539162  0.39252381  0.77422858  1
  Bi2+  Bi92  1  0.75292406  0.62618275  0.28933202  1
  Bi2+  Bi93  1  0.79078676  0.68079978  0.80653854  1
  Bi2+  Bi94  1  0.83583192  0.87602295  0.26824124  1
  Bi2+  Bi95  1  0.78126888  0.87994191  0.78998583  1
  Bi2+  Bi96  1  0.10283506  -0.04489065  0.21165590  1
  Bi2+  Bi97  1  0.21403968  0.01289903  0.70795620  1
  Bi2+  Bi98  1  0.12132961  0.23844656  0.19334467  1
  Bi2+  Bi99  1  0.10880050  0.27337795  0.69402986  1
  Bi2+  Bi100  1  0.08881096  0.51215533  0.23817024  1
  Bi2+  Bi101  1  0.12239699  0.53890319  0.71218941  1
  Bi2+  Bi102  1  0.12449310  0.72279727  0.20140422  1
  Bi2+  Bi103  1  0.12473601  0.80757618  0.70902840  1
  Bi2+  Bi104  1  0.37631563  0.00344003  0.19932198  1
  Bi2+  Bi105  1  0.40631352  0.03223781  0.75345403  1
  Bi2+  Bi106  1  0.38710518  0.26278441  0.19591964  1
  Bi2+  Bi107  1  0.37857150  0.22181944  0.70538910  1
  Bi2+  Bi108  1  0.42842967  0.52163381  0.19310644  1
  Bi2+  Bi109  1  0.38746910  0.52177845  0.70170124  1
  Bi2+  Bi110  1  0.39164702  0.78884227  0.23264236  1
  Bi2+  Bi111  1  0.39677761  0.78335601  0.69859047  1
  Bi2+  Bi112  1  0.71155071  0.00813223  0.22149610  1
  Bi2+  Bi113  1  0.61093941  -0.02058042  0.77293438  1
  Bi2+  Bi114  1  0.62625928  0.26632281  0.26265445  1
  Bi2+  Bi115  1  0.57208014  0.28084910  0.70208115  1
  Bi2+  Bi116  1  0.68630083  0.47738715  0.22817224  1
  Bi2+  Bi117  1  0.65442932  0.56796420  0.75250158  1
  Bi2+  Bi118  1  0.67048977  0.74054905  0.21006638  1
  Bi2+  Bi119  1  0.63654881  0.77317451  0.69106953  1
  Bi2+  Bi120  1  0.90174414  0.02933302  0.20211682  1
  Bi2+  Bi121  1  0.84482700  0.00109383  0.70079099  1
  Bi2+  Bi122  1  0.81923493  0.23893664  0.19577933  1
  Bi2+  Bi123  1  0.84657251  0.24844146  0.67911312  1
  Bi2+  Bi124  1  0.87623442  0.53747466  0.21182605  1
  Bi2+  Bi125  1  0.86477143  0.51083291  0.76396977  1
  Bi2+  Bi126  1  0.93072678  0.74654795  0.19356460  1
  Bi2+  Bi127  1  0.89212652  0.73921790  0.70166308  1
  S2-  S128  1  0.08344233  0.10666768  0.13832139  1
  S2-  S129  1  -0.04639381  0.10958556  0.66776505  1
  S2-  S130  1  -0.02009439  0.28934111  0.15947420  1
  S2-  S131  1  -0.01795840  0.35612363  0.65189034  1
  S2-  S132  1  0.00119002  0.50072326  0.14426928  1
  S2-  S133  1  -0.00762458  0.61595401  0.66410551  1
  S2-  S134  1  -0.02607757  0.89434098  0.14581223  1
  S2-  S135  1  -0.00677758  0.86519943  0.65037805  1
  S2-  S136  1  0.27224460  0.15101714  0.17480797  1
  S2-  S137  1  0.15284675  0.13405508  0.63697989  1
  S2-  S138  1  0.24255112  0.36111182  0.16983102  1
  S2-  S139  1  0.21971092  0.36581021  0.64687770  1
  S2-  S140  1  0.28415982  0.59318544  0.15006563  1
  S2-  S141  1  0.25464273  0.61210071  0.65011789  1
  S2-  S142  1  0.23317602  0.95091015  0.14588445  1
  S2-  S143  1  0.26451977  0.87365342  0.64981082  1
  S2-  S144  1  0.48300929  0.12477770  0.16945809  1
  S2-  S145  1  0.51015046  0.14555941  0.65340167  1
  S2-  S146  1  0.50008474  0.37250298  0.15034981  1
  S2-  S147  1  0.48650924  0.42257455  0.65508746  1
  S2-  S148  1  0.54206595  0.63774344  0.16537485  1
  S2-  S149  1  0.50222745  0.65522907  0.66742085  1
  S2-  S150  1  0.47045423  0.88926010  0.15861988  1
  S2-  S151  1  0.50969018  0.87976830  0.65170996  1
  S2-  S152  1  0.70390995  0.13561583  0.15100669  1
  S2-  S153  1  0.73840337  0.11841633  0.65937434  1
  S2-  S154  1  0.75326686  0.37108796  0.15346854  1
  S2-  S155  1  0.72014817  0.36159857  0.65724086  1
  S2-  S156  1  0.78924716  0.65759569  0.14972116  1
  S2-  S157  1  0.75614441  0.65817824  0.65747490  1
  S2-  S158  1  0.69508547  0.87370961  0.15349580  1
  S2-  S159  1  0.73806405  0.88118084  0.65388359  1
  S2-  S160  1  0.11515576  0.05805155  0.34196508  1
  S2-  S161  1  0.10829246  0.06314950  0.84025615  1
  S2-  S162  1  0.22023984  0.25863350  0.34306093  1
  S2-  S163  1  0.03268819  0.26221312  0.84612398  1
  S2-  S164  1  0.13890453  0.48899319  0.34180099  1
  S2-  S165  1  0.12710836  0.49781234  0.84768212  1
  S2-  S166  1  0.13309026  0.74037145  0.34885637  1
  S2-  S167  1  0.14065794  0.83707911  0.86097463  1
  S2-  S168  1  0.35118999  0.00573151  0.34093121  1
  S2-  S169  1  0.35127785  -0.01592474  0.84994390  1
  S2-  S170  1  0.38808997  0.20463404  0.28934691  1
  S2-  S171  1  0.25817733  0.25371597  0.86399861  1
  S2-  S172  1  0.37002886  0.41595334  0.34022586  1
  S2-  S173  1  0.38033799  0.49982736  0.84431822  1
  S2-  S174  1  0.37569190  0.65025236  0.35916035  1
  S2-  S175  1  0.38559193  0.73457559  0.85156706  1
  S2-  S176  1  0.62336485  0.00021271  0.34461414  1
  S2-  S177  1  0.61246239  0.07366610  0.86207573  1
  S2-  S178  1  0.55689780  0.25349109  0.35398307  1
  S2-  S179  1  0.70088957  0.27296346  0.84559345  1
  S2-  S180  1  0.57764203  0.52001363  0.35744160  1
  S2-  S181  1  0.62619421  0.49466626  0.84958279  1
  S2-  S182  1  0.59020882  0.76466599  0.34511666  1
  S2-  S183  1  0.62822124  0.73591736  0.84953146  1
  S2-  S184  1  0.87381835  0.04108243  0.34999282  1
  S2-  S185  1  0.86374660  0.08675361  0.85081160  1
  S2-  S186  1  0.99893598  0.25987992  0.35508521  1
  S2-  S187  1  0.86182030  0.24207903  0.77462744  1
  S2-  S188  1  0.88742441  0.48851457  0.35200027  1
  S2-  S189  1  0.88327143  0.43488375  0.85372527  1
  S2-  S190  1  0.83029872  0.74513768  0.34584986  1
  S2-  S191  1  0.94993137  0.68777518  0.85612968  1
  S2-  S192  1  0.00053748  0.12807685  0.45850803  1
  S2-  S193  1  0.00171139  0.10674199  0.95230470  1
  S2-  S194  1  -0.00004449  0.38356644  0.45285106  1
  S2-  S195  1  -0.00524519  0.36029008  0.95976555  1
  S2-  S196  1  -0.00172541  0.62858171  0.45497652  1
  S2-  S197  1  -0.00422518  0.60526174  0.96489428  1
  S2-  S198  1  -0.00231842  0.87698175  0.44934351  1
  S2-  S199  1  -0.01115132  0.86110063  0.94605855  1
  S2-  S200  1  0.25226701  0.13198514  0.45023027  1
  S2-  S201  1  0.24532271  0.10437466  0.96092041  1
  S2-  S202  1  0.25237185  0.38342673  0.44635135  1
  S2-  S203  1  0.24828340  0.36547417  0.96228459  1
  S2-  S204  1  0.24494404  0.62968593  0.45137452  1
  S2-  S205  1  0.24657061  0.61115156  0.95094462  1
  S2-  S206  1  0.25035547  0.87411958  0.44661854  1
  S2-  S207  1  0.25133407  0.85346197  0.96008264  1
  S2-  S208  1  0.49714461  0.13232913  0.45215017  1
  S2-  S209  1  0.49318158  0.10671951  0.96287870  1
  S2-  S210  1  0.49886447  0.37874685  0.45363818  1
  S2-  S211  1  0.49622140  0.35904657  0.94774398  1
  S2-  S212  1  0.50294893  0.63105862  0.46208381  1
  S2-  S213  1  0.50034388  0.60758545  0.96331516  1
  S2-  S214  1  0.49841593  0.87708782  0.45002759  1
  S2-  S215  1  0.49987171  0.86187315  0.95619562  1
  S2-  S216  1  0.74730651  0.13087386  0.45451604  1
  S2-  S217  1  0.74600012  0.11182662  0.95589689  1
  S2-  S218  1  0.74883448  0.37854437  0.45513758  1
  S2-  S219  1  0.74799697  0.36137931  0.95252759  1
  S2-  S220  1  0.74947944  0.62654546  0.45343376  1
  S2-  S221  1  0.74603396  0.60622685  0.95357336  1
  S2-  S222  1  0.75002568  0.87995029  0.44982973  1
  S2-  S223  1  0.74582103  0.86344035  0.95146734  1
  S2-  S224  1  0.11925582  -0.01879115  0.03704637  1
  S2-  S225  1  0.12479866  0.00012049  0.54232568  1
  S2-  S226  1  0.12257355  0.23952355  0.04409814  1
  S2-  S227  1  0.12538342  0.25758588  0.53495577  1
  S2-  S228  1  0.12592745  0.48756610  0.05093710  1
  S2-  S229  1  0.12518374  0.50415173  0.54514414  1
  S2-  S230  1  0.11773204  0.73447177  0.04753287  1
  S2-  S231  1  0.12644442  0.75459211  0.54892891  1
  S2-  S232  1  0.37228079  -0.01498451  0.05197179  1
  S2-  S233  1  0.37598316  0.00510232  0.54721520  1
  S2-  S234  1  0.36781970  0.23215068  0.04991639  1
  S2-  S235  1  0.37374961  0.25177101  0.55221711  1
  S2-  S236  1  0.37101948  0.48380083  0.04793986  1
  S2-  S237  1  0.37349981  0.50601645  0.54080486  1
  S2-  S238  1  0.37477286  0.73877959  0.05553909  1
  S2-  S239  1  0.37492842  0.75335515  0.54303278  1
  S2-  S240  1  0.62456220  -0.01086475  0.04890288  1
  S2-  S241  1  0.62202002  0.00497198  0.54808934  1
  S2-  S242  1  0.62226049  0.23543542  0.04245962  1
  S2-  S243  1  0.62456821  0.25102719  0.54701208  1
  S2-  S244  1  0.62321682  0.48322802  0.05149193  1
  S2-  S245  1  0.62667056  0.50260247  0.55376461  1
  S2-  S246  1  0.62203844  0.73606837  0.05156597  1
  S2-  S247  1  0.62321445  0.75568321  0.54616657  1
  S2-  S248  1  0.87232374  -0.00933708  0.04258036  1
  S2-  S249  1  0.87767790  0.00368707  0.55010746  1
  S2-  S250  1  0.87196238  0.23553804  0.05146921  1
  S2-  S251  1  0.87821941  0.25231377  0.54106914  1
  S2-  S252  1  0.86749763  0.48597719  0.04980687  1
  S2-  S253  1  0.87663203  0.50156671  0.55294695  1
  S2-  S254  1  0.87338157  0.73369817  0.04267377  1
  S2-  S255  1  0.87555520  0.75664786  0.54473339  1
