# generated using pymatgen
data_La6Ce7Pr13Nd19Sm19(BiS2)64
_symmetry_space_group_name_H-M   'P 1'
_cell_length_a   16.13585524
_cell_length_b   16.12949864
_cell_length_c   27.32402411
_cell_angle_alpha   89.92985886
_cell_angle_beta   90.04072476
_cell_angle_gamma   90.04364386
_symmetry_Int_Tables_number   1
_chemical_formula_structural   La6Ce7Pr13Nd19Sm19(BiS2)64
_chemical_formula_sum   'La6 Ce7 Pr13 Nd19 Sm19 Bi64 S128'
_cell_volume   7111.43027654
_cell_formula_units_Z   1
loop_
 _symmetry_equiv_pos_site_id
 _symmetry_equiv_pos_as_xyz
  1  'x, y, z'
loop_
 _atom_type_symbol
 _atom_type_oxidation_number
  La3+  3.0
  Ce3+  3.0
  Pr3+  3.0
  Nd3+  3.0
  Sm3+  3.0
  Bi2+  2.0
  S2-  -2.0
loop_
 _atom_site_type_symbol
 _atom_site_label
 _atom_site_symmetry_multiplicity
 _atom_site_fract_x
 _atom_site_fract_y
 _atom_site_fract_z
 _atom_site_occupancy
  La3+  La0  1  -0.01111204  0.36554132  0.59239404  1
  La3+  La1  1  0.38287394  0.52121256  0.92233682  1
  La3+  La2  1  0.49527007  0.89640153  0.09237544  1
  La3+  La3  1  0.87571291  0.75502903  0.41932123  1
  La3+  La4  1  0.87951681  0.48879680  0.41472600  1
  La3+  La5  1  0.26237260  0.38489182  0.06246374  1
  Ce3+  Ce6  1  0.62927935  0.26080494  0.93943408  1
  Ce3+  Ce7  1  0.00154497  0.12062083  0.56528133  1
  Ce3+  Ce8  1  0.37570259  0.74394040  0.44727824  1
  Ce3+  Ce9  1  0.25276478  0.13824934  0.04697797  1
  Ce3+  Ce10  1  0.62163481  -0.00565071  0.43986992  1
  Ce3+  Ce11  1  0.12664473  0.24807897  0.44744157  1
  Ce3+  Ce12  1  0.75323777  0.13220428  0.06263474  1
  Pr3+  Pr13  1  0.25968376  0.36137710  0.58670198  1
  Pr3+  Pr14  1  0.50247971  0.12094055  0.56293748  1
  Pr3+  Pr15  1  0.12539671  0.51652307  0.93449177  1
  Pr3+  Pr16  1  0.12615850  -0.00335110  0.43845768  1
  Pr3+  Pr17  1  0.12856468  0.01175147  0.93653588  1
  Pr3+  Pr18  1  0.75282076  0.12017646  0.55521616  1
  Pr3+  Pr19  1  0.75521575  0.38638903  0.05809746  1
  Pr3+  Pr20  1  0.37227429  0.48567096  0.42966560  1
  Pr3+  Pr21  1  0.74805181  0.86483993  0.56091084  1
  Pr3+  Pr22  1  0.49836858  0.87629595  0.57117551  1
  Pr3+  Pr23  1  0.87867027  0.24217716  0.43232265  1
  Pr3+  Pr24  1  0.75607808  0.61684549  0.55064372  1
  Pr3+  Pr25  1  0.50457402  0.63568359  0.06890267  1
  Nd3+  Nd26  1  0.25101006  0.61245149  0.56114548  1
  Nd3+  Nd27  1  0.87459431  0.52637618  0.93594377  1
  Nd3+  Nd28  1  0.00214904  0.86774080  0.55865737  1
  Nd3+  Nd29  1  0.25336355  0.88765533  0.06062045  1
  Nd3+  Nd30  1  0.37743552  0.26082160  0.92792616  1
  Nd3+  Nd31  1  0.12699996  0.74221736  0.44170733  1
  Nd3+  Nd32  1  0.25555352  0.63283820  0.05782613  1
  Nd3+  Nd33  1  0.62750401  0.49487093  0.43883579  1
  Nd3+  Nd34  1  0.62785837  0.01018998  0.94336800  1
  Nd3+  Nd35  1  0.37884488  0.00878188  0.93345301  1
  Nd3+  Nd36  1  0.24961094  0.87011485  0.55884473  1
  Nd3+  Nd37  1  0.75533061  0.89191825  0.07422816  1
  Nd3+  Nd38  1  0.50042769  0.61772892  0.55456529  1
  Nd3+  Nd39  1  -0.00032930  0.61550888  0.55340922  1
  Nd3+  Nd40  1  0.62179084  0.74686632  0.43305203  1
  Nd3+  Nd41  1  0.12573512  0.48968294  0.44929120  1
  Nd3+  Nd42  1  0.00679317  0.13854638  0.05138497  1
  Nd3+  Nd43  1  0.62944179  0.76341448  0.95420056  1
  Nd3+  Nd44  1  0.00675536  0.63411585  0.06867502  1
  Sm3+  Sm45  1  0.87675077  -0.00299246  0.44207832  1
  Sm3+  Sm46  1  0.12652304  0.27323499  0.92251638  1
  Sm3+  Sm47  1  0.50022450  0.37200574  0.55806217  1
  Sm3+  Sm48  1  0.00389476  0.38788667  0.05547265  1
  Sm3+  Sm49  1  0.00560367  0.88561697  0.05741944  1
  Sm3+  Sm50  1  0.12698413  0.75860922  0.93825325  1
  Sm3+  Sm51  1  0.87792348  0.26368110  0.93954995  1
  Sm3+  Sm52  1  0.49897439  0.13547354  0.05582585  1
  Sm3+  Sm53  1  0.38097987  0.76314003  0.95023655  1
  Sm3+  Sm54  1  0.87519219  0.76967076  0.94415915  1
  Sm3+  Sm55  1  0.50430700  0.38513151  0.05205184  1
  Sm3+  Sm56  1  0.62559199  0.24387309  0.44340512  1
  Sm3+  Sm57  1  0.37679360  -0.00761907  0.43799500  1
  Sm3+  Sm58  1  0.87896855  0.00992185  0.93941421  1
  Sm3+  Sm59  1  0.37540389  0.24608663  0.44174495  1
  Sm3+  Sm60  1  0.75849254  0.64731489  0.08026121  1
  Sm3+  Sm61  1  0.63072655  0.51500831  0.95217226  1
  Sm3+  Sm62  1  0.75314394  0.37001360  0.55135891  1
  Sm3+  Sm63  1  0.24936505  0.12164968  0.55687894  1
  Bi2+  Bi64  1  -0.04826172  0.12764010  0.32405833  1
  Bi2+  Bi65  1  -0.00770708  0.04194065  0.79395185  1
  Bi2+  Bi66  1  -0.03634240  0.29792018  0.26921811  1
  Bi2+  Bi67  1  -0.00869741  0.37705285  0.79111914  1
  Bi2+  Bi68  1  0.04160033  0.62451408  0.29836012  1
  Bi2+  Bi69  1  -0.03567328  0.63066497  0.79700574  1
  Bi2+  Bi70  1  0.02289380  0.95166381  0.29667403  1
  Bi2+  Bi71  1  0.00224957  0.84584215  0.81210158  1
  Bi2+  Bi72  1  0.23182136  0.12809085  0.29296341  1
  Bi2+  Bi73  1  0.27428377  0.11022309  0.72449261  1
  Bi2+  Bi74  1  0.23027225  0.40658742  0.31009529  1
  Bi2+  Bi75  1  0.24209032  0.35264782  0.78850263  1
  Bi2+  Bi76  1  0.26606065  0.63195654  0.25147447  1
  Bi2+  Bi77  1  0.21641116  0.63328867  0.78671098  1
  Bi2+  Bi78  1  0.26729457  0.84264903  0.29856717  1
  Bi2+  Bi79  1  0.19832439  0.83672604  0.80159813  1
  Bi2+  Bi80  1  0.51446252  0.14554773  0.23673074  1
  Bi2+  Bi81  1  0.52118463  0.10697893  0.78687580  1
  Bi2+  Bi82  1  0.47844234  0.33220370  0.28140854  1
  Bi2+  Bi83  1  0.51816007  0.35286994  0.78029077  1
  Bi2+  Bi84  1  0.46465240  0.60412675  0.26960359  1
  Bi2+  Bi85  1  0.47697433  0.58602262  0.80225493  1
  Bi2+  Bi86  1  0.51304766  0.89079668  0.31023389  1
  Bi2+  Bi87  1  0.45955354  0.91988372  0.80739543  1
  Bi2+  Bi88  1  0.75824163  0.12968793  0.29542010  1
  Bi2+  Bi89  1  0.71944669  0.14442072  0.79436769  1
  Bi2+  Bi90  1  0.72202018  0.32788526  0.29326955  1
  Bi2+  Bi91  1  0.75187746  0.38735116  0.73248237  1
  Bi2+  Bi92  1  0.76324607  0.63199707  0.30570665  1
  Bi2+  Bi93  1  0.71586999  0.62816088  0.80427077  1
  Bi2+  Bi94  1  0.76915153  0.93124574  0.27867880  1
  Bi2+  Bi95  1  0.74644168  0.89326611  0.79038524  1
  Bi2+  Bi96  1  0.14452634  0.03002092  0.19860074  1
  Bi2+  Bi97  1  0.11308819  0.00680204  0.69209098  1
  Bi2+  Bi98  1  0.11176936  0.22148085  0.21832757  1
  Bi2+  Bi99  1  0.08754817  0.18877538  0.73329530  1
  Bi2+  Bi100  1  0.10249243  0.49427994  0.19501492  1
  Bi2+  Bi101  1  0.12326778  0.54305808  0.69993284  1
  Bi2+  Bi102  1  0.12235550  0.84003506  0.22004057  1
  Bi2+  Bi103  1  0.06945476  0.76615816  0.71767220  1
  Bi2+  Bi104  1  0.33899474  0.01806109  0.21671928  1
  Bi2+  Bi105  1  0.37422625  -0.05684292  0.70513160  1
  Bi2+  Bi106  1  0.33581099  0.23732845  0.22000399  1
  Bi2+  Bi107  1  0.43724293  0.22383097  0.70299461  1
  Bi2+  Bi108  1  0.34868782  0.48651388  0.18949088  1
  Bi2+  Bi109  1  0.36737202  0.51317986  0.69504741  1
  Bi2+  Bi110  1  0.39598476  0.77279671  0.22021229  1
  Bi2+  Bi111  1  0.36863486  0.75721126  0.75773504  1
  Bi2+  Bi112  1  0.62626483  -0.01050642  0.20835844  1
  Bi2+  Bi113  1  0.63584562  -0.04277247  0.68990636  1
  Bi2+  Bi114  1  0.59773807  0.30004962  0.18373886  1
  Bi2+  Bi115  1  0.63059187  0.23773870  0.70009314  1
  Bi2+  Bi116  1  0.60507743  0.47069645  0.24420901  1
  Bi2+  Bi117  1  0.59622926  0.49864655  0.71846251  1
  Bi2+  Bi118  1  0.66426890  0.72966637  0.22601093  1
  Bi2+  Bi119  1  0.57191624  0.77486507  0.75522815  1
  Bi2+  Bi120  1  0.89195587  0.04527406  0.21503330  1
  Bi2+  Bi121  1  0.84591861  0.01589446  0.71714049  1
  Bi2+  Bi122  1  0.78232942  0.22497187  0.19475839  1
  Bi2+  Bi123  1  0.88258010  0.20967844  0.73996966  1
  Bi2+  Bi124  1  0.86345066  0.50125509  0.20711661  1
  Bi2+  Bi125  1  0.86573885  0.54025004  0.69225906  1
  Bi2+  Bi126  1  0.90633557  0.76548137  0.21502994  1
  Bi2+  Bi127  1  0.80534398  0.74105344  0.72722670  1
  S2-  S128  1  0.00746957  0.13253365  0.15070677  1
  S2-  S129  1  -0.01554842  0.21181013  0.64747144  1
  S2-  S130  1  -0.01388416  0.40380324  0.15335820  1
  S2-  S131  1  0.01195098  0.42829785  0.68843920  1
  S2-  S132  1  -0.02597326  0.62903870  0.16796206  1
  S2-  S133  1  -0.00646214  0.64607712  0.65090785  1
  S2-  S134  1  -0.01183038  0.86747754  0.15426292  1
  S2-  S135  1  0.00443721  0.89235871  0.65649783  1
  S2-  S136  1  0.30361955  0.14217739  0.13915293  1
  S2-  S137  1  0.26063286  0.20354327  0.64195604  1
  S2-  S138  1  0.19727403  0.38251308  0.15732328  1
  S2-  S139  1  0.22124104  0.40820213  0.68578841  1
  S2-  S140  1  0.20727895  0.62046371  0.15208921  1
  S2-  S141  1  0.26257361  0.63473178  0.65869200  1
  S2-  S142  1  0.34045293  0.89031198  0.14715481  1
  S2-  S143  1  0.23376549  0.89127190  0.65609771  1
  S2-  S144  1  0.51219469  0.05223706  0.14225734  1
  S2-  S145  1  0.49478627  0.01387252  0.64170611  1
  S2-  S146  1  0.40770195  0.37004353  0.13148711  1
  S2-  S147  1  0.41566794  0.37251846  0.64262359  1
  S2-  S148  1  0.48205005  0.58110356  0.16287312  1
  S2-  S149  1  0.49287378  0.59019104  0.65259382  1
  S2-  S150  1  0.55420981  0.82105795  0.17974223  1
  S2-  S151  1  0.57788801  0.81607640  0.65529417  1
  S2-  S152  1  0.75833907  0.02212775  0.14093651  1
  S2-  S153  1  0.72171968  0.10698022  0.65325241  1
  S2-  S154  1  0.77814383  0.39095654  0.15763457  1
  S2-  S155  1  0.82361249  0.38543689  0.63936779  1
  S2-  S156  1  0.73079843  0.59035103  0.17358873  1
  S2-  S157  1  0.74863524  0.63208314  0.65055900  1
  S2-  S158  1  0.77559096  0.78080120  0.15038790  1
  S2-  S159  1  0.78818147  0.87589499  0.65806179  1
  S2-  S160  1  0.17925973  -0.01760651  0.34373095  1
  S2-  S161  1  0.14674697  -0.01127124  0.83836871  1
  S2-  S162  1  0.15252360  0.28395704  0.35244549  1
  S2-  S163  1  0.16659968  0.22311207  0.82871256  1
  S2-  S164  1  0.10509737  0.49824679  0.34934338  1
  S2-  S165  1  0.11998498  0.40936430  0.85466761  1
  S2-  S166  1  0.13698663  0.73947577  0.34328258  1
  S2-  S167  1  0.10753764  0.64422935  0.86276990  1
  S2-  S168  1  0.41669394  0.00645244  0.34313755  1
  S2-  S169  1  0.38164026  0.06743682  0.84056161  1
  S2-  S170  1  0.36736430  0.34455158  0.36231143  1
  S2-  S171  1  0.37799473  0.29846651  0.83101231  1
  S2-  S172  1  0.33787074  0.54715494  0.33637388  1
  S2-  S173  1  0.32409064  0.50470756  0.82643578  1
  S2-  S174  1  0.40233435  0.77752560  0.35402562  1
  S2-  S175  1  0.39944109  0.69811087  0.86142662  1
  S2-  S176  1  0.63668972  -0.01022779  0.34302911  1
  S2-  S177  1  0.64618385  0.00724624  0.84419818  1
  S2-  S178  1  0.59837700  0.25208535  0.34754687  1
  S2-  S179  1  0.63900569  0.27600338  0.84311214  1
  S2-  S180  1  0.66356763  0.49891643  0.34231615  1
  S2-  S181  1  0.62157987  0.51937812  0.85485955  1
  S2-  S182  1  0.64108943  0.75469791  0.33394149  1
  S2-  S183  1  0.64181493  0.75817324  0.85519191  1
  S2-  S184  1  0.87607617  -0.08900315  0.35793273  1
  S2-  S185  1  0.85958773  -0.10910411  0.86972475  1
  S2-  S186  1  0.87694781  0.34348533  0.35022077  1
  S2-  S187  1  0.90918486  0.25826911  0.84340639  1
  S2-  S188  1  0.89390083  0.53105927  0.31307816  1
  S2-  S189  1  0.89783472  0.48017608  0.83720934  1
  S2-  S190  1  0.90532664  0.72610199  0.31919522  1
  S2-  S191  1  0.85723585  0.66431556  0.86811436  1
  S2-  S192  1  0.00215497  0.11897054  0.45789741  1
  S2-  S193  1  0.00310872  0.13843284  0.94534113  1
  S2-  S194  1  0.00125713  0.36911386  0.45297311  1
  S2-  S195  1  -0.00458601  0.38974555  0.95259702  1
  S2-  S196  1  -0.00107022  0.62008526  0.44641611  1
  S2-  S197  1  0.00034366  0.64307415  0.96342073  1
  S2-  S198  1  0.00487865  0.87070634  0.45290790  1
  S2-  S199  1  0.00840113  0.88544784  0.95519727  1
  S2-  S200  1  0.25565178  0.12064166  0.45168480  1
  S2-  S201  1  0.25032673  0.13992137  0.94213442  1
  S2-  S202  1  0.25105418  0.36713026  0.46756599  1
  S2-  S203  1  0.25783908  0.38769250  0.94961736  1
  S2-  S204  1  0.25064896  0.61703144  0.45438053  1
  S2-  S205  1  0.25504021  0.64072501  0.95349244  1
  S2-  S206  1  0.25171262  0.87021467  0.45331000  1
  S2-  S207  1  0.25329173  0.88209135  0.95312024  1
  S2-  S208  1  0.49836078  0.12218403  0.45472356  1
  S2-  S209  1  0.50281551  0.13522637  0.94968194  1
  S2-  S210  1  0.50538756  0.36821423  0.45488136  1
  S2-  S211  1  0.50513719  0.38934628  0.94766914  1
  S2-  S212  1  0.50029510  0.61640568  0.44700575  1
  S2-  S213  1  0.50773316  0.63784990  0.96217516  1
  S2-  S214  1  0.49926462  0.87048080  0.46048764  1
  S2-  S215  1  0.50216591  0.88615387  0.95393834  1
  S2-  S216  1  0.74990050  0.11891645  0.44796990  1
  S2-  S217  1  0.75717396  0.13470241  0.95313162  1
  S2-  S218  1  0.74839633  0.36773849  0.44908685  1
  S2-  S219  1  0.75561747  0.38964276  0.95085457  1
  S2-  S220  1  0.75385816  0.62198656  0.44365560  1
  S2-  S221  1  0.74908891  0.63959374  0.97248077  1
  S2-  S222  1  0.74733062  0.87070795  0.45332236  1
  S2-  S223  1  0.75066748  0.89036295  0.96791626  1
  S2-  S224  1  0.12856746  0.01019922  0.04464531  1
  S2-  S225  1  0.12696711  -0.00351867  0.54600846  1
  S2-  S226  1  0.12760213  0.26556108  0.03737526  1
  S2-  S227  1  0.12401082  0.24742150  0.55168326  1
  S2-  S228  1  0.12770657  0.50994103  0.04260622  1
  S2-  S229  1  0.12293848  0.48761720  0.55669244  1
  S2-  S230  1  0.13002721  0.76131715  0.04676786  1
  S2-  S231  1  0.12722624  0.74175774  0.54837443  1
  S2-  S232  1  0.37685308  0.01155752  0.03924031  1
  S2-  S233  1  0.36999440  -0.00124687  0.54352550  1
  S2-  S234  1  0.38275896  0.25737238  0.03284464  1
  S2-  S235  1  0.38021768  0.24349537  0.54330077  1
  S2-  S236  1  0.38284386  0.51389033  0.03640161  1
  S2-  S237  1  0.37683662  0.49315471  0.54030931  1
  S2-  S238  1  0.37919300  0.76045627  0.05332380  1
  S2-  S239  1  0.37595381  0.74479522  0.55420774  1
  S2-  S240  1  0.62400197  0.01085444  0.04608005  1
  S2-  S241  1  0.62797591  -0.00548498  0.54446744  1
  S2-  S242  1  0.62661878  0.25800301  0.04583971  1
  S2-  S243  1  0.62596148  0.24858622  0.54860149  1
  S2-  S244  1  0.62851329  0.50923584  0.05696570  1
  S2-  S245  1  0.62709082  0.49214713  0.54613423  1
  S2-  S246  1  0.62520986  0.76583004  0.05956309  1
  S2-  S247  1  0.62523359  0.73998453  0.54010061  1
  S2-  S248  1  0.88605887  0.01061614  0.04277842  1
  S2-  S249  1  0.87690271  -0.00714973  0.54705978  1
  S2-  S250  1  0.88007770  0.26054478  0.04599724  1
  S2-  S251  1  0.87462924  0.24533946  0.53985190  1
  S2-  S252  1  0.87838041  0.51524154  0.04845537  1
  S2-  S253  1  0.87861231  0.49099931  0.53505980  1
  S2-  S254  1  0.88428603  0.76178994  0.04740139  1
  S2-  S255  1  0.87861343  0.74554885  0.53768410  1
