# generated using pymatgen
data_La6Ce7Pr13Nd19Sm19(BiS2)64
_symmetry_space_group_name_H-M   'P 1'
_cell_length_a   16.00703883
_cell_length_b   15.98325722
_cell_length_c   27.47260644
_cell_angle_alpha   89.94643406
_cell_angle_beta   90.27069882
_cell_angle_gamma   89.98480681
_symmetry_Int_Tables_number   1
_chemical_formula_structural   La6Ce7Pr13Nd19Sm19(BiS2)64
_chemical_formula_sum   'La6 Ce7 Pr13 Nd19 Sm19 Bi64 S128'
_cell_volume   7028.63675438
_cell_formula_units_Z   1
loop_
 _symmetry_equiv_pos_site_id
 _symmetry_equiv_pos_as_xyz
  1  'x, y, z'
loop_
 _atom_type_symbol
 _atom_type_oxidation_number
  La3+  3.0
  Ce3+  3.0
  Pr3+  3.0
  Nd3+  3.0
  Sm3+  3.0
  Bi2+  2.0
  S2-  -2.0
loop_
 _atom_site_type_symbol
 _atom_site_label
 _atom_site_symmetry_multiplicity
 _atom_site_fract_x
 _atom_site_fract_y
 _atom_site_fract_z
 _atom_site_occupancy
  La3+  La0  1  0.35312593  0.01273939  0.41922519  1
  La3+  La1  1  0.16235116  0.25579862  0.89947063  1
  La3+  La2  1  0.86495772  0.26793312  0.42733374  1
  La3+  La3  1  0.61071466  0.76094741  0.43304870  1
  La3+  La4  1  0.64302616  0.49734085  0.89767276  1
  La3+  La5  1  0.61480617  0.27138770  0.41392345  1
  Ce3+  Ce6  1  0.15458813  0.49267310  0.95073057  1
  Ce3+  Ce7  1  0.60844833  0.01475780  0.43424667  1
  Ce3+  Ce8  1  0.53241943  0.86943782  0.06821439  1
  Ce3+  Ce9  1  0.73422604  0.88158842  0.56419038  1
  Ce3+  Ce10  1  0.53317659  0.61847497  0.06716824  1
  Ce3+  Ce11  1  0.22938631  0.38366626  0.58163092  1
  Ce3+  Ce12  1  0.15412601  0.74311439  0.94880555  1
  Pr3+  Pr13  1  0.85207788  0.01380019  0.43065499  1
  Pr3+  Pr14  1  0.73570199  0.13919532  0.55976600  1
  Pr3+  Pr15  1  0.73515220  0.38310547  0.59594521  1
  Pr3+  Pr16  1  0.10876229  0.26560205  0.43521412  1
  Pr3+  Pr17  1  0.77975589  0.36995151  0.05744839  1
  Pr3+  Pr18  1  0.35988623  0.50778690  0.44357306  1
  Pr3+  Pr19  1  0.28096678  0.36148372  0.07873209  1
  Pr3+  Pr20  1  0.23656106  0.63746868  0.56484526  1
  Pr3+  Pr21  1  0.77732701  0.61867401  0.06614234  1
  Pr3+  Pr22  1  0.10840393  0.76106018  0.42730230  1
  Pr3+  Pr23  1  0.28063650  0.86868581  0.08326675  1
  Pr3+  Pr24  1  0.90030987  0.49554280  0.92879850  1
  Pr3+  Pr25  1  0.28382564  0.61519031  0.08391529  1
  Nd3+  Nd26  1  -0.01651732  0.38756446  0.57258151  1
  Nd3+  Nd27  1  0.02447050  0.87151225  0.06335968  1
  Nd3+  Nd28  1  0.10163899  0.01003573  0.41152366  1
  Nd3+  Nd29  1  0.02331571  0.36733822  0.06055111  1
  Nd3+  Nd30  1  0.10928048  0.51335239  0.44483628  1
  Nd3+  Nd31  1  0.77895245  0.87245873  0.06276255  1
  Nd3+  Nd32  1  0.78608817  0.12021462  0.06325467  1
  Nd3+  Nd33  1  0.02771818  0.11802512  0.04904146  1
  Nd3+  Nd34  1  0.14924730  -0.00596360  0.92921785  1
  Nd3+  Nd35  1  0.35507889  0.26337490  0.44576585  1
  Nd3+  Nd36  1  0.27407530  0.11403474  0.06804081  1
  Nd3+  Nd37  1  0.90028132  0.24891139  0.92687632  1
  Nd3+  Nd38  1  0.53759639  0.36609511  0.06955216  1
  Nd3+  Nd39  1  0.23528074  0.88738300  0.56038515  1
  Nd3+  Nd40  1  0.48873835  0.38837860  0.56937711  1
  Nd3+  Nd41  1  -0.01564436  0.64588654  0.56825607  1
  Nd3+  Nd42  1  0.48687276  0.13856808  0.55251802  1
  Nd3+  Nd43  1  0.23494102  0.13300542  0.56599059  1
  Nd3+  Nd44  1  0.85873652  0.50962099  0.44588802  1
  Sm3+  Sm45  1  0.65352492  -0.00218430  0.93652021  1
  Sm3+  Sm46  1  0.53507049  0.11709346  0.06839865  1
  Sm3+  Sm47  1  0.89942701  0.74068476  0.93710282  1
  Sm3+  Sm48  1  0.02163126  0.62027897  0.06351668  1
  Sm3+  Sm49  1  0.61109477  0.50702990  0.44998495  1
  Sm3+  Sm50  1  0.65087884  0.74343172  0.94191256  1
  Sm3+  Sm51  1  0.39992996  0.24319046  0.95020345  1
  Sm3+  Sm52  1  0.40387323  0.74238243  0.94747260  1
  Sm3+  Sm53  1  0.48529969  0.64414630  0.56445912  1
  Sm3+  Sm54  1  0.90606391  -0.00089168  0.92692903  1
  Sm3+  Sm55  1  0.85333475  0.75964287  0.43246254  1
  Sm3+  Sm56  1  0.64995812  0.24229893  0.93635211  1
  Sm3+  Sm57  1  -0.01480616  0.88529891  0.54761076  1
  Sm3+  Sm58  1  0.73526719  0.63724832  0.56657364  1
  Sm3+  Sm59  1  0.48286703  0.88975095  0.55427888  1
  Sm3+  Sm60  1  -0.01485925  0.13760569  0.55663073  1
  Sm3+  Sm61  1  0.36253200  0.76376264  0.43027415  1
  Sm3+  Sm62  1  0.40516487  0.49030506  0.94968384  1
  Sm3+  Sm63  1  0.39901011  -0.00515009  0.94912811  1
  Bi2+  Bi64  1  0.01005281  0.10548917  0.26428556  1
  Bi2+  Bi65  1  0.03153247  0.07885914  0.79314334  1
  Bi2+  Bi66  1  -0.01034628  0.36841085  0.29497225  1
  Bi2+  Bi67  1  0.02940625  0.41566871  0.79341785  1
  Bi2+  Bi68  1  -0.04695730  0.64241547  0.33760179  1
  Bi2+  Bi69  1  0.02113464  0.62949441  0.79530065  1
  Bi2+  Bi70  1  -0.01694782  0.81214667  0.27545733  1
  Bi2+  Bi71  1  0.05230713  0.82982600  0.77849503  1
  Bi2+  Bi72  1  0.19061196  0.17864246  0.26973843  1
  Bi2+  Bi73  1  0.30968483  0.13255604  0.78704947  1
  Bi2+  Bi74  1  0.24332727  0.42966267  0.30553977  1
  Bi2+  Bi75  1  0.30693799  0.35712894  0.76951157  1
  Bi2+  Bi76  1  0.14402758  0.62835258  0.31796088  1
  Bi2+  Bi77  1  0.28313678  0.65101402  0.80101643  1
  Bi2+  Bi78  1  0.21157879  0.93254085  0.28033437  1
  Bi2+  Bi79  1  0.28163620  0.92585060  0.77876908  1
  Bi2+  Bi80  1  0.45682994  0.11070180  0.27149007  1
  Bi2+  Bi81  1  0.50510156  0.10697127  0.79491777  1
  Bi2+  Bi82  1  0.47572114  0.37965232  0.30616238  1
  Bi2+  Bi83  1  0.50037562  0.36195653  0.78795115  1
  Bi2+  Bi84  1  0.49540172  0.62962251  0.28323151  1
  Bi2+  Bi85  1  0.49873782  0.63960569  0.79667469  1
  Bi2+  Bi86  1  0.46251516  0.87522330  0.29261325  1
  Bi2+  Bi87  1  0.57432633  0.91712136  0.78295067  1
  Bi2+  Bi88  1  0.81665653  0.09673868  0.29173535  1
  Bi2+  Bi89  1  0.76440369  0.12601047  0.78847874  1
  Bi2+  Bi90  1  0.75247564  0.36439203  0.28633585  1
  Bi2+  Bi91  1  0.76553802  0.34403949  0.78233760  1
  Bi2+  Bi92  1  0.77494946  0.61646594  0.28603527  1
  Bi2+  Bi93  1  0.77278921  0.73839887  0.79938256  1
  Bi2+  Bi94  1  0.80223246  0.87552821  0.29949287  1
  Bi2+  Bi95  1  0.76289718  0.92772696  0.82593493  1
  Bi2+  Bi96  1  0.06797495  -0.05243224  0.19798564  1
  Bi2+  Bi97  1  0.13037053  -0.02797278  0.71180573  1
  Bi2+  Bi98  1  0.11558263  0.32970959  0.21119539  1
  Bi2+  Bi99  1  0.12790991  0.24340062  0.70482903  1
  Bi2+  Bi100  1  0.08341485  0.52679289  0.21680126  1
  Bi2+  Bi101  1  0.17313041  0.52387471  0.73730848  1
  Bi2+  Bi102  1  0.09014635  0.72175702  0.19651178  1
  Bi2+  Bi103  1  0.10869484  0.70208035  0.69192700  1
  Bi2+  Bi104  1  0.35820600  -0.00357912  0.20505841  1
  Bi2+  Bi105  1  0.40354824  -0.03849495  0.68840159  1
  Bi2+  Bi106  1  0.34894523  0.27686996  0.22427456  1
  Bi2+  Bi107  1  0.42888484  0.28423104  0.69093269  1
  Bi2+  Bi108  1  0.33912042  0.54698985  0.22593508  1
  Bi2+  Bi109  1  0.38189751  0.52437074  0.71605119  1
  Bi2+  Bi110  1  0.26906217  0.73201665  0.25405744  1
  Bi2+  Bi111  1  0.34705269  0.77252029  0.71769200  1
  Bi2+  Bi112  1  0.63275079  -0.09613458  0.23938297  1
  Bi2+  Bi113  1  0.66278809  -0.03743673  0.68158343  1
  Bi2+  Bi114  1  0.59192581  0.24796809  0.19485849  1
  Bi2+  Bi115  1  0.61944409  0.15430853  0.70640652  1
  Bi2+  Bi116  1  0.62435956  0.49433138  0.25238802  1
  Bi2+  Bi117  1  0.61578902  0.50122359  0.71578705  1
  Bi2+  Bi118  1  0.52896142  0.73714442  0.18938804  1
  Bi2+  Bi119  1  0.63294823  0.77064822  0.71752712  1
  Bi2+  Bi120  1  0.85938877  0.00672906  0.19330050  1
  Bi2+  Bi121  1  0.84607359  -0.01887205  0.72160430  1
  Bi2+  Bi122  1  0.83020813  0.25103934  0.18562357  1
  Bi2+  Bi123  1  0.88651269  0.23739572  0.70977432  1
  Bi2+  Bi124  1  0.88629444  0.51011587  0.21040540  1
  Bi2+  Bi125  1  0.86460780  0.52361085  0.71888053  1
  Bi2+  Bi126  1  0.73364746  0.74536474  0.20058462  1
  Bi2+  Bi127  1  0.88125265  0.78760713  0.70895714  1
  S2-  S128  1  -0.06991261  0.13805632  0.13306515  1
  S2-  S129  1  0.00237137  0.14775699  0.65634512  1
  S2-  S130  1  -0.09496841  0.37188591  0.13760326  1
  S2-  S131  1  0.09799440  0.37112687  0.64972769  1
  S2-  S132  1  -0.09233072  0.62308237  0.13938267  1
  S2-  S133  1  -0.01995837  0.57765528  0.66238349  1
  S2-  S134  1  -0.09717578  0.87599876  0.13719128  1
  S2-  S135  1  -0.00902680  0.79428243  0.63155576  1
  S2-  S136  1  0.27276388  0.22520925  0.14696313  1
  S2-  S137  1  0.24590254  0.00372946  0.63966951  1
  S2-  S138  1  0.25347458  0.48109611  0.15344561  1
  S2-  S139  1  0.25800161  0.23936935  0.64811860  1
  S2-  S140  1  0.25019714  0.74255226  0.15499925  1
  S2-  S141  1  0.25319526  0.52209156  0.64448788  1
  S2-  S142  1  0.22111966  1.00035310  0.14397839  1
  S2-  S143  1  0.23610154  0.76496410  0.63669035  1
  S2-  S144  1  0.48896222  0.10715993  0.16401030  1
  S2-  S145  1  0.46466384  0.12274914  0.65176495  1
  S2-  S146  1  0.46762309  0.35088906  0.16348375  1
  S2-  S147  1  0.58324859  0.37623163  0.65515070  1
  S2-  S148  1  0.43167175  0.60852320  0.14692040  1
  S2-  S149  1  0.50345588  0.59444884  0.65832722  1
  S2-  S150  1  0.42678573  0.86727233  0.14822637  1
  S2-  S151  1  0.46793039  0.81835508  0.64347070  1
  S2-  S152  1  0.70857395  0.13138439  0.15410181  1
  S2-  S153  1  0.74836334  0.22124578  0.64938617  1
  S2-  S154  1  0.67941220  0.35245315  0.14426710  1
  S2-  S155  1  0.88094950  0.38316972  0.65772421  1
  S2-  S156  1  0.65622072  0.62619146  0.14303167  1
  S2-  S157  1  0.73771209  0.54004599  0.65187344  1
  S2-  S158  1  0.66068336  0.88654079  0.13906837  1
  S2-  S159  1  0.74317191  0.76272933  0.63886102  1
  S2-  S160  1  0.22685593  0.06777947  0.34698519  1
  S2-  S161  1  0.17960562  0.09924057  0.84904682  1
  S2-  S162  1  -0.00384746  0.24030172  0.35485234  1
  S2-  S163  1  0.06923578  0.25619296  0.80660916  1
  S2-  S164  1  0.11863760  0.40585171  0.36544116  1
  S2-  S165  1  0.16208798  0.43020061  0.86101245  1
  S2-  S166  1  0.10236256  0.86912738  0.34702149  1
  S2-  S167  1  0.14402910  0.72763170  0.85132383  1
  S2-  S168  1  0.49534436  0.01506805  0.35323935  1
  S2-  S169  1  0.39146775  0.00691287  0.85110751  1
  S2-  S170  1  0.33622226  0.29670930  0.34852601  1
  S2-  S171  1  0.33082084  0.26057632  0.85920493  1
  S2-  S172  1  0.38449786  0.52739471  0.34455408  1
  S2-  S173  1  0.47474002  0.49507195  0.85788742  1
  S2-  S174  1  0.32739962  0.86956570  0.35209671  1
  S2-  S175  1  0.40766362  0.75000121  0.84854185  1
  S2-  S176  1  0.72008370  0.00329243  0.35845312  1
  S2-  S177  1  0.63591126  0.11613811  0.86371807  1
  S2-  S178  1  0.54789296  0.23165056  0.31712049  1
  S2-  S179  1  0.63601587  0.33493541  0.85092483  1
  S2-  S180  1  0.61372983  0.43591368  0.35922457  1
  S2-  S181  1  0.73029205  0.50042596  0.79945575  1
  S2-  S182  1  0.49155266  0.74444035  0.35821563  1
  S2-  S183  1  0.63674162  0.66553020  0.85461769  1
  S2-  S184  1  0.95744551  0.02528636  0.34793215  1
  S2-  S185  1  1.02431570  -0.04820491  0.85548842  1
  S2-  S186  1  0.75387399  0.23538109  0.34732339  1
  S2-  S187  1  0.89755221  0.12588407  0.85380493  1
  S2-  S188  1  0.86165501  0.42062663  0.35827241  1
  S2-  S189  1  0.89435272  0.37307679  0.85225626  1
  S2-  S190  1  0.73386067  0.74946505  0.35815916  1
  S2-  S191  1  0.89417290  0.63247832  0.85885348  1
  S2-  S192  1  -0.01395980  0.13006381  0.45566265  1
  S2-  S193  1  0.03429818  0.12762738  0.94691180  1
  S2-  S194  1  -0.01354574  0.39032080  0.46549593  1
  S2-  S195  1  0.03179956  0.36623691  0.95522270  1
  S2-  S196  1  -0.01764389  0.63913513  0.45839612  1
  S2-  S197  1  0.02791231  0.61945769  0.95918314  1
  S2-  S198  1  -0.02357713  0.88322333  0.44665583  1
  S2-  S199  1  0.02319054  0.86228198  0.95797158  1
  S2-  S200  1  0.23014795  0.13820282  0.45790619  1
  S2-  S201  1  0.27684582  0.11948918  0.96113445  1
  S2-  S202  1  0.23398208  0.38892161  0.46824863  1
  S2-  S203  1  0.27931926  0.36765827  0.96739268  1
  S2-  S204  1  0.23853116  0.63927869  0.45158543  1
  S2-  S205  1  0.28183971  0.61675351  0.95956385  1
  S2-  S206  1  0.22720517  0.89023377  0.45415886  1
  S2-  S207  1  0.27862962  0.86863894  0.95053792  1
  S2-  S208  1  0.48634754  0.14636216  0.44827896  1
  S2-  S209  1  0.52240623  0.11736028  0.96192352  1
  S2-  S210  1  0.48595020  0.38361957  0.46080845  1
  S2-  S211  1  0.52536123  0.36441302  0.96027031  1
  S2-  S212  1  0.48613443  0.63195035  0.45909778  1
  S2-  S213  1  0.52694721  0.61849091  0.95995416  1
  S2-  S214  1  0.48380029  0.88796781  0.45293975  1
  S2-  S215  1  0.52788257  0.87152992  0.95314653  1
  S2-  S216  1  0.73196353  0.14203317  0.45585631  1
  S2-  S217  1  0.77835503  0.11822448  0.95542340  1
  S2-  S218  1  0.73440864  0.38653989  0.46046240  1
  S2-  S219  1  0.76770529  0.37390521  0.95031989  1
  S2-  S220  1  0.73310944  0.63088463  0.45987757  1
  S2-  S221  1  0.77074829  0.61858104  0.95552445  1
  S2-  S222  1  0.73538202  0.88568775  0.45989656  1
  S2-  S223  1  0.77783388  0.86899821  0.95152320  1
  S2-  S224  1  0.14843579  -0.01095825  0.03590107  1
  S2-  S225  1  0.10382542  0.00912285  0.54601917  1
  S2-  S226  1  0.14635216  0.24393500  0.05452477  1
  S2-  S227  1  0.10885351  0.25691730  0.54384426  1
  S2-  S228  1  0.14522456  0.49673807  0.05398316  1
  S2-  S229  1  0.10612212  0.51752050  0.54854947  1
  S2-  S230  1  0.14832855  0.74369785  0.05187392  1
  S2-  S231  1  0.11091925  0.76196813  0.53345387  1
  S2-  S232  1  0.40518035  -0.00442783  0.05085834  1
  S2-  S233  1  0.36280539  0.01289265  0.53484458  1
  S2-  S234  1  0.40969134  0.23729485  0.05175208  1
  S2-  S235  1  0.36265127  0.26407677  0.54876341  1
  S2-  S236  1  0.40563326  0.48631601  0.05104135  1
  S2-  S237  1  0.36816695  0.51452406  0.54838158  1
  S2-  S238  1  0.40162842  0.74442042  0.04828831  1
  S2-  S239  1  0.36256301  0.76243533  0.53474416  1
  S2-  S240  1  0.65559779  -0.00104184  0.03890471  1
  S2-  S241  1  0.60974374  0.01048203  0.54348143  1
  S2-  S242  1  0.65447805  0.23761907  0.04036065  1
  S2-  S243  1  0.61033368  0.26386702  0.54859929  1
  S2-  S244  1  0.65260742  0.49326080  0.04732356  1
  S2-  S245  1  0.60935062  0.51551768  0.55093390  1
  S2-  S246  1  0.65519111  0.74786801  0.04243686  1
  S2-  S247  1  0.60681245  0.76232883  0.54214453  1
  S2-  S248  1  0.90338592  -0.00584172  0.03141722  1
  S2-  S249  1  0.86102362  0.00893787  0.54948892  1
  S2-  S250  1  0.90305708  0.24481568  0.03110052  1
  S2-  S251  1  0.86361610  0.26158272  0.54430729  1
  S2-  S252  1  0.90393584  0.49696936  0.03534079  1
  S2-  S253  1  0.85997495  0.51567758  0.54969832  1
  S2-  S254  1  0.90109989  0.74506796  0.03833694  1
  S2-  S255  1  0.85724683  0.76127611  0.53534767  1
