# generated using pymatgen
data_La6Ce7Pr13Nd19Sm19(BiS2)64
_symmetry_space_group_name_H-M   'P 1'
_cell_length_a   16.10874903
_cell_length_b   16.09056036
_cell_length_c   27.36808601
_cell_angle_alpha   90.03433557
_cell_angle_beta   89.98921295
_cell_angle_gamma   89.98818870
_symmetry_Int_Tables_number   1
_chemical_formula_structural   La6Ce7Pr13Nd19Sm19(BiS2)64
_chemical_formula_sum   'La6 Ce7 Pr13 Nd19 Sm19 Bi64 S128'
_cell_volume   7093.77345994
_cell_formula_units_Z   1
loop_
 _symmetry_equiv_pos_site_id
 _symmetry_equiv_pos_as_xyz
  1  'x, y, z'
loop_
 _atom_type_symbol
 _atom_type_oxidation_number
  La3+  3.0
  Ce3+  3.0
  Pr3+  3.0
  Nd3+  3.0
  Sm3+  3.0
  Bi2+  2.0
  S2-  -2.0
loop_
 _atom_site_type_symbol
 _atom_site_label
 _atom_site_symmetry_multiplicity
 _atom_site_fract_x
 _atom_site_fract_y
 _atom_site_fract_z
 _atom_site_occupancy
  La3+  La0  1  0.62030801  0.74192670  0.43089924  1
  La3+  La1  1  0.24153699  0.12537263  0.07137713  1
  La3+  La2  1  0.88053844  -0.02085889  0.38304512  1
  La3+  La3  1  0.86717341  0.76289294  0.90248626  1
  La3+  La4  1  -0.00204868  0.61906058  0.60757332  1
  La3+  La5  1  0.36717501  0.49849651  0.41592664  1
  Ce3+  Ce6  1  0.36836653  -0.00030072  0.94529926  1
  Ce3+  Ce7  1  0.61744175  0.24982537  0.94132325  1
  Ce3+  Ce8  1  0.11201558  0.75125968  0.94438493  1
  Ce3+  Ce9  1  0.24115603  0.62554998  0.05571526  1
  Ce3+  Ce10  1  -0.00884771  0.37686440  0.05723998  1
  Ce3+  Ce11  1  0.36841246  0.24509500  0.44319817  1
  Ce3+  Ce12  1  0.11656824  0.24812205  0.94517756  1
  Pr3+  Pr13  1  0.61175116  0.74933979  0.93054544  1
  Pr3+  Pr14  1  0.11544121  0.49705107  0.43001310  1
  Pr3+  Pr15  1  0.49822631  0.62139838  0.56706712  1
  Pr3+  Pr16  1  0.11542354  -0.00335595  0.94116812  1
  Pr3+  Pr17  1  0.12076623  0.24483082  0.45128700  1
  Pr3+  Pr18  1  0.74473422  0.62210085  0.56628854  1
  Pr3+  Pr19  1  0.86717728  0.24799299  0.93949214  1
  Pr3+  Pr20  1  0.87363153  0.74593256  0.44170013  1
  Pr3+  Pr21  1  0.49215529  0.87415810  0.07590454  1
  Pr3+  Pr22  1  0.74145657  0.12665292  0.06352232  1
  Pr3+  Pr23  1  0.25165369  0.12009587  0.57707133  1
  Pr3+  Pr24  1  0.12699456  0.00490109  0.43070566  1
  Pr3+  Pr25  1  0.24141429  0.87099620  0.56120333  1
  Nd3+  Nd26  1  0.49812205  0.87196881  0.55619469  1
  Nd3+  Nd27  1  0.62175782  -0.00726192  0.42500171  1
  Nd3+  Nd28  1  0.24320019  0.62065821  0.55903826  1
  Nd3+  Nd29  1  0.36544246  0.49955542  0.94037816  1
  Nd3+  Nd30  1  0.49313341  0.62216591  0.06318352  1
  Nd3+  Nd31  1  0.74635053  0.37440330  0.55202313  1
  Nd3+  Nd32  1  -0.00786961  0.12420835  0.06039692  1
  Nd3+  Nd33  1  0.61808520  0.49905906  0.93740699  1
  Nd3+  Nd34  1  0.62044481  0.49780910  0.42607425  1
  Nd3+  Nd35  1  0.73967719  0.86845978  0.06689883  1
  Nd3+  Nd36  1  -0.01068671  0.62605841  0.05768454  1
  Nd3+  Nd37  1  0.49468082  0.37584349  0.55446080  1
  Nd3+  Nd38  1  0.24335260  0.37694658  0.56043312  1
  Nd3+  Nd39  1  0.49925544  0.12016807  0.56305890  1
  Nd3+  Nd40  1  0.74365228  0.11957272  0.56208213  1
  Nd3+  Nd41  1  0.36367542  0.24930758  0.94346797  1
  Nd3+  Nd42  1  -0.01547485  0.87085059  0.07177255  1
  Nd3+  Nd43  1  0.49187766  0.12647949  0.05819877  1
  Nd3+  Nd44  1  0.11569431  0.50204836  0.93761548  1
  Sm3+  Sm45  1  0.36919946  0.74387406  0.44604511  1
  Sm3+  Sm46  1  0.61710350  -0.00327253  0.94871741  1
  Sm3+  Sm47  1  0.74170866  0.62749977  0.05103929  1
  Sm3+  Sm48  1  0.86912292  0.23457964  0.44064983  1
  Sm3+  Sm49  1  0.49166097  0.37627210  0.05446129  1
  Sm3+  Sm50  1  -0.00657915  0.11925016  0.56110179  1
  Sm3+  Sm51  1  -0.00679450  0.87400061  0.55603721  1
  Sm3+  Sm52  1  0.86715565  0.50408737  0.93903607  1
  Sm3+  Sm53  1  0.74219630  0.37669760  0.05387612  1
  Sm3+  Sm54  1  0.36897038  -0.00358757  0.44090876  1
  Sm3+  Sm55  1  0.24035985  0.37822761  0.05952596  1
  Sm3+  Sm56  1  0.61886512  0.24410683  0.44202472  1
  Sm3+  Sm57  1  0.87395289  0.49531865  0.44011485  1
  Sm3+  Sm58  1  0.74727136  0.87240500  0.55111448  1
  Sm3+  Sm59  1  0.86495007  -0.00281263  0.94532278  1
  Sm3+  Sm60  1  0.11668800  0.74726832  0.44570409  1
  Sm3+  Sm61  1  -0.00671805  0.37572320  0.56011541  1
  Sm3+  Sm62  1  0.24127175  0.87523686  0.05440835  1
  Sm3+  Sm63  1  0.37189525  0.75059802  0.94505415  1
  Bi2+  Bi64  1  0.03017325  0.12606879  0.28936198  1
  Bi2+  Bi65  1  -0.02708895  0.15150443  0.79369973  1
  Bi2+  Bi66  1  0.03936143  0.37424983  0.29259745  1
  Bi2+  Bi67  1  -0.02564874  0.34595046  0.73175355  1
  Bi2+  Bi68  1  0.03669774  0.60310910  0.28681870  1
  Bi2+  Bi69  1  0.00412593  0.60813638  0.80776155  1
  Bi2+  Bi70  1  -0.00200108  0.84486829  0.28348061  1
  Bi2+  Bi71  1  0.02207604  0.90938424  0.79399575  1
  Bi2+  Bi72  1  0.28072601  0.16565003  0.30491094  1
  Bi2+  Bi73  1  0.26024775  0.12321389  0.81023946  1
  Bi2+  Bi74  1  0.23625025  0.38049751  0.28365552  1
  Bi2+  Bi75  1  0.25990951  0.37800133  0.81107886  1
  Bi2+  Bi76  1  0.30176042  0.63221549  0.28370909  1
  Bi2+  Bi77  1  0.27132515  0.65120521  0.78442621  1
  Bi2+  Bi78  1  0.28867868  0.88955154  0.29227224  1
  Bi2+  Bi79  1  0.29102093  0.84082270  0.76079625  1
  Bi2+  Bi80  1  0.46637739  0.14757739  0.28488695  1
  Bi2+  Bi81  1  0.53591103  0.09254441  0.77652361  1
  Bi2+  Bi82  1  0.56114167  0.35352538  0.28899465  1
  Bi2+  Bi83  1  0.49643934  0.36439668  0.79491381  1
  Bi2+  Bi84  1  0.52642523  0.61901249  0.29234574  1
  Bi2+  Bi85  1  0.47268784  0.63223952  0.78714423  1
  Bi2+  Bi86  1  0.47605408  0.95574033  0.30693525  1
  Bi2+  Bi87  1  0.47362698  0.88652234  0.79785249  1
  Bi2+  Bi88  1  0.69938314  0.13177013  0.26795350  1
  Bi2+  Bi89  1  0.78306083  0.13220520  0.80444810  1
  Bi2+  Bi90  1  0.75939746  0.39736523  0.31004325  1
  Bi2+  Bi91  1  0.69731749  0.38136283  0.76487038  1
  Bi2+  Bi92  1  0.77937394  0.58670472  0.27885815  1
  Bi2+  Bi93  1  0.73461710  0.61971135  0.79871224  1
  Bi2+  Bi94  1  0.72857666  0.86849628  0.29044840  1
  Bi2+  Bi95  1  0.73645169  0.91668104  0.79247854  1
  Bi2+  Bi96  1  0.17392504  -0.01816187  0.21312890  1
  Bi2+  Bi97  1  0.11753271  0.00699926  0.71229852  1
  Bi2+  Bi98  1  0.12949493  0.26146450  0.19722072  1
  Bi2+  Bi99  1  0.14078870  0.24972156  0.74158633  1
  Bi2+  Bi100  1  0.11379361  0.53246457  0.19547606  1
  Bi2+  Bi101  1  0.19474014  0.49960543  0.72534412  1
  Bi2+  Bi102  1  0.15803964  0.74787386  0.24666107  1
  Bi2+  Bi103  1  0.13700266  0.76129885  0.70268623  1
  Bi2+  Bi104  1  0.39458913  -0.01455934  0.18992963  1
  Bi2+  Bi105  1  0.39250560  0.00086291  0.71429820  1
  Bi2+  Bi106  1  0.39548050  0.32777950  0.21977315  1
  Bi2+  Bi107  1  0.44328914  0.23254725  0.72022064  1
  Bi2+  Bi108  1  0.39198023  0.52751741  0.20574835  1
  Bi2+  Bi109  1  0.38179585  0.47553177  0.68959974  1
  Bi2+  Bi110  1  0.42792665  0.79746457  0.22641539  1
  Bi2+  Bi111  1  0.38164005  0.67554645  0.68279026  1
  Bi2+  Bi112  1  0.58687818  0.00820984  0.20803768  1
  Bi2+  Bi113  1  0.64728988  -0.04133139  0.69507830  1
  Bi2+  Bi114  1  0.66837054  0.27866107  0.19801296  1
  Bi2+  Bi115  1  0.67021989  0.20498322  0.71384506  1
  Bi2+  Bi116  1  0.65415668  0.47554496  0.21450765  1
  Bi2+  Bi117  1  0.57822769  0.49863003  0.70533486  1
  Bi2+  Bi118  1  0.61675074  0.74285091  0.21306141  1
  Bi2+  Bi119  1  0.55677884  0.75166353  0.71010634  1
  Bi2+  Bi120  1  0.90519265  0.01717186  0.18195580  1
  Bi2+  Bi121  1  0.86535254  0.00906244  0.72266279  1
  Bi2+  Bi122  1  0.88348792  0.25688576  0.26832935  1
  Bi2+  Bi123  1  0.86429264  0.20183879  0.68714841  1
  Bi2+  Bi124  1  0.89573856  0.45263532  0.22099022  1
  Bi2+  Bi125  1  0.84053220  0.48049860  0.70886899  1
  Bi2+  Bi126  1  0.85798028  0.71429287  0.20221307  1
  Bi2+  Bi127  1  0.87430728  0.76829447  0.70652690  1
  S2-  S128  1  -0.00326097  0.15541740  0.15803749  1
  S2-  S129  1  -0.01090489  0.07736525  0.65691282  1
  S2-  S130  1  0.02141851  0.39580238  0.15241298  1
  S2-  S131  1  -0.00662467  0.45216663  0.64729608  1
  S2-  S132  1  -0.00694341  0.65158171  0.15593138  1
  S2-  S133  1  0.00660691  0.65456888  0.71428429  1
  S2-  S134  1  0.04547563  0.91862326  0.16296707  1
  S2-  S135  1  0.00285479  0.83429241  0.65173294  1
  S2-  S136  1  0.23168473  0.12706065  0.17149790  1
  S2-  S137  1  0.18947149  0.13712141  0.67286186  1
  S2-  S138  1  0.25068417  0.34321172  0.15489717  1
  S2-  S139  1  0.24438508  0.37701646  0.66019387  1
  S2-  S140  1  0.25048699  0.59291133  0.15121853  1
  S2-  S141  1  0.16483678  0.61728271  0.64704125  1
  S2-  S142  1  0.26733300  0.87689812  0.15023727  1
  S2-  S143  1  0.23222540  0.90586119  0.65915375  1
  S2-  S144  1  0.48778187  0.12705338  0.15650917  1
  S2-  S145  1  0.39245941  0.12076578  0.64256941  1
  S2-  S146  1  0.49126253  0.40947203  0.14968417  1
  S2-  S147  1  0.50102495  0.35587494  0.65356439  1
  S2-  S148  1  0.48371870  0.65973465  0.15908971  1
  S2-  S149  1  0.61724698  0.62446284  0.64166438  1
  S2-  S150  1  0.62223377  0.86901035  0.14418903  1
  S2-  S151  1  0.49336014  0.88906729  0.65505175  1
  S2-  S152  1  0.75616688  0.11043432  0.16247978  1
  S2-  S153  1  0.62272028  0.10318420  0.63461677  1
  S2-  S154  1  0.77249541  0.38993534  0.14947152  1
  S2-  S155  1  0.73860576  0.39803649  0.64975339  1
  S2-  S156  1  0.73239019  0.65070429  0.14811123  1
  S2-  S157  1  0.83780282  0.62785301  0.65183910  1
  S2-  S158  1  0.85137572  0.86214704  0.14428643  1
  S2-  S159  1  0.74633933  0.84999240  0.64952225  1
  S2-  S160  1  0.04520857  -0.02212769  0.34214936  1
  S2-  S161  1  0.12914156  0.01006734  0.84074407  1
  S2-  S162  1  0.12911397  0.18439372  0.35662539  1
  S2-  S163  1  0.14511838  0.24796878  0.84980930  1
  S2-  S164  1  0.23070869  0.51182924  0.35143977  1
  S2-  S165  1  0.12464335  0.48418191  0.83983773  1
  S2-  S166  1  0.10145787  0.73898442  0.34773369  1
  S2-  S167  1  0.05624612  0.76096965  0.85296269  1
  S2-  S168  1  0.26603397  0.01770607  0.36311766  1
  S2-  S169  1  0.35751804  0.01054675  0.84857078  1
  S2-  S170  1  0.34580389  0.30921428  0.35389625  1
  S2-  S171  1  0.37029453  0.24470874  0.84448579  1
  S2-  S172  1  0.49860121  0.48426496  0.35034514  1
  S2-  S173  1  0.37906050  0.47967814  0.84219228  1
  S2-  S174  1  0.40437232  0.69381510  0.35488512  1
  S2-  S175  1  0.47201118  0.75915530  0.86533299  1
  S2-  S176  1  0.72144276  0.01665616  0.34328263  1
  S2-  S177  1  0.60733876  -0.01555834  0.85119226  1
  S2-  S178  1  0.60151176  0.20662976  0.34665760  1
  S2-  S179  1  0.62142547  0.29985438  0.84850442  1
  S2-  S180  1  0.65586162  0.62596276  0.35590700  1
  S2-  S181  1  0.60701252  0.56129495  0.84603240  1
  S2-  S182  1  0.60599683  0.85262605  0.35219172  1
  S2-  S183  1  0.70894616  0.76600507  0.84796701  1
  S2-  S184  1  0.87650544  -0.03773159  0.27128290  1
  S2-  S185  1  0.88008820  -0.07619523  0.85755711  1
  S2-  S186  1  0.89049606  0.15530140  0.35456525  1
  S2-  S187  1  0.87918870  0.26950941  0.84052393  1
  S2-  S188  1  0.98073084  0.49728627  0.36008687  1
  S2-  S189  1  0.86315309  0.51893444  0.84168910  1
  S2-  S190  1  0.86586037  0.80367853  0.34604432  1
  S2-  S191  1  0.87862143  0.71694477  0.80178270  1
  S2-  S192  1  -0.00450173  0.11825623  0.45938944  1
  S2-  S193  1  -0.00980349  0.12110961  0.95283865  1
  S2-  S194  1  -0.01083030  0.36289713  0.45569150  1
  S2-  S195  1  -0.00920789  0.37757877  0.94975827  1
  S2-  S196  1  -0.00398083  0.62325171  0.45312720  1
  S2-  S197  1  -0.01175780  0.62649287  0.95084156  1
  S2-  S198  1  -0.00289579  0.87595307  0.45218201  1
  S2-  S199  1  -0.01085011  0.87522396  0.96239851  1
  S2-  S200  1  0.24835705  0.12302477  0.46875049  1
  S2-  S201  1  0.24163438  0.12341321  0.96105618  1
  S2-  S202  1  0.24278652  0.37379567  0.45602006  1
  S2-  S203  1  0.24013426  0.37598001  0.95485471  1
  S2-  S204  1  0.24235014  0.62577113  0.45462910  1
  S2-  S205  1  0.24361012  0.62861769  0.94805491  1
  S2-  S206  1  0.24524898  0.86808029  0.45439545  1
  S2-  S207  1  0.24445426  0.87150693  0.94919368  1
  S2-  S208  1  0.49388680  0.11874313  0.45167699  1
  S2-  S209  1  0.49348536  0.12518507  0.95158087  1
  S2-  S210  1  0.49635020  0.36918640  0.45059677  1
  S2-  S211  1  0.49040528  0.37486103  0.95083764  1
  S2-  S212  1  0.49266532  0.61861533  0.45941931  1
  S2-  S213  1  0.48988376  0.62003125  0.95754675  1
  S2-  S214  1  0.48858841  0.87068600  0.45190556  1
  S2-  S215  1  0.49138066  0.87774741  0.96634541  1
  S2-  S216  1  0.74004443  0.12340091  0.45727171  1
  S2-  S217  1  0.74099168  0.12209297  0.95463054  1
  S2-  S218  1  0.74790944  0.36777810  0.44675135  1
  S2-  S219  1  0.74505942  0.37736221  0.94954015  1
  S2-  S220  1  0.75283958  0.61658176  0.45764445  1
  S2-  S221  1  0.74401476  0.62612896  0.94787607  1
  S2-  S222  1  0.75148680  0.87548158  0.44871814  1
  S2-  S223  1  0.74077609  0.87570484  0.95867357  1
  S2-  S224  1  0.11735649  -0.00126335  0.04836251  1
  S2-  S225  1  0.11858965  -0.00159711  0.54748213  1
  S2-  S226  1  0.11689977  0.25167979  0.04989636  1
  S2-  S227  1  0.11543488  0.24810971  0.55787018  1
  S2-  S228  1  0.11680512  0.50125598  0.04394598  1
  S2-  S229  1  0.11668935  0.49627827  0.54159880  1
  S2-  S230  1  0.11688157  0.75221075  0.05118654  1
  S2-  S231  1  0.11525696  0.74606888  0.54884985  1
  S2-  S232  1  0.36743411  -0.00024310  0.05043745  1
  S2-  S233  1  0.37047926  -0.00703352  0.54451002  1
  S2-  S234  1  0.36685626  0.25371073  0.04992657  1
  S2-  S235  1  0.36990434  0.25182454  0.54802904  1
  S2-  S236  1  0.36603720  0.49860460  0.04624169  1
  S2-  S237  1  0.36920601  0.49944913  0.54601466  1
  S2-  S238  1  0.36778371  0.75064592  0.04933045  1
  S2-  S239  1  0.37013301  0.74711083  0.54967840  1
  S2-  S240  1  0.61601677  0.00247683  0.05125130  1
  S2-  S241  1  0.62146737  -0.00833666  0.53363927  1
  S2-  S242  1  0.61661069  0.25358207  0.04831859  1
  S2-  S243  1  0.62063413  0.25123184  0.54543513  1
  S2-  S244  1  0.61869510  0.49928337  0.04520279  1
  S2-  S245  1  0.62157522  0.49539955  0.53656603  1
  S2-  S246  1  0.61341507  0.74541413  0.04128811  1
  S2-  S247  1  0.62190234  0.74997321  0.53980028  1
  S2-  S248  1  0.86544801  0.00153864  0.04802286  1
  S2-  S249  1  0.86892337  -0.00322340  0.55519295  1
  S2-  S250  1  0.86642475  0.25133353  0.04722455  1
  S2-  S251  1  0.87001415  0.24580667  0.54661714  1
  S2-  S252  1  0.86462527  0.50203685  0.04490037  1
  S2-  S253  1  0.87172417  0.49662148  0.54272265  1
  S2-  S254  1  0.86506979  0.74561023  0.04278494  1
  S2-  S255  1  0.87315127  0.74912538  0.54693348  1
