# generated using pymatgen
data_La6Ce7Pr13Nd19Sm19(BiS2)64
_symmetry_space_group_name_H-M   'P 1'
_cell_length_a   16.09260064
_cell_length_b   16.09257078
_cell_length_c   27.36382734
_cell_angle_alpha   89.97562856
_cell_angle_beta   90.10842529
_cell_angle_gamma   90.03780198
_symmetry_Int_Tables_number   1
_chemical_formula_structural   La6Ce7Pr13Nd19Sm19(BiS2)64
_chemical_formula_sum   'La6 Ce7 Pr13 Nd19 Sm19 Bi64 S128'
_cell_volume   7086.43147528
_cell_formula_units_Z   1
loop_
 _symmetry_equiv_pos_site_id
 _symmetry_equiv_pos_as_xyz
  1  'x, y, z'
loop_
 _atom_type_symbol
 _atom_type_oxidation_number
  La3+  3.0
  Ce3+  3.0
  Pr3+  3.0
  Nd3+  3.0
  Sm3+  3.0
  Bi2+  2.0
  S2-  -2.0
loop_
 _atom_site_type_symbol
 _atom_site_label
 _atom_site_symmetry_multiplicity
 _atom_site_fract_x
 _atom_site_fract_y
 _atom_site_fract_z
 _atom_site_occupancy
  La3+  La0  1  0.88638756  0.49137586  0.38676070  1
  La3+  La1  1  0.23859154  0.13089391  0.07083188  1
  La3+  La2  1  0.73695523  0.61719472  0.08251600  1
  La3+  La3  1  0.36682243  0.73047902  0.41107018  1
  La3+  La4  1  0.62312084  -0.00651718  0.42423406  1
  La3+  La5  1  0.51192782  0.10178145  0.58016357  1
  Ce3+  Ce6  1  0.25284888  0.86522620  0.55609708  1
  Ce3+  Ce7  1  0.00200559  0.86662332  0.55644533  1
  Ce3+  Ce8  1  0.12535923  0.49134506  0.43756018  1
  Ce3+  Ce9  1  0.24707652  0.62605542  0.06056237  1
  Ce3+  Ce10  1  -0.00888601  0.87209669  0.05695952  1
  Ce3+  Ce11  1  0.62629058  0.49364992  0.43522808  1
  Ce3+  Ce12  1  0.87444118  0.24094347  0.43659999  1
  Pr3+  Pr13  1  -0.00387568  0.37756331  0.05645596  1
  Pr3+  Pr14  1  0.74700108  0.85938867  0.55990145  1
  Pr3+  Pr15  1  0.37126674  0.50592970  0.93618117  1
  Pr3+  Pr16  1  0.75998233  0.10508988  0.57215369  1
  Pr3+  Pr17  1  0.74269529  0.87486048  0.07070535  1
  Pr3+  Pr18  1  0.87762525  0.74380444  0.43356514  1
  Pr3+  Pr19  1  0.60996734  0.24688200  0.92677293  1
  Pr3+  Pr20  1  0.36260877  0.24562068  0.93299557  1
  Pr3+  Pr21  1  0.12376357  0.23942877  0.43642168  1
  Pr3+  Pr22  1  0.24325752  0.61552815  0.57452273  1
  Pr3+  Pr23  1  0.12455561  0.73781637  0.44027074  1
  Pr3+  Pr24  1  0.37439709  0.75219028  0.93109611  1
  Pr3+  Pr25  1  0.49899425  0.61515650  0.56082934  1
  Nd3+  Nd26  1  0.24993032  0.36275412  0.56251102  1
  Nd3+  Nd27  1  0.11559607  0.50736827  0.93144399  1
  Nd3+  Nd28  1  -0.00950561  0.62711621  0.06801460  1
  Nd3+  Nd29  1  0.11830612  0.74815838  0.93726713  1
  Nd3+  Nd30  1  0.37453642  0.48921440  0.44324384  1
  Nd3+  Nd31  1  0.74044843  0.37359536  0.05758257  1
  Nd3+  Nd32  1  0.85941417  0.74507832  0.93191885  1
  Nd3+  Nd33  1  0.50305656  0.36378009  0.55638305  1
  Nd3+  Nd34  1  0.48795220  0.12708021  0.07685724  1
  Nd3+  Nd35  1  0.48721173  0.63414511  0.07999372  1
  Nd3+  Nd36  1  0.37644793  -0.00414835  0.43173801  1
  Nd3+  Nd37  1  0.61838922  0.75068969  0.94353274  1
  Nd3+  Nd38  1  0.86622825  0.25053161  0.94379083  1
  Nd3+  Nd39  1  0.00174218  0.11490417  0.55946472  1
  Nd3+  Nd40  1  0.75331592  0.61616824  0.55522843  1
  Nd3+  Nd41  1  0.11612071  0.25988161  0.92070641  1
  Nd3+  Nd42  1  0.48779738  0.88072723  0.06869691  1
  Nd3+  Nd43  1  0.62754112  0.23884395  0.44244465  1
  Nd3+  Nd44  1  0.62667989  0.73479635  0.42499214  1
  Sm3+  Sm45  1  0.11463102  0.00186079  0.94564754  1
  Sm3+  Sm46  1  0.75343267  0.36537755  0.55224383  1
  Sm3+  Sm47  1  0.00120472  0.61383829  0.55982122  1
  Sm3+  Sm48  1  0.36626214  0.00441910  0.94494867  1
  Sm3+  Sm49  1  0.48960070  0.37324892  0.05340201  1
  Sm3+  Sm50  1  0.86399748  0.50577641  0.94346056  1
  Sm3+  Sm51  1  0.12963460  -0.00977089  0.43571720  1
  Sm3+  Sm52  1  0.87010040  -0.01151807  0.42885585  1
  Sm3+  Sm53  1  0.86689352  0.00115233  0.95070221  1
  Sm3+  Sm54  1  0.25421432  0.11431898  0.56093391  1
  Sm3+  Sm55  1  -0.00397233  0.12806292  0.06007874  1
  Sm3+  Sm56  1  0.24295179  0.87484038  0.05082495  1
  Sm3+  Sm57  1  0.50051675  0.86153453  0.54785649  1
  Sm3+  Sm58  1  0.24196486  0.37763915  0.04977582  1
  Sm3+  Sm59  1  -0.00050329  0.36608315  0.55337489  1
  Sm3+  Sm60  1  0.37682105  0.23861925  0.45066760  1
  Sm3+  Sm61  1  0.61735230  0.50475027  0.94897233  1
  Sm3+  Sm62  1  0.61606826  0.00176185  0.94716583  1
  Sm3+  Sm63  1  0.74070787  0.12793417  0.05724749  1
  Bi2+  Bi64  1  0.02139847  0.07573115  0.32761393  1
  Bi2+  Bi65  1  0.02571809  0.14436519  0.79717876  1
  Bi2+  Bi66  1  -0.00104060  0.28714787  0.27647176  1
  Bi2+  Bi67  1  -0.05478967  0.35728283  0.78501767  1
  Bi2+  Bi68  1  0.04988160  0.67386590  0.31589577  1
  Bi2+  Bi69  1  -0.02319008  0.65653801  0.78489577  1
  Bi2+  Bi70  1  0.05474064  0.87592139  0.30591275  1
  Bi2+  Bi71  1  -0.03158119  0.85712598  0.79883926  1
  Bi2+  Bi72  1  0.22184818  0.15674767  0.30549111  1
  Bi2+  Bi73  1  0.26554541  0.09657369  0.79327349  1
  Bi2+  Bi74  1  0.33836278  0.41054331  0.31279326  1
  Bi2+  Bi75  1  0.19793343  0.34739384  0.77907474  1
  Bi2+  Bi76  1  0.21696905  0.66291022  0.25556965  1
  Bi2+  Bi77  1  0.22882585  0.60261141  0.79447345  1
  Bi2+  Bi78  1  0.24411040  0.92087930  0.27311958  1
  Bi2+  Bi79  1  0.16192401  0.88826923  0.78197253  1
  Bi2+  Bi80  1  0.48038999  0.13273162  0.28777427  1
  Bi2+  Bi81  1  0.52795481  0.12291781  0.80282757  1
  Bi2+  Bi82  1  0.53851688  0.41078955  0.30948265  1
  Bi2+  Bi83  1  0.48371352  0.36479650  0.77535928  1
  Bi2+  Bi84  1  0.48585872  0.62394667  0.28916014  1
  Bi2+  Bi85  1  0.46074902  0.63012042  0.80938277  1
  Bi2+  Bi86  1  0.54221813  0.88927363  0.27915645  1
  Bi2+  Bi87  1  0.49458673  0.85760672  0.77428774  1
  Bi2+  Bi88  1  0.83172479  0.15243250  0.31366355  1
  Bi2+  Bi89  1  0.76620245  0.10715111  0.80966274  1
  Bi2+  Bi90  1  0.68728473  0.29135581  0.27980633  1
  Bi2+  Bi91  1  0.76264398  0.41757319  0.75405650  1
  Bi2+  Bi92  1  0.74463652  0.64410629  0.28636974  1
  Bi2+  Bi93  1  0.72975268  0.63741600  0.80179379  1
  Bi2+  Bi94  1  0.79158321  0.89779876  0.28220431  1
  Bi2+  Bi95  1  0.77417901  0.87529085  0.78286041  1
  Bi2+  Bi96  1  0.11578697  0.06026155  0.22435009  1
  Bi2+  Bi97  1  0.10280200  0.02637583  0.70369508  1
  Bi2+  Bi98  1  0.13527645  0.30068707  0.19607567  1
  Bi2+  Bi99  1  0.08506298  0.24076537  0.70614863  1
  Bi2+  Bi100  1  0.19424311  0.47050500  0.24171985  1
  Bi2+  Bi101  1  0.02970608  0.49765867  0.71652617  1
  Bi2+  Bi102  1  0.12687041  0.81261272  0.19800803  1
  Bi2+  Bi103  1  0.10209815  0.74837847  0.70964713  1
  Bi2+  Bi104  1  0.36697978  0.02059284  0.20500425  1
  Bi2+  Bi105  1  0.33926704  -0.05346240  0.72998487  1
  Bi2+  Bi106  1  0.41199317  0.28957933  0.22807712  1
  Bi2+  Bi107  1  0.32822208  0.23572886  0.71794507  1
  Bi2+  Bi108  1  0.39893072  0.50585513  0.21424070  1
  Bi2+  Bi109  1  0.37626496  0.47393055  0.70670879  1
  Bi2+  Bi110  1  0.36584482  0.76624214  0.20585346  1
  Bi2+  Bi111  1  0.37166120  0.74452251  0.70842343  1
  Bi2+  Bi112  1  0.62079901  0.04251821  0.22106787  1
  Bi2+  Bi113  1  0.64328775  -0.01217285  0.70516533  1
  Bi2+  Bi114  1  0.58719853  0.22828064  0.18751817  1
  Bi2+  Bi115  1  0.57390663  0.25455221  0.70060489  1
  Bi2+  Bi116  1  0.62647359  0.46822825  0.21238369  1
  Bi2+  Bi117  1  0.59361131  0.52811738  0.74670194  1
  Bi2+  Bi118  1  0.64257208  0.75418728  0.20548087  1
  Bi2+  Bi119  1  0.60722484  0.78803754  0.69384160  1
  Bi2+  Bi120  1  0.91782721  0.02725586  0.22584884  1
  Bi2+  Bi121  1  0.91301709  0.03525733  0.72633722  1
  Bi2+  Bi122  1  0.86407242  0.21327338  0.20653876  1
  Bi2+  Bi123  1  0.83978227  0.25716112  0.70412244  1
  Bi2+  Bi124  1  0.89428290  0.50281265  0.19994436  1
  Bi2+  Bi125  1  0.85075101  0.57256623  0.69985778  1
  Bi2+  Bi126  1  0.94337739  0.73780993  0.21222682  1
  Bi2+  Bi127  1  0.86009199  0.77080702  0.70123888  1
  S2-  S128  1  0.10275346  0.15440972  0.13555715  1
  S2-  S129  1  -0.10135060  0.12760825  0.63992834  1
  S2-  S130  1  -0.01229937  0.38187752  0.15615879  1
  S2-  S131  1  0.00699907  0.36069464  0.65138507  1
  S2-  S132  1  0.02493405  0.60543017  0.16494724  1
  S2-  S133  1  0.09303647  0.61213264  0.64332862  1
  S2-  S134  1  -0.01452528  0.88528948  0.15401585  1
  S2-  S135  1  -0.00448327  0.84597430  0.65365035  1
  S2-  S136  1  0.35602784  0.15324780  0.14674205  1
  S2-  S137  1  0.20575356  0.13291259  0.65415724  1
  S2-  S138  1  0.24388436  0.39735357  0.14738109  1
  S2-  S139  1  0.26071265  0.37699275  0.66121223  1
  S2-  S140  1  0.34345272  0.62825189  0.14208962  1
  S2-  S141  1  0.29575095  0.60501030  0.67331602  1
  S2-  S142  1  0.28850112  0.88818974  0.14511054  1
  S2-  S143  1  0.26579147  0.85911603  0.65338879  1
  S2-  S144  1  0.50590731  -0.00277419  0.14683429  1
  S2-  S145  1  0.44256730  0.14972633  0.67195048  1
  S2-  S146  1  0.49205858  0.38867523  0.15143480  1
  S2-  S147  1  0.50689626  0.39847142  0.65221149  1
  S2-  S148  1  0.60575866  0.60462988  0.15362055  1
  S2-  S149  1  0.50410774  0.67060147  0.65644818  1
  S2-  S150  1  0.49623768  0.77608586  0.14904953  1
  S2-  S151  1  0.52430509  0.93292548  0.63723674  1
  S2-  S152  1  0.73197039  0.13081955  0.15440358  1
  S2-  S153  1  0.64835684  0.13632115  0.64937361  1
  S2-  S154  1  0.75505297  0.44416543  0.14804502  1
  S2-  S155  1  0.74441915  0.35764392  0.65063031  1
  S2-  S156  1  0.81940695  0.65665075  0.17116310  1
  S2-  S157  1  0.72862886  0.72549267  0.63242438  1
  S2-  S158  1  0.73309994  0.87649789  0.17219119  1
  S2-  S159  1  0.76219689  0.96109499  0.64144886  1
  S2-  S160  1  0.24769051  0.00140939  0.36123884  1
  S2-  S161  1  0.12297712  0.03316449  0.84997774  1
  S2-  S162  1  0.14010906  0.28918516  0.34024470  1
  S2-  S163  1  0.24657815  0.24089798  0.85447629  1
  S2-  S164  1  0.05166692  0.50892564  0.34927916  1
  S2-  S165  1  0.10005713  0.39655445  0.85129601  1
  S2-  S166  1  0.21271385  0.72854009  0.35362076  1
  S2-  S167  1  0.10695645  0.63499749  0.86036848  1
  S2-  S168  1  0.49110245  -0.00578610  0.35464622  1
  S2-  S169  1  0.39311488  0.04138935  0.85057826  1
  S2-  S170  1  0.36328267  0.19758536  0.35636153  1
  S2-  S171  1  0.47356975  0.25765274  0.85601533  1
  S2-  S172  1  0.36540252  0.57370358  0.35652521  1
  S2-  S173  1  0.33935302  0.49832260  0.83652936  1
  S2-  S174  1  0.43439103  0.77865296  0.31899704  1
  S2-  S175  1  0.30133246  0.72253766  0.83721271  1
  S2-  S176  1  0.75145115  0.01135041  0.35313411  1
  S2-  S177  1  0.62760767  0.01451453  0.84849756  1
  S2-  S178  1  0.61579102  0.18705915  0.34827195  1
  S2-  S179  1  0.66628161  0.22734006  0.83011625  1
  S2-  S180  1  0.62395540  0.59859648  0.35635970  1
  S2-  S181  1  0.60163065  0.53833718  0.85352710  1
  S2-  S182  1  0.66716953  0.80823444  0.33465441  1
  S2-  S183  1  0.51007434  0.76080394  0.86271454  1
  S2-  S184  1  0.89502004  -0.13269573  0.35528057  1
  S2-  S185  1  0.86397748  -0.01873183  0.85409434  1
  S2-  S186  1  0.88620910  0.32301398  0.34990747  1
  S2-  S187  1  0.88409918  0.22546167  0.84673413  1
  S2-  S188  1  0.80889019  0.49520395  0.28800584  1
  S2-  S189  1  0.86335029  0.60402465  0.86290773  1
  S2-  S190  1  0.87521766  0.65567486  0.34542515  1
  S2-  S191  1  0.72899313  0.76788439  0.86293735  1
  S2-  S192  1  0.00040910  0.11247774  0.45338611  1
  S2-  S193  1  -0.00748614  0.12593891  0.95599701  1
  S2-  S194  1  -0.00014682  0.36867293  0.45052973  1
  S2-  S195  1  -0.01406288  0.38061933  0.95068894  1
  S2-  S196  1  -0.00108526  0.61194888  0.45649230  1
  S2-  S197  1  -0.01150258  0.62843750  0.96172369  1
  S2-  S198  1  0.00789269  0.86975165  0.45293407  1
  S2-  S199  1  -0.00978360  0.87317760  0.95093766  1
  S2-  S200  1  0.24947598  0.11891103  0.45970836  1
  S2-  S201  1  0.23753782  0.12157743  0.95910287  1
  S2-  S202  1  0.25142359  0.36280140  0.45597456  1
  S2-  S203  1  0.24305359  0.38309804  0.94807033  1
  S2-  S204  1  0.24924376  0.61237670  0.46358264  1
  S2-  S205  1  0.24581348  0.62830822  0.95604000  1
  S2-  S206  1  0.25310219  0.86330731  0.45221046  1
  S2-  S207  1  0.24066775  0.87793746  0.94581763  1
  S2-  S208  1  0.49995435  0.11859312  0.46223766  1
  S2-  S209  1  0.49230325  0.12295520  0.96266736  1
  S2-  S210  1  0.50027814  0.36422858  0.45066733  1
  S2-  S211  1  0.49444702  0.37970133  0.95040589  1
  S2-  S212  1  0.49693345  0.61534667  0.45487919  1
  S2-  S213  1  0.49486253  0.62585528  0.96498958  1
  S2-  S214  1  0.49456397  0.85579402  0.44566939  1
  S2-  S215  1  0.49195599  0.88414432  0.96055636  1
  S2-  S216  1  0.75372430  0.11785573  0.45935568  1
  S2-  S217  1  0.74210098  0.12531533  0.95359755  1
  S2-  S218  1  0.75058259  0.36957011  0.44712565  1
  S2-  S219  1  0.74112654  0.37761435  0.94943775  1
  S2-  S220  1  0.75831409  0.61002725  0.45148243  1
  S2-  S221  1  0.74010973  0.62410500  0.96725292  1
  S2-  S222  1  0.74786090  0.86337079  0.45259649  1
  S2-  S223  1  0.74393302  0.88094771  0.96362924  1
  S2-  S224  1  0.11556880  -0.00344542  0.04924456  1
  S2-  S225  1  0.12874870  -0.00660857  0.54340208  1
  S2-  S226  1  0.11758106  0.25661677  0.03089123  1
  S2-  S227  1  0.12475294  0.23998600  0.54495466  1
  S2-  S228  1  0.11906605  0.50436205  0.04249141  1
  S2-  S229  1  0.12509730  0.48584398  0.54504878  1
  S2-  S230  1  0.11923264  0.74985396  0.04530202  1
  S2-  S231  1  0.12520479  0.74191787  0.54617285  1
  S2-  S232  1  0.36311824  0.00369080  0.04612638  1
  S2-  S233  1  0.37556539  -0.00849295  0.54366138  1
  S2-  S234  1  0.36514924  0.25473141  0.04011923  1
  S2-  S235  1  0.37749240  0.23831280  0.55469592  1
  S2-  S236  1  0.36918414  0.49778872  0.04316230  1
  S2-  S237  1  0.37369332  0.48876359  0.54973412  1
  S2-  S238  1  0.36589137  0.75540671  0.03920421  1
  S2-  S239  1  0.37417785  0.73926802  0.54937227  1
  S2-  S240  1  0.62147498  0.00406100  0.05041193  1
  S2-  S241  1  0.62704380  -0.01439444  0.53404971  1
  S2-  S242  1  0.61549684  0.24962485  0.04229600  1
  S2-  S243  1  0.62904753  0.24282588  0.54664047  1
  S2-  S244  1  0.61301567  0.49441544  0.04951823  1
  S2-  S245  1  0.62851900  0.49066905  0.54445701  1
  S2-  S246  1  0.61840848  0.75304604  0.04980530  1
  S2-  S247  1  0.62031761  0.73748469  0.53263150  1
  S2-  S248  1  0.86847369  0.00651756  0.05540714  1
  S2-  S249  1  0.88133422  -0.01316393  0.53519569  1
  S2-  S250  1  0.86874086  0.24973397  0.04988960  1
  S2-  S251  1  0.87681932  0.24423068  0.54140399  1
  S2-  S252  1  0.86800508  0.50065152  0.04639753  1
  S2-  S253  1  0.87734642  0.49039019  0.55611352  1
  S2-  S254  1  0.86519289  0.74881427  0.04859113  1
  S2-  S255  1  0.88150382  0.73784495  0.54195174  1
