# generated using pymatgen
data_La6Ce7Pr13Nd19Sm19(BiS2)64
_symmetry_space_group_name_H-M   'P 1'
_cell_length_a   16.10160177
_cell_length_b   16.05817583
_cell_length_c   27.24790463
_cell_angle_alpha   90.06795503
_cell_angle_beta   89.78387642
_cell_angle_gamma   89.92561483
_symmetry_Int_Tables_number   1
_chemical_formula_structural   La6Ce7Pr13Nd19Sm19(BiS2)64
_chemical_formula_sum   'La6 Ce7 Pr13 Nd19 Sm19 Bi64 S128'
_cell_volume   7045.22126800
_cell_formula_units_Z   1
loop_
 _symmetry_equiv_pos_site_id
 _symmetry_equiv_pos_as_xyz
  1  'x, y, z'
loop_
 _atom_type_symbol
 _atom_type_oxidation_number
  La3+  3.0
  Ce3+  3.0
  Pr3+  3.0
  Nd3+  3.0
  Sm3+  3.0
  Bi2+  2.0
  S2-  -2.0
loop_
 _atom_site_type_symbol
 _atom_site_label
 _atom_site_symmetry_multiplicity
 _atom_site_fract_x
 _atom_site_fract_y
 _atom_site_fract_z
 _atom_site_occupancy
  La3+  La0  1  0.88773611  0.24422105  0.93682170  1
  La3+  La1  1  0.49938027  0.37970180  0.11394954  1
  La3+  La2  1  0.88880760  0.73749520  0.91243668  1
  La3+  La3  1  0.39052130  0.25268621  0.92801699  1
  La3+  La4  1  0.36373122  0.24238861  0.39794729  1
  La3+  La5  1  -0.00099065  0.13610839  0.59497798  1
  Ce3+  Ce6  1  0.50919737  0.62855558  0.55018974  1
  Ce3+  Ce7  1  0.50900075  0.87514152  0.55708849  1
  Ce3+  Ce8  1  0.63237419  -0.00652205  0.93917103  1
  Ce3+  Ce9  1  0.63263115  0.49563725  0.95098308  1
  Ce3+  Ce10  1  0.63032121  0.24802214  0.94255627  1
  Ce3+  Ce11  1  0.88902052  0.50169753  0.44574214  1
  Ce3+  Ce12  1  0.75687653  0.12094585  0.05608154  1
  Pr3+  Pr13  1  0.01149220  0.88016341  0.56449180  1
  Pr3+  Pr14  1  0.75792090  0.36984916  0.07002673  1
  Pr3+  Pr15  1  0.89003964  0.75664536  0.42844176  1
  Pr3+  Pr16  1  0.27170856  0.13409781  0.58753575  1
  Pr3+  Pr17  1  0.64130751  0.50040546  0.43177744  1
  Pr3+  Pr18  1  0.25675618  0.62278202  0.07598133  1
  Pr3+  Pr19  1  0.13249847  0.00040752  0.92184475  1
  Pr3+  Pr20  1  0.50919497  0.37765374  0.55401971  1
  Pr3+  Pr21  1  0.25805195  0.11693149  0.05755365  1
  Pr3+  Pr22  1  0.76085680  0.87485340  0.56413299  1
  Pr3+  Pr23  1  0.51453231  0.62737335  0.07933518  1
  Pr3+  Pr24  1  0.01091479  0.11706813  0.06138669  1
  Pr3+  Pr25  1  0.76145465  0.86820044  0.04837972  1
  Nd3+  Nd26  1  0.25995858  0.88103430  0.55344226  1
  Nd3+  Nd27  1  0.63534360  0.00320134  0.44073176  1
  Nd3+  Nd28  1  0.25795469  0.35894889  0.07337187  1
  Nd3+  Nd29  1  0.01214007  0.37589219  0.56010779  1
  Nd3+  Nd30  1  0.38034479  0.74149146  0.93758578  1
  Nd3+  Nd31  1  0.01445141  0.63071293  0.56424491  1
  Nd3+  Nd32  1  0.89201085  0.00777794  0.43963269  1
  Nd3+  Nd33  1  0.14087628  0.25089999  0.92799849  1
  Nd3+  Nd34  1  0.13399881  0.74259018  0.93962967  1
  Nd3+  Nd35  1  0.38401691  -0.00969086  0.92950073  1
  Nd3+  Nd36  1  0.63297882  0.74143508  0.93872676  1
  Nd3+  Nd37  1  0.76489795  0.62257005  0.06654858  1
  Nd3+  Nd38  1  0.01017300  0.61815436  0.06276779  1
  Nd3+  Nd39  1  0.76218872  0.62730370  0.56102383  1
  Nd3+  Nd40  1  0.88835827  0.25660798  0.43150601  1
  Nd3+  Nd41  1  0.50620798  0.12437252  0.06238117  1
  Nd3+  Nd42  1  0.76086167  0.37557120  0.56335163  1
  Nd3+  Nd43  1  0.50804850  0.87100874  0.06280283  1
  Nd3+  Nd44  1  0.14005230  0.00844698  0.44837308  1
  Sm3+  Sm45  1  0.26197101  0.62955594  0.55530025  1
  Sm3+  Sm46  1  0.13604712  0.75150392  0.43571502  1
  Sm3+  Sm47  1  0.13844334  0.25021262  0.44902313  1
  Sm3+  Sm48  1  0.63167923  0.25152757  0.43579037  1
  Sm3+  Sm49  1  0.13975902  0.50144043  0.44616347  1
  Sm3+  Sm50  1  0.26228469  0.37398554  0.55964736  1
  Sm3+  Sm51  1  0.00873254  0.87368120  0.05810189  1
  Sm3+  Sm52  1  0.50709773  0.12968295  0.55213963  1
  Sm3+  Sm53  1  0.38478764  0.49398092  0.95674961  1
  Sm3+  Sm54  1  0.25846694  0.87388628  0.05768934  1
  Sm3+  Sm55  1  0.76075489  0.12856811  0.55163369  1
  Sm3+  Sm56  1  0.00538032  0.36200219  0.07047754  1
  Sm3+  Sm57  1  0.38378266  0.50154958  0.42895178  1
  Sm3+  Sm58  1  0.38532130  0.00203252  0.43818539  1
  Sm3+  Sm59  1  0.39827226  0.75032413  0.42287289  1
  Sm3+  Sm60  1  0.13624075  0.49140753  0.94596975  1
  Sm3+  Sm61  1  0.64406879  0.75454416  0.43257366  1
  Sm3+  Sm62  1  0.88538691  -0.00673881  0.93550521  1
  Sm3+  Sm63  1  0.88362463  0.49410699  0.93996974  1
  Bi2+  Bi64  1  -0.03293537  0.06950271  0.28911017  1
  Bi2+  Bi65  1  -0.02677698  0.15296628  0.78800593  1
  Bi2+  Bi66  1  -0.01455392  0.33735687  0.29392233  1
  Bi2+  Bi67  1  -0.01259383  0.37219668  0.78787990  1
  Bi2+  Bi68  1  0.03338838  0.64708543  0.27280595  1
  Bi2+  Bi69  1  0.08613963  0.56661575  0.80216597  1
  Bi2+  Bi70  1  -0.02249176  0.86669775  0.28503551  1
  Bi2+  Bi71  1  -0.00623440  0.88089801  0.80351222  1
  Bi2+  Bi72  1  0.21372961  0.10348838  0.29120644  1
  Bi2+  Bi73  1  0.23735628  0.12626677  0.79126425  1
  Bi2+  Bi74  1  0.21986988  0.38911678  0.29124742  1
  Bi2+  Bi75  1  0.25870945  0.39356157  0.79914452  1
  Bi2+  Bi76  1  0.22439735  0.65672741  0.30635828  1
  Bi2+  Bi77  1  0.25441423  0.63219555  0.85006719  1
  Bi2+  Bi78  1  0.22198420  0.84868832  0.28337170  1
  Bi2+  Bi79  1  0.25078833  0.80394055  0.79292506  1
  Bi2+  Bi80  1  0.49683499  0.05360320  0.28160253  1
  Bi2+  Bi81  1  0.47997574  0.14495759  0.77754425  1
  Bi2+  Bi82  1  0.53695236  0.37393054  0.32313690  1
  Bi2+  Bi83  1  0.51987889  0.38734800  0.80546741  1
  Bi2+  Bi84  1  0.45409049  0.70001183  0.27312892  1
  Bi2+  Bi85  1  0.43903575  0.61860227  0.80833212  1
  Bi2+  Bi86  1  0.40947681  0.87976281  0.31190124  1
  Bi2+  Bi87  1  0.48124179  0.80860809  0.78126609  1
  Bi2+  Bi88  1  0.70096022  0.06447248  0.23866720  1
  Bi2+  Bi89  1  0.74748126  0.18398900  0.78056549  1
  Bi2+  Bi90  1  0.76212443  0.42415806  0.29550397  1
  Bi2+  Bi91  1  0.70552794  0.38086447  0.75217271  1
  Bi2+  Bi92  1  0.83980868  0.68946813  0.27074452  1
  Bi2+  Bi93  1  0.71282839  0.60085000  0.78578396  1
  Bi2+  Bi94  1  0.68496021  0.87194554  0.29905824  1
  Bi2+  Bi95  1  0.69755761  0.87297981  0.78947152  1
  Bi2+  Bi96  1  0.11980472  -0.06672331  0.19829020  1
  Bi2+  Bi97  1  0.12733387  -0.04462898  0.71087596  1
  Bi2+  Bi98  1  0.12821765  0.22892604  0.22017054  1
  Bi2+  Bi99  1  0.13604219  0.31677564  0.72011101  1
  Bi2+  Bi100  1  0.08847392  0.42650767  0.20846507  1
  Bi2+  Bi101  1  0.16026363  0.50836712  0.69965665  1
  Bi2+  Bi102  1  0.10926509  0.73738748  0.17195678  1
  Bi2+  Bi103  1  0.09525948  0.70227842  0.71869267  1
  Bi2+  Bi104  1  0.36352446  -0.02465176  0.20672646  1
  Bi2+  Bi105  1  0.37013846  -0.01571973  0.69990905  1
  Bi2+  Bi106  1  0.36955227  0.25074808  0.21374296  1
  Bi2+  Bi107  1  0.40161255  0.26742983  0.70493219  1
  Bi2+  Bi108  1  0.32099748  0.58549073  0.21294600  1
  Bi2+  Bi109  1  0.35580441  0.50654395  0.71770872  1
  Bi2+  Bi110  1  0.31034604  0.77041685  0.17897551  1
  Bi2+  Bi111  1  0.35655937  0.70951201  0.70951301  1
  Bi2+  Bi112  1  0.55227627  -0.01420045  0.17379575  1
  Bi2+  Bi113  1  0.63113303  0.03829967  0.73724117  1
  Bi2+  Bi114  1  0.63256523  0.25384810  0.21550888  1
  Bi2+  Bi115  1  0.61871402  0.22584813  0.69305770  1
  Bi2+  Bi116  1  0.62837381  0.53016554  0.21715959  1
  Bi2+  Bi117  1  0.55726503  0.53799018  0.72496620  1
  Bi2+  Bi118  1  0.61595611  0.80043943  0.20641907  1
  Bi2+  Bi119  1  0.60445832  0.77641974  0.69456008  1
  Bi2+  Bi120  1  0.86109173  -0.02243491  0.20311195  1
  Bi2+  Bi121  1  0.85687115  0.02298189  0.71533594  1
  Bi2+  Bi122  1  0.88405877  0.26124508  0.20750893  1
  Bi2+  Bi123  1  0.84667400  0.29654811  0.69045028  1
  Bi2+  Bi124  1  0.90030979  0.52001381  0.22130909  1
  Bi2+  Bi125  1  0.89437024  0.53455806  0.76126459  1
  Bi2+  Bi126  1  0.91563242  0.78544399  0.17681841  1
  Bi2+  Bi127  1  0.86540586  0.76853083  0.70108498  1
  S2-  S128  1  0.01008450  0.22644832  0.14282179  1
  S2-  S129  1  0.02299015  0.08099632  0.69282672  1
  S2-  S130  1  -0.11708383  0.38710803  0.14457502  1
  S2-  S131  1  0.00686283  0.29306749  0.64725430  1
  S2-  S132  1  -0.10633071  0.62147908  0.13809233  1
  S2-  S133  1  -0.03296732  0.64199613  0.65989627  1
  S2-  S134  1  0.00227219  0.99176429  0.13536114  1
  S2-  S135  1  0.00458008  0.86532711  0.66525823  1
  S2-  S136  1  0.25291707  0.21245478  0.14511181  1
  S2-  S137  1  0.23326938  0.08444156  0.68686565  1
  S2-  S138  1  0.34009664  0.38238322  0.16190260  1
  S2-  S139  1  0.26458877  0.29048493  0.64642419  1
  S2-  S140  1  0.17072259  0.56699800  0.16034762  1
  S2-  S141  1  0.21742785  0.66662624  0.64806800  1
  S2-  S142  1  0.24917815  0.98951032  0.13340638  1
  S2-  S143  1  0.26321660  0.88873643  0.65356292  1
  S2-  S144  1  0.50315666  0.20736778  0.15235685  1
  S2-  S145  1  0.42894069  0.11781377  0.64048220  1
  S2-  S146  1  0.50336152  0.36308382  0.23001457  1
  S2-  S147  1  0.52040433  0.35606072  0.65383246  1
  S2-  S148  1  0.48936755  0.54265274  0.16825357  1
  S2-  S149  1  0.50839071  0.64903887  0.64684254  1
  S2-  S150  1  0.48814101  0.76825331  0.14349083  1
  S2-  S151  1  0.50922831  0.89838208  0.65435796  1
  S2-  S152  1  0.76067721  0.16879775  0.15166522  1
  S2-  S153  1  0.83143250  0.13423257  0.64124849  1
  S2-  S154  1  0.66338886  0.38571801  0.15853243  1
  S2-  S155  1  0.77056700  0.43760473  0.65598078  1
  S2-  S156  1  0.67207182  0.63848275  0.15316262  1
  S2-  S157  1  0.74935122  0.69429166  0.65260419  1
  S2-  S158  1  0.76124857  0.86373475  0.14935177  1
  S2-  S159  1  0.78053941  0.90795307  0.66321360  1
  S2-  S160  1  0.10718704  0.01560138  0.35023466  1
  S2-  S161  1  0.16041068  -0.05837291  0.82261720  1
  S2-  S162  1  0.19570797  0.24709767  0.35487261  1
  S2-  S163  1  0.09586539  0.13787980  0.85078685  1
  S2-  S164  1  0.14780957  0.50795226  0.34834128  1
  S2-  S165  1  0.11717750  0.39316324  0.86383219  1
  S2-  S166  1  0.02366933  0.74916889  0.36104003  1
  S2-  S167  1  0.03845252  0.75081923  0.85582655  1
  S2-  S168  1  0.33525758  0.07594127  0.35495952  1
  S2-  S169  1  0.36684442  0.06089860  0.83533094  1
  S2-  S170  1  0.48752119  0.21885296  0.32544874  1
  S2-  S171  1  0.27077343  0.24685299  0.85272259  1
  S2-  S172  1  0.36591791  0.40197283  0.34715611  1
  S2-  S173  1  0.39084773  0.41639835  0.86633459  1
  S2-  S174  1  0.37717126  0.62230012  0.35537481  1
  S2-  S175  1  0.38389475  0.85334079  0.85968636  1
  S2-  S176  1  0.64186883  0.02354018  0.34178753  1
  S2-  S177  1  0.60875617  -0.01569443  0.84261827  1
  S2-  S178  1  0.68984844  0.29252800  0.34600053  1
  S2-  S179  1  0.53633291  0.24306311  0.85906884  1
  S2-  S180  1  0.63562827  0.53117666  0.33047826  1
  S2-  S181  1  0.65196852  0.47823414  0.85314947  1
  S2-  S182  1  0.53649747  0.76409370  0.35474825  1
  S2-  S183  1  0.64185250  0.72490808  0.83882822  1
  S2-  S184  1  0.87182481  -0.04518096  0.34588611  1
  S2-  S185  1  0.89793746  0.01975332  0.83777941  1
  S2-  S186  1  0.90087752  0.19658017  0.33770243  1
  S2-  S187  1  0.86722960  0.27839182  0.83893213  1
  S2-  S188  1  0.89889883  0.46465812  0.35155994  1
  S2-  S189  1  0.86650573  0.58362822  0.85480380  1
  S2-  S190  1  0.76317446  0.74921846  0.35691388  1
  S2-  S191  1  0.85470978  0.79668117  0.81130634  1
  S2-  S192  1  0.01337710  0.13219045  0.45376340  1
  S2-  S193  1  0.00611248  0.11731054  0.95443632  1
  S2-  S194  1  0.01710083  0.37655901  0.45407642  1
  S2-  S195  1  0.00554062  0.37187136  0.96204395  1
  S2-  S196  1  0.01574406  0.62428759  0.45735509  1
  S2-  S197  1  0.01164812  0.61325113  0.95645520  1
  S2-  S198  1  0.01468766  0.88192188  0.45772385  1
  S2-  S199  1  0.00817984  0.87321960  0.95252525  1
  S2-  S200  1  0.26215567  0.12934979  0.46497643  1
  S2-  S201  1  0.26084014  0.11725281  0.95080332  1
  S2-  S202  1  0.26153264  0.37734161  0.45665745  1
  S2-  S203  1  0.25997975  0.37366947  0.96577461  1
  S2-  S204  1  0.25990067  0.62877435  0.45321727  1
  S2-  S205  1  0.25662274  0.61614448  0.96841728  1
  S2-  S206  1  0.26230674  0.87458833  0.44601635  1
  S2-  S207  1  0.25338368  0.86998761  0.95377420  1
  S2-  S208  1  0.50779379  0.12847335  0.44762683  1
  S2-  S209  1  0.50839661  0.11536140  0.95527438  1
  S2-  S210  1  0.51124215  0.37855213  0.44753985  1
  S2-  S211  1  0.51290167  0.37411004  0.96327598  1
  S2-  S212  1  0.51615243  0.62484057  0.44776095  1
  S2-  S213  1  0.50620745  0.62069370  0.95785046  1
  S2-  S214  1  0.51100078  0.88047625  0.45215971  1
  S2-  S215  1  0.51093759  0.86635413  0.95650495  1
  S2-  S216  1  0.76042722  0.13067985  0.44742013  1
  S2-  S217  1  0.75823369  0.11809482  0.94632035  1
  S2-  S218  1  0.76242868  0.37590387  0.45597456  1
  S2-  S219  1  0.76034507  0.37069144  0.95649966  1
  S2-  S220  1  0.76436719  0.62593811  0.45415179  1
  S2-  S221  1  0.76015018  0.62128573  0.95836530  1
  S2-  S222  1  0.76259175  0.88284720  0.45706777  1
  S2-  S223  1  0.76164612  0.86721967  0.94102874  1
  S2-  S224  1  0.13237220  -0.00894021  0.03183834  1
  S2-  S225  1  0.13390079  0.01062248  0.55688080  1
  S2-  S226  1  0.13179069  0.24521649  0.03845478  1
  S2-  S227  1  0.13570808  0.24927489  0.55132331  1
  S2-  S228  1  0.12956267  0.48755506  0.05077025  1
  S2-  S229  1  0.13863658  0.50166483  0.55144850  1
  S2-  S230  1  0.13254401  0.74904747  0.04635957  1
  S2-  S231  1  0.13636280  0.75415651  0.54091104  1
  S2-  S232  1  0.38740892  -0.00697857  0.03923952  1
  S2-  S233  1  0.38569771  0.00180740  0.54169337  1
  S2-  S234  1  0.38408228  0.24468614  0.04288398  1
  S2-  S235  1  0.38771020  0.25454336  0.54365055  1
  S2-  S236  1  0.38257576  0.49846814  0.05880194  1
  S2-  S237  1  0.38139821  0.50253403  0.54382527  1
  S2-  S238  1  0.37825283  0.74688977  0.04270663  1
  S2-  S239  1  0.38245324  0.75309971  0.53847578  1
  S2-  S240  1  0.63367339  -0.00449376  0.04543348  1
  S2-  S241  1  0.63525243  0.00627663  0.54834686  1
  S2-  S242  1  0.63411325  0.24448289  0.04696544  1
  S2-  S243  1  0.63601374  0.25077792  0.54198357  1
  S2-  S244  1  0.63397973  0.49918529  0.05440175  1
  S2-  S245  1  0.63816161  0.50320062  0.54321380  1
  S2-  S246  1  0.63524944  0.74704303  0.04354343  1
  S2-  S247  1  0.63657781  0.75232725  0.53936404  1
  S2-  S248  1  0.88064940  -0.00436029  0.03889047  1
  S2-  S249  1  0.88656727  0.00522920  0.54697161  1
  S2-  S250  1  0.88123368  0.24250592  0.04325735  1
  S2-  S251  1  0.88529822  0.25345194  0.53947055  1
  S2-  S252  1  0.88618281  0.49363973  0.04160692  1
  S2-  S253  1  0.88887429  0.50302942  0.55139896  1
  S2-  S254  1  0.89051746  0.74837192  0.03562299  1
  S2-  S255  1  0.88817202  0.75239768  0.54244127  1
