# generated using pymatgen
data_La6Ce7Pr13Nd19Sm19(BiS2)64
_symmetry_space_group_name_H-M   'P 1'
_cell_length_a   16.11238301
_cell_length_b   16.07872127
_cell_length_c   27.53978112
_cell_angle_alpha   89.86501155
_cell_angle_beta   89.93134256
_cell_angle_gamma   89.96758660
_symmetry_Int_Tables_number   1
_chemical_formula_structural   La6Ce7Pr13Nd19Sm19(BiS2)64
_chemical_formula_sum   'La6 Ce7 Pr13 Nd19 Sm19 Bi64 S128'
_cell_volume   7134.60907227
_cell_formula_units_Z   1
loop_
 _symmetry_equiv_pos_site_id
 _symmetry_equiv_pos_as_xyz
  1  'x, y, z'
loop_
 _atom_type_symbol
 _atom_type_oxidation_number
  La3+  3.0
  Ce3+  3.0
  Pr3+  3.0
  Nd3+  3.0
  Sm3+  3.0
  Bi2+  2.0
  S2-  -2.0
loop_
 _atom_site_type_symbol
 _atom_site_label
 _atom_site_symmetry_multiplicity
 _atom_site_fract_x
 _atom_site_fract_y
 _atom_site_fract_z
 _atom_site_occupancy
  La3+  La0  1  0.11890017  0.01936544  0.90745092  1
  La3+  La1  1  0.26058720  0.61073521  0.57545634  1
  La3+  La2  1  0.50563878  0.11980707  0.56886950  1
  La3+  La3  1  0.73112217  0.36283909  0.61933467  1
  La3+  La4  1  0.75293609  0.12549561  0.10581853  1
  La3+  La5  1  0.62717343  0.24604836  0.39164157  1
  Ce3+  Ce6  1  0.87157291  0.02938049  0.92575273  1
  Ce3+  Ce7  1  0.24615629  0.13933567  0.05299720  1
  Ce3+  Ce8  1  0.37595858  0.77359950  0.94810058  1
  Ce3+  Ce9  1  0.12691338  0.74047882  0.44225333  1
  Ce3+  Ce10  1  0.37565538  0.26605237  0.94343303  1
  Ce3+  Ce11  1  0.75176489  0.87048154  0.55971289  1
  Ce3+  Ce12  1  0.00697051  0.39377347  0.06786186  1
  Pr3+  Pr13  1  0.37174891  0.74264836  0.44032435  1
  Pr3+  Pr14  1  0.00075469  0.61752286  0.55883220  1
  Pr3+  Pr15  1  0.87486531  0.27162779  0.94169846  1
  Pr3+  Pr16  1  0.12715925  -0.00227293  0.43250938  1
  Pr3+  Pr17  1  0.88338763  0.51627094  0.93118014  1
  Pr3+  Pr18  1  0.13310169  0.51785658  0.93156035  1
  Pr3+  Pr19  1  0.49976065  0.14073999  0.07541835  1
  Pr3+  Pr20  1  0.62772511  0.27177066  0.94300923  1
  Pr3+  Pr21  1  0.87429423  0.74294827  0.43639253  1
  Pr3+  Pr22  1  0.37615104  0.52264862  0.93522676  1
  Pr3+  Pr23  1  0.87178461  0.48781193  0.44100875  1
  Pr3+  Pr24  1  0.24995794  0.39349581  0.06344173  1
  Pr3+  Pr25  1  0.50182635  0.89450405  0.07027191  1
  Nd3+  Nd26  1  -0.00170050  0.14019814  0.05596796  1
  Nd3+  Nd27  1  0.25013163  0.11817762  0.55844011  1
  Nd3+  Nd28  1  0.75304474  0.63854846  0.07145045  1
  Nd3+  Nd29  1  0.50160824  0.39529689  0.05670630  1
  Nd3+  Nd30  1  0.62692250  0.49940189  0.43194025  1
  Nd3+  Nd31  1  0.87137546  0.76199293  0.93350551  1
  Nd3+  Nd32  1  0.12533637  0.26823634  0.93577667  1
  Nd3+  Nd33  1  0.00054481  0.11676458  0.55943730  1
  Nd3+  Nd34  1  0.75581717  0.38957660  0.07016598  1
  Nd3+  Nd35  1  0.12457710  0.49048268  0.44191696  1
  Nd3+  Nd36  1  0.62456317  0.02348556  0.94514564  1
  Nd3+  Nd37  1  0.24881300  0.86947865  0.56009139  1
  Nd3+  Nd38  1  0.24519909  0.89521883  0.05338204  1
  Nd3+  Nd39  1  0.62922627  0.52338604  0.93774264  1
  Nd3+  Nd40  1  0.75238746  0.11359844  0.56644288  1
  Nd3+  Nd41  1  -0.00646928  0.36876146  0.56793970  1
  Nd3+  Nd42  1  0.50121643  0.86622678  0.55719729  1
  Nd3+  Nd43  1  0.87257011  -0.00248825  0.43680912  1
  Nd3+  Nd44  1  0.25148206  0.36679390  0.55257767  1
  Sm3+  Sm45  1  0.51017222  0.36653903  0.55300201  1
  Sm3+  Sm46  1  0.37753831  0.01921231  0.94226511  1
  Sm3+  Sm47  1  0.62515238  0.76926523  0.95100452  1
  Sm3+  Sm48  1  0.12355252  0.24378586  0.44532281  1
  Sm3+  Sm49  1  0.75214779  0.89375358  0.04963703  1
  Sm3+  Sm50  1  -0.00331323  0.89548262  0.04799854  1
  Sm3+  Sm51  1  0.50548779  0.61423755  0.55563783  1
  Sm3+  Sm52  1  0.86912799  0.24464948  0.44677494  1
  Sm3+  Sm53  1  0.37771580  0.49064110  0.44096700  1
  Sm3+  Sm54  1  0.12476931  0.76933454  0.94253807  1
  Sm3+  Sm55  1  0.62465882  -0.00182497  0.44056056  1
  Sm3+  Sm56  1  0.37835681  -0.00317209  0.44616731  1
  Sm3+  Sm57  1  0.24738896  0.64426077  0.05658909  1
  Sm3+  Sm58  1  0.38350915  0.24266284  0.44273435  1
  Sm3+  Sm59  1  -0.00158552  0.64174495  0.05636661  1
  Sm3+  Sm60  1  0.49892162  0.64410563  0.05943774  1
  Sm3+  Sm61  1  0.75162978  0.61431209  0.56211676  1
  Sm3+  Sm62  1  0.62420216  0.74241005  0.44111690  1
  Sm3+  Sm63  1  0.00326876  0.86782652  0.54923736  1
  Bi2+  Bi64  1  0.00387639  0.11632707  0.30649344  1
  Bi2+  Bi65  1  -0.01815134  0.14254651  0.79119166  1
  Bi2+  Bi66  1  0.03826402  0.38921686  0.29383111  1
  Bi2+  Bi67  1  -0.01181282  0.38851126  0.78241257  1
  Bi2+  Bi68  1  0.06741573  0.63774840  0.29227797  1
  Bi2+  Bi69  1  -0.01425571  0.64543585  0.79486891  1
  Bi2+  Bi70  1  -0.00601264  0.81011082  0.25819003  1
  Bi2+  Bi71  1  -0.03602602  0.82448507  0.73982787  1
  Bi2+  Bi72  1  0.25081865  0.10739697  0.28916460  1
  Bi2+  Bi73  1  0.24096529  0.10912953  0.78900574  1
  Bi2+  Bi74  1  0.28572755  0.38013940  0.27983136  1
  Bi2+  Bi75  1  0.17693008  0.36882728  0.80815421  1
  Bi2+  Bi76  1  0.32517205  0.66599636  0.24235680  1
  Bi2+  Bi77  1  0.25823832  0.64329910  0.80622199  1
  Bi2+  Bi78  1  0.27560564  0.84029289  0.29074405  1
  Bi2+  Bi79  1  0.31268512  0.88714283  0.77994144  1
  Bi2+  Bi80  1  0.47467163  0.10966707  0.29239806  1
  Bi2+  Bi81  1  0.48520216  0.11727860  0.80578718  1
  Bi2+  Bi82  1  0.48016923  0.39955667  0.29450230  1
  Bi2+  Bi83  1  0.45583024  0.41047311  0.74882898  1
  Bi2+  Bi84  1  0.52734139  0.65753686  0.28607792  1
  Bi2+  Bi85  1  0.51758719  0.54898188  0.81998769  1
  Bi2+  Bi86  1  0.52090004  0.86381551  0.29149352  1
  Bi2+  Bi87  1  0.57207509  0.85453829  0.78965713  1
  Bi2+  Bi88  1  0.76206297  0.10038844  0.29704870  1
  Bi2+  Bi89  1  0.69386345  0.08762193  0.77622947  1
  Bi2+  Bi90  1  0.78435942  0.36739628  0.30269495  1
  Bi2+  Bi91  1  0.75185946  0.30413973  0.81508025  1
  Bi2+  Bi92  1  0.78378413  0.64620196  0.29490110  1
  Bi2+  Bi93  1  0.71053058  0.60606611  0.80044111  1
  Bi2+  Bi94  1  0.71560509  0.85290273  0.28314752  1
  Bi2+  Bi95  1  0.77505940  0.82405362  0.78506724  1
  Bi2+  Bi96  1  0.10431440  0.02514635  0.18628157  1
  Bi2+  Bi97  1  0.11926346  -0.00682397  0.68697890  1
  Bi2+  Bi98  1  0.16812164  0.26242979  0.21793011  1
  Bi2+  Bi99  1  0.11230860  0.30802144  0.70541622  1
  Bi2+  Bi100  1  0.13109978  0.51284570  0.20865473  1
  Bi2+  Bi101  1  0.11718786  0.50466613  0.70439782  1
  Bi2+  Bi102  1  0.16427638  0.76639750  0.20586495  1
  Bi2+  Bi103  1  0.15344973  0.75389983  0.74140128  1
  Bi2+  Bi104  1  0.34340477  -0.02257595  0.22034030  1
  Bi2+  Bi105  1  0.36736383  0.00871726  0.69308622  1
  Bi2+  Bi106  1  0.36417539  0.22061792  0.22275808  1
  Bi2+  Bi107  1  0.31716718  0.27153711  0.74958242  1
  Bi2+  Bi108  1  0.38950189  0.48746071  0.20352012  1
  Bi2+  Bi109  1  0.31672652  0.53412364  0.70863022  1
  Bi2+  Bi110  1  0.48230656  0.76205221  0.18749095  1
  Bi2+  Bi111  1  0.44348496  0.70424079  0.76181614  1
  Bi2+  Bi112  1  0.60070075  -0.03313280  0.20844950  1
  Bi2+  Bi113  1  0.61323187  -0.02503037  0.69535712  1
  Bi2+  Bi114  1  0.61081831  0.29736373  0.19736250  1
  Bi2+  Bi115  1  0.60829111  0.24126629  0.71267783  1
  Bi2+  Bi116  1  0.66521514  0.53617201  0.23108130  1
  Bi2+  Bi117  1  0.56581721  0.54824121  0.69227253  1
  Bi2+  Bi118  1  0.68504212  0.72504035  0.19361581  1
  Bi2+  Bi119  1  0.61656496  0.73697134  0.70010230  1
  Bi2+  Bi120  1  0.85803855  -0.06788490  0.21298055  1
  Bi2+  Bi121  1  0.86211211  -0.00508921  0.75855204  1
  Bi2+  Bi122  1  0.90323291  0.25603662  0.20863808  1
  Bi2+  Bi123  1  0.89512844  0.22704154  0.70498991  1
  Bi2+  Bi124  1  0.88075615  0.52592871  0.21038291  1
  Bi2+  Bi125  1  0.84966930  0.58937329  0.71799399  1
  Bi2+  Bi126  1  0.88270670  0.71447572  0.17892718  1
  Bi2+  Bi127  1  0.80335143  0.76528532  0.67410893  1
  S2-  S128  1  0.00242431  0.15522542  0.15506970  1
  S2-  S129  1  -0.00092520  0.09956698  0.65765956  1
  S2-  S130  1  -0.07120304  0.39156753  0.15539403  1
  S2-  S131  1  -0.09674597  0.36311135  0.65199793  1
  S2-  S132  1  0.01159312  0.59581015  0.15081342  1
  S2-  S133  1  -0.00562467  0.58278138  0.65668814  1
  S2-  S134  1  -0.00425853  0.93175349  0.14359954  1
  S2-  S135  1  0.03345838  0.87442108  0.64455494  1
  S2-  S136  1  0.22054239  0.14124937  0.14837094  1
  S2-  S137  1  0.24267034  0.11157032  0.65651057  1
  S2-  S138  1  0.14244382  0.38949987  0.14217406  1
  S2-  S139  1  0.24237890  0.40433080  0.64766421  1
  S2-  S140  1  0.23811137  0.62351429  0.15241219  1
  S2-  S141  1  0.20417995  0.65891426  0.66602873  1
  S2-  S142  1  0.22751067  0.90816797  0.15133575  1
  S2-  S143  1  0.25495964  0.89123419  0.65782314  1
  S2-  S144  1  0.60231630  0.15104844  0.15774215  1
  S2-  S145  1  0.48800382  0.12658154  0.66836829  1
  S2-  S146  1  0.46824950  0.36007776  0.15116732  1
  S2-  S147  1  0.55221161  0.37043326  0.64822785  1
  S2-  S148  1  0.49685893  0.59305345  0.15118362  1
  S2-  S149  1  0.41983615  0.61200343  0.63940799  1
  S2-  S150  1  0.46719635  1.00057470  0.14792380  1
  S2-  S151  1  0.48238956  0.89039269  0.65387154  1
  S2-  S152  1  0.81972447  0.10271677  0.20417765  1
  S2-  S153  1  0.74813676  0.19505472  0.65556825  1
  S2-  S154  1  0.75637318  0.28608665  0.15317121  1
  S2-  S155  1  0.71792702  0.36088906  0.72825248  1
  S2-  S156  1  0.74084811  0.51407222  0.14282241  1
  S2-  S157  1  0.72940957  0.53543072  0.64748588  1
  S2-  S158  1  0.73641214  0.94798357  0.14130293  1
  S2-  S159  1  0.75015437  0.97770471  0.63599657  1
  S2-  S160  1  0.11781830  0.01095638  0.33284876  1
  S2-  S161  1  0.17696570  -0.04291375  0.81383817  1
  S2-  S162  1  0.08722834  0.24616918  0.35050694  1
  S2-  S163  1  0.12815074  0.17152103  0.85119955  1
  S2-  S164  1  0.13623876  0.49714179  0.34365034  1
  S2-  S165  1  0.02621015  0.51612983  0.85253221  1
  S2-  S166  1  0.16754022  0.73821114  0.34933156  1
  S2-  S167  1  0.11579415  0.73773179  0.84723354  1
  S2-  S168  1  0.37044872  0.01989253  0.35055327  1
  S2-  S169  1  0.38173736  0.00775445  0.84439842  1
  S2-  S170  1  0.45885660  0.24455391  0.35468717  1
  S2-  S171  1  0.38151333  0.23947347  0.84759701  1
  S2-  S172  1  0.38623403  0.50529287  0.34470962  1
  S2-  S173  1  0.26501273  0.50204226  0.85867441  1
  S2-  S174  1  0.40639091  0.75479700  0.34388993  1
  S2-  S175  1  0.36893252  0.76665810  0.85227953  1
  S2-  S176  1  0.62080879  0.07532550  0.35433134  1
  S2-  S177  1  0.60336068  0.00145470  0.84739261  1
  S2-  S178  1  0.66687747  0.24003958  0.28591217  1
  S2-  S179  1  0.60442639  0.22675326  0.84655462  1
  S2-  S180  1  0.63485638  0.40921610  0.34696267  1
  S2-  S181  1  0.65797085  0.44747938  0.85026582  1
  S2-  S182  1  0.63709494  0.63955721  0.36291070  1
  S2-  S183  1  0.63441643  0.73242720  0.85678385  1
  S2-  S184  1  0.89294431  0.00030766  0.33909966  1
  S2-  S185  1  0.97178486  -0.00310664  0.84714595  1
  S2-  S186  1  0.84792236  0.22689716  0.34916767  1
  S2-  S187  1  0.85141977  0.17080744  0.85586099  1
  S2-  S188  1  0.90694465  0.46037115  0.34295887  1
  S2-  S189  1  0.87494895  0.38580257  0.86150137  1
  S2-  S190  1  0.91675806  0.72096229  0.34056446  1
  S2-  S191  1  0.85252854  0.64344305  0.86104815  1
  S2-  S192  1  -0.00030396  0.12027915  0.45346352  1
  S2-  S193  1  0.00152197  0.14290532  0.95178860  1
  S2-  S194  1  -0.00012053  0.36456545  0.45976044  1
  S2-  S195  1  0.00851016  0.39270548  0.96028264  1
  S2-  S196  1  0.00040685  0.61568312  0.45193987  1
  S2-  S197  1  0.00338727  0.64720808  0.95522529  1
  S2-  S198  1  0.00121984  0.87007125  0.44476857  1
  S2-  S199  1  -0.00356087  0.88746708  0.94608664  1
  S2-  S200  1  0.25344029  0.12319633  0.45242295  1
  S2-  S201  1  0.25177712  0.13862317  0.94910606  1
  S2-  S202  1  0.25344350  0.36442424  0.44711590  1
  S2-  S203  1  0.25319181  0.38875677  0.95843718  1
  S2-  S204  1  0.25250675  0.61195241  0.45848833  1
  S2-  S205  1  0.25069670  0.64974801  0.95450480  1
  S2-  S206  1  0.25220638  0.87296571  0.45277911  1
  S2-  S207  1  0.24697384  0.89739600  0.94733028  1
  S2-  S208  1  0.50082169  0.11848709  0.46044111  1
  S2-  S209  1  0.49854149  0.14264952  0.96204670  1
  S2-  S210  1  0.50318770  0.36942155  0.45170798  1
  S2-  S211  1  0.49819261  0.39633782  0.95062421  1
  S2-  S212  1  0.49682638  0.61934098  0.45422178  1
  S2-  S213  1  0.50021266  0.64725438  0.95585320  1
  S2-  S214  1  0.50172369  0.87005260  0.45107680  1
  S2-  S215  1  0.50188228  0.89468392  0.95997787  1
  S2-  S216  1  0.74867954  0.11926542  0.45702303  1
  S2-  S217  1  0.74643268  0.14428956  0.95569796  1
  S2-  S218  1  0.74684853  0.36333401  0.44480759  1
  S2-  S219  1  0.74901559  0.39848085  0.96378259  1
  S2-  S220  1  0.75328845  0.62011462  0.45855982  1
  S2-  S221  1  0.74750126  0.64532163  0.96550873  1
  S2-  S222  1  0.74705455  0.86921166  0.44856423  1
  S2-  S223  1  0.75029938  0.89289764  0.94564311  1
  S2-  S224  1  0.12135481  0.01538770  0.03566342  1
  S2-  S225  1  0.12645365  -0.00615316  0.53947399  1
  S2-  S226  1  0.12583206  0.26488378  0.04083208  1
  S2-  S227  1  0.12428912  0.24414742  0.55021532  1
  S2-  S228  1  0.12717927  0.52329893  0.04012056  1
  S2-  S229  1  0.12520980  0.49091698  0.54726671  1
  S2-  S230  1  0.12109793  0.76837918  0.04725906  1
  S2-  S231  1  0.12834021  0.74163054  0.54734387  1
  S2-  S232  1  0.37221550  0.01686564  0.04460147  1
  S2-  S233  1  0.37594715  -0.00615418  0.54895027  1
  S2-  S234  1  0.37386208  0.26540143  0.04973678  1
  S2-  S235  1  0.37805159  0.24488060  0.54883620  1
  S2-  S236  1  0.37280011  0.52162131  0.04330154  1
  S2-  S237  1  0.38153037  0.48624937  0.54394456  1
  S2-  S238  1  0.37264181  0.76916281  0.05413013  1
  S2-  S239  1  0.37542739  0.74469622  0.54608747  1
  S2-  S240  1  0.62689774  0.01908294  0.04826301  1
  S2-  S241  1  0.62298934  -0.00904079  0.54254035  1
  S2-  S242  1  0.62244568  0.26993586  0.04897847  1
  S2-  S243  1  0.63005186  0.24375251  0.55597504  1
  S2-  S244  1  0.62088357  0.52190819  0.04401158  1
  S2-  S245  1  0.62658141  0.49415184  0.53969147  1
  S2-  S246  1  0.62702001  0.76770229  0.05430634  1
  S2-  S247  1  0.62674888  0.74079876  0.54524507  1
  S2-  S248  1  0.87220513  0.01798698  0.04083863  1
  S2-  S249  1  0.88160988  -0.01005880  0.54140567  1
  S2-  S250  1  0.87687339  0.26405943  0.04792903  1
  S2-  S251  1  0.87654473  0.23929587  0.54825581  1
  S2-  S252  1  0.87886631  0.51991457  0.04312194  1
  S2-  S253  1  0.87457017  0.49399115  0.54585952  1
  S2-  S254  1  0.87449109  0.76853412  0.04139239  1
  S2-  S255  1  0.87709667  0.74433736  0.54306013  1
