# generated using pymatgen
data_La6Ce7Pr13Nd19Sm19(BiS2)64
_symmetry_space_group_name_H-M   'P 1'
_cell_length_a   16.05979774
_cell_length_b   16.07101237
_cell_length_c   27.23308427
_cell_angle_alpha   89.75497776
_cell_angle_beta   90.11112017
_cell_angle_gamma   89.98029669
_symmetry_Int_Tables_number   1
_chemical_formula_structural   La6Ce7Pr13Nd19Sm19(BiS2)64
_chemical_formula_sum   'La6 Ce7 Pr13 Nd19 Sm19 Bi64 S128'
_cell_volume   7028.70509093
_cell_formula_units_Z   1
loop_
 _symmetry_equiv_pos_site_id
 _symmetry_equiv_pos_as_xyz
  1  'x, y, z'
loop_
 _atom_type_symbol
 _atom_type_oxidation_number
  La3+  3.0
  Ce3+  3.0
  Pr3+  3.0
  Nd3+  3.0
  Sm3+  3.0
  Bi2+  2.0
  S2-  -2.0
loop_
 _atom_site_type_symbol
 _atom_site_label
 _atom_site_symmetry_multiplicity
 _atom_site_fract_x
 _atom_site_fract_y
 _atom_site_fract_z
 _atom_site_occupancy
  La3+  La0  1  0.62300336  0.75672956  0.44529318  1
  La3+  La1  1  0.74497772  0.62070109  0.61211706  1
  La3+  La2  1  0.87363094  -0.00487100  0.39527559  1
  La3+  La3  1  0.50131122  0.64347263  0.11081577  1
  La3+  La4  1  0.75328525  0.87888136  0.57737648  1
  La3+  La5  1  0.36904246  0.01892451  0.91372533  1
  Ce3+  Ce6  1  0.24456647  0.13572267  0.05467941  1
  Ce3+  Ce7  1  0.36961742  0.76495958  0.94541363  1
  Ce3+  Ce8  1  0.61597065  0.51748319  0.94549575  1
  Ce3+  Ce9  1  0.11772741  0.24877338  0.43138246  1
  Ce3+  Ce10  1  0.37052771  0.00474830  0.44132835  1
  Ce3+  Ce11  1  0.49616933  0.38238751  0.55482415  1
  Ce3+  Ce12  1  0.62817851  0.00510616  0.44490812  1
  Pr3+  Pr13  1  0.62036530  0.02110562  0.92899375  1
  Pr3+  Pr14  1  0.36800516  0.51457331  0.93632464  1
  Pr3+  Pr15  1  0.48651862  0.39162895  0.07431375  1
  Pr3+  Pr16  1  0.49072834  0.87829162  0.57252756  1
  Pr3+  Pr17  1  0.74171911  0.64572285  0.06115265  1
  Pr3+  Pr18  1  -0.00571407  0.38998534  0.07046518  1
  Pr3+  Pr19  1  0.49283565  0.13917370  0.05998319  1
  Pr3+  Pr20  1  0.12905027  0.00555740  0.42186565  1
  Pr3+  Pr21  1  0.24424764  0.89637677  0.06433815  1
  Pr3+  Pr22  1  0.36703497  0.49270742  0.41538176  1
  Pr3+  Pr23  1  0.24499555  0.39024197  0.06640252  1
  Pr3+  Pr24  1  0.11812928  0.01615389  0.92757934  1
  Pr3+  Pr25  1  0.24117989  0.12814366  0.56829112  1
  Nd3+  Nd26  1  0.87722624  0.75854994  0.92545866  1
  Nd3+  Nd27  1  0.73815910  0.39138804  0.06842386  1
  Nd3+  Nd28  1  0.73905609  0.13951910  0.06676443  1
  Nd3+  Nd29  1  0.36936543  0.75061298  0.42728337  1
  Nd3+  Nd30  1  0.49260609  0.62703567  0.56436627  1
  Nd3+  Nd31  1  0.87168646  0.50830192  0.43538040  1
  Nd3+  Nd32  1  0.86510456  0.01677397  0.94177618  1
  Nd3+  Nd33  1  0.11302869  0.51751563  0.94227706  1
  Nd3+  Nd34  1  -0.00179489  0.87801506  0.55910099  1
  Nd3+  Nd35  1  0.61869510  0.76839075  0.92506718  1
  Nd3+  Nd36  1  0.62019092  0.27536480  0.92982269  1
  Nd3+  Nd37  1  0.74968109  0.12624726  0.56887120  1
  Nd3+  Nd38  1  0.74113914  0.88686149  0.05608470  1
  Nd3+  Nd39  1  0.12180202  0.75823528  0.43056115  1
  Nd3+  Nd40  1  0.36837239  0.27079888  0.93365233  1
  Nd3+  Nd41  1  -0.00311818  0.38015062  0.55814694  1
  Nd3+  Nd42  1  0.74864674  0.38157661  0.55820159  1
  Nd3+  Nd43  1  -0.00239916  0.62111322  0.57012624  1
  Nd3+  Nd44  1  0.11641379  0.26732991  0.94360394  1
  Sm3+  Sm45  1  0.24767383  0.37986675  0.55258022  1
  Sm3+  Sm46  1  0.86987917  0.75458125  0.44841268  1
  Sm3+  Sm47  1  0.11789385  0.76433544  0.94214107  1
  Sm3+  Sm48  1  0.24614689  0.87587224  0.55815146  1
  Sm3+  Sm49  1  0.86793185  0.26753397  0.95014975  1
  Sm3+  Sm50  1  0.86847790  0.51625151  0.95560543  1
  Sm3+  Sm51  1  0.62598108  0.25301424  0.44624634  1
  Sm3+  Sm52  1  0.62388624  0.50639869  0.44042280  1
  Sm3+  Sm53  1  -0.00327450  0.64409686  0.07240988  1
  Sm3+  Sm54  1  -0.00602197  0.89219482  0.05353601  1
  Sm3+  Sm55  1  0.87115807  0.24892927  0.44017881  1
  Sm3+  Sm56  1  0.00014811  0.12736136  0.55305734  1
  Sm3+  Sm57  1  0.49580907  0.12875988  0.55802481  1
  Sm3+  Sm58  1  0.37260023  0.25492924  0.44225114  1
  Sm3+  Sm59  1  0.25090053  0.62755871  0.55390972  1
  Sm3+  Sm60  1  0.24475800  0.64076381  0.06691121  1
  Sm3+  Sm61  1  0.49253147  0.89337981  0.05848973  1
  Sm3+  Sm62  1  0.11850872  0.50391014  0.43560366  1
  Sm3+  Sm63  1  -0.00843595  0.13848572  0.06067873  1
  Bi2+  Bi64  1  0.00221466  0.19652300  0.28474499  1
  Bi2+  Bi65  1  0.03689605  0.06492559  0.78244328  1
  Bi2+  Bi66  1  0.04931712  0.37603273  0.32409789  1
  Bi2+  Bi67  1  0.00181748  0.32938323  0.79604169  1
  Bi2+  Bi68  1  0.00441830  0.58038545  0.31959993  1
  Bi2+  Bi69  1  0.01219813  0.59471797  0.79714915  1
  Bi2+  Bi70  1  -0.01878593  0.82484012  0.28241591  1
  Bi2+  Bi71  1  0.02949410  0.86507350  0.78478976  1
  Bi2+  Bi72  1  0.25294473  0.15219037  0.27638781  1
  Bi2+  Bi73  1  0.22922915  0.13331904  0.78942085  1
  Bi2+  Bi74  1  0.24079785  0.34891984  0.29008538  1
  Bi2+  Bi75  1  0.18126994  0.34887741  0.75006673  1
  Bi2+  Bi76  1  0.18418799  0.60803103  0.28070575  1
  Bi2+  Bi77  1  0.25415918  0.60936908  0.78852696  1
  Bi2+  Bi78  1  0.25030002  0.86967189  0.30143075  1
  Bi2+  Bi79  1  0.22707982  0.85763732  0.78115954  1
  Bi2+  Bi80  1  0.50476601  0.11120224  0.29412867  1
  Bi2+  Bi81  1  0.50295763  0.14866449  0.78961858  1
  Bi2+  Bi82  1  0.50881557  0.30939301  0.28218325  1
  Bi2+  Bi83  1  0.46853458  0.34255768  0.77923766  1
  Bi2+  Bi84  1  0.53205154  0.64762561  0.31827844  1
  Bi2+  Bi85  1  0.43282081  0.53331076  0.79884603  1
  Bi2+  Bi86  1  0.51146540  0.91691910  0.28212443  1
  Bi2+  Bi87  1  0.48947893  0.82675227  0.80000828  1
  Bi2+  Bi88  1  0.72589196  0.15129074  0.29247022  1
  Bi2+  Bi89  1  0.77056589  0.15277057  0.79096752  1
  Bi2+  Bi90  1  0.85953260  0.41533763  0.30649083  1
  Bi2+  Bi91  1  0.73733150  0.36255976  0.79205127  1
  Bi2+  Bi92  1  0.74843546  0.61423801  0.23660821  1
  Bi2+  Bi93  1  0.74169500  0.58979177  0.82573287  1
  Bi2+  Bi94  1  0.73993244  0.87446716  0.28893353  1
  Bi2+  Bi95  1  0.74812082  0.89883018  0.78705147  1
  Bi2+  Bi96  1  0.12907954  -0.02901172  0.19172470  1
  Bi2+  Bi97  1  0.12188248  -0.04262079  0.69386980  1
  Bi2+  Bi98  1  0.15313712  0.25672654  0.19906097  1
  Bi2+  Bi99  1  0.04264797  0.22933954  0.69754539  1
  Bi2+  Bi100  1  0.10350979  0.44592515  0.20121740  1
  Bi2+  Bi101  1  0.12078593  0.56284160  0.70527346  1
  Bi2+  Bi102  1  0.10452003  0.73658992  0.21189816  1
  Bi2+  Bi103  1  0.13070267  0.75774180  0.69015710  1
  Bi2+  Bi104  1  0.37517813  0.02837403  0.21613379  1
  Bi2+  Bi105  1  0.40646538  -0.01292106  0.70381267  1
  Bi2+  Bi106  1  0.39602447  0.22621900  0.19003749  1
  Bi2+  Bi107  1  0.33793559  0.24361953  0.71353217  1
  Bi2+  Bi108  1  0.39532222  0.50347049  0.21991971  1
  Bi2+  Bi109  1  0.36140290  0.48669544  0.69600279  1
  Bi2+  Bi110  1  0.36422282  0.75418951  0.21585271  1
  Bi2+  Bi111  1  0.33201072  0.73919938  0.71129160  1
  Bi2+  Bi112  1  0.61823642  0.05985302  0.19915499  1
  Bi2+  Bi113  1  0.62523394  0.01652121  0.71710945  1
  Bi2+  Bi114  1  0.58822177  0.24930541  0.17493296  1
  Bi2+  Bi115  1  0.65432296  0.24751226  0.71240249  1
  Bi2+  Bi116  1  0.63920099  0.44436886  0.24044192  1
  Bi2+  Bi117  1  0.61185532  0.46540412  0.71091946  1
  Bi2+  Bi118  1  0.62731229  0.81879243  0.20388941  1
  Bi2+  Bi119  1  0.61126980  0.72168445  0.72715798  1
  Bi2+  Bi120  1  0.88438670  0.00490708  0.19915564  1
  Bi2+  Bi121  1  0.88728432  0.00111761  0.71105449  1
  Bi2+  Bi122  1  0.85294991  0.27077650  0.22456822  1
  Bi2+  Bi123  1  0.84401267  0.20417777  0.68107073  1
  Bi2+  Bi124  1  0.92138548  0.52531079  0.20790151  1
  Bi2+  Bi125  1  0.89578894  0.39267967  0.70592280  1
  Bi2+  Bi126  1  0.89580162  0.71585351  0.19163828  1
  Bi2+  Bi127  1  0.86812542  0.74901327  0.71930674  1
  S2-  S128  1  0.01810490  0.08569043  0.15327294  1
  S2-  S129  1  0.09931354  0.10934860  0.63475382  1
  S2-  S130  1  -0.00764125  0.31702344  0.16199333  1
  S2-  S131  1  0.01683578  0.46727451  0.64320916  1
  S2-  S132  1  0.12001074  0.62320508  0.14051514  1
  S2-  S133  1  -0.09290455  0.64238010  0.65412175  1
  S2-  S134  1  -0.00957511  0.88254751  0.15180605  1
  S2-  S135  1  -0.07968646  0.87560677  0.65145270  1
  S2-  S136  1  0.24409686  0.03540260  0.13488453  1
  S2-  S137  1  0.30370505  0.09655224  0.66575383  1
  S2-  S138  1  0.35003236  0.38348674  0.14775656  1
  S2-  S139  1  0.25067316  0.36867145  0.65103743  1
  S2-  S140  1  0.33674904  0.62184075  0.15193648  1
  S2-  S141  1  0.35747920  0.62052139  0.63372616  1
  S2-  S142  1  0.23273127  0.83471543  0.16181589  1
  S2-  S143  1  0.34604375  0.86598887  0.63888028  1
  S2-  S144  1  0.49231668  0.01786124  0.13483690  1
  S2-  S145  1  0.50914387  0.10530016  0.65559561  1
  S2-  S146  1  0.52894846  0.48239954  0.16038069  1
  S2-  S147  1  0.49469605  0.39187757  0.65220270  1
  S2-  S148  1  0.49198873  0.64970138  0.22334153  1
  S2-  S149  1  0.57891363  0.61368160  0.65558542  1
  S2-  S150  1  0.47998260  0.80932121  0.14675739  1
  S2-  S151  1  0.54436948  0.88324058  0.67294163  1
  S2-  S152  1  0.80256530  0.13638926  0.16004301  1
  S2-  S153  1  0.74202190  0.01349055  0.64836180  1
  S2-  S154  1  0.73709954  0.36920751  0.16737872  1
  S2-  S155  1  0.75115338  0.45156794  0.64919420  1
  S2-  S156  1  0.66969993  0.66661822  0.15148891  1
  S2-  S157  1  0.75164836  0.61554758  0.73318485  1
  S2-  S158  1  0.74930561  0.90671773  0.15617957  1
  S2-  S159  1  0.73005077  0.77770688  0.66186877  1
  S2-  S160  1  0.10133144  -0.12215363  0.35056065  1
  S2-  S161  1  0.22681268  -0.00260832  0.84954004  1
  S2-  S162  1  0.11919323  0.14349738  0.35128466  1
  S2-  S163  1  0.14986681  0.26631317  0.84602733  1
  S2-  S164  1  0.21573989  0.49484358  0.35413680  1
  S2-  S165  1  0.14057693  0.51396521  0.84443600  1
  S2-  S166  1  0.23795714  0.73019185  0.35325147  1
  S2-  S167  1  0.02165087  0.73660998  0.86107075  1
  S2-  S168  1  0.28110175  0.00070043  0.35781220  1
  S2-  S169  1  0.44072817  -0.02039940  0.81362625  1
  S2-  S170  1  0.38038134  0.33565078  0.35471998  1
  S2-  S171  1  0.36676802  0.16687576  0.85222142  1
  S2-  S172  1  0.40062493  0.55729248  0.32100402  1
  S2-  S173  1  0.36999388  0.39711087  0.85954443  1
  S2-  S174  1  0.43047706  0.80339279  0.33528774  1
  S2-  S175  1  0.34917024  0.77988809  0.84831754  1
  S2-  S176  1  0.70882932  0.00654676  0.35643205  1
  S2-  S177  1  0.62422873  -0.09884318  0.85349366  1
  S2-  S178  1  0.64592873  0.25835472  0.34753480  1
  S2-  S179  1  0.62714287  0.15230213  0.85690955  1
  S2-  S180  1  0.61186937  0.50485779  0.34154991  1
  S2-  S181  1  0.63311473  0.41907158  0.86438822  1
  S2-  S182  1  0.66086843  0.76989965  0.34480122  1
  S2-  S183  1  0.59403419  0.68216455  0.83461582  1
  S2-  S184  1  0.93310100  -0.00945734  0.29196175  1
  S2-  S185  1  0.83330939  0.01686439  0.84456938  1
  S2-  S186  1  0.86753211  0.16640692  0.35344209  1
  S2-  S187  1  0.86278074  0.26869637  0.85208400  1
  S2-  S188  1  0.83923953  0.57835953  0.34396125  1
  S2-  S189  1  0.89603523  0.52592041  0.85849600  1
  S2-  S190  1  0.86422760  0.82467353  0.35711772  1
  S2-  S191  1  0.79868076  0.75385147  0.83611025  1
  S2-  S192  1  -0.00756131  0.12180751  0.45090688  1
  S2-  S193  1  -0.00856826  0.14140860  0.95190645  1
  S2-  S194  1  -0.00644821  0.37758699  0.45200127  1
  S2-  S195  1  -0.00897063  0.39097319  0.96109527  1
  S2-  S196  1  -0.00098420  0.63119052  0.45660402  1
  S2-  S197  1  -0.00734560  0.63908460  0.96784235  1
  S2-  S198  1  -0.00590819  0.87950674  0.45405014  1
  S2-  S199  1  -0.00740051  0.89160815  0.94844138  1
  S2-  S200  1  0.24983741  0.13438453  0.45842424  1
  S2-  S201  1  0.23966622  0.14246337  0.95116351  1
  S2-  S202  1  0.24142588  0.37261872  0.45084950  1
  S2-  S203  1  0.23704738  0.39202184  0.95886633  1
  S2-  S204  1  0.24510979  0.62438200  0.45294937  1
  S2-  S205  1  0.23914513  0.64052482  0.95469929  1
  S2-  S206  1  0.24959825  0.87535278  0.45606683  1
  S2-  S207  1  0.23821467  0.88673005  0.95456259  1
  S2-  S208  1  0.49804866  0.13272213  0.45180953  1
  S2-  S209  1  0.49568728  0.14649052  0.95338689  1
  S2-  S210  1  0.50290521  0.37733028  0.45040083  1
  S2-  S211  1  0.49434818  0.39062490  0.96332844  1
  S2-  S212  1  0.49548113  0.62514080  0.44997031  1
  S2-  S213  1  0.49239813  0.64048125  0.94494059  1
  S2-  S214  1  0.49598514  0.88414585  0.45602674  1
  S2-  S215  1  0.49222690  0.89260106  0.95115516  1
  S2-  S216  1  0.74800632  0.13176206  0.46286486  1
  S2-  S217  1  0.74595946  0.14562291  0.95909353  1
  S2-  S218  1  0.74892673  0.37859160  0.45099268  1
  S2-  S219  1  0.74874815  0.39200865  0.96325684  1
  S2-  S220  1  0.74601250  0.62958454  0.45220953  1
  S2-  S221  1  0.74582128  0.64170897  0.95413865  1
  S2-  S222  1  0.75142861  0.88223037  0.46425462  1
  S2-  S223  1  0.75132426  0.88431869  0.95142631  1
  S2-  S224  1  0.11222478  0.01670800  0.03507190  1
  S2-  S225  1  0.12541798  -0.00230101  0.53491218  1
  S2-  S226  1  0.11716596  0.26203597  0.05034504  1
  S2-  S227  1  0.12159615  0.25807494  0.54051401  1
  S2-  S228  1  0.11754449  0.51208072  0.04689007  1
  S2-  S229  1  0.12715712  0.50437351  0.54001228  1
  S2-  S230  1  0.11684428  0.76757367  0.04575483  1
  S2-  S231  1  0.12410972  0.75008372  0.54425895  1
  S2-  S232  1  0.36890122  0.01549802  0.03052346  1
  S2-  S233  1  0.36981325  0.00708808  0.54586988  1
  S2-  S234  1  0.36630584  0.26229820  0.04192213  1
  S2-  S235  1  0.37133586  0.25355423  0.54806482  1
  S2-  S236  1  0.36589964  0.51746311  0.04343987  1
  S2-  S237  1  0.36979818  0.49989498  0.53240855  1
  S2-  S238  1  0.36507969  0.76567023  0.04831829  1
  S2-  S239  1  0.37079515  0.75312553  0.53522910  1
  S2-  S240  1  0.62226223  0.01424319  0.03759123  1
  S2-  S241  1  0.61725608  0.00491889  0.54909155  1
  S2-  S242  1  0.61841378  0.26702773  0.04418889  1
  S2-  S243  1  0.62239172  0.25364804  0.55190989  1
  S2-  S244  1  0.61771901  0.51842860  0.05092294  1
  S2-  S245  1  0.62265611  0.50509254  0.54529690  1
  S2-  S246  1  0.61439966  0.76784491  0.03957396  1
  S2-  S247  1  0.61580456  0.75382868  0.55263240  1
  S2-  S248  1  0.86782838  0.01523577  0.04741952  1
  S2-  S249  1  0.87959342  0.00839696  0.55231323  1
  S2-  S250  1  0.86692780  0.26466058  0.05443875  1
  S2-  S251  1  0.87521234  0.25350268  0.54563253  1
  S2-  S252  1  0.86888489  0.51754289  0.06095107  1
  S2-  S253  1  0.87184754  0.50468103  0.54280769  1
  S2-  S254  1  0.87291817  0.76561600  0.04418247  1
  S2-  S255  1  0.87489031  0.74942427  0.54952078  1
