# generated using pymatgen
data_La6Ce7Pr13Nd19Sm19(BiS2)64
_symmetry_space_group_name_H-M   'P 1'
_cell_length_a   16.05674453
_cell_length_b   16.00581798
_cell_length_c   27.55719437
_cell_angle_alpha   90.02548865
_cell_angle_beta   89.62389794
_cell_angle_gamma   89.92000448
_symmetry_Int_Tables_number   1
_chemical_formula_structural   La6Ce7Pr13Nd19Sm19(BiS2)64
_chemical_formula_sum   'La6 Ce7 Pr13 Nd19 Sm19 Bi64 S128'
_cell_volume   7082.07539864
_cell_formula_units_Z   1
loop_
 _symmetry_equiv_pos_site_id
 _symmetry_equiv_pos_as_xyz
  1  'x, y, z'
loop_
 _atom_type_symbol
 _atom_type_oxidation_number
  La3+  3.0
  Ce3+  3.0
  Pr3+  3.0
  Nd3+  3.0
  Sm3+  3.0
  Bi2+  2.0
  S2-  -2.0
loop_
 _atom_site_type_symbol
 _atom_site_label
 _atom_site_symmetry_multiplicity
 _atom_site_fract_x
 _atom_site_fract_y
 _atom_site_fract_z
 _atom_site_occupancy
  La3+  La0  1  0.36956795  0.25502006  0.38517620  1
  La3+  La1  1  0.86851012  0.75162195  0.42184344  1
  La3+  La2  1  0.38038859  0.47005170  0.93423091  1
  La3+  La3  1  0.64347724  0.47296173  0.91879202  1
  La3+  La4  1  0.48331646  0.13459889  0.56984263  1
  La3+  La5  1  -0.00656606  0.39186771  0.58420622  1
  Ce3+  Ce6  1  -0.01285930  0.12976350  0.55834078  1
  Ce3+  Ce7  1  0.73613606  0.88229654  0.57795168  1
  Ce3+  Ce8  1  0.62883829  0.22116238  0.92811218  1
  Ce3+  Ce9  1  0.61410548  0.00810836  0.44931240  1
  Ce3+  Ce10  1  0.37886974  0.21660860  0.94622390  1
  Ce3+  Ce11  1  0.86491291  0.50587395  0.44210778  1
  Ce3+  Ce12  1  0.25340695  0.84183661  0.05893192  1
  Pr3+  Pr13  1  0.00100281  0.84174693  0.06282046  1
  Pr3+  Pr14  1  0.00120060  0.34447467  0.07846617  1
  Pr3+  Pr15  1  0.75093502  0.33466668  0.06447064  1
  Pr3+  Pr16  1  0.62124487  -0.02777797  0.92121352  1
  Pr3+  Pr17  1  0.73709883  0.63133001  0.57355842  1
  Pr3+  Pr18  1  0.23810752  0.13068137  0.56582572  1
  Pr3+  Pr19  1  0.00018187  0.59504702  0.07189659  1
  Pr3+  Pr20  1  0.48304175  0.62947242  0.57174285  1
  Pr3+  Pr21  1  0.50577587  0.08731541  0.06456660  1
  Pr3+  Pr22  1  0.11440060  0.50281519  0.44073166  1
  Pr3+  Pr23  1  0.48789733  0.88268999  0.57042819  1
  Pr3+  Pr24  1  0.37337723  -0.03105865  0.93210618  1
  Pr3+  Pr25  1  0.11723915  0.25692242  0.44391156  1
  Nd3+  Nd26  1  0.24057471  0.38318826  0.55865090  1
  Nd3+  Nd27  1  0.25661909  0.08548946  0.07132014  1
  Nd3+  Nd28  1  0.75549854  0.83461710  0.05658355  1
  Nd3+  Nd29  1  0.86229155  0.25729267  0.44724707  1
  Nd3+  Nd30  1  0.88260078  0.21714474  0.93751239  1
  Nd3+  Nd31  1  0.61947920  0.25228790  0.43704100  1
  Nd3+  Nd32  1  0.73768593  0.38193069  0.57117316  1
  Nd3+  Nd33  1  0.87990351  -0.02663789  0.93352415  1
  Nd3+  Nd34  1  0.24201694  0.63350416  0.55520368  1
  Nd3+  Nd35  1  0.50947528  0.84061149  0.05747495  1
  Nd3+  Nd36  1  0.36599535  0.00286451  0.43618532  1
  Nd3+  Nd37  1  0.61790009  0.75582730  0.44803366  1
  Nd3+  Nd38  1  0.63970471  0.72440978  0.91458131  1
  Nd3+  Nd39  1  0.00157034  0.08793172  0.07145285  1
  Nd3+  Nd40  1  0.11601189  0.00563562  0.44161471  1
  Nd3+  Nd41  1  0.24244927  0.88046283  0.56591071  1
  Nd3+  Nd42  1  0.50680770  0.58990207  0.05570573  1
  Nd3+  Nd43  1  0.12438317  0.71810714  0.93409449  1
  Nd3+  Nd44  1  0.88630008  0.71788596  0.92969770  1
  Sm3+  Sm45  1  0.13272782  -0.02801115  0.93853310  1
  Sm3+  Sm46  1  -0.01442733  0.63944256  0.56340315  1
  Sm3+  Sm47  1  0.61608820  0.50671687  0.44619404  1
  Sm3+  Sm48  1  0.38236848  0.71897756  0.94061139  1
  Sm3+  Sm49  1  0.50522155  0.34278015  0.05479570  1
  Sm3+  Sm50  1  0.86259881  0.00349141  0.44320128  1
  Sm3+  Sm51  1  0.11696829  0.75447162  0.43582531  1
  Sm3+  Sm52  1  0.25359075  0.34362682  0.06331601  1
  Sm3+  Sm53  1  0.12895543  0.21954433  0.95451761  1
  Sm3+  Sm54  1  0.25259938  0.59544903  0.05375335  1
  Sm3+  Sm55  1  0.36858828  0.75845039  0.43592954  1
  Sm3+  Sm56  1  0.12770231  0.46643389  0.94869078  1
  Sm3+  Sm57  1  0.75177565  0.08710754  0.05653107  1
  Sm3+  Sm58  1  0.88613639  0.46000019  0.93929960  1
  Sm3+  Sm59  1  0.36770700  0.50476180  0.43450667  1
  Sm3+  Sm60  1  0.73837496  0.13296796  0.57483816  1
  Sm3+  Sm61  1  -0.01340583  0.87593854  0.55787923  1
  Sm3+  Sm62  1  0.48763104  0.37885325  0.54926271  1
  Sm3+  Sm63  1  0.75227545  0.58760007  0.05809941  1
  Bi2+  Bi64  1  -0.01933782  0.17260497  0.29539573  1
  Bi2+  Bi65  1  0.01384293  0.06583445  0.79075007  1
  Bi2+  Bi66  1  -0.04155556  0.35756287  0.34666649  1
  Bi2+  Bi67  1  0.05284912  0.33198544  0.79772699  1
  Bi2+  Bi68  1  0.03220518  0.63379076  0.27398259  1
  Bi2+  Bi69  1  0.01620932  0.59158268  0.74754687  1
  Bi2+  Bi70  1  -0.00292431  0.89978790  0.30546784  1
  Bi2+  Bi71  1  0.01605356  0.86901680  0.80424625  1
  Bi2+  Bi72  1  0.24696942  0.11503000  0.29141872  1
  Bi2+  Bi73  1  0.26881775  0.14716370  0.80307869  1
  Bi2+  Bi74  1  0.14287150  0.39403135  0.30891894  1
  Bi2+  Bi75  1  0.23651758  0.40125953  0.80838201  1
  Bi2+  Bi76  1  0.27048243  0.73222692  0.31205865  1
  Bi2+  Bi77  1  0.19533115  0.67862238  0.79251650  1
  Bi2+  Bi78  1  0.27893757  0.88622509  0.23648001  1
  Bi2+  Bi79  1  0.23165850  0.87817743  0.78745111  1
  Bi2+  Bi80  1  0.52884702  0.11530380  0.29246814  1
  Bi2+  Bi81  1  0.50372004  0.12175610  0.78981610  1
  Bi2+  Bi82  1  0.55448854  0.38461847  0.27769339  1
  Bi2+  Bi83  1  0.47213058  0.33808448  0.74937593  1
  Bi2+  Bi84  1  0.44619018  0.64288418  0.31111534  1
  Bi2+  Bi85  1  0.46458455  0.61474021  0.78492487  1
  Bi2+  Bi86  1  0.50402266  0.85940474  0.29386682  1
  Bi2+  Bi87  1  0.50061294  0.85902319  0.78551233  1
  Bi2+  Bi88  1  0.74742503  0.17788564  0.23659642  1
  Bi2+  Bi89  1  0.77364015  0.11797568  0.78342042  1
  Bi2+  Bi90  1  0.75469593  0.35806276  0.30263809  1
  Bi2+  Bi91  1  0.78791187  0.36354189  0.79983985  1
  Bi2+  Bi92  1  0.74549908  0.70244008  0.29241828  1
  Bi2+  Bi93  1  0.74172446  0.61041761  0.78333375  1
  Bi2+  Bi94  1  0.76718086  0.98170013  0.28934663  1
  Bi2+  Bi95  1  0.81855325  0.86881547  0.78589805  1
  Bi2+  Bi96  1  0.09600968  0.02781902  0.24335626  1
  Bi2+  Bi97  1  0.20116245  -0.03610094  0.68465321  1
  Bi2+  Bi98  1  0.05006295  0.30364248  0.22328481  1
  Bi2+  Bi99  1  0.14192183  0.14360764  0.71483543  1
  Bi2+  Bi100  1  0.16082304  0.53876944  0.20107303  1
  Bi2+  Bi101  1  0.19564439  0.51921993  0.71906590  1
  Bi2+  Bi102  1  0.14174825  0.74911935  0.20994329  1
  Bi2+  Bi103  1  0.13847144  0.77254809  0.69457792  1
  Bi2+  Bi104  1  0.38874963  0.04091023  0.18916900  1
  Bi2+  Bi105  1  0.40999737  0.03131569  0.70306720  1
  Bi2+  Bi106  1  0.36376054  0.28744451  0.18600830  1
  Bi2+  Bi107  1  0.28549146  0.28516748  0.71415052  1
  Bi2+  Bi108  1  0.31076891  0.51827262  0.27230973  1
  Bi2+  Bi109  1  0.39459754  0.49559865  0.69697592  1
  Bi2+  Bi110  1  0.41900995  0.74874111  0.21141666  1
  Bi2+  Bi111  1  0.33494817  0.75017722  0.71459084  1
  Bi2+  Bi112  1  0.62657657  -0.06263904  0.21412449  1
  Bi2+  Bi113  1  0.65578525  0.00874953  0.71590280  1
  Bi2+  Bi114  1  0.61610802  0.30940068  0.18071981  1
  Bi2+  Bi115  1  0.65729741  0.27729973  0.73622495  1
  Bi2+  Bi116  1  0.61262679  0.56642526  0.25690326  1
  Bi2+  Bi117  1  0.61451468  0.49072968  0.70764865  1
  Bi2+  Bi118  1  0.63538130  0.74029884  0.19727855  1
  Bi2+  Bi119  1  0.63589861  0.75882627  0.71622117  1
  Bi2+  Bi120  1  0.90668018  0.06875286  0.20527708  1
  Bi2+  Bi121  1  0.93308533  -0.04530100  0.70990376  1
  Bi2+  Bi122  1  0.86615569  0.36329845  0.19211523  1
  Bi2+  Bi123  1  0.87325015  0.20114474  0.70341243  1
  Bi2+  Bi124  1  0.88647216  0.50415889  0.27547371  1
  Bi2+  Bi125  1  0.88291766  0.46138706  0.71175940  1
  Bi2+  Bi126  1  0.87031301  0.82308073  0.18213077  1
  Bi2+  Bi127  1  0.88378407  0.72478529  0.71557731  1
  S2-  S128  1  -0.01237904  0.20821553  0.14633543  1
  S2-  S129  1  -0.00970180  0.09949826  0.65314332  1
  S2-  S130  1  -0.01974768  0.47489025  0.14687578  1
  S2-  S131  1  -0.02603034  0.32383596  0.67856674  1
  S2-  S132  1  -0.00073585  0.72616200  0.14314882  1
  S2-  S133  1  -0.01005624  0.53836380  0.64547836  1
  S2-  S134  1  -0.00800303  0.95684593  0.14233248  1
  S2-  S135  1  -0.00444536  0.76813004  0.63520433  1
  S2-  S136  1  0.26153409  0.15643960  0.16346103  1
  S2-  S137  1  0.34664659  0.14656283  0.64592059  1
  S2-  S138  1  0.23393538  0.38650268  0.15708142  1
  S2-  S139  1  0.18626781  0.38807338  0.65274272  1
  S2-  S140  1  0.25021505  0.65168916  0.14571861  1
  S2-  S141  1  0.33978380  0.63268079  0.63733595  1
  S2-  S142  1  0.26095872  0.94304691  0.13782780  1
  S2-  S143  1  0.35975604  0.88103360  0.64340471  1
  S2-  S144  1  0.49201616  0.16782256  0.15653156  1
  S2-  S145  1  0.55253720  0.11018573  0.66318815  1
  S2-  S146  1  0.48751832  0.40351286  0.14634575  1
  S2-  S147  1  0.50081537  0.37743887  0.64724029  1
  S2-  S148  1  0.51347869  0.64484584  0.14965984  1
  S2-  S149  1  0.57477755  0.63275730  0.65891915  1
  S2-  S150  1  0.50826499  0.94984586  0.13672719  1
  S2-  S151  1  0.58985923  0.87751274  0.65448508  1
  S2-  S152  1  0.73188976  0.18705182  0.13692012  1
  S2-  S153  1  0.76669958  0.01077688  0.64520267  1
  S2-  S154  1  0.73007553  0.43592659  0.14752400  1
  S2-  S155  1  0.73701591  0.26059348  0.64638471  1
  S2-  S156  1  0.77567405  0.69604459  0.13600287  1
  S2-  S157  1  0.74775875  0.50120872  0.64668067  1
  S2-  S158  1  0.76233179  0.92824240  0.14281935  1
  S2-  S159  1  0.76559338  0.75654728  0.64569866  1
  S2-  S160  1  0.14103890  -0.01794873  0.34406696  1
  S2-  S161  1  0.24142892  -0.00468557  0.86092175  1
  S2-  S162  1  0.19648756  0.23694436  0.35510089  1
  S2-  S163  1  0.12976559  0.21842591  0.85600562  1
  S2-  S164  1  0.12696684  0.55364520  0.34496091  1
  S2-  S165  1  0.09386777  0.47061125  0.85298417  1
  S2-  S166  1  0.01980354  0.76171789  0.35460889  1
  S2-  S167  1  0.01478989  0.71751001  0.85826088  1
  S2-  S168  1  0.38464870  0.08519632  0.34891764  1
  S2-  S169  1  0.46519796  -0.01469145  0.84641831  1
  S2-  S170  1  0.35711755  0.24085537  0.27613334  1
  S2-  S171  1  0.39653107  0.22655498  0.84990293  1
  S2-  S172  1  0.36322673  0.42585955  0.34808520  1
  S2-  S173  1  0.38400246  0.49667001  0.83575579  1
  S2-  S174  1  0.36822788  0.86828860  0.36109527  1
  S2-  S175  1  0.40814969  0.74246521  0.84510364  1
  S2-  S176  1  0.62542505  0.02976515  0.35163766  1
  S2-  S177  1  0.64003100  0.10378320  0.85123479  1
  S2-  S178  1  0.53750060  0.24949512  0.34694975  1
  S2-  S179  1  0.63923567  0.33751665  0.85293703  1
  S2-  S180  1  0.63429711  0.48395950  0.34969192  1
  S2-  S181  1  0.60377179  0.59604178  0.84523447  1
  S2-  S182  1  0.60798626  0.75735616  0.34810089  1
  S2-  S183  1  0.62494045  0.85402204  0.84453008  1
  S2-  S184  1  0.89928784  0.03789049  0.34895882  1
  S2-  S185  1  0.89361806  0.09674409  0.86080335  1
  S2-  S186  1  0.75475328  0.23992597  0.36955756  1
  S2-  S187  1  0.92068519  0.33188957  0.86355521  1
  S2-  S188  1  0.84598437  0.60380688  0.36042335  1
  S2-  S189  1  0.80176993  0.50306013  0.85608966  1
  S2-  S190  1  0.82162182  0.83852843  0.33528953  1
  S2-  S191  1  0.78581960  0.72660607  0.84821272  1
  S2-  S192  1  -0.01077717  0.13061520  0.45339746  1
  S2-  S193  1  0.01121160  0.09267838  0.96177190  1
  S2-  S194  1  -0.00970358  0.38146302  0.46734657  1
  S2-  S195  1  0.01010638  0.34310137  0.97085419  1
  S2-  S196  1  -0.00538075  0.63141909  0.45815043  1
  S2-  S197  1  0.00396437  0.58743984  0.96028799  1
  S2-  S198  1  -0.00941296  0.88164440  0.45565158  1
  S2-  S199  1  0.00665003  0.85205364  0.95428302  1
  S2-  S200  1  0.23938099  0.12661748  0.45969472  1
  S2-  S201  1  0.25195513  0.09685100  0.96458664  1
  S2-  S202  1  0.24430766  0.38248995  0.45372775  1
  S2-  S203  1  0.25322502  0.34426592  0.95713798  1
  S2-  S204  1  0.24464888  0.63243970  0.45033518  1
  S2-  S205  1  0.25161542  0.59545170  0.94790846  1
  S2-  S206  1  0.23712681  0.87750844  0.45883971  1
  S2-  S207  1  0.25118200  0.83875111  0.95132503  1
  S2-  S208  1  0.48977982  0.13268022  0.45850022  1
  S2-  S209  1  0.50143547  0.09439034  0.95625515  1
  S2-  S210  1  0.49186907  0.38186253  0.44789817  1
  S2-  S211  1  0.50304075  0.34655021  0.95125777  1
  S2-  S212  1  0.48872817  0.63049469  0.45605171  1
  S2-  S213  1  0.50506049  0.59692170  0.95081393  1
  S2-  S214  1  0.49242211  0.87987648  0.46107173  1
  S2-  S215  1  0.50419302  0.84017936  0.95300107  1
  S2-  S216  1  0.74363151  0.12643437  0.46937476  1
  S2-  S217  1  0.75284091  0.09411140  0.95483144  1
  S2-  S218  1  0.73841865  0.38513807  0.46388823  1
  S2-  S219  1  0.75858686  0.34064798  0.95754877  1
  S2-  S220  1  0.73660830  0.62893081  0.46266732  1
  S2-  S221  1  0.75832450  0.59846339  0.95621779  1
  S2-  S222  1  0.73980156  0.88236112  0.45601145  1
  S2-  S223  1  0.75883159  0.84897739  0.95040986  1
  S2-  S224  1  0.12862502  -0.03238850  0.04089024  1
  S2-  S225  1  0.11238053  0.00136627  0.54828712  1
  S2-  S226  1  0.13365219  0.21710787  0.05633525  1
  S2-  S227  1  0.11288831  0.25723880  0.55168258  1
  S2-  S228  1  0.13213946  0.47094263  0.05076192  1
  S2-  S229  1  0.11685271  0.51332849  0.54634904  1
  S2-  S230  1  0.12882696  0.71782559  0.03944601  1
  S2-  S231  1  0.11911787  0.75710841  0.53883746  1
  S2-  S232  1  0.37997952  -0.03626620  0.03691692  1
  S2-  S233  1  0.36215471  0.00593487  0.54255243  1
  S2-  S234  1  0.37797027  0.22018627  0.04992583  1
  S2-  S235  1  0.36203107  0.26186602  0.54815114  1
  S2-  S236  1  0.37458974  0.47009428  0.04246838  1
  S2-  S237  1  0.36543920  0.50436807  0.53889450  1
  S2-  S238  1  0.38027446  0.71792652  0.04408878  1
  S2-  S239  1  0.36576012  0.75783809  0.53862881  1
  S2-  S240  1  0.63244980  -0.03485641  0.03514123  1
  S2-  S241  1  0.61456232  0.00900089  0.55177568  1
  S2-  S242  1  0.62294540  0.21588034  0.03624701  1
  S2-  S243  1  0.61326239  0.25706555  0.54494133  1
  S2-  S244  1  0.62826494  0.46769073  0.03734263  1
  S2-  S245  1  0.60899158  0.50593240  0.54832259  1
  S2-  S246  1  0.62937917  0.71492724  0.03807995  1
  S2-  S247  1  0.60982493  0.75418961  0.55009761  1
  S2-  S248  1  0.87726548  -0.02939812  0.03756391  1
  S2-  S249  1  0.86809354  0.00190378  0.54518561  1
  S2-  S250  1  0.87820990  0.21217564  0.04258472  1
  S2-  S251  1  0.86827314  0.25845167  0.55167231  1
  S2-  S252  1  0.87481143  0.46711736  0.04295650  1
  S2-  S253  1  0.86672154  0.50974416  0.54624629  1
  S2-  S254  1  0.88102664  0.71512288  0.03475119  1
  S2-  S255  1  0.86275697  0.75830697  0.53683060  1
