# generated using pymatgen
data_La6Ce7Pr13Nd19Sm19(BiS2)64
_symmetry_space_group_name_H-M   'P 1'
_cell_length_a   16.00858127
_cell_length_b   16.01343787
_cell_length_c   27.63029698
_cell_angle_alpha   89.97342381
_cell_angle_beta   90.19042709
_cell_angle_gamma   90.05516415
_symmetry_Int_Tables_number   1
_chemical_formula_structural   La6Ce7Pr13Nd19Sm19(BiS2)64
_chemical_formula_sum   'La6 Ce7 Pr13 Nd19 Sm19 Bi64 S128'
_cell_volume   7083.05038265
_cell_formula_units_Z   1
loop_
 _symmetry_equiv_pos_site_id
 _symmetry_equiv_pos_as_xyz
  1  'x, y, z'
loop_
 _atom_type_symbol
 _atom_type_oxidation_number
  La3+  3.0
  Ce3+  3.0
  Pr3+  3.0
  Nd3+  3.0
  Sm3+  3.0
  Bi2+  2.0
  S2-  -2.0
loop_
 _atom_site_type_symbol
 _atom_site_label
 _atom_site_symmetry_multiplicity
 _atom_site_fract_x
 _atom_site_fract_y
 _atom_site_fract_z
 _atom_site_occupancy
  La3+  La0  1  0.36974383  0.74544178  0.88757942  1
  La3+  La1  1  0.23869789  0.13068836  0.08399694  1
  La3+  La2  1  0.86526962  0.23790696  0.88652958  1
  La3+  La3  1  0.36291049  0.24848388  0.39950651  1
  La3+  La4  1  0.00735119  0.87668561  0.08539107  1
  La3+  La5  1  0.86071580  0.22359845  0.43646135  1
  Ce3+  Ce6  1  0.75353367  0.62941258  0.07561201  1
  Ce3+  Ce7  1  0.49782698  0.12816329  0.06613528  1
  Ce3+  Ce8  1  0.24007728  0.11340921  0.55926208  1
  Ce3+  Ce9  1  0.87535568  0.00069292  0.94631232  1
  Ce3+  Ce10  1  -0.00756874  0.86108186  0.55627571  1
  Ce3+  Ce11  1  0.61557846  0.47823365  0.43445775  1
  Ce3+  Ce12  1  0.62772574  0.50122241  0.95325037  1
  Pr3+  Pr13  1  0.75196942  0.87713012  0.09492856  1
  Pr3+  Pr14  1  0.11411995  0.48541356  0.43343380  1
  Pr3+  Pr15  1  0.62614059  0.00153453  0.94610094  1
  Pr3+  Pr16  1  0.74156928  0.61468880  0.56203850  1
  Pr3+  Pr17  1  0.86889132  0.50609788  0.92724431  1
  Pr3+  Pr18  1  -0.00538201  0.62549714  0.07232801  1
  Pr3+  Pr19  1  0.62069927  0.73679839  0.42787850  1
  Pr3+  Pr20  1  0.62034246  0.75170346  0.94486179  1
  Pr3+  Pr21  1  0.85759065  0.48510819  0.43123233  1
  Pr3+  Pr22  1  0.12422349  0.25397664  0.93285614  1
  Pr3+  Pr23  1  0.48978981  0.85271201  0.56543291  1
  Pr3+  Pr24  1  0.12860152  0.75246801  0.94082297  1
  Pr3+  Pr25  1  0.25872100  0.87115720  0.07628285  1
  Nd3+  Nd26  1  0.37247565  0.00364916  0.94017404  1
  Nd3+  Nd27  1  0.11741310  -0.00455450  0.43471047  1
  Nd3+  Nd28  1  0.75745947  0.37728193  0.06411082  1
  Nd3+  Nd29  1  0.36414774  -0.01230634  0.44089031  1
  Nd3+  Nd30  1  0.75184163  0.12749604  0.06232720  1
  Nd3+  Nd31  1  -0.01340889  0.11237553  0.57186688  1
  Nd3+  Nd32  1  0.49913821  0.37658157  0.06289200  1
  Nd3+  Nd33  1  0.61568492  0.23330087  0.43425061  1
  Nd3+  Nd34  1  0.73377844  0.35974678  0.56871238  1
  Nd3+  Nd35  1  0.61197891  -0.01085030  0.43222146  1
  Nd3+  Nd36  1  0.24710462  0.37775843  0.06636670  1
  Nd3+  Nd37  1  0.48989418  0.36184991  0.55974931  1
  Nd3+  Nd38  1  0.72542737  0.10248909  0.57456549  1
  Nd3+  Nd39  1  0.12735824  0.00131309  0.94309877  1
  Nd3+  Nd40  1  0.36511600  0.73847876  0.42810563  1
  Nd3+  Nd41  1  0.86675769  0.74049924  0.42743963  1
  Nd3+  Nd42  1  0.62756430  0.25345310  0.94337287  1
  Nd3+  Nd43  1  0.11647325  0.23441452  0.43692520  1
  Nd3+  Nd44  1  0.11317145  0.74771015  0.40584557  1
  Sm3+  Sm45  1  -0.00992101  0.61233471  0.54946124  1
  Sm3+  Sm46  1  0.37365002  0.24808065  0.94109581  1
  Sm3+  Sm47  1  0.23867048  0.36226454  0.55998750  1
  Sm3+  Sm48  1  -0.00053829  0.12835712  0.05500537  1
  Sm3+  Sm49  1  0.24978856  0.63009889  0.05895383  1
  Sm3+  Sm50  1  0.73932083  0.86169738  0.55679453  1
  Sm3+  Sm51  1  0.48993235  0.61437796  0.54932498  1
  Sm3+  Sm52  1  0.49471481  0.87797347  0.06075755  1
  Sm3+  Sm53  1  0.23869593  0.86145970  0.55281797  1
  Sm3+  Sm54  1  0.48904150  0.11165636  0.55262671  1
  Sm3+  Sm55  1  0.50029033  0.62948763  0.06060289  1
  Sm3+  Sm56  1  -0.00416307  0.37671329  0.04716769  1
  Sm3+  Sm57  1  -0.01349337  0.36196818  0.55131057  1
  Sm3+  Sm58  1  0.86386466  -0.01333769  0.44817992  1
  Sm3+  Sm59  1  0.37470113  0.50309767  0.94592662  1
  Sm3+  Sm60  1  0.23649672  0.61402374  0.55378299  1
  Sm3+  Sm61  1  0.12424926  0.50433523  0.94490490  1
  Sm3+  Sm62  1  0.36335910  0.48685847  0.44677863  1
  Sm3+  Sm63  1  0.87448344  0.74868876  0.95094718  1
  Bi2+  Bi64  1  0.01851227  0.19016391  0.23935530  1
  Bi2+  Bi65  1  -0.00515683  0.10489143  0.78939851  1
  Bi2+  Bi66  1  0.02475190  0.40476007  0.29199138  1
  Bi2+  Bi67  1  0.08554955  0.37700747  0.78835009  1
  Bi2+  Bi68  1  0.09024902  0.61088368  0.26224464  1
  Bi2+  Bi69  1  0.00116059  0.65527460  0.79335207  1
  Bi2+  Bi70  1  -0.03008151  0.87638205  0.29108005  1
  Bi2+  Bi71  1  -0.03171999  0.83732469  0.75315269  1
  Bi2+  Bi72  1  0.21041219  0.14034438  0.30008633  1
  Bi2+  Bi73  1  0.24510048  0.13097145  0.80598860  1
  Bi2+  Bi74  1  0.25732190  0.40363618  0.28368158  1
  Bi2+  Bi75  1  0.26714741  0.32650721  0.83535954  1
  Bi2+  Bi76  1  0.35180692  0.63253780  0.28820526  1
  Bi2+  Bi77  1  0.24232078  0.51335548  0.79475439  1
  Bi2+  Bi78  1  0.25947039  0.88832310  0.29548838  1
  Bi2+  Bi79  1  0.22461165  0.88636472  0.79460827  1
  Bi2+  Bi80  1  0.56721383  0.07935236  0.26494227  1
  Bi2+  Bi81  1  0.46021414  0.15358355  0.77045268  1
  Bi2+  Bi82  1  0.49841656  0.37541489  0.28580156  1
  Bi2+  Bi83  1  0.46470120  0.34182335  0.80988391  1
  Bi2+  Bi84  1  0.53836094  0.65310472  0.31469297  1
  Bi2+  Bi85  1  0.49867509  0.61835698  0.78526175  1
  Bi2+  Bi86  1  0.51332909  0.85253950  0.33743744  1
  Bi2+  Bi87  1  0.50093161  0.88433742  0.79178783  1
  Bi2+  Bi88  1  0.76309646  0.15629999  0.30102156  1
  Bi2+  Bi89  1  0.71916950  0.09650156  0.79995993  1
  Bi2+  Bi90  1  0.74464426  0.40446450  0.29887377  1
  Bi2+  Bi91  1  0.73640124  0.39954860  0.79591473  1
  Bi2+  Bi92  1  0.73048084  0.67446620  0.26056345  1
  Bi2+  Bi93  1  0.73264188  0.65971941  0.80516705  1
  Bi2+  Bi94  1  0.78314462  0.91800635  0.31777539  1
  Bi2+  Bi95  1  0.76615232  0.84440511  0.76482122  1
  Bi2+  Bi96  1  0.14176726  0.03441004  0.21844498  1
  Bi2+  Bi97  1  0.13934885  -0.03516864  0.70351655  1
  Bi2+  Bi98  1  0.12765917  0.35443449  0.19742094  1
  Bi2+  Bi99  1  0.17922827  0.24768621  0.71972342  1
  Bi2+  Bi100  1  0.19691999  0.53686417  0.17542401  1
  Bi2+  Bi101  1  0.10095825  0.49733794  0.69593018  1
  Bi2+  Bi102  1  0.14257590  0.78021929  0.21810629  1
  Bi2+  Bi103  1  0.12921497  0.69166795  0.71121760  1
  Bi2+  Bi104  1  0.42655783  -0.06091790  0.24540029  1
  Bi2+  Bi105  1  0.33608094  0.02300313  0.72345502  1
  Bi2+  Bi106  1  0.38575648  0.20881276  0.20287286  1
  Bi2+  Bi107  1  0.37162880  0.29789808  0.70932568  1
  Bi2+  Bi108  1  0.38121983  0.49401616  0.20747614  1
  Bi2+  Bi109  1  0.38511213  0.49558644  0.71812571  1
  Bi2+  Bi110  1  0.39909994  0.73596627  0.19587173  1
  Bi2+  Bi111  1  0.37205959  0.75957732  0.68114137  1
  Bi2+  Bi112  1  0.69787396  -0.03857792  0.21560726  1
  Bi2+  Bi113  1  0.60148741  -0.01345419  0.70740704  1
  Bi2+  Bi114  1  0.63466549  0.25400387  0.19112359  1
  Bi2+  Bi115  1  0.65264796  0.24478625  0.69419313  1
  Bi2+  Bi116  1  0.60253567  0.52895469  0.23247197  1
  Bi2+  Bi117  1  0.57628969  0.45485134  0.73873289  1
  Bi2+  Bi118  1  0.58207612  0.80448941  0.22892333  1
  Bi2+  Bi119  1  0.64159528  0.71816000  0.70577457  1
  Bi2+  Bi120  1  0.87717548  0.04937077  0.22547297  1
  Bi2+  Bi121  1  0.86919538  0.00411540  0.69479939  1
  Bi2+  Bi122  1  0.86429279  0.30364412  0.20337914  1
  Bi2+  Bi123  1  0.91220339  0.27105852  0.69210539  1
  Bi2+  Bi124  1  0.91235020  0.54128708  0.23351917  1
  Bi2+  Bi125  1  0.85622773  0.55902935  0.73999115  1
  Bi2+  Bi126  1  0.88043483  0.76997486  0.21187209  1
  Bi2+  Bi127  1  0.83633192  0.72596408  0.67798118  1
  S2-  S128  1  0.07413179  0.13485862  0.14259640  1
  S2-  S129  1  0.00095514  0.11786912  0.67111899  1
  S2-  S130  1  -0.02953481  0.37410655  0.14472856  1
  S2-  S131  1  -0.00928620  0.39506743  0.64641215  1
  S2-  S132  1  0.01511569  0.73637987  0.15252035  1
  S2-  S133  1  0.01141888  0.63320343  0.64577218  1
  S2-  S134  1  -0.11182909  0.91944155  0.15713854  1
  S2-  S135  1  -0.00412092  0.89616155  0.65152349  1
  S2-  S136  1  0.29930697  0.07969226  0.17617790  1
  S2-  S137  1  0.23119940  0.10300611  0.65635312  1
  S2-  S138  1  0.26231457  0.27746831  0.14656296  1
  S2-  S139  1  0.21511324  0.38023932  0.65580678  1
  S2-  S140  1  0.25140191  0.71966065  0.14367433  1
  S2-  S141  1  0.26141226  0.63344787  0.64970566  1
  S2-  S142  1  0.14326174  0.90927347  0.15144906  1
  S2-  S143  1  0.23631924  0.86116431  0.65058638  1
  S2-  S144  1  0.52568269  0.11712411  0.16245135  1
  S2-  S145  1  0.57509853  0.11588799  0.63832284  1
  S2-  S146  1  0.49279591  0.33321302  0.15824315  1
  S2-  S147  1  0.58915394  0.36305490  0.64031412  1
  S2-  S148  1  0.50297683  0.59806333  0.15723038  1
  S2-  S149  1  0.50653828  0.68362479  0.63695498  1
  S2-  S150  1  0.40327108  0.88470111  0.14436477  1
  S2-  S151  1  0.48284184  0.90046825  0.66219335  1
  S2-  S152  1  0.77613614  0.16216748  0.15876825  1
  S2-  S153  1  0.79282364  0.14490802  0.66370800  1
  S2-  S154  1  0.72189201  0.38386446  0.16235755  1
  S2-  S155  1  0.78207105  0.35477630  0.66606309  1
  S2-  S156  1  0.87205373  0.57481622  0.14218644  1
  S2-  S157  1  0.73556489  0.58203757  0.66001469  1
  S2-  S158  1  0.73065068  0.73627744  0.15437596  1
  S2-  S159  1  0.72726071  0.94653329  0.64148874  1
  S2-  S160  1  0.08689655  0.11748811  0.36256928  1
  S2-  S161  1  0.11988263  0.00763695  0.84244384  1
  S2-  S162  1  0.20813742  0.28280852  0.35274507  1
  S2-  S163  1  0.03363156  0.23394593  0.84646084  1
  S2-  S164  1  0.16139623  0.51511779  0.33901287  1
  S2-  S165  1  0.09035731  0.52631011  0.85001744  1
  S2-  S166  1  0.11445510  0.89860172  0.35025159  1
  S2-  S167  1  0.20202990  0.75389271  0.84991098  1
  S2-  S168  1  0.32413344  0.02836952  0.34830485  1
  S2-  S169  1  0.36955067  -0.08541309  0.85267594  1
  S2-  S170  1  0.42838144  0.22567657  0.30440772  1
  S2-  S171  1  0.38522092  0.13168220  0.86623895  1
  S2-  S172  1  0.38193552  0.42246955  0.35764695  1
  S2-  S173  1  0.37876885  0.57363690  0.85656767  1
  S2-  S174  1  0.26129618  0.73715626  0.34870215  1
  S2-  S175  1  0.38285751  0.75336406  0.77551945  1
  S2-  S176  1  0.62052113  0.10981923  0.35935946  1
  S2-  S177  1  0.60745381  0.00400059  0.84537123  1
  S2-  S178  1  0.61334322  0.34925675  0.35855588  1
  S2-  S179  1  0.68963455  0.24230839  0.85121039  1
  S2-  S180  1  0.72338835  0.52034923  0.36197735  1
  S2-  S181  1  0.67541882  0.51654698  0.86160697  1
  S2-  S182  1  0.74583467  0.75523628  0.35385555  1
  S2-  S183  1  0.54289582  0.75820971  0.85469560  1
  S2-  S184  1  0.85640173  0.07635882  0.36510600  1
  S2-  S185  1  0.86663012  0.05234973  0.85396220  1
  S2-  S186  1  0.84493639  0.29057497  0.34380410  1
  S2-  S187  1  0.86264168  0.20513848  0.78121371  1
  S2-  S188  1  0.92884128  0.50764998  0.33913201  1
  S2-  S189  1  0.87217748  0.40252353  0.84501033  1
  S2-  S190  1  0.97200085  0.73608173  0.34654669  1
  S2-  S191  1  0.87464457  0.65515203  0.86831700  1
  S2-  S192  1  -0.01061022  0.11001462  0.46724124  1
  S2-  S193  1  -0.00159453  0.12776843  0.95321841  1
  S2-  S194  1  -0.01172581  0.35868304  0.44777434  1
  S2-  S195  1  0.00067285  0.38110518  0.94705709  1
  S2-  S196  1  -0.00678039  0.61392818  0.44824995  1
  S2-  S197  1  0.00298468  0.62752772  0.96404068  1
  S2-  S198  1  -0.00919393  0.86595998  0.45214798  1
  S2-  S199  1  -0.00184040  0.87384394  0.94630674  1
  S2-  S200  1  0.24886550  0.12044483  0.45606758  1
  S2-  S201  1  0.24579864  0.13052185  0.96016039  1
  S2-  S202  1  0.24296248  0.36271716  0.45861571  1
  S2-  S203  1  0.25027699  0.38021677  0.96006023  1
  S2-  S204  1  0.23972613  0.61290797  0.45049041  1
  S2-  S205  1  0.25198824  0.62524588  0.95651602  1
  S2-  S206  1  0.23932422  0.86131718  0.45136339  1
  S2-  S207  1  0.25065241  0.87806202  0.95983722  1
  S2-  S208  1  0.48030700  0.11890721  0.45032865  1
  S2-  S209  1  0.50395279  0.12908839  0.96185246  1
  S2-  S210  1  0.48259810  0.35607450  0.45757622  1
  S2-  S211  1  0.49773812  0.37630039  0.95601523  1
  S2-  S212  1  0.48953501  0.61047417  0.44682157  1
  S2-  S213  1  0.49929187  0.62354898  0.95825515  1
  S2-  S214  1  0.48922327  0.86044490  0.45649668  1
  S2-  S215  1  0.49806424  0.88051079  0.95930505  1
  S2-  S216  1  0.73473691  0.10513776  0.46704652  1
  S2-  S217  1  0.75182907  0.12885376  0.95745515  1
  S2-  S218  1  0.74128442  0.35769346  0.46173884  1
  S2-  S219  1  0.75143788  0.37447992  0.95804293  1
  S2-  S220  1  0.74333600  0.61780548  0.45820598  1
  S2-  S221  1  0.74627194  0.63092801  0.96847026  1
  S2-  S222  1  0.73809700  0.86794787  0.45554514  1
  S2-  S223  1  0.75118606  0.87294957  0.94508526  1
  S2-  S224  1  0.12334916  0.00192550  0.04544701  1
  S2-  S225  1  0.11608687  -0.01134107  0.54483042  1
  S2-  S226  1  0.12171519  0.25656610  0.04031373  1
  S2-  S227  1  0.11330999  0.23972722  0.54838952  1
  S2-  S228  1  0.12280785  0.50209650  0.04855276  1
  S2-  S229  1  0.11456536  0.48683893  0.54098255  1
  S2-  S230  1  0.12447752  0.75119717  0.04526069  1
  S2-  S231  1  0.11592943  0.73683993  0.54362574  1
  S2-  S232  1  0.37223521  0.00779125  0.04736196  1
  S2-  S233  1  0.36596446  -0.01470854  0.54807816  1
  S2-  S234  1  0.37416795  0.25195924  0.04418793  1
  S2-  S235  1  0.36632943  0.23806235  0.56129954  1
  S2-  S236  1  0.37457079  0.50319589  0.05062472  1
  S2-  S237  1  0.36431076  0.48941501  0.55102196  1
  S2-  S238  1  0.37981853  0.74741739  0.04695420  1
  S2-  S239  1  0.36135760  0.73542518  0.53561737  1
  S2-  S240  1  0.62868096  -0.00386048  0.05493862  1
  S2-  S241  1  0.60643780  -0.01955351  0.53791151  1
  S2-  S242  1  0.62645687  0.25333766  0.04929772  1
  S2-  S243  1  0.61229961  0.23535883  0.53921635  1
  S2-  S244  1  0.62594689  0.50186750  0.05750337  1
  S2-  S245  1  0.61318301  0.49219195  0.54178198  1
  S2-  S246  1  0.62195400  0.75792230  0.05109707  1
  S2-  S247  1  0.61810756  0.73770482  0.53708236  1
  S2-  S248  1  0.87516514  0.00123131  0.04976561  1
  S2-  S249  1  0.86454386  -0.01277413  0.54962323  1
  S2-  S250  1  0.87691549  0.25008210  0.04972588  1
  S2-  S251  1  0.86352118  0.23659707  0.54898483  1
  S2-  S252  1  0.87424138  0.50000005  0.03574604  1
  S2-  S253  1  0.86499781  0.48770392  0.54373508  1
  S2-  S254  1  0.87169117  0.76174612  0.05174993  1
  S2-  S255  1  0.86616090  0.73993361  0.53901335  1
