# generated using pymatgen
data_La6Ce7Pr13Nd19Sm19(BiS2)64
_symmetry_space_group_name_H-M   'P 1'
_cell_length_a   16.07859320
_cell_length_b   16.08787614
_cell_length_c   27.24893094
_cell_angle_alpha   90.02171669
_cell_angle_beta   89.86912343
_cell_angle_gamma   89.88329283
_symmetry_Int_Tables_number   1
_chemical_formula_structural   La6Ce7Pr13Nd19Sm19(BiS2)64
_chemical_formula_sum   'La6 Ce7 Pr13 Nd19 Sm19 Bi64 S128'
_cell_volume   7048.45876991
_cell_formula_units_Z   1
loop_
 _symmetry_equiv_pos_site_id
 _symmetry_equiv_pos_as_xyz
  1  'x, y, z'
loop_
 _atom_type_symbol
 _atom_type_oxidation_number
  La3+  3.0
  Ce3+  3.0
  Pr3+  3.0
  Nd3+  3.0
  Sm3+  3.0
  Bi2+  2.0
  S2-  -2.0
loop_
 _atom_site_type_symbol
 _atom_site_label
 _atom_site_symmetry_multiplicity
 _atom_site_fract_x
 _atom_site_fract_y
 _atom_site_fract_z
 _atom_site_occupancy
  La3+  La0  1  0.49282639  0.61623882  0.59829871  1
  La3+  La1  1  0.13560045  0.75623808  0.41465225  1
  La3+  La2  1  0.38714648  0.74391096  0.90081237  1
  La3+  La3  1  0.37911780  0.00139731  0.89948958  1
  La3+  La4  1  0.74328903  0.61995512  0.11014836  1
  La3+  La5  1  0.12903689  0.74655512  0.91601415  1
  Ce3+  Ce6  1  0.00578233  0.37262185  0.06626549  1
  Ce3+  Ce7  1  0.63374403  0.74639970  0.93392636  1
  Ce3+  Ce8  1  0.00371298  0.87344458  0.55419928  1
  Ce3+  Ce9  1  0.62726623  0.24469067  0.94236282  1
  Ce3+  Ce10  1  0.87055971  0.74559689  0.94776862  1
  Ce3+  Ce11  1  0.87639242  -0.00305556  0.94940545  1
  Ce3+  Ce12  1  0.00484228  0.86827741  0.06114083  1
  Pr3+  Pr13  1  0.74912543  0.87325938  0.56130626  1
  Pr3+  Pr14  1  0.75307848  0.36737745  0.07194398  1
  Pr3+  Pr15  1  0.13367794  0.49995408  0.40931640  1
  Pr3+  Pr16  1  0.38279188  0.24768041  0.43491512  1
  Pr3+  Pr17  1  0.25472340  0.37406929  0.05865683  1
  Pr3+  Pr18  1  0.25536668  0.86947983  0.04935157  1
  Pr3+  Pr19  1  0.49112071  0.12259533  0.57511653  1
  Pr3+  Pr20  1  0.74744996  0.13532670  0.58078017  1
  Pr3+  Pr21  1  0.76350363  0.38901049  0.57819076  1
  Pr3+  Pr22  1  0.50253763  0.37252439  0.05386069  1
  Pr3+  Pr23  1  0.37517930  0.25003503  0.93037225  1
  Pr3+  Pr24  1  0.62333465  0.74692826  0.44417097  1
  Pr3+  Pr25  1  0.87750220  0.24704597  0.93970815  1
  Nd3+  Nd26  1  0.37637725  -0.00171801  0.44615901  1
  Nd3+  Nd27  1  0.75381028  0.62479438  0.55811761  1
  Nd3+  Nd28  1  0.00264279  0.62299897  0.06461128  1
  Nd3+  Nd29  1  0.12449818  0.50022313  0.93334807  1
  Nd3+  Nd30  1  0.24189675  0.86892025  0.57114212  1
  Nd3+  Nd31  1  0.87138573  0.00238132  0.44564963  1
  Nd3+  Nd32  1  0.86761203  0.49570071  0.42351135  1
  Nd3+  Nd33  1  0.62851637  -0.00206954  0.94337546  1
  Nd3+  Nd34  1  0.12526731  0.00275350  0.43572565  1
  Nd3+  Nd35  1  0.24616911  0.12563327  0.56002694  1
  Nd3+  Nd36  1  0.12824522  -0.00878895  0.92769290  1
  Nd3+  Nd37  1  0.00598258  0.11920205  0.05865017  1
  Nd3+  Nd38  1  0.50299360  0.86994531  0.05158311  1
  Nd3+  Nd39  1  0.00362998  0.37955785  0.55096758  1
  Nd3+  Nd40  1  0.23861941  0.61590167  0.56808247  1
  Nd3+  Nd41  1  -0.00001138  0.12732389  0.55540032  1
  Nd3+  Nd42  1  0.87551903  0.49730499  0.95329034  1
  Nd3+  Nd43  1  0.13394470  0.24969716  0.42495223  1
  Nd3+  Nd44  1  0.25241340  0.62408751  0.05541559  1
  Sm3+  Sm45  1  0.49719388  0.87006850  0.56234764  1
  Sm3+  Sm46  1  0.62555699  0.25083277  0.44524335  1
  Sm3+  Sm47  1  0.00726290  0.62552112  0.53507448  1
  Sm3+  Sm48  1  0.87389163  0.75051946  0.43388900  1
  Sm3+  Sm49  1  0.50010639  0.11957652  0.05552859  1
  Sm3+  Sm50  1  0.75104231  0.86910141  0.06723835  1
  Sm3+  Sm51  1  0.75366269  0.12389678  0.06912929  1
  Sm3+  Sm52  1  0.62314680  0.49964285  0.44714407  1
  Sm3+  Sm53  1  0.62901908  0.49855789  0.94318540  1
  Sm3+  Sm54  1  0.24931971  0.37608162  0.55273182  1
  Sm3+  Sm55  1  0.37662954  0.50060214  0.93474087  1
  Sm3+  Sm56  1  0.12747929  0.24639890  0.94270252  1
  Sm3+  Sm57  1  0.37194045  0.74781968  0.44790508  1
  Sm3+  Sm58  1  0.49921705  0.37690662  0.56279724  1
  Sm3+  Sm59  1  0.37393496  0.50101975  0.43998063  1
  Sm3+  Sm60  1  0.25416145  0.11838332  0.05048397  1
  Sm3+  Sm61  1  0.50587825  0.62307939  0.05560309  1
  Sm3+  Sm62  1  0.86960550  0.25010208  0.44384564  1
  Sm3+  Sm63  1  0.62397655  -0.00009869  0.45506694  1
  Bi2+  Bi64  1  0.06557802  0.12349802  0.32206360  1
  Bi2+  Bi65  1  -0.00048952  0.12386742  0.78441198  1
  Bi2+  Bi66  1  0.02610928  0.30777655  0.27250983  1
  Bi2+  Bi67  1  0.09675316  0.38003658  0.80027630  1
  Bi2+  Bi68  1  -0.03385185  0.63802562  0.27169954  1
  Bi2+  Bi69  1  -0.02200184  0.64218009  0.78801732  1
  Bi2+  Bi70  1  -0.00531530  0.94531563  0.28509011  1
  Bi2+  Bi71  1  0.01171118  0.86828346  0.75489103  1
  Bi2+  Bi72  1  0.25702875  0.10733128  0.28853847  1
  Bi2+  Bi73  1  0.24474274  0.16256914  0.78377696  1
  Bi2+  Bi74  1  0.30462051  0.37168395  0.28438170  1
  Bi2+  Bi75  1  0.29236842  0.38765646  0.82330732  1
  Bi2+  Bi76  1  0.22454562  0.63312545  0.29164950  1
  Bi2+  Bi77  1  0.24699391  0.60556570  0.78628277  1
  Bi2+  Bi78  1  0.25199288  0.87420129  0.28833313  1
  Bi2+  Bi79  1  0.20698483  0.89338488  0.78225501  1
  Bi2+  Bi80  1  0.51573594  0.12153522  0.29079353  1
  Bi2+  Bi81  1  0.51618881  0.14152448  0.78249551  1
  Bi2+  Bi82  1  0.48841513  0.40193966  0.31022802  1
  Bi2+  Bi83  1  0.47250121  0.35614599  0.78336731  1
  Bi2+  Bi84  1  0.45930085  0.64614275  0.27118503  1
  Bi2+  Bi85  1  0.52343945  0.59971004  0.78490842  1
  Bi2+  Bi86  1  0.47628172  0.92031605  0.28434890  1
  Bi2+  Bi87  1  0.56177338  0.87300400  0.78851672  1
  Bi2+  Bi88  1  0.73922858  0.07027610  0.31090947  1
  Bi2+  Bi89  1  0.74905392  0.10743113  0.81430897  1
  Bi2+  Bi90  1  0.67512683  0.32904121  0.31046051  1
  Bi2+  Bi91  1  0.80249098  0.40102949  0.78443536  1
  Bi2+  Bi92  1  0.73967142  0.62415055  0.30169710  1
  Bi2+  Bi93  1  0.77030301  0.59495202  0.80984275  1
  Bi2+  Bi94  1  0.69093313  0.87389384  0.29039327  1
  Bi2+  Bi95  1  0.80336542  0.85628335  0.78564790  1
  Bi2+  Bi96  1  0.10207418  0.03215760  0.20663533  1
  Bi2+  Bi97  1  0.12643615  0.10103586  0.69477437  1
  Bi2+  Bi98  1  0.16102196  0.22196527  0.20523541  1
  Bi2+  Bi99  1  0.13413849  0.30064434  0.68910485  1
  Bi2+  Bi100  1  0.11331033  0.48114187  0.19744323  1
  Bi2+  Bi101  1  0.11554116  0.50994851  0.71231423  1
  Bi2+  Bi102  1  0.13247656  0.74583977  0.18460069  1
  Bi2+  Bi103  1  0.12329820  0.72665260  0.69787123  1
  Bi2+  Bi104  1  0.37687210  0.03038086  0.20566478  1
  Bi2+  Bi105  1  0.38988914  -0.00535335  0.70844274  1
  Bi2+  Bi106  1  0.44150991  0.26781240  0.22098975  1
  Bi2+  Bi107  1  0.33019696  0.29127457  0.71226693  1
  Bi2+  Bi108  1  0.36707494  0.51686596  0.20624286  1
  Bi2+  Bi109  1  0.35828335  0.48681738  0.70768948  1
  Bi2+  Bi110  1  0.37149063  0.78959933  0.20822318  1
  Bi2+  Bi111  1  0.39740556  0.75652001  0.71277687  1
  Bi2+  Bi112  1  0.63256743  0.03022387  0.20913737  1
  Bi2+  Bi113  1  0.63536574  -0.02662283  0.70550424  1
  Bi2+  Bi114  1  0.64511498  0.23847165  0.21473056  1
  Bi2+  Bi115  1  0.64553627  0.26689200  0.73543535  1
  Bi2+  Bi116  1  0.57065416  0.49868300  0.21950663  1
  Bi2+  Bi117  1  0.66012290  0.45073707  0.70822261  1
  Bi2+  Bi118  1  0.59346528  0.75996807  0.21175288  1
  Bi2+  Bi119  1  0.71661012  0.71526062  0.72236798  1
  Bi2+  Bi120  1  0.82173945  0.04642049  0.18858990  1
  Bi2+  Bi121  1  0.89713481  0.00786136  0.71357572  1
  Bi2+  Bi122  1  0.88745808  0.17633066  0.26867199  1
  Bi2+  Bi123  1  0.94704014  0.30083187  0.73245187  1
  Bi2+  Bi124  1  0.83740254  0.44733414  0.22410500  1
  Bi2+  Bi125  1  0.91401343  0.52229069  0.70118250  1
  Bi2+  Bi126  1  0.85316913  0.86332248  0.21863825  1
  Bi2+  Bi127  1  0.90871384  0.72861670  0.69250385  1
  S2-  S128  1  0.01398929  0.14941803  0.15638801  1
  S2-  S129  1  -0.03410079  0.13292872  0.65216231  1
  S2-  S130  1  -0.02461933  0.39234862  0.16326247  1
  S2-  S131  1  -0.08281585  0.38743970  0.63856211  1
  S2-  S132  1  0.01811931  0.61633116  0.16419201  1
  S2-  S133  1  0.08511694  0.62471662  0.62363249  1
  S2-  S134  1  0.00362493  0.83818167  0.15818070  1
  S2-  S135  1  0.09819733  0.86486345  0.63416678  1
  S2-  S136  1  0.25787430  0.10383286  0.14847062  1
  S2-  S137  1  0.29450738  0.08577067  0.65328537  1
  S2-  S138  1  0.21003343  0.36956933  0.15512650  1
  S2-  S139  1  0.23061972  0.46818846  0.63401516  1
  S2-  S140  1  0.23856063  0.60562439  0.15550953  1
  S2-  S141  1  0.34298238  0.64230507  0.65252500  1
  S2-  S142  1  0.23464050  0.85919455  0.15042750  1
  S2-  S143  1  0.29622369  0.86244670  0.67144634  1
  S2-  S144  1  0.48951179  0.12846678  0.15312871  1
  S2-  S145  1  0.51154924  0.10692207  0.67536490  1
  S2-  S146  1  0.47077023  0.39702752  0.15158397  1
  S2-  S147  1  0.50597425  0.45864162  0.65012778  1
  S2-  S148  1  0.57597631  0.62630439  0.14596678  1
  S2-  S149  1  0.55361329  0.67100276  0.68986096  1
  S2-  S150  1  0.49745799  0.86591616  0.15172404  1
  S2-  S151  1  0.50067136  0.87799870  0.66074787  1
  S2-  S152  1  0.76309761  0.23709459  0.14403121  1
  S2-  S153  1  0.75186362  0.07642359  0.67918538  1
  S2-  S154  1  0.71871700  0.45660358  0.15800107  1
  S2-  S155  1  0.71882263  0.27301424  0.64714784  1
  S2-  S156  1  0.81833233  0.60775337  0.20722612  1
  S2-  S157  1  0.75418739  0.53111800  0.64201017  1
  S2-  S158  1  0.73915828  0.78539332  0.15256503  1
  S2-  S159  1  0.73304366  0.85728903  0.65987942  1
  S2-  S160  1  0.13451461  -0.09190192  0.35311006  1
  S2-  S161  1  0.22734851  0.01839966  0.84284288  1
  S2-  S162  1  0.10817787  0.35709019  0.34972247  1
  S2-  S163  1  0.11192036  0.21665125  0.84609334  1
  S2-  S164  1  0.09490476  0.53452959  0.29950479  1
  S2-  S165  1  0.11132400  0.60294131  0.85169729  1
  S2-  S166  1  0.08093701  0.72660485  0.31340647  1
  S2-  S167  1  0.08096177  0.87809351  0.85224143  1
  S2-  S168  1  0.35203239  -0.01503050  0.34773782  1
  S2-  S169  1  0.40734802  -0.09229634  0.81199242  1
  S2-  S170  1  0.27905039  0.23970447  0.35176337  1
  S2-  S171  1  0.39347148  0.15455389  0.84557077  1
  S2-  S172  1  0.28789181  0.50958850  0.35387337  1
  S2-  S173  1  0.38761470  0.58698636  0.84890109  1
  S2-  S174  1  0.29516270  0.75287564  0.35926716  1
  S2-  S175  1  0.25260750  0.75625897  0.83525105  1
  S2-  S176  1  0.59612346  -0.00523746  0.35888350  1
  S2-  S177  1  0.59852194  0.01986959  0.84529554  1
  S2-  S178  1  0.51978715  0.23808270  0.36666128  1
  S2-  S179  1  0.64806256  0.24209335  0.84592591  1
  S2-  S180  1  0.66637791  0.49315766  0.35227624  1
  S2-  S181  1  0.62017949  0.51363644  0.84393209  1
  S2-  S182  1  0.63051506  0.74049331  0.34356597  1
  S2-  S183  1  0.54316505  0.73778318  0.84774637  1
  S2-  S184  1  0.86094264  -0.03605368  0.34924838  1
  S2-  S185  1  0.83441653  -0.01973544  0.85538122  1
  S2-  S186  1  0.82157615  0.27311464  0.35040163  1
  S2-  S187  1  0.87103432  0.20207492  0.84227235  1
  S2-  S188  1  0.87671919  0.50517930  0.32342252  1
  S2-  S189  1  0.89455050  0.49302301  0.85369360  1
  S2-  S190  1  0.85720190  0.72522995  0.33772262  1
  S2-  S191  1  0.77121270  0.74863976  0.86534351  1
  S2-  S192  1  -0.00337904  0.12797358  0.44946933  1
  S2-  S193  1  0.00545075  0.11965796  0.95143260  1
  S2-  S194  1  -0.00819865  0.37166722  0.44627126  1
  S2-  S195  1  0.00501507  0.37143330  0.95553331  1
  S2-  S196  1  -0.00128155  0.62313831  0.43231054  1
  S2-  S197  1  -0.00126877  0.62424266  0.95713864  1
  S2-  S198  1  -0.00502054  0.87501877  0.44834611  1
  S2-  S199  1  -0.00346519  0.86911077  0.95733216  1
  S2-  S200  1  0.25274364  0.12302096  0.45462763  1
  S2-  S201  1  0.25200336  0.12302703  0.94811939  1
  S2-  S202  1  0.25672715  0.37216151  0.45134492  1
  S2-  S203  1  0.24910947  0.37449188  0.95174562  1
  S2-  S204  1  0.25144605  0.62329472  0.45723921  1
  S2-  S205  1  0.25490238  0.62245439  0.95000490  1
  S2-  S206  1  0.25288474  0.87813301  0.46184533  1
  S2-  S207  1  0.26197166  0.87261195  0.94318559  1
  S2-  S208  1  0.50065863  0.12027735  0.46685340  1
  S2-  S209  1  0.49979166  0.12085479  0.95188905  1
  S2-  S210  1  0.50029376  0.37949093  0.45923610  1
  S2-  S211  1  0.50130076  0.37474107  0.94559642  1
  S2-  S212  1  0.49671708  0.62340618  0.44333142  1
  S2-  S213  1  0.50340572  0.62026332  0.95311407  1
  S2-  S214  1  0.49925735  0.87266588  0.45715613  1
  S2-  S215  1  0.50042848  0.87584884  0.94576349  1
  S2-  S216  1  0.74497680  0.12621988  0.46349723  1
  S2-  S217  1  0.75226320  0.12263458  0.96289393  1
  S2-  S218  1  0.74649379  0.37472762  0.46276590  1
  S2-  S219  1  0.75104094  0.37136963  0.95709402  1
  S2-  S220  1  0.75087910  0.62379690  0.45218768  1
  S2-  S221  1  0.75039712  0.61649057  0.95935134  1
  S2-  S222  1  0.74846795  0.87402670  0.45444826  1
  S2-  S223  1  0.75088458  0.87561995  0.96359618  1
  S2-  S224  1  0.12913837  -0.00473748  0.04019063  1
  S2-  S225  1  0.12413980  0.00336739  0.54179051  1
  S2-  S226  1  0.13044775  0.24487864  0.04690536  1
  S2-  S227  1  0.12564590  0.25145890  0.53955777  1
  S2-  S228  1  0.12725083  0.49813409  0.04194358  1
  S2-  S229  1  0.12414998  0.49529664  0.52244975  1
  S2-  S230  1  0.12749141  0.74559845  0.03916954  1
  S2-  S231  1  0.12589539  0.75126337  0.52753644  1
  S2-  S232  1  0.37895910  -0.00263443  0.04625809  1
  S2-  S233  1  0.37266632  -0.00711319  0.55151407  1
  S2-  S234  1  0.37666519  0.24476777  0.04188085  1
  S2-  S235  1  0.37324885  0.25279643  0.55042621  1
  S2-  S236  1  0.37914345  0.50035805  0.04099856  1
  S2-  S237  1  0.37588149  0.49998750  0.54333352  1
  S2-  S238  1  0.38108888  0.74342864  0.04857768  1
  S2-  S239  1  0.37588144  0.74720183  0.55033229  1
  S2-  S240  1  0.62956322  -0.00107780  0.05217286  1
  S2-  S241  1  0.62298830  0.00059496  0.55947802  1
  S2-  S242  1  0.62400794  0.24336634  0.04843311  1
  S2-  S243  1  0.61248151  0.24827098  0.54764098  1
  S2-  S244  1  0.62781296  0.49600850  0.04696802  1
  S2-  S245  1  0.62038964  0.50428624  0.54853416  1
  S2-  S246  1  0.62855436  0.74729456  0.04295967  1
  S2-  S247  1  0.62126316  0.74384206  0.55282050  1
  S2-  S248  1  0.87631281  -0.00482161  0.05563327  1
  S2-  S249  1  0.87283238  0.00195631  0.55246503  1
  S2-  S250  1  0.88363696  0.24576435  0.04594546  1
  S2-  S251  1  0.87447902  0.25070424  0.54640483  1
  S2-  S252  1  0.87511849  0.49949128  0.05915701  1
  S2-  S253  1  0.88211992  0.50728545  0.53164384  1
  S2-  S254  1  0.87427702  0.74402207  0.05427971  1
  S2-  S255  1  0.87826028  0.74733559  0.54103519  1
