# generated using pymatgen
data_La6Ce7Pr13Nd19Sm19(BiS2)64
_symmetry_space_group_name_H-M   'P 1'
_cell_length_a   16.08265059
_cell_length_b   15.99155864
_cell_length_c   27.43829394
_cell_angle_alpha   90.14555404
_cell_angle_beta   89.72684615
_cell_angle_gamma   89.96783607
_symmetry_Int_Tables_number   1
_chemical_formula_structural   La6Ce7Pr13Nd19Sm19(BiS2)64
_chemical_formula_sum   'La6 Ce7 Pr13 Nd19 Sm19 Bi64 S128'
_cell_volume   7056.65877559
_cell_formula_units_Z   1
loop_
 _symmetry_equiv_pos_site_id
 _symmetry_equiv_pos_as_xyz
  1  'x, y, z'
loop_
 _atom_type_symbol
 _atom_type_oxidation_number
  La3+  3.0
  Ce3+  3.0
  Pr3+  3.0
  Nd3+  3.0
  Sm3+  3.0
  Bi2+  2.0
  S2-  -2.0
loop_
 _atom_site_type_symbol
 _atom_site_label
 _atom_site_symmetry_multiplicity
 _atom_site_fract_x
 _atom_site_fract_y
 _atom_site_fract_z
 _atom_site_occupancy
  La3+  La0  1  0.37391716  0.50891311  0.39341604  1
  La3+  La1  1  0.89538052  0.50153665  0.88363470  1
  La3+  La2  1  0.88243762  0.75336944  0.42991742  1
  La3+  La3  1  0.38395701  0.02202396  0.91236681  1
  La3+  La4  1  0.50433556  0.62107604  0.59591863  1
  La3+  La5  1  0.63067714  0.50400290  0.43582973  1
  Ce3+  Ce6  1  0.75795278  0.87629278  0.56161288  1
  Ce3+  Ce7  1  0.13407563  0.25132011  0.44465394  1
  Ce3+  Ce8  1  0.62512606  0.27720279  0.94959944  1
  Ce3+  Ce9  1  0.88203261  0.00131302  0.43379879  1
  Ce3+  Ce10  1  0.49658070  0.15001867  0.06105896  1
  Ce3+  Ce11  1  0.13582441  0.50176038  0.44719320  1
  Ce3+  Ce12  1  0.00386766  0.37945586  0.55908333  1
  Pr3+  Pr13  1  0.49983812  0.40559952  0.06955906  1
  Pr3+  Pr14  1  0.49157121  0.65138795  0.06840519  1
  Pr3+  Pr15  1  0.50528324  0.38017798  0.56306468  1
  Pr3+  Pr16  1  0.12509421  0.78239080  0.92879947  1
  Pr3+  Pr17  1  0.00724649  0.63030919  0.55917257  1
  Pr3+  Pr18  1  0.39108892  0.00792199  0.42687855  1
  Pr3+  Pr19  1  0.38527605  0.74926452  0.44073705  1
  Pr3+  Pr20  1  0.13802720  0.75165761  0.44153524  1
  Pr3+  Pr21  1  0.62176720  0.77573277  0.93851447  1
  Pr3+  Pr22  1  0.50690735  0.12537952  0.57162457  1
  Pr3+  Pr23  1  0.24726633  0.65535232  0.05644274  1
  Pr3+  Pr24  1  0.74860092  0.89585673  0.07333331  1
  Pr3+  Pr25  1  0.25017466  0.40138420  0.05648673  1
  Nd3+  Nd26  1  0.75394196  0.38896210  0.56896417  1
  Nd3+  Nd27  1  0.49298542  0.89707567  0.06765620  1
  Nd3+  Nd28  1  0.25726285  0.12926152  0.57177854  1
  Nd3+  Nd29  1  0.00492748  0.13128515  0.57130878  1
  Nd3+  Nd30  1  0.12440984  0.03066359  0.93120459  1
  Nd3+  Nd31  1  0.87814863  0.49849929  0.42127955  1
  Nd3+  Nd32  1  0.25964259  0.62943950  0.56780339  1
  Nd3+  Nd33  1  0.37645131  0.27412108  0.93322011  1
  Nd3+  Nd34  1  0.12231792  0.27290929  0.93766712  1
  Nd3+  Nd35  1  0.87130829  0.77109766  0.93209165  1
  Nd3+  Nd36  1  0.63395551  0.25427317  0.44714325  1
  Nd3+  Nd37  1  0.76353473  0.63229362  0.56976044  1
  Nd3+  Nd38  1  0.38498173  0.25379068  0.43589426  1
  Nd3+  Nd39  1  -0.00286146  0.14922287  0.06195023  1
  Nd3+  Nd40  1  0.25120818  0.15385594  0.06169839  1
  Nd3+  Nd41  1  -0.00538082  0.40301410  0.05952289  1
  Nd3+  Nd42  1  0.00722783  0.88170868  0.55722579  1
  Nd3+  Nd43  1  0.74858711  0.40775460  0.06913208  1
  Nd3+  Nd44  1  0.38327620  0.52763784  0.92534892  1
  Sm3+  Sm45  1  0.87028816  0.01950870  0.93653492  1
  Sm3+  Sm46  1  0.88267433  0.25240931  0.44204604  1
  Sm3+  Sm47  1  0.63136385  0.52464503  0.93548671  1
  Sm3+  Sm48  1  0.26285955  0.88039138  0.55423564  1
  Sm3+  Sm49  1  0.50750908  0.87758389  0.55473446  1
  Sm3+  Sm50  1  0.87099625  0.27560644  0.94776529  1
  Sm3+  Sm51  1  0.12470670  0.52669295  0.94297586  1
  Sm3+  Sm52  1  -0.00258395  0.90112297  0.05445654  1
  Sm3+  Sm53  1  0.75720874  0.12947844  0.56930703  1
  Sm3+  Sm54  1  0.24643926  0.90355303  0.05287881  1
  Sm3+  Sm55  1  0.74765142  0.14738262  0.05661735  1
  Sm3+  Sm56  1  0.13510921  0.00759579  0.44540951  1
  Sm3+  Sm57  1  0.63093163  0.74491408  0.44801815  1
  Sm3+  Sm58  1  0.37540040  0.77305986  0.93214059  1
  Sm3+  Sm59  1  0.26058216  0.37911877  0.55815189  1
  Sm3+  Sm60  1  -0.00579663  0.65179980  0.05291443  1
  Sm3+  Sm61  1  0.63442994  0.00461755  0.44079555  1
  Sm3+  Sm62  1  0.74745596  0.64870903  0.05880821  1
  Sm3+  Sm63  1  0.62161206  0.02309549  0.94819395  1
  Bi2+  Bi64  1  -0.03033055  0.14949785  0.30964034  1
  Bi2+  Bi65  1  -0.05807175  0.09771320  0.81323521  1
  Bi2+  Bi66  1  -0.01179897  0.44815158  0.28557409  1
  Bi2+  Bi67  1  0.13981543  0.36552388  0.80004100  1
  Bi2+  Bi68  1  0.01180997  0.65162014  0.28049817  1
  Bi2+  Bi69  1  0.01974427  0.63668631  0.78062645  1
  Bi2+  Bi70  1  0.00387051  0.93954829  0.28796316  1
  Bi2+  Bi71  1  -0.05923448  0.89624118  0.77856036  1
  Bi2+  Bi72  1  0.24400933  0.08076813  0.28913754  1
  Bi2+  Bi73  1  0.22282007  0.09232301  0.79644769  1
  Bi2+  Bi74  1  0.17153980  0.37280643  0.28777290  1
  Bi2+  Bi75  1  0.32726005  0.39259257  0.82015624  1
  Bi2+  Bi76  1  0.22639760  0.65012125  0.29385158  1
  Bi2+  Bi77  1  0.26632511  0.59731914  0.78814972  1
  Bi2+  Bi78  1  0.32119957  0.89809059  0.28036562  1
  Bi2+  Bi79  1  0.20406251  0.84433697  0.78296213  1
  Bi2+  Bi80  1  0.48432966  0.10956569  0.28554823  1
  Bi2+  Bi81  1  0.46418199  0.09524973  0.78241532  1
  Bi2+  Bi82  1  0.49815899  0.35930455  0.29107327  1
  Bi2+  Bi83  1  0.51517902  0.35763654  0.79505630  1
  Bi2+  Bi84  1  0.51271639  0.62824588  0.29047406  1
  Bi2+  Bi85  1  0.51062492  0.62452624  0.78909930  1
  Bi2+  Bi86  1  0.52627893  0.87435926  0.28925921  1
  Bi2+  Bi87  1  0.50970272  0.85841775  0.80568890  1
  Bi2+  Bi88  1  0.78366186  0.09364383  0.32660789  1
  Bi2+  Bi89  1  0.76165775  0.13277008  0.77414439  1
  Bi2+  Bi90  1  0.75824628  0.34326827  0.30241619  1
  Bi2+  Bi91  1  0.75153944  0.32670926  0.80429055  1
  Bi2+  Bi92  1  0.75356403  0.62418077  0.28807968  1
  Bi2+  Bi93  1  0.76024754  0.61452763  0.78582742  1
  Bi2+  Bi94  1  0.74146348  0.90317468  0.29550252  1
  Bi2+  Bi95  1  0.72689473  0.93406251  0.78418459  1
  Bi2+  Bi96  1  0.10709909  0.04174832  0.20827305  1
  Bi2+  Bi97  1  0.04045980  0.02907234  0.71615840  1
  Bi2+  Bi98  1  0.06074465  0.25452757  0.22151467  1
  Bi2+  Bi99  1  0.18318238  0.23215763  0.71918506  1
  Bi2+  Bi100  1  0.13378170  0.53263436  0.22065052  1
  Bi2+  Bi101  1  0.14430183  0.50259177  0.71358235  1
  Bi2+  Bi102  1  0.13734194  0.84512472  0.21833558  1
  Bi2+  Bi103  1  0.14920545  0.69531730  0.69957886  1
  Bi2+  Bi104  1  0.44614808  -0.02326672  0.20043710  1
  Bi2+  Bi105  1  0.31914477  -0.00641389  0.71797205  1
  Bi2+  Bi106  1  0.33529023  0.22060665  0.20490470  1
  Bi2+  Bi107  1  0.38701865  0.24295244  0.71026170  1
  Bi2+  Bi108  1  0.37484250  0.46755478  0.18137301  1
  Bi2+  Bi109  1  0.35603526  0.48047321  0.71133456  1
  Bi2+  Bi110  1  0.36911006  0.75290926  0.20304466  1
  Bi2+  Bi111  1  0.35206224  0.77901247  0.70662923  1
  Bi2+  Bi112  1  0.66073377  -0.04066321  0.19309860  1
  Bi2+  Bi113  1  0.56773480  -0.01951499  0.70559455  1
  Bi2+  Bi114  1  0.66004466  0.15204118  0.24201924  1
  Bi2+  Bi115  1  0.58231126  0.21815793  0.71579595  1
  Bi2+  Bi116  1  0.63361743  0.44978369  0.19953475  1
  Bi2+  Bi117  1  0.64074353  0.42528377  0.70987846  1
  Bi2+  Bi118  1  0.63930238  0.75988165  0.21912414  1
  Bi2+  Bi119  1  0.64606985  0.79398658  0.71602768  1
  Bi2+  Bi120  1  0.86281773  -0.06593719  0.20344913  1
  Bi2+  Bi121  1  0.82281081  -0.01344459  0.68947550  1
  Bi2+  Bi122  1  0.85015919  0.20921605  0.22261446  1
  Bi2+  Bi123  1  0.95917066  0.21491442  0.72284580  1
  Bi2+  Bi124  1  0.87760052  0.47890146  0.19110321  1
  Bi2+  Bi125  1  0.87951689  0.45114635  0.68408333  1
  Bi2+  Bi126  1  0.88634411  0.73539635  0.20655343  1
  Bi2+  Bi127  1  0.90240737  0.75187433  0.70226022  1
  S2-  S128  1  -0.02389223  0.13236665  0.15905962  1
  S2-  S129  1  -0.12267265  0.12537382  0.64291937  1
  S2-  S130  1  0.00829741  0.37543524  0.15675576  1
  S2-  S131  1  0.00258233  0.33548647  0.65411983  1
  S2-  S132  1  -0.03170896  0.62219896  0.14946114  1
  S2-  S133  1  -0.07075822  0.61209373  0.64801653  1
  S2-  S134  1  -0.00060146  0.86150832  0.14983977  1
  S2-  S135  1  -0.00652436  0.88383840  0.65575752  1
  S2-  S136  1  0.24569290  0.10812642  0.15775407  1
  S2-  S137  1  0.12982377  0.12235232  0.64445283  1
  S2-  S138  1  0.26348427  0.33427114  0.14966786  1
  S2-  S139  1  0.27482083  0.35266648  0.65523251  1
  S2-  S140  1  0.32636324  0.62362281  0.14288780  1
  S2-  S141  1  0.35381886  0.64217410  0.65217144  1
  S2-  S142  1  0.25329172  0.84819987  0.14599385  1
  S2-  S143  1  0.24427827  0.88750257  0.65184452  1
  S2-  S144  1  0.46572366  0.13545390  0.15656640  1
  S2-  S145  1  0.37866890  0.11024576  0.64352470  1
  S2-  S146  1  0.50689928  0.34726933  0.16969493  1
  S2-  S147  1  0.50349610  0.46139954  0.65343161  1
  S2-  S148  1  0.52136848  0.53928457  0.14478877  1
  S2-  S149  1  0.56427619  0.66086846  0.69276424  1
  S2-  S150  1  0.49665621  0.77842973  0.14322426  1
  S2-  S151  1  0.47762371  0.87028382  0.65094891  1
  S2-  S152  1  0.73797437  0.11101845  0.15125355  1
  S2-  S153  1  0.63562881  0.11185190  0.64228189  1
  S2-  S154  1  0.76732494  0.34694425  0.16604407  1
  S2-  S155  1  0.76077330  0.32583039  0.66399500  1
  S2-  S156  1  0.74162290  0.54109292  0.14048879  1
  S2-  S157  1  0.73654660  0.52317794  0.64640409  1
  S2-  S158  1  0.75074115  0.75929211  0.13962874  1
  S2-  S159  1  0.76630439  0.76917973  0.64033800  1
  S2-  S160  1  0.14078853  -0.00764824  0.34802591  1
  S2-  S161  1  0.12191399  -0.08157962  0.85275730  1
  S2-  S162  1  0.11663107  0.23828795  0.34798131  1
  S2-  S163  1  0.11234315  0.16103256  0.86062625  1
  S2-  S164  1  0.20289444  0.50953846  0.35707449  1
  S2-  S165  1  0.06684913  0.50212086  0.85237162  1
  S2-  S166  1  0.11953642  0.74880927  0.34238078  1
  S2-  S167  1  0.14468623  0.70941607  0.83724336  1
  S2-  S168  1  0.36453623  0.13555448  0.35877466  1
  S2-  S169  1  0.36536788  -0.12397104  0.85033532  1
  S2-  S170  1  0.37426288  0.34608802  0.34965016  1
  S2-  S171  1  0.35970188  0.16500656  0.85322464  1
  S2-  S172  1  0.39086092  0.51045229  0.27079575  1
  S2-  S173  1  0.51839248  0.50945990  0.85767060  1
  S2-  S174  1  0.37818288  0.67714324  0.34913270  1
  S2-  S175  1  0.38039034  0.65791249  0.85415502  1
  S2-  S176  1  0.53597599  0.00490601  0.35945521  1
  S2-  S177  1  0.54842203  0.00397219  0.86025582  1
  S2-  S178  1  0.61315780  0.27296254  0.34830408  1
  S2-  S179  1  0.61409662  0.25390876  0.85316863  1
  S2-  S180  1  0.53473378  0.49497119  0.34858565  1
  S2-  S181  1  0.72719299  0.49836067  0.85012915  1
  S2-  S182  1  0.64035048  0.70222922  0.35146233  1
  S2-  S183  1  0.62388333  0.72609702  0.83984934  1
  S2-  S184  1  0.88269617  -0.11824165  0.35824314  1
  S2-  S185  1  0.84525742  -0.09956861  0.86359132  1
  S2-  S186  1  0.89022407  0.34926004  0.35873139  1
  S2-  S187  1  0.89057546  0.32474445  0.85478301  1
  S2-  S188  1  0.74168640  0.48948433  0.35160973  1
  S2-  S189  1  0.89289231  0.50347298  0.77387320  1
  S2-  S190  1  0.88223109  0.63787672  0.35308729  1
  S2-  S191  1  0.87535930  0.67256384  0.84672465  1
  S2-  S192  1  0.00633936  0.12726347  0.45902945  1
  S2-  S193  1  -0.01005363  0.14752449  0.95752641  1
  S2-  S194  1  0.00940325  0.37761533  0.45464604  1
  S2-  S195  1  -0.00036838  0.39826665  0.95535202  1
  S2-  S196  1  0.01197719  0.62599945  0.45287717  1
  S2-  S197  1  0.00369709  0.65116152  0.94962445  1
  S2-  S198  1  0.01508090  0.88037647  0.45278854  1
  S2-  S199  1  -0.00319597  0.90382153  0.95262242  1
  S2-  S200  1  0.25716036  0.12754753  0.46287986  1
  S2-  S201  1  0.25141682  0.14929132  0.95746089  1
  S2-  S202  1  0.25887480  0.37713891  0.45542940  1
  S2-  S203  1  0.24691961  0.39919982  0.95011928  1
  S2-  S204  1  0.26054253  0.62583174  0.46125039  1
  S2-  S205  1  0.24673081  0.65029443  0.95094865  1
  S2-  S206  1  0.26157531  0.88269989  0.44910771  1
  S2-  S207  1  0.25217962  0.90634173  0.95206684  1
  S2-  S208  1  0.51222484  0.12891447  0.46265275  1
  S2-  S209  1  0.49924896  0.14907462  0.95657332  1
  S2-  S210  1  0.50673942  0.37593145  0.45790976  1
  S2-  S211  1  0.49925616  0.39658369  0.95902695  1
  S2-  S212  1  0.50437184  0.62603392  0.45359074  1
  S2-  S213  1  0.49991047  0.65130072  0.95779820  1
  S2-  S214  1  0.51197453  0.87472130  0.45175331  1
  S2-  S215  1  0.49620501  0.89941419  0.96219059  1
  S2-  S216  1  0.75832221  0.12800100  0.46096486  1
  S2-  S217  1  0.74929153  0.14578273  0.95132509  1
  S2-  S218  1  0.75971357  0.37538178  0.46135195  1
  S2-  S219  1  0.75071442  0.39786548  0.96081743  1
  S2-  S220  1  0.75923068  0.62865107  0.46117195  1
  S2-  S221  1  0.74598456  0.65304188  0.95483164  1
  S2-  S222  1  0.75036502  0.87689821  0.45581528  1
  S2-  S223  1  0.74340397  0.90255363  0.96477053  1
  S2-  S224  1  0.12201658  0.02562599  0.04413043  1
  S2-  S225  1  0.13488896  0.00165611  0.54777431  1
  S2-  S226  1  0.12106235  0.27430509  0.04423176  1
  S2-  S227  1  0.13232459  0.25641284  0.54891265  1
  S2-  S228  1  0.12179403  0.52683222  0.04865390  1
  S2-  S229  1  0.13434940  0.50339658  0.55488318  1
  S2-  S230  1  0.12055479  0.77818327  0.04019481  1
  S2-  S231  1  0.13542671  0.75697468  0.54846558  1
  S2-  S232  1  0.37150196  0.02333646  0.04955846  1
  S2-  S233  1  0.38474522  -0.00029039  0.53833694  1
  S2-  S234  1  0.37618976  0.27600724  0.04166509  1
  S2-  S235  1  0.38161539  0.25337497  0.54612933  1
  S2-  S236  1  0.37194180  0.52459653  0.03477342  1
  S2-  S237  1  0.37913620  0.50409556  0.55351378  1
  S2-  S238  1  0.36914665  0.77891490  0.03698992  1
  S2-  S239  1  0.38425258  0.75405707  0.54646265  1
  S2-  S240  1  0.62095676  0.02205595  0.05145182  1
  S2-  S241  1  0.63353773  -0.00116386  0.54368920  1
  S2-  S242  1  0.62608671  0.27347674  0.05561865  1
  S2-  S243  1  0.63432858  0.25582679  0.55175929  1
  S2-  S244  1  0.62315043  0.52681685  0.03854581  1
  S2-  S245  1  0.62711486  0.50958118  0.54565694  1
  S2-  S246  1  0.62169468  0.77516039  0.04411931  1
  S2-  S247  1  0.62450683  0.74880305  0.55144686  1
  S2-  S248  1  0.87157080  0.02280613  0.04518219  1
  S2-  S249  1  0.88069462  0.00231925  0.54134765  1
  S2-  S250  1  0.87070725  0.27249740  0.05221826  1
  S2-  S251  1  0.87856827  0.25518838  0.54499824  1
  S2-  S252  1  0.87595925  0.52768630  0.04465766  1
  S2-  S253  1  0.88397110  0.50411648  0.53874265  1
  S2-  S254  1  0.87625653  0.77664538  0.03963294  1
  S2-  S255  1  0.88662345  0.75685552  0.53851350  1
