# generated using pymatgen
data_La6Ce7Pr13Nd19Sm19(BiS2)64
_symmetry_space_group_name_H-M   'P 1'
_cell_length_a   15.94920534
_cell_length_b   16.05642650
_cell_length_c   27.56291548
_cell_angle_alpha   90.02952914
_cell_angle_beta   90.15750759
_cell_angle_gamma   89.93126884
_symmetry_Int_Tables_number   1
_chemical_formula_structural   La6Ce7Pr13Nd19Sm19(BiS2)64
_chemical_formula_sum   'La6 Ce7 Pr13 Nd19 Sm19 Bi64 S128'
_cell_volume   7058.47836502
_cell_formula_units_Z   1
loop_
 _symmetry_equiv_pos_site_id
 _symmetry_equiv_pos_as_xyz
  1  'x, y, z'
loop_
 _atom_type_symbol
 _atom_type_oxidation_number
  La3+  3.0
  Ce3+  3.0
  Pr3+  3.0
  Nd3+  3.0
  Sm3+  3.0
  Bi2+  2.0
  S2-  -2.0
loop_
 _atom_site_type_symbol
 _atom_site_label
 _atom_site_symmetry_multiplicity
 _atom_site_fract_x
 _atom_site_fract_y
 _atom_site_fract_z
 _atom_site_occupancy
  La3+  La0  1  0.10769672  0.50675410  0.94096580  1
  La3+  La1  1  0.85732878  0.24308142  0.42887925  1
  La3+  La2  1  0.23771002  0.87543216  0.55743038  1
  La3+  La3  1  0.25019970  0.15175732  0.60832407  1
  La3+  La4  1  0.39168930  0.00647117  0.89020547  1
  La3+  La5  1  0.12097971  0.74594434  0.39339163  1
  Ce3+  Ce6  1  0.11508311  0.00555357  0.94364505  1
  Ce3+  Ce7  1  0.73829080  0.88004177  0.06240180  1
  Ce3+  Ce8  1  0.10674666  0.24029918  0.42976633  1
  Ce3+  Ce9  1  -0.01653605  0.38433891  0.07418807  1
  Ce3+  Ce10  1  0.86431381  0.50771530  0.93721097  1
  Ce3+  Ce11  1  0.23462257  0.88176196  0.06739675  1
  Ce3+  Ce12  1  0.87032399  -0.00638116  0.43155205  1
  Pr3+  Pr13  1  0.86684970  0.25434322  0.93404658  1
  Pr3+  Pr14  1  0.61433112  0.76191238  0.92804235  1
  Pr3+  Pr15  1  0.36133513  0.24376833  0.42903711  1
  Pr3+  Pr16  1  0.60639114  0.24999216  0.93430896  1
  Pr3+  Pr17  1  0.86566941  0.74185255  0.43182346  1
  Pr3+  Pr18  1  0.61984742  0.49581106  0.43418248  1
  Pr3+  Pr19  1  0.74397053  0.12521072  0.57174966  1
  Pr3+  Pr20  1  -0.00788959  0.11746429  0.56127926  1
  Pr3+  Pr21  1  0.23477492  0.62547224  0.57463775  1
  Pr3+  Pr22  1  0.73593110  0.62290400  0.57251324  1
  Pr3+  Pr23  1  0.36718390  -0.00098281  0.41986853  1
  Pr3+  Pr24  1  -0.00694085  0.87079673  0.55142591  1
  Pr3+  Pr25  1  -0.01225188  0.63310665  0.07155447  1
  Nd3+  Nd26  1  0.23954981  0.37022958  0.54702603  1
  Nd3+  Nd27  1  -0.01922566  0.88249236  0.08064502  1
  Nd3+  Nd28  1  0.36130120  0.74542745  0.43588326  1
  Nd3+  Nd29  1  0.61346190  -0.00570679  0.44407244  1
  Nd3+  Nd30  1  0.48283147  0.13298740  0.06130937  1
  Nd3+  Nd31  1  0.34736336  0.25298466  0.93482348  1
  Nd3+  Nd32  1  0.10700946  0.76096332  0.94194978  1
  Nd3+  Nd33  1  0.35953350  0.49881152  0.43950157  1
  Nd3+  Nd34  1  -0.00723841  0.36625630  0.56005902  1
  Nd3+  Nd35  1  0.48639047  0.11809762  0.55551302  1
  Nd3+  Nd36  1  0.60886401  0.50631777  0.93670447  1
  Nd3+  Nd37  1  0.35193536  0.51134267  0.92866444  1
  Nd3+  Nd38  1  0.23263317  0.12654178  0.07022307  1
  Nd3+  Nd39  1  0.48903263  0.86710023  0.55757684  1
  Nd3+  Nd40  1  0.23847419  0.38154347  0.07265934  1
  Nd3+  Nd41  1  0.73560585  0.63048936  0.05725500  1
  Nd3+  Nd42  1  0.11846514  -0.00155916  0.42336636  1
  Nd3+  Nd43  1  -0.02121564  0.13438442  0.07903833  1
  Nd3+  Nd44  1  0.61757987  0.24724065  0.43928955  1
  Sm3+  Sm45  1  0.87136624  0.00720085  0.94318184  1
  Sm3+  Sm46  1  0.62039709  0.74021408  0.42786886  1
  Sm3+  Sm47  1  0.35129616  0.75703150  0.93053674  1
  Sm3+  Sm48  1  0.61298611  0.00627908  0.95291828  1
  Sm3+  Sm49  1  -0.00653844  0.62335646  0.55719293  1
  Sm3+  Sm50  1  0.48233512  0.38236664  0.04498312  1
  Sm3+  Sm51  1  0.23904517  0.63288556  0.06725982  1
  Sm3+  Sm52  1  0.48616697  0.63433218  0.05030521  1
  Sm3+  Sm53  1  0.48970685  0.62005355  0.55112744  1
  Sm3+  Sm54  1  0.86430125  0.49719966  0.45084872  1
  Sm3+  Sm55  1  0.73722275  0.13454670  0.05750507  1
  Sm3+  Sm56  1  0.73886022  0.37288346  0.57202569  1
  Sm3+  Sm57  1  0.86261368  0.75932058  0.93789132  1
  Sm3+  Sm58  1  0.11278659  0.49949726  0.43978852  1
  Sm3+  Sm59  1  0.48441758  0.87993151  0.05716688  1
  Sm3+  Sm60  1  0.10766583  0.25525118  0.94790931  1
  Sm3+  Sm61  1  0.74096878  0.86494454  0.55735671  1
  Sm3+  Sm62  1  0.73519460  0.38054097  0.04948906  1
  Sm3+  Sm63  1  0.48819734  0.36983889  0.54953078  1
  Bi2+  Bi64  1  -0.01940747  0.11834036  0.30410594  1
  Bi2+  Bi65  1  -0.02741969  0.13789690  0.79382203  1
  Bi2+  Bi66  1  0.06819855  0.37603308  0.29748556  1
  Bi2+  Bi67  1  -0.01172346  0.38677494  0.79313070  1
  Bi2+  Bi68  1  -0.00468062  0.59116108  0.28760900  1
  Bi2+  Bi69  1  -0.02914090  0.63929266  0.78904279  1
  Bi2+  Bi70  1  -0.05444028  0.85328571  0.27688352  1
  Bi2+  Bi71  1  -0.02391039  0.86767251  0.78511503  1
  Bi2+  Bi72  1  0.24963242  0.09223501  0.27931277  1
  Bi2+  Bi73  1  0.23360335  0.14750070  0.80730627  1
  Bi2+  Bi74  1  0.27569844  0.35991175  0.28730188  1
  Bi2+  Bi75  1  0.27370184  0.38668174  0.79202291  1
  Bi2+  Bi76  1  0.25516046  0.60055388  0.28215003  1
  Bi2+  Bi77  1  0.25024450  0.63482186  0.79449844  1
  Bi2+  Bi78  1  0.34505070  0.86549898  0.28488644  1
  Bi2+  Bi79  1  0.26821184  0.87721210  0.79314913  1
  Bi2+  Bi80  1  0.52857247  0.13390582  0.30374524  1
  Bi2+  Bi81  1  0.53449291  0.13871289  0.78769363  1
  Bi2+  Bi82  1  0.49049549  0.33442555  0.29228435  1
  Bi2+  Bi83  1  0.46859539  0.44863241  0.78281955  1
  Bi2+  Bi84  1  0.49282210  0.64066304  0.28162296  1
  Bi2+  Bi85  1  0.50609464  0.72047595  0.79796564  1
  Bi2+  Bi86  1  0.54084492  0.83294705  0.30629500  1
  Bi2+  Bi87  1  0.64031896  0.87300850  0.80352587  1
  Bi2+  Bi88  1  0.72663217  0.17579117  0.28421461  1
  Bi2+  Bi89  1  0.78159506  0.18397114  0.81318572  1
  Bi2+  Bi90  1  0.66903333  0.42079865  0.29864531  1
  Bi2+  Bi91  1  0.78525532  0.38638623  0.79222840  1
  Bi2+  Bi92  1  0.74844611  0.63520785  0.29736552  1
  Bi2+  Bi93  1  0.75951584  0.59114133  0.81320991  1
  Bi2+  Bi94  1  0.72835733  0.90955552  0.28101423  1
  Bi2+  Bi95  1  0.81448852  0.98269749  0.81910501  1
  Bi2+  Bi96  1  0.13328601  -0.02615943  0.21852657  1
  Bi2+  Bi97  1  0.12626667  0.00971296  0.70383218  1
  Bi2+  Bi98  1  0.12919727  0.24767202  0.21921957  1
  Bi2+  Bi99  1  0.10684973  0.32477599  0.71182109  1
  Bi2+  Bi100  1  0.14412148  0.45858050  0.20564463  1
  Bi2+  Bi101  1  0.13305397  0.51873079  0.72378199  1
  Bi2+  Bi102  1  0.13842394  0.70715503  0.20950244  1
  Bi2+  Bi103  1  0.12494483  0.75449270  0.69886810  1
  Bi2+  Bi104  1  0.43475687  -0.00015470  0.22160058  1
  Bi2+  Bi105  1  0.39816302  0.01276178  0.69012917  1
  Bi2+  Bi106  1  0.38188814  0.25754741  0.20601147  1
  Bi2+  Bi107  1  0.39306307  0.32029351  0.70421526  1
  Bi2+  Bi108  1  0.40851149  0.48119254  0.20433295  1
  Bi2+  Bi109  1  0.33212255  0.53018787  0.70657056  1
  Bi2+  Bi110  1  0.40385950  0.74603828  0.19826017  1
  Bi2+  Bi111  1  0.41517416  0.74819705  0.69999317  1
  Bi2+  Bi112  1  0.62904476  0.04545365  0.21602418  1
  Bi2+  Bi113  1  0.67843099  0.03552650  0.73367747  1
  Bi2+  Bi114  1  0.63159488  0.31797185  0.20168063  1
  Bi2+  Bi115  1  0.63629681  0.33216729  0.72051429  1
  Bi2+  Bi116  1  0.61507295  0.54470375  0.21010053  1
  Bi2+  Bi117  1  0.59679029  0.52419070  0.70620666  1
  Bi2+  Bi118  1  0.64463805  0.77611089  0.21233171  1
  Bi2+  Bi119  1  0.67962783  0.72333498  0.73384305  1
  Bi2+  Bi120  1  0.85985731  0.00170964  0.20765032  1
  Bi2+  Bi121  1  0.85447284  -0.04442553  0.70516750  1
  Bi2+  Bi122  1  0.85629871  0.26612233  0.20944431  1
  Bi2+  Bi123  1  0.86770095  0.22332328  0.70758975  1
  Bi2+  Bi124  1  0.86488519  0.44566345  0.25778896  1
  Bi2+  Bi125  1  0.85970379  0.52402715  0.71999387  1
  Bi2+  Bi126  1  0.89386419  0.63360336  0.19860657  1
  Bi2+  Bi127  1  0.87583629  0.75518325  0.70962670  1
  S2-  S128  1  0.00803870  0.01053542  0.15380122  1
  S2-  S129  1  0.08588538  0.13043537  0.64815968  1
  S2-  S130  1  -0.00625309  0.26716798  0.14914357  1
  S2-  S131  1  -0.03551576  0.34977878  0.65761754  1
  S2-  S132  1  -0.01817444  0.50925221  0.14692118  1
  S2-  S133  1  0.08627031  0.61546907  0.64115964  1
  S2-  S134  1  0.00785830  0.75049888  0.15076483  1
  S2-  S135  1  0.05402974  0.87882605  0.64816377  1
  S2-  S136  1  0.23553838  -0.00017249  0.14802636  1
  S2-  S137  1  0.26020283  0.12432998  0.71591491  1
  S2-  S138  1  0.24769268  0.25044425  0.14453113  1
  S2-  S139  1  0.24498736  0.32275333  0.64209298  1
  S2-  S140  1  0.26369107  0.51176291  0.14209657  1
  S2-  S141  1  0.26113193  0.75628579  0.64459042  1
  S2-  S142  1  0.25023214  0.75623003  0.14187660  1
  S2-  S143  1  0.25516194  0.97888838  0.63849360  1
  S2-  S144  1  0.47923139  0.12889231  0.16077896  1
  S2-  S145  1  0.42965322  0.16576554  0.64445615  1
  S2-  S146  1  0.48443750  0.36803835  0.14228049  1
  S2-  S147  1  0.51458427  0.38622428  0.64549181  1
  S2-  S148  1  0.47399344  0.61365695  0.14703556  1
  S2-  S149  1  0.51831326  0.64392553  0.64601116  1
  S2-  S150  1  0.52450885  0.84747784  0.15194975  1
  S2-  S151  1  0.49902738  0.87721435  0.65659012  1
  S2-  S152  1  0.81876291  0.13512277  0.14316629  1
  S2-  S153  1  0.87348741  0.09600717  0.64099980  1
  S2-  S154  1  0.75892650  0.37810609  0.14604885  1
  S2-  S155  1  0.72328623  0.25654402  0.64698829  1
  S2-  S156  1  0.72690386  0.64231290  0.15574404  1
  S2-  S157  1  0.73736041  0.49772169  0.64441488  1
  S2-  S158  1  0.82709798  0.87885302  0.14475154  1
  S2-  S159  1  0.73656786  0.76267470  0.63699204  1
  S2-  S160  1  -0.01479818  -0.02959707  0.35044921  1
  S2-  S161  1  0.21665893  -0.00053338  0.85823314  1
  S2-  S162  1  0.12602548  0.13701026  0.34939460  1
  S2-  S163  1  0.21185769  0.27994437  0.86682851  1
  S2-  S164  1  0.12536213  0.58002934  0.35300881  1
  S2-  S165  1  0.21663639  0.50284623  0.86017094  1
  S2-  S166  1  0.10787502  0.82685543  0.28266029  1
  S2-  S167  1  0.20893331  0.76447281  0.85776559  1
  S2-  S168  1  0.24500646  -0.03634941  0.34676111  1
  S2-  S169  1  0.39609624  -0.00639040  0.78259277  1
  S2-  S170  1  0.36725965  0.14262017  0.34665907  1
  S2-  S171  1  0.39484558  0.17447937  0.84809734  1
  S2-  S172  1  0.35192225  0.49475930  0.34095829  1
  S2-  S173  1  0.38429716  0.63003274  0.85465589  1
  S2-  S174  1  0.28366602  0.73104234  0.34623903  1
  S2-  S175  1  0.40862359  0.83946982  0.85023736  1
  S2-  S176  1  0.52166044  -0.01364487  0.35897732  1
  S2-  S177  1  0.57160206  0.01708481  0.85909235  1
  S2-  S178  1  0.72080833  0.28965602  0.36231290  1
  S2-  S179  1  0.60649084  0.26052810  0.83452107  1
  S2-  S180  1  0.60645170  0.60537050  0.35580662  1
  S2-  S181  1  0.60494297  0.52274296  0.83906095  1
  S2-  S182  1  0.74374187  0.76263554  0.35630142  1
  S2-  S183  1  0.74683149  0.75536116  0.85944179  1
  S2-  S184  1  0.82993423  0.10169534  0.35694814  1
  S2-  S185  1  0.98972620  0.01506114  0.86735975  1
  S2-  S186  1  0.97500500  0.27038566  0.35458174  1
  S2-  S187  1  0.99669661  0.25875438  0.86499672  1
  S2-  S188  1  0.85004630  0.51888066  0.35402535  1
  S2-  S189  1  0.98174532  0.51228864  0.86321615  1
  S2-  S190  1  0.96179529  0.73279658  0.34614485  1
  S2-  S191  1  0.98256474  0.76212459  0.86424508  1
  S2-  S192  1  -0.01374483  0.11953758  0.45496666  1
  S2-  S193  1  -0.01448475  0.13231034  0.96946076  1
  S2-  S194  1  -0.01064698  0.37665845  0.45595300  1
  S2-  S195  1  -0.01675799  0.38218509  0.96630476  1
  S2-  S196  1  -0.00921086  0.61879579  0.45515221  1
  S2-  S197  1  -0.01901095  0.63415528  0.96499211  1
  S2-  S198  1  -0.00356563  0.86161018  0.44774487  1
  S2-  S199  1  -0.01724023  0.88191173  0.96831860  1
  S2-  S200  1  0.24072300  0.12199562  0.44783127  1
  S2-  S201  1  0.23149157  0.13178105  0.96464461  1
  S2-  S202  1  0.23484335  0.37123698  0.44204505  1
  S2-  S203  1  0.23541135  0.38402534  0.96744981  1
  S2-  S204  1  0.23697562  0.62072262  0.45810169  1
  S2-  S205  1  0.23427828  0.63425136  0.96287742  1
  S2-  S206  1  0.23578232  0.86454688  0.44885929  1
  S2-  S207  1  0.23709095  0.88045584  0.96279395  1
  S2-  S208  1  0.49332474  0.12560323  0.45238383  1
  S2-  S209  1  0.48377697  0.12703428  0.95758360  1
  S2-  S210  1  0.48919269  0.37288381  0.44470444  1
  S2-  S211  1  0.48011912  0.38050581  0.94081790  1
  S2-  S212  1  0.48761861  0.62035015  0.44906768  1
  S2-  S213  1  0.49109356  0.63667211  0.95011333  1
  S2-  S214  1  0.49297412  0.86126338  0.45177291  1
  S2-  S215  1  0.48935224  0.88401160  0.95577792  1
  S2-  S216  1  0.73331091  0.11865535  0.46330503  1
  S2-  S217  1  0.73836699  0.12930171  0.95362340  1
  S2-  S218  1  0.74048591  0.37659356  0.46702422  1
  S2-  S219  1  0.73471318  0.37932749  0.94481109  1
  S2-  S220  1  0.74003008  0.61992676  0.46207400  1
  S2-  S221  1  0.73487610  0.62917887  0.95372740  1
  S2-  S222  1  0.73865097  0.87206069  0.45483719  1
  S2-  S223  1  0.73951615  0.88720087  0.95718040  1
  S2-  S224  1  0.10634265  0.00479350  0.04796231  1
  S2-  S225  1  0.11178594  -0.00412825  0.53368532  1
  S2-  S226  1  0.10994268  0.25735620  0.04995992  1
  S2-  S227  1  0.11813063  0.24513663  0.53998143  1
  S2-  S228  1  0.11448971  0.50745529  0.04903434  1
  S2-  S229  1  0.11551784  0.49468077  0.54329729  1
  S2-  S230  1  0.11297501  0.75521945  0.04654494  1
  S2-  S231  1  0.11454828  0.74362205  0.54264239  1
  S2-  S232  1  0.36672313  0.00487957  0.05498278  1
  S2-  S233  1  0.37414092  -0.00781482  0.53244393  1
  S2-  S234  1  0.36244138  0.25699661  0.04173896  1
  S2-  S235  1  0.36480758  0.24709162  0.53551498  1
  S2-  S236  1  0.36637219  0.50949699  0.03613502  1
  S2-  S237  1  0.36394738  0.49750774  0.54563001  1
  S2-  S238  1  0.36513691  0.75607477  0.04023196  1
  S2-  S239  1  0.36692941  0.74176984  0.54050745  1
  S2-  S240  1  0.61179295  0.00785454  0.05673109  1
  S2-  S241  1  0.61815619  -0.00656536  0.55108451  1
  S2-  S242  1  0.61035956  0.25726168  0.04148662  1
  S2-  S243  1  0.61143768  0.24781050  0.54343092  1
  S2-  S244  1  0.60869547  0.50491647  0.04310692  1
  S2-  S245  1  0.61111247  0.49494989  0.54061510  1
  S2-  S246  1  0.61213864  0.75686099  0.03939581  1
  S2-  S247  1  0.61361551  0.74420553  0.53476571  1
  S2-  S248  1  0.85787857  0.00857066  0.04502794  1
  S2-  S249  1  0.85937001  -0.01101233  0.53910813  1
  S2-  S250  1  0.85712632  0.25922208  0.04064657  1
  S2-  S251  1  0.86370707  0.25005677  0.54262127  1
  S2-  S252  1  0.85627889  0.50521514  0.04309096  1
  S2-  S253  1  0.87062276  0.49717461  0.55314235  1
  S2-  S254  1  0.85867535  0.75393766  0.04336850  1
  S2-  S255  1  0.86710191  0.74229162  0.54141259  1
