# generated using pymatgen
data_La6Ce7Pr13Nd19Sm19(BiS2)64
_symmetry_space_group_name_H-M   'P 1'
_cell_length_a   16.14510226
_cell_length_b   16.12807981
_cell_length_c   27.24602409
_cell_angle_alpha   89.96868597
_cell_angle_beta   90.01134981
_cell_angle_gamma   89.96244489
_symmetry_Int_Tables_number   1
_chemical_formula_structural   La6Ce7Pr13Nd19Sm19(BiS2)64
_chemical_formula_sum   'La6 Ce7 Pr13 Nd19 Sm19 Bi64 S128'
_cell_volume   7094.57580663
_cell_formula_units_Z   1
loop_
 _symmetry_equiv_pos_site_id
 _symmetry_equiv_pos_as_xyz
  1  'x, y, z'
loop_
 _atom_type_symbol
 _atom_type_oxidation_number
  La3+  3.0
  Ce3+  3.0
  Pr3+  3.0
  Nd3+  3.0
  Sm3+  3.0
  Bi2+  2.0
  S2-  -2.0
loop_
 _atom_site_type_symbol
 _atom_site_label
 _atom_site_symmetry_multiplicity
 _atom_site_fract_x
 _atom_site_fract_y
 _atom_site_fract_z
 _atom_site_occupancy
  La3+  La0  1  0.64257217  0.01193518  0.41537082  1
  La3+  La1  1  0.11362900  0.24245337  0.88792761  1
  La3+  La2  1  0.25711917  0.37235731  0.06196705  1
  La3+  La3  1  0.49244701  0.87122645  0.10966203  1
  La3+  La4  1  0.51856015  0.38389161  0.58940268  1
  La3+  La5  1  0.51700763  0.11386228  0.58918348  1
  Ce3+  Ce6  1  0.13045992  0.49490704  0.93536671  1
  Ce3+  Ce7  1  0.25362089  0.87790068  0.05854545  1
  Ce3+  Ce8  1  0.01179290  0.12311549  0.55913870  1
  Ce3+  Ce9  1  0.88631602  -0.00072855  0.43857832  1
  Ce3+  Ce10  1  0.63627043  0.75088038  0.43031512  1
  Ce3+  Ce11  1  0.75080793  0.12395221  0.06035438  1
  Ce3+  Ce12  1  0.39146676  0.24876454  0.45902626  1
  Pr3+  Pr13  1  0.50594907  0.62593820  0.06726090  1
  Pr3+  Pr14  1  0.89026653  0.49887395  0.44311058  1
  Pr3+  Pr15  1  0.62909753  0.50369814  0.93202864  1
  Pr3+  Pr16  1  0.50603319  0.37557227  0.05620224  1
  Pr3+  Pr17  1  0.62856918  -0.00043217  0.93973393  1
  Pr3+  Pr18  1  0.38416721  0.50309790  0.92957163  1
  Pr3+  Pr19  1  0.75315699  0.87603141  0.07092660  1
  Pr3+  Pr20  1  0.12624740  -0.00443025  0.93363804  1
  Pr3+  Pr21  1  0.88103771  0.00028373  0.94468394  1
  Pr3+  Pr22  1  0.01272000  0.62336579  0.55738359  1
  Pr3+  Pr23  1  0.00388360  0.87766856  0.07472884  1
  Pr3+  Pr24  1  0.25492999  0.62598994  0.05560860  1
  Pr3+  Pr25  1  0.37587687  0.25483729  0.92797314  1
  Nd3+  Nd26  1  0.26450878  0.62270151  0.55773632  1
  Nd3+  Nd27  1  0.75876196  0.12074544  0.56361350  1
  Nd3+  Nd28  1  0.50176545  0.12241287  0.05768265  1
  Nd3+  Nd29  1  0.00461227  0.37624974  0.05708422  1
  Nd3+  Nd30  1  0.75289610  0.37544886  0.05256972  1
  Nd3+  Nd31  1  0.38236053  0.75309452  0.94372231  1
  Nd3+  Nd32  1  0.12841845  0.75265283  0.93693620  1
  Nd3+  Nd33  1  0.87989350  0.50143377  0.94160140  1
  Nd3+  Nd34  1  0.75831253  0.87417472  0.55426187  1
  Nd3+  Nd35  1  0.13772726  0.00137029  0.43806322  1
  Nd3+  Nd36  1  0.26442641  0.87538067  0.56097699  1
  Nd3+  Nd37  1  0.62816912  0.24937110  0.93548001  1
  Nd3+  Nd38  1  0.01164992  0.87371199  0.55716497  1
  Nd3+  Nd39  1  0.38968393  0.00381091  0.43669927  1
  Nd3+  Nd40  1  0.37799740  0.00202925  0.93814780  1
  Nd3+  Nd41  1  0.38751371  0.49387701  0.44185898  1
  Nd3+  Nd42  1  0.88707099  0.24988036  0.44699395  1
  Nd3+  Nd43  1  0.25998848  0.36363514  0.57709832  1
  Nd3+  Nd44  1  0.26252775  0.11619739  0.56977529  1
  Sm3+  Sm45  1  0.38777879  0.75006749  0.44326425  1
  Sm3+  Sm46  1  0.88847357  0.74849442  0.44366582  1
  Sm3+  Sm47  1  0.14025590  0.74967294  0.44203131  1
  Sm3+  Sm48  1  0.14015802  0.24968150  0.44623185  1
  Sm3+  Sm49  1  0.00514750  0.62462326  0.05330309  1
  Sm3+  Sm50  1  0.63541488  0.49612393  0.43738872  1
  Sm3+  Sm51  1  0.00679699  0.12840008  0.05657941  1
  Sm3+  Sm52  1  0.75320205  0.62735561  0.05491795  1
  Sm3+  Sm53  1  0.75914832  0.37425645  0.55808208  1
  Sm3+  Sm54  1  0.88015862  0.24999209  0.94299077  1
  Sm3+  Sm55  1  0.14006695  0.49734099  0.44914919  1
  Sm3+  Sm56  1  0.76129717  0.62428878  0.54830948  1
  Sm3+  Sm57  1  0.87959147  0.75166603  0.94626440  1
  Sm3+  Sm58  1  0.63092194  0.25636580  0.44169014  1
  Sm3+  Sm59  1  0.51632653  0.87592586  0.54907799  1
  Sm3+  Sm60  1  0.01155391  0.37374849  0.55960694  1
  Sm3+  Sm61  1  0.25279618  0.12756094  0.04873958  1
  Sm3+  Sm62  1  0.62815176  0.75482139  0.94653109  1
  Sm3+  Sm63  1  0.51189369  0.62209403  0.55207389  1
  Bi2+  Bi64  1  0.03921404  0.08671315  0.29981307  1
  Bi2+  Bi65  1  -0.03693214  0.09934796  0.78564139  1
  Bi2+  Bi66  1  0.01294782  0.39376398  0.30025060  1
  Bi2+  Bi67  1  -0.05818917  0.36149259  0.77727120  1
  Bi2+  Bi68  1  -0.02977617  0.62924779  0.29009685  1
  Bi2+  Bi69  1  -0.02128861  0.63362807  0.80312273  1
  Bi2+  Bi70  1  -0.01976088  0.90039000  0.30619261  1
  Bi2+  Bi71  1  0.00678644  0.82787679  0.78247114  1
  Bi2+  Bi72  1  0.24244639  0.14655256  0.25558323  1
  Bi2+  Bi73  1  0.23550855  0.07009468  0.77743425  1
  Bi2+  Bi74  1  0.21000740  0.33680515  0.28856030  1
  Bi2+  Bi75  1  0.21671611  0.41873015  0.77300930  1
  Bi2+  Bi76  1  0.16940296  0.61157793  0.28558706  1
  Bi2+  Bi77  1  0.17654360  0.63084396  0.79390359  1
  Bi2+  Bi78  1  0.21291170  0.86517586  0.27374649  1
  Bi2+  Bi79  1  0.24416375  0.82270702  0.79417693  1
  Bi2+  Bi80  1  0.48905292  0.12815797  0.30649400  1
  Bi2+  Bi81  1  0.49832992  0.12699241  0.79232831  1
  Bi2+  Bi82  1  0.47297436  0.37013263  0.30001183  1
  Bi2+  Bi83  1  0.48539203  0.38300730  0.80023539  1
  Bi2+  Bi84  1  0.48891030  0.57753986  0.27655839  1
  Bi2+  Bi85  1  0.53223331  0.64507579  0.77999059  1
  Bi2+  Bi86  1  0.48735909  0.86392817  0.30738227  1
  Bi2+  Bi87  1  0.49304622  0.87952820  0.81192505  1
  Bi2+  Bi88  1  0.77318986  0.13909413  0.29460455  1
  Bi2+  Bi89  1  0.74545129  0.09962705  0.78987543  1
  Bi2+  Bi90  1  0.72514135  0.40627264  0.28811689  1
  Bi2+  Bi91  1  0.74421862  0.39333160  0.78619179  1
  Bi2+  Bi92  1  0.75000820  0.59396856  0.25745776  1
  Bi2+  Bi93  1  0.74707881  0.59045176  0.79690941  1
  Bi2+  Bi94  1  0.78798263  0.86162163  0.28756239  1
  Bi2+  Bi95  1  0.74786029  0.80484529  0.77914897  1
  Bi2+  Bi96  1  0.09983177  -0.03819472  0.19349960  1
  Bi2+  Bi97  1  0.11690475  -0.00745850  0.70365507  1
  Bi2+  Bi98  1  0.07327746  0.23327389  0.21926857  1
  Bi2+  Bi99  1  0.09210779  0.23785815  0.70548340  1
  Bi2+  Bi100  1  0.09885072  0.50125761  0.19919619  1
  Bi2+  Bi101  1  0.06310146  0.51982916  0.71804848  1
  Bi2+  Bi102  1  0.06959173  0.77422279  0.21277005  1
  Bi2+  Bi103  1  0.14003006  0.76064785  0.70284291  1
  Bi2+  Bi104  1  0.36263864  0.03107041  0.19343098  1
  Bi2+  Bi105  1  0.35345688  -0.06893002  0.72086430  1
  Bi2+  Bi106  1  0.35940764  0.28336716  0.21341147  1
  Bi2+  Bi107  1  0.35201075  0.25882355  0.71476792  1
  Bi2+  Bi108  1  0.35918607  0.52443117  0.19350999  1
  Bi2+  Bi109  1  0.36181939  0.55556625  0.71178264  1
  Bi2+  Bi110  1  0.33577738  0.70136569  0.24552095  1
  Bi2+  Bi111  1  0.40770306  0.74510911  0.70516716  1
  Bi2+  Bi112  1  0.62533796  0.01510860  0.20897887  1
  Bi2+  Bi113  1  0.62915911  -0.01622574  0.70484909  1
  Bi2+  Bi114  1  0.67164252  0.25695251  0.21561200  1
  Bi2+  Bi115  1  0.63770673  0.26381072  0.71148135  1
  Bi2+  Bi116  1  0.59357037  0.46377758  0.20383664  1
  Bi2+  Bi117  1  0.63079666  0.52967561  0.70577178  1
  Bi2+  Bi118  1  0.62582009  0.73116488  0.21405068  1
  Bi2+  Bi119  1  0.59869467  0.78185689  0.70472563  1
  Bi2+  Bi120  1  0.90813094  0.00515741  0.21795049  1
  Bi2+  Bi121  1  0.85157501  -0.03931516  0.73371203  1
  Bi2+  Bi122  1  0.87226650  0.28258136  0.24207053  1
  Bi2+  Bi123  1  0.83083523  0.23154614  0.72028809  1
  Bi2+  Bi124  1  0.90063470  0.48342460  0.20662755  1
  Bi2+  Bi125  1  0.83984273  0.50441767  0.70348868  1
  Bi2+  Bi126  1  0.87112087  0.73996142  0.20849759  1
  Bi2+  Bi127  1  0.86875029  0.70204289  0.70823427  1
  S2-  S128  1  0.01172686  0.10881142  0.15417459  1
  S2-  S129  1  0.00878163  0.10681304  0.65651024  1
  S2-  S130  1  0.00507979  0.36574498  0.15565460  1
  S2-  S131  1  0.04025047  0.37335035  0.65566292  1
  S2-  S132  1  -0.00688136  0.61228349  0.15043754  1
  S2-  S133  1  0.01630852  0.64621816  0.65576703  1
  S2-  S134  1  -0.12205716  0.87706667  0.14569211  1
  S2-  S135  1  0.02938283  0.87555816  0.65557424  1
  S2-  S136  1  0.27622874  0.16747799  0.14390568  1
  S2-  S137  1  0.22795460  0.21558889  0.64941334  1
  S2-  S138  1  0.23821553  0.42089887  0.15793158  1
  S2-  S139  1  0.28318467  0.41948552  0.67108406  1
  S2-  S140  1  0.25923064  0.64545541  0.15576942  1
  S2-  S141  1  0.26424145  0.65409450  0.65498344  1
  S2-  S142  1  0.32212482  0.88735758  0.14659328  1
  S2-  S143  1  0.26311765  0.98180168  0.64066121  1
  S2-  S144  1  0.50768813  0.10455005  0.15673859  1
  S2-  S145  1  0.44914189  0.13916511  0.68945973  1
  S2-  S146  1  0.46388667  0.37006100  0.15337096  1
  S2-  S147  1  0.48841385  0.34613858  0.69354505  1
  S2-  S148  1  0.49955797  0.71083082  0.15520824  1
  S2-  S149  1  0.50052041  0.54596584  0.63975609  1
  S2-  S150  1  0.48198149  0.91632745  0.21339705  1
  S2-  S151  1  0.51842702  0.95270045  0.63645165  1
  S2-  S152  1  0.73965780  0.11789768  0.15790529  1
  S2-  S153  1  0.66315307  0.12653527  0.64709941  1
  S2-  S154  1  0.72086193  0.37866413  0.14946135  1
  S2-  S155  1  0.67475304  0.38427982  0.64248894  1
  S2-  S156  1  0.73586216  0.64026589  0.15195130  1
  S2-  S157  1  0.74738131  0.62813493  0.64565147  1
  S2-  S158  1  0.65440077  0.87646702  0.15546388  1
  S2-  S159  1  0.76420384  0.92047218  0.64951718  1
  S2-  S160  1  0.16436005  -0.01795189  0.34106616  1
  S2-  S161  1  0.10676813  0.07675892  0.84451813  1
  S2-  S162  1  0.14097334  0.21876536  0.35053882  1
  S2-  S163  1  0.19132457  0.23614459  0.79182166  1
  S2-  S164  1  0.14860181  0.47132584  0.35324195  1
  S2-  S165  1  0.11483674  0.40948346  0.85110526  1
  S2-  S166  1  0.14416165  0.74885534  0.34491724  1
  S2-  S167  1  0.10948429  0.86395053  0.86089919  1
  S2-  S168  1  0.39165084  0.00497847  0.33667885  1
  S2-  S169  1  0.38002664  0.02092154  0.83876645  1
  S2-  S170  1  0.40372642  0.24608456  0.36045328  1
  S2-  S171  1  0.39628128  0.23696652  0.82689126  1
  S2-  S172  1  0.38278399  0.49008204  0.34204074  1
  S2-  S173  1  0.33902774  0.43100010  0.83951955  1
  S2-  S174  1  0.37993560  0.74738822  0.34672712  1
  S2-  S175  1  0.38944499  0.76369046  0.84396942  1
  S2-  S176  1  0.59451228  -0.00904317  0.31411000  1
  S2-  S177  1  0.61084783  0.01221625  0.83933789  1
  S2-  S178  1  0.63691438  0.16753632  0.35708891  1
  S2-  S179  1  0.59406499  0.25670778  0.83766578  1
  S2-  S180  1  0.61424801  0.38197543  0.36601785  1
  S2-  S181  1  0.51840533  0.52047599  0.85507907  1
  S2-  S182  1  0.63772417  0.77849888  0.33287094  1
  S2-  S183  1  0.61509342  0.77449460  0.84899919  1
  S2-  S184  1  0.79557189  0.00072256  0.35479620  1
  S2-  S185  1  0.86423882  0.00365609  0.84495108  1
  S2-  S186  1  0.87625145  0.24228297  0.34830079  1
  S2-  S187  1  0.94649532  0.24154399  0.85213550  1
  S2-  S188  1  0.89886142  0.49747150  0.34399187  1
  S2-  S189  1  0.89175386  0.49171220  0.84365605  1
  S2-  S190  1  0.88764971  0.75782639  0.34611811  1
  S2-  S191  1  0.88087742  0.77169715  0.84961710  1
  S2-  S192  1  0.01319922  0.12553225  0.45253140  1
  S2-  S193  1  0.00487521  0.12819496  0.95350401  1
  S2-  S194  1  0.01574845  0.37315390  0.45478496  1
  S2-  S195  1  0.00075255  0.37338490  0.95262240  1
  S2-  S196  1  0.01679579  0.62529926  0.45040162  1
  S2-  S197  1  0.00476562  0.62648390  0.94832151  1
  S2-  S198  1  0.01361025  0.87176621  0.45098548  1
  S2-  S199  1  0.00069211  0.87302461  0.96555694  1
  S2-  S200  1  0.26162992  0.12418580  0.45939663  1
  S2-  S201  1  0.24905941  0.13022864  0.94319988  1
  S2-  S202  1  0.26100414  0.37250453  0.46319152  1
  S2-  S203  1  0.25574204  0.37646144  0.95346476  1
  S2-  S204  1  0.26359103  0.62396283  0.45133459  1
  S2-  S205  1  0.25449882  0.62761857  0.94741906  1
  S2-  S206  1  0.26397245  0.87394885  0.45378554  1
  S2-  S207  1  0.25633922  0.87519583  0.95270173  1
  S2-  S208  1  0.51301532  0.12430181  0.45816570  1
  S2-  S209  1  0.50244003  0.12730290  0.94970879  1
  S2-  S210  1  0.51045946  0.37818564  0.47030648  1
  S2-  S211  1  0.50604496  0.37472069  0.95006242  1
  S2-  S212  1  0.51116870  0.62206584  0.44673053  1
  S2-  S213  1  0.50751842  0.63062371  0.95895397  1
  S2-  S214  1  0.51223495  0.87587290  0.44519200  1
  S2-  S215  1  0.50344397  0.87767525  0.95087360  1
  S2-  S216  1  0.76432570  0.12931566  0.45880609  1
  S2-  S217  1  0.75475552  0.12746815  0.95145805  1
  S2-  S218  1  0.76314415  0.37616699  0.45481411  1
  S2-  S219  1  0.75467417  0.37512406  0.94589564  1
  S2-  S220  1  0.76102218  0.62273600  0.44299265  1
  S2-  S221  1  0.75395657  0.62891855  0.94945393  1
  S2-  S222  1  0.76318336  0.86924898  0.44927996  1
  S2-  S223  1  0.75557968  0.87444750  0.95734628  1
  S2-  S224  1  0.12904654  0.00334698  0.04448813  1
  S2-  S225  1  0.13489840  -0.00276822  0.54354212  1
  S2-  S226  1  0.12803676  0.25032243  0.05142893  1
  S2-  S227  1  0.13250279  0.24872225  0.54861132  1
  S2-  S228  1  0.12828362  0.50118868  0.04302983  1
  S2-  S229  1  0.13890931  0.49644760  0.55414526  1
  S2-  S230  1  0.12664197  0.75108462  0.04656178  1
  S2-  S231  1  0.13952292  0.75016478  0.54711070  1
  S2-  S232  1  0.37725038  0.00333276  0.04400923  1
  S2-  S233  1  0.39014443  -0.00216958  0.54225596  1
  S2-  S234  1  0.38114634  0.24868803  0.03754323  1
  S2-  S235  1  0.39284544  0.24653440  0.56431514  1
  S2-  S236  1  0.38169811  0.50257414  0.04185527  1
  S2-  S237  1  0.38275197  0.49689500  0.54772916  1
  S2-  S238  1  0.38127316  0.75288988  0.04854100  1
  S2-  S239  1  0.39125598  0.75039224  0.54868289  1
  S2-  S240  1  0.62659158  -0.00094959  0.04692375  1
  S2-  S241  1  0.63937774  -0.00187230  0.53449930  1
  S2-  S242  1  0.62825845  0.24952101  0.04347833  1
  S2-  S243  1  0.63631306  0.24988066  0.54678595  1
  S2-  S244  1  0.63070257  0.50286652  0.04158930  1
  S2-  S245  1  0.63991798  0.50344066  0.54009939  1
  S2-  S246  1  0.62995523  0.75103321  0.04907096  1
  S2-  S247  1  0.63504825  0.74653659  0.54013861  1
  S2-  S248  1  0.88102680  0.00590912  0.04995062  1
  S2-  S249  1  0.88599244  -0.00215836  0.54583879  1
  S2-  S250  1  0.87872000  0.25018769  0.04909469  1
  S2-  S251  1  0.88447809  0.25124492  0.55458807  1
  S2-  S252  1  0.87717501  0.50221037  0.04759340  1
  S2-  S253  1  0.88539297  0.49766843  0.55016675  1
  S2-  S254  1  0.88045359  0.74578997  0.04944156  1
  S2-  S255  1  0.88553036  0.74887133  0.54837260  1
