# generated using pymatgen
data_La6Ce7Pr13Nd19Sm19(BiS2)64
_symmetry_space_group_name_H-M   'P 1'
_cell_length_a   16.05656174
_cell_length_b   16.04190990
_cell_length_c   27.46682964
_cell_angle_alpha   89.92602342
_cell_angle_beta   89.65484228
_cell_angle_gamma   90.01177670
_symmetry_Int_Tables_number   1
_chemical_formula_structural   La6Ce7Pr13Nd19Sm19(BiS2)64
_chemical_formula_sum   'La6 Ce7 Pr13 Nd19 Sm19 Bi64 S128'
_cell_volume   7074.71432989
_cell_formula_units_Z   1
loop_
 _symmetry_equiv_pos_site_id
 _symmetry_equiv_pos_as_xyz
  1  'x, y, z'
loop_
 _atom_type_symbol
 _atom_type_oxidation_number
  La3+  3.0
  Ce3+  3.0
  Pr3+  3.0
  Nd3+  3.0
  Sm3+  3.0
  Bi2+  2.0
  S2-  -2.0
loop_
 _atom_site_type_symbol
 _atom_site_label
 _atom_site_symmetry_multiplicity
 _atom_site_fract_x
 _atom_site_fract_y
 _atom_site_fract_z
 _atom_site_occupancy
  La3+  La0  1  0.37443709  0.23025133  0.44092508  1
  La3+  La1  1  0.74342614  0.34849907  0.07300559  1
  La3+  La2  1  0.12304450  0.48977593  0.42929646  1
  La3+  La3  1  0.12497574  0.22825026  0.92163762  1
  La3+  La4  1  0.13071057  0.01608597  0.37925257  1
  La3+  La5  1  0.47717786  0.37414651  0.62133188  1
  Ce3+  Ce6  1  0.24923475  0.35930370  0.55801492  1
  Ce3+  Ce7  1  0.62406627  -0.01951207  0.43911881  1
  Ce3+  Ce8  1  0.24856375  0.10555512  0.55768900  1
  Ce3+  Ce9  1  0.37614019  0.73882884  0.44356064  1
  Ce3+  Ce10  1  0.37047715  -0.02456032  0.93874397  1
  Ce3+  Ce11  1  0.12130893  0.74017168  0.43204444  1
  Ce3+  Ce12  1  0.62224849  -0.02517782  0.93157930  1
  Pr3+  Pr13  1  0.37925352  0.48281331  0.44186831  1
  Pr3+  Pr14  1  0.75163583  0.10829461  0.56778500  1
  Pr3+  Pr15  1  -0.00826615  0.84361928  0.06450142  1
  Pr3+  Pr16  1  0.49621955  0.86344146  0.57119880  1
  Pr3+  Pr17  1  0.62752378  0.22957046  0.44709429  1
  Pr3+  Pr18  1  0.37414496  0.72562688  0.93430698  1
  Pr3+  Pr19  1  0.74891631  0.86383605  0.57417557  1
  Pr3+  Pr20  1  0.61845550  0.22305684  0.92450975  1
  Pr3+  Pr21  1  0.74542098  0.60681199  0.56817499  1
  Pr3+  Pr22  1  0.37720263  -0.02311070  0.42464641  1
  Pr3+  Pr23  1  0.24245409  0.84480970  0.06279336  1
  Pr3+  Pr24  1  0.63687920  0.47036864  0.91294991  1
  Pr3+  Pr25  1  0.24434546  0.09430266  0.06431180  1
  Nd3+  Nd26  1  0.37113290  0.22675892  0.93599701  1
  Nd3+  Nd27  1  0.49676559  0.85099293  0.05979807  1
  Nd3+  Nd28  1  0.12241068  0.73033884  0.92530911  1
  Nd3+  Nd29  1  0.87272284  0.48188544  0.45360337  1
  Nd3+  Nd30  1  0.86964307  0.22201085  0.93265766  1
  Nd3+  Nd31  1  0.49725684  0.11093345  0.56930854  1
  Nd3+  Nd32  1  0.00729738  0.85299058  0.57349844  1
  Nd3+  Nd33  1  -0.00068719  0.34695064  0.06752837  1
  Nd3+  Nd34  1  0.12306786  -0.02335782  0.93104735  1
  Nd3+  Nd35  1  0.50005628  0.59634617  0.05012638  1
  Nd3+  Nd36  1  0.74147408  0.35361664  0.57965746  1
  Nd3+  Nd37  1  0.24858769  0.60805602  0.55764436  1
  Nd3+  Nd38  1  0.74649654  0.85353096  0.05751968  1
  Nd3+  Nd39  1  0.87299270  0.73096100  0.92582691  1
  Nd3+  Nd40  1  0.88139458  -0.02266490  0.44228811  1
  Nd3+  Nd41  1  0.74635953  0.10461183  0.05897524  1
  Nd3+  Nd42  1  0.62690039  0.73493891  0.44776390  1
  Nd3+  Nd43  1  0.87201749  -0.02318414  0.93000850  1
  Nd3+  Nd44  1  0.62558760  0.47918558  0.44525448  1
  Sm3+  Sm45  1  0.49408568  0.34953313  0.06160364  1
  Sm3+  Sm46  1  -0.00725869  0.60088756  0.04963103  1
  Sm3+  Sm47  1  0.24633689  0.86096382  0.55342963  1
  Sm3+  Sm48  1  0.49839521  0.60880825  0.56438359  1
  Sm3+  Sm49  1  0.12158231  0.47402141  0.94144731  1
  Sm3+  Sm50  1  0.00026359  0.10575730  0.55882705  1
  Sm3+  Sm51  1  0.87415952  0.46929667  0.93659467  1
  Sm3+  Sm52  1  0.12423286  0.23380319  0.44662738  1
  Sm3+  Sm53  1  -0.00013317  0.35893020  0.55948017  1
  Sm3+  Sm54  1  0.24388082  0.60518192  0.05466905  1
  Sm3+  Sm55  1  0.24562611  0.34784230  0.06712395  1
  Sm3+  Sm56  1  0.49592652  0.10100706  0.05538533  1
  Sm3+  Sm57  1  -0.00178353  0.10162546  0.05190142  1
  Sm3+  Sm58  1  0.62237108  0.72603732  0.94017430  1
  Sm3+  Sm59  1  0.74492514  0.59950253  0.04845384  1
  Sm3+  Sm60  1  -0.00048903  0.61024207  0.56470177  1
  Sm3+  Sm61  1  0.87533115  0.23321960  0.44628814  1
  Sm3+  Sm62  1  0.87559811  0.73482060  0.45288864  1
  Sm3+  Sm63  1  0.37271111  0.47517726  0.94060110  1
  Bi2+  Bi64  1  -0.11812978  0.11968028  0.28341397  1
  Bi2+  Bi65  1  -0.00250135  0.17353169  0.79047624  1
  Bi2+  Bi66  1  -0.00168726  0.42956898  0.30970468  1
  Bi2+  Bi67  1  -0.01773292  0.44567831  0.81120771  1
  Bi2+  Bi68  1  0.01524838  0.62719969  0.28281851  1
  Bi2+  Bi69  1  -0.00231943  0.65729174  0.82169196  1
  Bi2+  Bi70  1  -0.01340149  0.87517913  0.29236210  1
  Bi2+  Bi71  1  -0.00234699  0.83979757  0.78080297  1
  Bi2+  Bi72  1  0.27033052  0.18335317  0.28710834  1
  Bi2+  Bi73  1  0.24597799  0.11521897  0.78960158  1
  Bi2+  Bi74  1  0.19833167  0.44924426  0.30369599  1
  Bi2+  Bi75  1  0.24408938  0.37898961  0.79031040  1
  Bi2+  Bi76  1  0.27901932  0.70112997  0.23733802  1
  Bi2+  Bi77  1  0.17888510  0.59858412  0.79445727  1
  Bi2+  Bi78  1  0.25926321  0.88028248  0.28619660  1
  Bi2+  Bi79  1  0.24816210  0.86802174  0.78420340  1
  Bi2+  Bi80  1  0.52089348  0.14680499  0.24685480  1
  Bi2+  Bi81  1  0.50571306  0.09892348  0.78823342  1
  Bi2+  Bi82  1  0.49355898  0.39525032  0.31757779  1
  Bi2+  Bi83  1  0.49652383  0.38139296  0.81761257  1
  Bi2+  Bi84  1  0.55375179  0.65709786  0.28439681  1
  Bi2+  Bi85  1  0.48060122  0.69889632  0.79981583  1
  Bi2+  Bi86  1  0.51571363  0.87602535  0.30039967  1
  Bi2+  Bi87  1  0.51563268  0.90277936  0.80894344  1
  Bi2+  Bi88  1  0.68922556  0.12125164  0.30779200  1
  Bi2+  Bi89  1  0.75270189  0.18726635  0.80184909  1
  Bi2+  Bi90  1  0.76555852  0.36788048  0.30530134  1
  Bi2+  Bi91  1  0.81368152  0.46867807  0.74486360  1
  Bi2+  Bi92  1  0.77318202  0.53514519  0.24122407  1
  Bi2+  Bi93  1  0.80342470  0.64398105  0.79847612  1
  Bi2+  Bi94  1  0.71507419  0.92379483  0.30827539  1
  Bi2+  Bi95  1  0.73726497  0.89451599  0.79230695  1
  Bi2+  Bi96  1  0.11341291  0.03056956  0.18149984  1
  Bi2+  Bi97  1  0.12485091  0.00298366  0.68989409  1
  Bi2+  Bi98  1  0.11405730  0.29361757  0.26150731  1
  Bi2+  Bi99  1  0.12519079  0.27699769  0.72499194  1
  Bi2+  Bi100  1  0.16919706  0.48868146  0.18997232  1
  Bi2+  Bi101  1  0.09439194  0.47616813  0.71472200  1
  Bi2+  Bi102  1  0.09675874  0.74175328  0.19714683  1
  Bi2+  Bi103  1  0.15779769  0.74275943  0.71410418  1
  Bi2+  Bi104  1  0.36868446  0.04712079  0.18643262  1
  Bi2+  Bi105  1  0.39004893  -0.05213699  0.72009471  1
  Bi2+  Bi106  1  0.38261033  0.31704224  0.23051926  1
  Bi2+  Bi107  1  0.36169256  0.22242714  0.70474929  1
  Bi2+  Bi108  1  0.36059918  0.50759045  0.20655228  1
  Bi2+  Bi109  1  0.34984407  0.60529468  0.72827821  1
  Bi2+  Bi110  1  0.45772634  0.76025610  0.20241410  1
  Bi2+  Bi111  1  0.44849953  0.76572070  0.68856737  1
  Bi2+  Bi112  1  0.62396131  -0.01004835  0.20828041  1
  Bi2+  Bi113  1  0.62868827  -0.00480471  0.71771527  1
  Bi2+  Bi114  1  0.66266586  0.27974682  0.21999999  1
  Bi2+  Bi115  1  0.64629128  0.25180391  0.71816545  1
  Bi2+  Bi116  1  0.58986663  0.50395874  0.20339787  1
  Bi2+  Bi117  1  0.60586977  0.53382736  0.72215138  1
  Bi2+  Bi118  1  0.67539381  0.73255516  0.20214498  1
  Bi2+  Bi119  1  0.64265183  0.79749215  0.69016805  1
  Bi2+  Bi120  1  0.81511033  -0.02104972  0.21181306  1
  Bi2+  Bi121  1  0.88691254  0.04029146  0.70975735  1
  Bi2+  Bi122  1  0.88270425  0.24346268  0.20040165  1
  Bi2+  Bi123  1  0.87896213  0.28909727  0.72076656  1
  Bi2+  Bi124  1  0.97148627  0.50507930  0.19451831  1
  Bi2+  Bi125  1  0.93539225  0.59886918  0.69291951  1
  Bi2+  Bi126  1  0.84031596  0.71673903  0.26482273  1
  Bi2+  Bi127  1  0.83578477  0.77796679  0.71593556  1
  S2-  S128  1  -0.00825391  0.14751770  0.14694683  1
  S2-  S129  1  -0.00143727  0.12191512  0.65746476  1
  S2-  S130  1  0.12502691  0.35052544  0.13865068  1
  S2-  S131  1  0.00782115  0.35215305  0.65699677  1
  S2-  S132  1  -0.02171230  0.66166806  0.14061884  1
  S2-  S133  1  0.02803656  0.71363409  0.64158189  1
  S2-  S134  1  0.02645627  0.88934973  0.15951991  1
  S2-  S135  1  -0.02561814  0.92263845  0.66539828  1
  S2-  S136  1  0.24661172  0.15058413  0.16126294  1
  S2-  S137  1  0.24976486  0.10321322  0.65609112  1
  S2-  S138  1  0.37205246  0.36508497  0.13636066  1
  S2-  S139  1  0.30070486  0.35795506  0.64917548  1
  S2-  S140  1  0.23376158  0.71217531  0.13289784  1
  S2-  S141  1  0.23610222  0.61234788  0.65627667  1
  S2-  S142  1  0.25214282  0.94944849  0.14364147  1
  S2-  S143  1  0.20347888  0.87619782  0.64990583  1
  S2-  S144  1  0.48549291  0.15892570  0.14707777  1
  S2-  S145  1  0.50761874  0.20516878  0.65470589  1
  S2-  S146  1  0.60384257  0.37425070  0.13879559  1
  S2-  S147  1  0.45139178  0.35688048  0.72834591  1
  S2-  S148  1  0.47184821  0.60190793  0.14797013  1
  S2-  S149  1  0.47550990  0.54537078  0.65514660  1
  S2-  S150  1  0.49080666  0.91311923  0.15279514  1
  S2-  S151  1  0.49323633  0.98771108  0.64349084  1
  S2-  S152  1  0.74442573  0.19986579  0.14261874  1
  S2-  S153  1  0.76470287  0.22095179  0.64991800  1
  S2-  S154  1  0.87900433  0.37744352  0.14128919  1
  S2-  S155  1  0.64305659  0.39349410  0.66129125  1
  S2-  S156  1  0.72028845  0.58632422  0.14506726  1
  S2-  S157  1  0.68868856  0.62545384  0.66279184  1
  S2-  S158  1  0.78986692  0.83600172  0.15224500  1
  S2-  S159  1  0.75789703  0.99284827  0.64608761  1
  S2-  S160  1  0.11878986  -0.00968535  0.27188142  1
  S2-  S161  1  0.10934941  0.08999684  0.85105459  1
  S2-  S162  1  0.12479297  0.19247976  0.35158586  1
  S2-  S163  1  0.26689234  0.23679735  0.85345546  1
  S2-  S164  1  0.12364610  0.61826166  0.35928354  1
  S2-  S165  1  0.11625307  0.37765249  0.86067148  1
  S2-  S166  1  0.12572810  0.84147412  0.35029731  1
  S2-  S167  1  0.12150960  0.85883950  0.85484702  1
  S2-  S168  1  0.29507338  0.01953143  0.33725828  1
  S2-  S169  1  0.34593752  0.02054434  0.84627749  1
  S2-  S170  1  0.39107925  0.24630133  0.34126423  1
  S2-  S171  1  0.47737592  0.22433593  0.85425993  1
  S2-  S172  1  0.36103103  0.48851795  0.34230064  1
  S2-  S173  1  0.34909434  0.47388208  0.84342994  1
  S2-  S174  1  0.37719686  0.81582653  0.35593449  1
  S2-  S175  1  0.32618203  0.74722035  0.83925274  1
  S2-  S176  1  0.51916350  0.00469689  0.36171661  1
  S2-  S177  1  0.63948733  0.08338772  0.85489016  1
  S2-  S178  1  0.63315766  0.28483920  0.35111088  1
  S2-  S179  1  0.65477894  0.33046993  0.84593132  1
  S2-  S180  1  0.58860177  0.51704052  0.34987505  1
  S2-  S181  1  0.57099530  0.54532993  0.82586659  1
  S2-  S182  1  0.63648221  0.76665766  0.34999219  1
  S2-  S183  1  0.63056737  0.78166544  0.84762478  1
  S2-  S184  1  0.95620765  -0.00097627  0.35311145  1
  S2-  S185  1  0.86840110  0.09073738  0.85032154  1
  S2-  S186  1  0.87706525  0.25564802  0.34919997  1
  S2-  S187  1  0.90972917  0.30067569  0.84671059  1
  S2-  S188  1  0.85228147  0.49616217  0.35634209  1
  S2-  S189  1  0.78928479  0.49554083  0.85142109  1
  S2-  S190  1  0.89286517  0.76621796  0.35689587  1
  S2-  S191  1  0.87496189  0.85822885  0.85358622  1
  S2-  S192  1  0.00111136  0.11164556  0.45492479  1
  S2-  S193  1  -0.00349361  0.09959602  0.95114268  1
  S2-  S194  1  0.00044448  0.35843413  0.45518194  1
  S2-  S195  1  -0.00312099  0.35199682  0.96084777  1
  S2-  S196  1  -0.00568629  0.60840696  0.46130619  1
  S2-  S197  1  -0.00354385  0.60046276  0.94562441  1
  S2-  S198  1  -0.00361819  0.85348030  0.46644258  1
  S2-  S199  1  -0.00490442  0.85124265  0.95598899  1
  S2-  S200  1  0.24524453  0.10592699  0.45194284  1
  S2-  S201  1  0.24704541  0.09824868  0.95692169  1
  S2-  S202  1  0.24654377  0.36056538  0.45079490  1
  S2-  S203  1  0.24839974  0.35703481  0.96144121  1
  S2-  S204  1  0.25501244  0.61009731  0.45319695  1
  S2-  S205  1  0.24468173  0.60166607  0.94989532  1
  S2-  S206  1  0.24940330  0.86028111  0.45307364  1
  S2-  S207  1  0.24810843  0.84909197  0.95496894  1
  S2-  S208  1  0.49915361  0.10807587  0.46223534  1
  S2-  S209  1  0.49535647  0.09571653  0.95299112  1
  S2-  S210  1  0.50176784  0.35638935  0.45178807  1
  S2-  S211  1  0.49653405  0.35706151  0.95415344  1
  S2-  S212  1  0.50201646  0.61087754  0.45873564  1
  S2-  S213  1  0.50062148  0.59944735  0.94541204  1
  S2-  S214  1  0.50224749  0.85766662  0.46367278  1
  S2-  S215  1  0.49828368  0.84993332  0.95290992  1
  S2-  S216  1  0.75577700  0.10540037  0.45625919  1
  S2-  S217  1  0.74682933  0.09826678  0.95639442  1
  S2-  S218  1  0.75121889  0.35657096  0.46686544  1
  S2-  S219  1  0.75216873  0.34964017  0.95685161  1
  S2-  S220  1  0.75000868  0.60930174  0.46077670  1
  S2-  S221  1  0.74797307  0.60679246  0.94655458  1
  S2-  S222  1  0.75220117  0.85880996  0.46383175  1
  S2-  S223  1  0.74554477  0.85055432  0.95262157  1
  S2-  S224  1  0.11500692  -0.02797753  0.04049674  1
  S2-  S225  1  0.12131549  -0.01605379  0.55129092  1
  S2-  S226  1  0.12411575  0.22267827  0.03804414  1
  S2-  S227  1  0.12241599  0.23413695  0.55103588  1
  S2-  S228  1  0.12096305  0.48362973  0.04344296  1
  S2-  S229  1  0.12076914  0.48522342  0.54558977  1
  S2-  S230  1  0.11566567  0.72396130  0.03186504  1
  S2-  S231  1  0.12822162  0.73150819  0.53907131  1
  S2-  S232  1  0.37478562  -0.02563189  0.04254081  1
  S2-  S233  1  0.36994907  -0.01793962  0.54187819  1
  S2-  S234  1  0.37017649  0.22425915  0.04159642  1
  S2-  S235  1  0.37220822  0.23470370  0.54780506  1
  S2-  S236  1  0.36674181  0.48276943  0.04262847  1
  S2-  S237  1  0.37594633  0.48416549  0.54805637  1
  S2-  S238  1  0.37549652  0.72443068  0.04030215  1
  S2-  S239  1  0.37240957  0.73476050  0.55076212  1
  S2-  S240  1  0.62141376  -0.02255111  0.04338674  1
  S2-  S241  1  0.62563652  -0.01572513  0.54495262  1
  S2-  S242  1  0.61586600  0.22491902  0.03770459  1
  S2-  S243  1  0.62595206  0.23107723  0.55085082  1
  S2-  S244  1  0.62345478  0.47664646  0.03386775  1
  S2-  S245  1  0.61940767  0.48410093  0.55104062  1
  S2-  S246  1  0.62197534  0.72674163  0.04518726  1
  S2-  S247  1  0.62193012  0.73584108  0.55272305  1
  S2-  S248  1  0.87109421  -0.02183884  0.04423030  1
  S2-  S249  1  0.88026516  -0.01783432  0.54744335  1
  S2-  S250  1  0.87418056  0.22404940  0.03969334  1
  S2-  S251  1  0.87950412  0.23520550  0.54951190  1
  S2-  S252  1  0.86960407  0.48112903  0.03928933  1
  S2-  S253  1  0.87315236  0.48132290  0.55978715  1
  S2-  S254  1  0.86638949  0.72464377  0.03484840  1
  S2-  S255  1  0.86973121  0.73365353  0.55699155  1
