# generated using pymatgen
data_La6Ce7Pr13Nd19Sm19(BiS2)64
_symmetry_space_group_name_H-M   'P 1'
_cell_length_a   16.17207059
_cell_length_b   16.15976131
_cell_length_c   27.17467163
_cell_angle_alpha   89.96155012
_cell_angle_beta   89.97875499
_cell_angle_gamma   89.91896238
_symmetry_Int_Tables_number   1
_chemical_formula_structural   La6Ce7Pr13Nd19Sm19(BiS2)64
_chemical_formula_sum   'La6 Ce7 Pr13 Nd19 Sm19 Bi64 S128'
_cell_volume   7101.73255221
_cell_formula_units_Z   1
loop_
 _symmetry_equiv_pos_site_id
 _symmetry_equiv_pos_as_xyz
  1  'x, y, z'
loop_
 _atom_type_symbol
 _atom_type_oxidation_number
  La3+  3.0
  Ce3+  3.0
  Pr3+  3.0
  Nd3+  3.0
  Sm3+  3.0
  Bi2+  2.0
  S2-  -2.0
loop_
 _atom_site_type_symbol
 _atom_site_label
 _atom_site_symmetry_multiplicity
 _atom_site_fract_x
 _atom_site_fract_y
 _atom_site_fract_z
 _atom_site_occupancy
  La3+  La0  1  0.87269959  0.52079194  0.92089731  1
  La3+  La1  1  0.38381510  0.51894444  0.92569588  1
  La3+  La2  1  0.49794653  0.89079274  0.08443556  1
  La3+  La3  1  0.76142654  0.89332407  0.09090377  1
  La3+  La4  1  0.63844071  0.49066666  0.41428165  1
  La3+  La5  1  0.13061798  0.51822499  0.91823898  1
  Ce3+  Ce6  1  0.12431135  0.26071708  0.93058359  1
  Ce3+  Ce7  1  0.50602640  0.12376643  0.55282808  1
  Ce3+  Ce8  1  0.87379542  0.25831299  0.93489547  1
  Ce3+  Ce9  1  0.87894277  0.74573760  0.44122012  1
  Ce3+  Ce10  1  0.50569335  0.37596351  0.56013499  1
  Ce3+  Ce11  1  0.49759145  0.38166362  0.05660940  1
  Ce3+  Ce12  1  0.75607539  0.37291584  0.56703201  1
  Pr3+  Pr13  1  0.24791210  0.38443667  0.04998995  1
  Pr3+  Pr14  1  0.23946160  0.61973376  0.08127391  1
  Pr3+  Pr15  1  0.13302324  0.25090728  0.44934864  1
  Pr3+  Pr16  1  0.49070947  0.62288059  0.08300251  1
  Pr3+  Pr17  1  0.88085424  0.25050418  0.44098168  1
  Pr3+  Pr18  1  0.13780964  -0.00114063  0.43437229  1
  Pr3+  Pr19  1  0.62636958  0.25930919  0.94206648  1
  Pr3+  Pr20  1  0.63301347  0.24795952  0.44152938  1
  Pr3+  Pr21  1  0.25669638  0.87128014  0.56216206  1
  Pr3+  Pr22  1  0.13232845  0.74538981  0.43816512  1
  Pr3+  Pr23  1  0.88839175  -0.00183991  0.41673000  1
  Pr3+  Pr24  1  0.37798669  0.75608768  0.95286075  1
  Pr3+  Pr25  1  0.50417034  0.62508941  0.55425262  1
  Nd3+  Nd26  1  0.37708532  0.49365016  0.43778221  1
  Nd3+  Nd27  1  0.00038989  0.13522495  0.05302150  1
  Nd3+  Nd28  1  0.00575680  0.12092223  0.55504277  1
  Nd3+  Nd29  1  0.13419185  0.49627700  0.45199345  1
  Nd3+  Nd30  1  0.37206120  0.73870555  0.41583197  1
  Nd3+  Nd31  1  0.75651873  0.87414995  0.55214838  1
  Nd3+  Nd32  1  0.25035829  0.88164748  0.06282422  1
  Nd3+  Nd33  1  0.37625908  0.25957913  0.93339298  1
  Nd3+  Nd34  1  0.37658256  0.00687236  0.94285400  1
  Nd3+  Nd35  1  0.75269500  0.13398572  0.05779224  1
  Nd3+  Nd36  1  0.86810754  0.76720378  0.94077354  1
  Nd3+  Nd37  1  0.00467770  0.87458388  0.55309046  1
  Nd3+  Nd38  1  0.50505921  0.87190131  0.55060966  1
  Nd3+  Nd39  1  0.75319560  0.62358960  0.55912826  1
  Nd3+  Nd40  1  0.26710349  0.36000540  0.58777515  1
  Nd3+  Nd41  1  0.25886967  0.62731263  0.57144752  1
  Nd3+  Nd42  1  0.62587889  0.00608486  0.94715991  1
  Nd3+  Nd43  1  0.62882703  0.74953939  0.42784857  1
  Nd3+  Nd44  1  0.74935566  0.63173153  0.07101283  1
  Sm3+  Sm45  1  0.24803862  0.13446980  0.04741248  1
  Sm3+  Sm46  1  -0.00055401  0.88287333  0.05947789  1
  Sm3+  Sm47  1  0.63028536  -0.00297835  0.43710799  1
  Sm3+  Sm48  1  0.62509254  0.51563861  0.94427266  1
  Sm3+  Sm49  1  0.87448090  0.00523736  0.93609725  1
  Sm3+  Sm50  1  -0.00183898  0.38538059  0.04104952  1
  Sm3+  Sm51  1  0.25707829  0.12185094  0.55816715  1
  Sm3+  Sm52  1  0.87974266  0.49869543  0.44606803  1
  Sm3+  Sm53  1  0.00574876  0.37432813  0.56286689  1
  Sm3+  Sm54  1  0.75726756  0.12206299  0.55032272  1
  Sm3+  Sm55  1  0.00579672  0.62170097  0.55870068  1
  Sm3+  Sm56  1  0.12782873  0.75685156  0.94855273  1
  Sm3+  Sm57  1  0.38170507  -0.00343506  0.44262832  1
  Sm3+  Sm58  1  0.75082118  0.38556315  0.05135832  1
  Sm3+  Sm59  1  0.49787493  0.13436211  0.06176140  1
  Sm3+  Sm60  1  0.62682062  0.76125307  0.96383818  1
  Sm3+  Sm61  1  0.38133524  0.25235948  0.43633156  1
  Sm3+  Sm62  1  0.12416757  0.00676578  0.94443275  1
  Sm3+  Sm63  1  -0.00191523  0.63006537  0.05757557  1
  Bi2+  Bi64  1  0.03186625  0.18823995  0.28084349  1
  Bi2+  Bi65  1  -0.05608966  0.11373669  0.79534854  1
  Bi2+  Bi66  1  -0.01024458  0.39977625  0.29104785  1
  Bi2+  Bi67  1  -0.02130621  0.28685871  0.74203130  1
  Bi2+  Bi68  1  -0.00521239  0.59900048  0.28110849  1
  Bi2+  Bi69  1  -0.01988143  0.64280364  0.77252359  1
  Bi2+  Bi70  1  0.01219377  0.86814730  0.28526112  1
  Bi2+  Bi71  1  -0.00641111  0.90837363  0.79907024  1
  Bi2+  Bi72  1  0.25907756  0.12593724  0.29198838  1
  Bi2+  Bi73  1  0.24094986  0.05058597  0.78029472  1
  Bi2+  Bi74  1  0.23968077  0.36790286  0.29465419  1
  Bi2+  Bi75  1  0.22314148  0.34534637  0.79227545  1
  Bi2+  Bi76  1  0.22426089  0.61236547  0.29012953  1
  Bi2+  Bi77  1  0.27343847  0.61799078  0.79861774  1
  Bi2+  Bi78  1  0.19840150  0.90849023  0.30512077  1
  Bi2+  Bi79  1  0.30757254  0.85627204  0.79381449  1
  Bi2+  Bi80  1  0.46481701  0.15836483  0.28982848  1
  Bi2+  Bi81  1  0.49473895  0.09625018  0.79244613  1
  Bi2+  Bi82  1  0.49979306  0.35349146  0.28931559  1
  Bi2+  Bi83  1  0.48239584  0.36186152  0.80238499  1
  Bi2+  Bi84  1  0.47332188  0.62457828  0.28516191  1
  Bi2+  Bi85  1  0.53145518  0.71199218  0.79425263  1
  Bi2+  Bi86  1  0.48409075  0.94350391  0.29118284  1
  Bi2+  Bi87  1  0.48220304  0.89655464  0.74304262  1
  Bi2+  Bi88  1  0.72066158  0.16580875  0.28975505  1
  Bi2+  Bi89  1  0.75933370  0.05078411  0.80459023  1
  Bi2+  Bi90  1  0.78208929  0.34948051  0.29192305  1
  Bi2+  Bi91  1  0.74485073  0.37125758  0.79404523  1
  Bi2+  Bi92  1  0.76296162  0.61378725  0.29951644  1
  Bi2+  Bi93  1  0.73816553  0.62946068  0.81030912  1
  Bi2+  Bi94  1  0.75999552  0.86940016  0.29522763  1
  Bi2+  Bi95  1  0.74669557  0.87294790  0.75917155  1
  Bi2+  Bi96  1  0.10335082  0.02260326  0.23120715  1
  Bi2+  Bi97  1  0.11931282  -0.03700274  0.69950948  1
  Bi2+  Bi98  1  0.18479537  0.24841187  0.20981175  1
  Bi2+  Bi99  1  0.12637566  0.16127372  0.71251591  1
  Bi2+  Bi100  1  0.11035758  0.47720125  0.20228631  1
  Bi2+  Bi101  1  0.10634841  0.50287590  0.71439516  1
  Bi2+  Bi102  1  0.11223677  0.73111400  0.22054931  1
  Bi2+  Bi103  1  0.13178264  0.77065263  0.77513111  1
  Bi2+  Bi104  1  0.35995340  0.03334455  0.20512347  1
  Bi2+  Bi105  1  0.30949125  -0.05402419  0.68629291  1
  Bi2+  Bi106  1  0.40684772  0.24368795  0.18576056  1
  Bi2+  Bi107  1  0.40473200  0.20006969  0.70387734  1
  Bi2+  Bi108  1  0.36771231  0.42984520  0.21458763  1
  Bi2+  Bi109  1  0.36202041  0.48508834  0.70013713  1
  Bi2+  Bi110  1  0.35190764  0.78837901  0.22421573  1
  Bi2+  Bi111  1  0.39662633  0.72125023  0.69426815  1
  Bi2+  Bi112  1  0.62593278  0.05315788  0.21756242  1
  Bi2+  Bi113  1  0.62860823  0.04720807  0.71241592  1
  Bi2+  Bi114  1  0.60543794  0.24760119  0.20736456  1
  Bi2+  Bi115  1  0.60457238  0.24885769  0.73167974  1
  Bi2+  Bi116  1  0.63701759  0.49969323  0.19918628  1
  Bi2+  Bi117  1  0.59579123  0.52809719  0.76717741  1
  Bi2+  Bi118  1  0.62598770  0.74843202  0.21952774  1
  Bi2+  Bi119  1  0.64764306  0.73846330  0.69648506  1
  Bi2+  Bi120  1  0.88578259  0.02060083  0.20925071  1
  Bi2+  Bi121  1  0.89106228  0.01583635  0.69932787  1
  Bi2+  Bi122  1  0.91480004  0.26872947  0.20314976  1
  Bi2+  Bi123  1  0.79740033  0.25643689  0.70093745  1
  Bi2+  Bi124  1  0.88724826  0.46806222  0.20119731  1
  Bi2+  Bi125  1  0.86514984  0.52001825  0.69862696  1
  Bi2+  Bi126  1  0.92147488  0.74354063  0.21275426  1
  Bi2+  Bi127  1  0.89745798  0.78156025  0.71533765  1
  S2-  S128  1  -0.01998812  0.12469567  0.15158525  1
  S2-  S129  1  -0.01095972  0.12757993  0.65352788  1
  S2-  S130  1  0.00778905  0.37670796  0.13947692  1
  S2-  S131  1  -0.01037293  0.38554713  0.66175772  1
  S2-  S132  1  0.08844124  0.61365642  0.14045038  1
  S2-  S133  1  0.00271621  0.61376153  0.65704419  1
  S2-  S134  1  -0.08018883  0.88392320  0.14675941  1
  S2-  S135  1  -0.00035638  0.86609168  0.65198680  1
  S2-  S136  1  0.25132472  0.13900361  0.14482893  1
  S2-  S137  1  0.26604117  0.19686718  0.64604508  1
  S2-  S138  1  0.24525654  0.46268046  0.13991246  1
  S2-  S139  1  0.21845296  0.38624605  0.68663297  1
  S2-  S140  1  0.31722127  0.66430024  0.17019199  1
  S2-  S141  1  0.23619873  0.57604123  0.66925722  1
  S2-  S142  1  0.27794365  0.90062947  0.16069642  1
  S2-  S143  1  0.26514365  0.76518089  0.64102426  1
  S2-  S144  1  0.50356520  0.03970892  0.14539776  1
  S2-  S145  1  0.49224744  0.09096862  0.64874722  1
  S2-  S146  1  0.50152352  0.45264518  0.14424260  1
  S2-  S147  1  0.42469290  0.35485688  0.64584168  1
  S2-  S148  1  0.52723724  0.62898457  0.18226110  1
  S2-  S149  1  0.47798594  0.58859342  0.65308140  1
  S2-  S150  1  0.49605403  0.83298402  0.18106647  1
  S2-  S151  1  0.51554288  0.82524395  0.64593284  1
  S2-  S152  1  0.76652038  0.05688775  0.14639120  1
  S2-  S153  1  0.76381195  0.10335990  0.64773988  1
  S2-  S154  1  0.74783171  0.40231224  0.14909446  1
  S2-  S155  1  0.74681395  0.41259442  0.66294983  1
  S2-  S156  1  0.73980743  0.63074054  0.17136779  1
  S2-  S157  1  0.76154753  0.62446670  0.65948778  1
  S2-  S158  1  0.71376485  0.87383156  0.19090738  1
  S2-  S159  1  0.74832814  0.85660552  0.65077493  1
  S2-  S160  1  0.03564953  -0.00088943  0.35400970  1
  S2-  S161  1  0.12034665  -0.00931096  0.84734871  1
  S2-  S162  1  0.15381552  0.24109900  0.35016930  1
  S2-  S163  1  0.12675684  0.23968766  0.83393408  1
  S2-  S164  1  0.16873749  0.50149725  0.35327731  1
  S2-  S165  1  0.11256596  0.46246059  0.81879177  1
  S2-  S166  1  0.22580540  0.75109324  0.35367091  1
  S2-  S167  1  0.14328895  0.66980115  0.86463976  1
  S2-  S168  1  0.33030779  -0.00940954  0.34950593  1
  S2-  S169  1  0.37928146  0.00222616  0.84428637  1
  S2-  S170  1  0.37176521  0.36906235  0.36444768  1
  S2-  S171  1  0.36776748  0.25475017  0.83314598  1
  S2-  S172  1  0.36491277  0.59389288  0.35443516  1
  S2-  S173  1  0.32865261  0.47438834  0.82835183  1
  S2-  S174  1  0.44434423  0.78737772  0.32553940  1
  S2-  S175  1  0.38568416  0.67211689  0.86423157  1
  S2-  S176  1  0.62426906  -0.04578508  0.34143746  1
  S2-  S177  1  0.60823154  0.00260256  0.84815520  1
  S2-  S178  1  0.63467970  0.33672640  0.35529347  1
  S2-  S179  1  0.61611702  0.27046122  0.84209311  1
  S2-  S180  1  0.60284273  0.54011555  0.31595229  1
  S2-  S181  1  0.53492874  0.50504987  0.86157052  1
  S2-  S182  1  0.65331596  0.73524707  0.32886189  1
  S2-  S183  1  0.64939198  0.74829450  0.86485749  1
  S2-  S184  1  0.83591233  0.00144519  0.31689495  1
  S2-  S185  1  0.85597680  -0.11030449  0.86567948  1
  S2-  S186  1  0.86616508  0.21755725  0.34276041  1
  S2-  S187  1  0.86122576  0.25792041  0.83764750  1
  S2-  S188  1  0.80040299  0.48952972  0.35894716  1
  S2-  S189  1  0.85620252  0.47543089  0.82116408  1
  S2-  S190  1  0.86034661  0.74066118  0.34435293  1
  S2-  S191  1  0.88197773  0.67103198  0.85732261  1
  S2-  S192  1  0.00725589  0.12542665  0.45006290  1
  S2-  S193  1  -0.00089261  0.12985737  0.94616795  1
  S2-  S194  1  0.00443688  0.37618686  0.45598096  1
  S2-  S195  1  -0.00245854  0.38814696  0.93621566  1
  S2-  S196  1  0.00580956  0.61981147  0.45166008  1
  S2-  S197  1  -0.00082685  0.63821153  0.95561316  1
  S2-  S198  1  0.00593709  0.86932928  0.44811753  1
  S2-  S199  1  0.00456390  0.88132722  0.95625904  1
  S2-  S200  1  0.26101734  0.12560537  0.45326768  1
  S2-  S201  1  0.24956948  0.13147022  0.94248565  1
  S2-  S202  1  0.25508320  0.37152285  0.46937407  1
  S2-  S203  1  0.25237382  0.38498059  0.94281713  1
  S2-  S204  1  0.25339522  0.62126146  0.46306455  1
  S2-  S205  1  0.25121354  0.63601691  0.96864065  1
  S2-  S206  1  0.25864568  0.87266791  0.45524556  1
  S2-  S207  1  0.24954246  0.88291164  0.95480220  1
  S2-  S208  1  0.50438606  0.12297718  0.44445230  1
  S2-  S209  1  0.49965244  0.13330388  0.95509377  1
  S2-  S210  1  0.50949212  0.37382577  0.45683395  1
  S2-  S211  1  0.50080603  0.38185913  0.95334149  1
  S2-  S212  1  0.51203052  0.61934222  0.44625363  1
  S2-  S213  1  0.50733565  0.63741361  0.97153959  1
  S2-  S214  1  0.50454327  0.87419328  0.44537337  1
  S2-  S215  1  0.50145222  0.88384426  0.96476892  1
  S2-  S216  1  0.75690320  0.11844886  0.44540359  1
  S2-  S217  1  0.75152074  0.13048800  0.95088303  1
  S2-  S218  1  0.75764339  0.37332631  0.46066134  1
  S2-  S219  1  0.74854313  0.38941937  0.94610113  1
  S2-  S220  1  0.75304007  0.62257035  0.45283743  1
  S2-  S221  1  0.74819758  0.63473151  0.96326807  1
  S2-  S222  1  0.75657890  0.87581451  0.44535546  1
  S2-  S223  1  0.74777442  0.88579973  0.97190027  1
  S2-  S224  1  0.12444086  0.00764046  0.05006329  1
  S2-  S225  1  0.13271028  -0.00108203  0.54387154  1
  S2-  S226  1  0.12344031  0.25908629  0.03857174  1
  S2-  S227  1  0.12850673  0.24985595  0.55524357  1
  S2-  S228  1  0.11843822  0.50512097  0.03129780  1
  S2-  S229  1  0.12923304  0.49655275  0.55719353  1
  S2-  S230  1  0.12171504  0.76057544  0.05259792  1
  S2-  S231  1  0.12546345  0.74599588  0.54536466  1
  S2-  S232  1  0.37092441  0.01173696  0.04744377  1
  S2-  S233  1  0.38030313  -0.00123862  0.54647395  1
  S2-  S234  1  0.37327917  0.25537330  0.04107616  1
  S2-  S235  1  0.38178716  0.24451924  0.54002272  1
  S2-  S236  1  0.37543348  0.50674787  0.04024919  1
  S2-  S237  1  0.37776572  0.49751041  0.54640408  1
  S2-  S238  1  0.37663272  0.75945594  0.05882781  1
  S2-  S239  1  0.38217619  0.74846395  0.53480266  1
  S2-  S240  1  0.62651642  0.01179346  0.05161380  1
  S2-  S241  1  0.63192145  -0.00210140  0.54283520  1
  S2-  S242  1  0.62653567  0.25763627  0.04992177  1
  S2-  S243  1  0.63294578  0.24646992  0.55083295  1
  S2-  S244  1  0.62703311  0.50848062  0.04805286  1
  S2-  S245  1  0.63114597  0.49914706  0.54940783  1
  S2-  S246  1  0.62668120  0.76025658  0.06792510  1
  S2-  S247  1  0.63206157  0.74959088  0.53667795  1
  S2-  S248  1  0.88040297  0.00989005  0.04031361  1
  S2-  S249  1  0.88050772  -0.00110573  0.53594199  1
  S2-  S250  1  0.87423918  0.26026135  0.04247996  1
  S2-  S251  1  0.88185612  0.24771923  0.54891010  1
  S2-  S252  1  0.87459778  0.50843235  0.04074551  1
  S2-  S253  1  0.88157291  0.49892799  0.55025453  1
  S2-  S254  1  0.87693453  0.75514516  0.05123072  1
  S2-  S255  1  0.88154020  0.74667519  0.54829402  1
