# generated using pymatgen
data_La6Ce7Pr13Nd19Sm19(BiS2)64
_symmetry_space_group_name_H-M   'P 1'
_cell_length_a   16.08302395
_cell_length_b   16.09174538
_cell_length_c   27.39927683
_cell_angle_alpha   90.23403487
_cell_angle_beta   90.10303867
_cell_angle_gamma   89.94471972
_symmetry_Int_Tables_number   1
_chemical_formula_structural   La6Ce7Pr13Nd19Sm19(BiS2)64
_chemical_formula_sum   'La6 Ce7 Pr13 Nd19 Sm19 Bi64 S128'
_cell_volume   7090.96655254
_cell_formula_units_Z   1
loop_
 _symmetry_equiv_pos_site_id
 _symmetry_equiv_pos_as_xyz
  1  'x, y, z'
loop_
 _atom_type_symbol
 _atom_type_oxidation_number
  La3+  3.0
  Ce3+  3.0
  Pr3+  3.0
  Nd3+  3.0
  Sm3+  3.0
  Bi2+  2.0
  S2-  -2.0
loop_
 _atom_site_type_symbol
 _atom_site_label
 _atom_site_symmetry_multiplicity
 _atom_site_fract_x
 _atom_site_fract_y
 _atom_site_fract_z
 _atom_site_occupancy
  La3+  La0  1  0.36785550  0.24801618  0.92620886  1
  La3+  La1  1  -0.01629033  0.38638099  0.11658959  1
  La3+  La2  1  0.61638102  0.74873412  0.39361229  1
  La3+  La3  1  0.49241119  0.87282738  0.10292633  1
  La3+  La4  1  0.87694719  0.75283484  0.89057784  1
  La3+  La5  1  -0.00213143  0.63203496  0.06418469  1
  Ce3+  Ce6  1  0.25293513  0.87353850  0.05279404  1
  Ce3+  Ce7  1  0.00049214  0.62829395  0.56968684  1
  Ce3+  Ce8  1  0.86459983  0.74263922  0.44868570  1
  Ce3+  Ce9  1  0.49820794  0.12482068  0.05674673  1
  Ce3+  Ce10  1  0.87208951  0.24644322  0.44249467  1
  Ce3+  Ce11  1  0.12349570  0.24916396  0.93744770  1
  Ce3+  Ce12  1  0.74953375  0.62584149  0.05015158  1
  Pr3+  Pr13  1  0.36976520  0.24759937  0.43426129  1
  Pr3+  Pr14  1  0.37635476  0.74584686  0.93142655  1
  Pr3+  Pr15  1  0.11902701  -0.00469018  0.94178442  1
  Pr3+  Pr16  1  0.74831237  0.37579581  0.06063689  1
  Pr3+  Pr17  1  0.49769525  0.62244732  0.56399254  1
  Pr3+  Pr18  1  0.49637282  0.87027983  0.56182082  1
  Pr3+  Pr19  1  0.11663009  -0.00709792  0.43412088  1
  Pr3+  Pr20  1  0.37364157  -0.00613833  0.42796783  1
  Pr3+  Pr21  1  0.73967553  0.36602254  0.57020612  1
  Pr3+  Pr22  1  0.50350522  0.61775042  0.05952560  1
  Pr3+  Pr23  1  0.62258852  0.49618191  0.92688456  1
  Pr3+  Pr24  1  0.24485772  0.62234264  0.55695231  1
  Pr3+  Pr25  1  0.00798292  0.12569980  0.59084140  1
  Nd3+  Nd26  1  0.62152775  0.74399298  0.92926281  1
  Nd3+  Nd27  1  0.12184191  0.24303721  0.43852638  1
  Nd3+  Nd28  1  0.74810151  0.61237920  0.57192196  1
  Nd3+  Nd29  1  0.86959463  0.49464675  0.44508884  1
  Nd3+  Nd30  1  0.74642984  0.12265229  0.55720352  1
  Nd3+  Nd31  1  0.00046565  0.87390918  0.56945015  1
  Nd3+  Nd32  1  0.87136103  -0.00580271  0.44982500  1
  Nd3+  Nd33  1  0.37585328  -0.00458645  0.93877017  1
  Nd3+  Nd34  1  0.87542740  0.49579535  0.93477749  1
  Nd3+  Nd35  1  0.62461110  -0.00561413  0.93652689  1
  Nd3+  Nd36  1  0.25176112  0.12485973  0.05887434  1
  Nd3+  Nd37  1  0.11674798  0.74098147  0.43317004  1
  Nd3+  Nd38  1  -0.00319707  0.87813925  0.06660212  1
  Nd3+  Nd39  1  -0.00095395  0.13143466  0.06124805  1
  Nd3+  Nd40  1  0.11947301  0.74577943  0.93966245  1
  Nd3+  Nd41  1  0.62085287  0.49193734  0.43945085  1
  Nd3+  Nd42  1  0.24852313  0.36748856  0.56874427  1
  Nd3+  Nd43  1  0.61934633  0.25067105  0.92372614  1
  Nd3+  Nd44  1  0.74518313  0.87141333  0.57108515  1
  Sm3+  Sm45  1  0.37140261  0.49697803  0.94574883  1
  Sm3+  Sm46  1  0.25650936  0.11647810  0.56254048  1
  Sm3+  Sm47  1  0.37420897  0.74359312  0.44359177  1
  Sm3+  Sm48  1  0.12016438  0.49572844  0.44904344  1
  Sm3+  Sm49  1  0.87393900  0.25310784  0.93842505  1
  Sm3+  Sm50  1  0.49338052  0.12033597  0.55040038  1
  Sm3+  Sm51  1  0.62315734  -0.00821175  0.44637961  1
  Sm3+  Sm52  1  0.74619577  0.12765722  0.05027747  1
  Sm3+  Sm53  1  0.25165029  0.62625947  0.05818959  1
  Sm3+  Sm54  1  -0.00362525  0.36811809  0.56399906  1
  Sm3+  Sm55  1  0.24494023  0.87467524  0.54802718  1
  Sm3+  Sm56  1  0.87209638  -0.00612133  0.94621516  1
  Sm3+  Sm57  1  0.11860417  0.49749025  0.95013653  1
  Sm3+  Sm58  1  0.49148348  0.36935957  0.56563161  1
  Sm3+  Sm59  1  0.24264917  0.37197369  0.06335742  1
  Sm3+  Sm60  1  0.74172800  0.87457722  0.05618468  1
  Sm3+  Sm61  1  0.62278931  0.24779821  0.43498954  1
  Sm3+  Sm62  1  0.37400824  0.49603445  0.44531060  1
  Sm3+  Sm63  1  0.49801707  0.37387008  0.05827655  1
  Bi2+  Bi64  1  -0.00571359  0.07041941  0.28309489  1
  Bi2+  Bi65  1  0.01848710  0.17522668  0.78593815  1
  Bi2+  Bi66  1  -0.00024817  0.39775480  0.31976815  1
  Bi2+  Bi67  1  0.02507505  0.36684613  0.80394200  1
  Bi2+  Bi68  1  0.02308539  0.65298619  0.31231421  1
  Bi2+  Bi69  1  0.03342626  0.59784017  0.79194785  1
  Bi2+  Bi70  1  0.02495501  0.85096173  0.32790322  1
  Bi2+  Bi71  1  0.01075269  0.88673439  0.78894653  1
  Bi2+  Bi72  1  0.23659867  0.17134192  0.29742291  1
  Bi2+  Bi73  1  0.21063402  0.10606520  0.79507111  1
  Bi2+  Bi74  1  0.25345413  0.36149668  0.23556718  1
  Bi2+  Bi75  1  0.27856392  0.36189653  0.78551659  1
  Bi2+  Bi76  1  0.27485446  0.58036248  0.25668280  1
  Bi2+  Bi77  1  0.28257313  0.67039669  0.81536720  1
  Bi2+  Bi78  1  0.25730367  0.94717928  0.24216014  1
  Bi2+  Bi79  1  0.27262122  0.85334522  0.77871133  1
  Bi2+  Bi80  1  0.52349842  0.13340595  0.28124013  1
  Bi2+  Bi81  1  0.46006741  0.12585170  0.77402589  1
  Bi2+  Bi82  1  0.48073120  0.36522368  0.29778840  1
  Bi2+  Bi83  1  0.50209401  0.37328275  0.78990647  1
  Bi2+  Bi84  1  0.49521816  0.61151985  0.29407647  1
  Bi2+  Bi85  1  0.47275603  0.61721151  0.79274084  1
  Bi2+  Bi86  1  0.48890432  0.88736648  0.29948367  1
  Bi2+  Bi87  1  0.46726284  0.89480808  0.80060228  1
  Bi2+  Bi88  1  0.71379561  0.13895987  0.30908897  1
  Bi2+  Bi89  1  0.73882230  0.17297028  0.80317191  1
  Bi2+  Bi90  1  0.73025245  0.33056471  0.28578734  1
  Bi2+  Bi91  1  0.77031302  0.36392285  0.78086987  1
  Bi2+  Bi92  1  0.76602109  0.61140717  0.29429431  1
  Bi2+  Bi93  1  0.75089377  0.62544071  0.78546780  1
  Bi2+  Bi94  1  0.75664848  0.94360213  0.28609443  1
  Bi2+  Bi95  1  0.75050337  0.89007047  0.78559937  1
  Bi2+  Bi96  1  0.08022187  -0.03257207  0.18933241  1
  Bi2+  Bi97  1  0.15927803  -0.00218896  0.70554508  1
  Bi2+  Bi98  1  0.11545763  0.22112620  0.21446080  1
  Bi2+  Bi99  1  0.14061015  0.28451797  0.70159996  1
  Bi2+  Bi100  1  0.10652854  0.53207126  0.21234255  1
  Bi2+  Bi101  1  0.14292188  0.47940767  0.71479162  1
  Bi2+  Bi102  1  0.13263504  0.79061879  0.23580554  1
  Bi2+  Bi103  1  0.15160171  0.70977734  0.72765357  1
  Bi2+  Bi104  1  0.36315238  0.10250973  0.20649792  1
  Bi2+  Bi105  1  0.38952466  -0.02041276  0.69915876  1
  Bi2+  Bi106  1  0.39498601  0.28228227  0.16059871  1
  Bi2+  Bi107  1  0.33672293  0.23098203  0.70605110  1
  Bi2+  Bi108  1  0.40219142  0.47724382  0.19683468  1
  Bi2+  Bi109  1  0.33556992  0.49359020  0.70882419  1
  Bi2+  Bi110  1  0.35584945  0.74352300  0.20462072  1
  Bi2+  Bi111  1  0.38310522  0.72569489  0.71298413  1
  Bi2+  Bi112  1  0.63581868  0.03126179  0.20426380  1
  Bi2+  Bi113  1  0.63697711  0.05366336  0.73256245  1
  Bi2+  Bi114  1  0.58346406  0.26923206  0.20237400  1
  Bi2+  Bi115  1  0.60455028  0.24742337  0.72360244  1
  Bi2+  Bi116  1  0.61352030  0.45849395  0.22516680  1
  Bi2+  Bi117  1  0.63091087  0.50193911  0.69223923  1
  Bi2+  Bi118  1  0.63718953  0.73173288  0.19134192  1
  Bi2+  Bi119  1  0.62076685  0.77670520  0.70089000  1
  Bi2+  Bi120  1  0.88730499  -0.03683806  0.20175015  1
  Bi2+  Bi121  1  0.92013193  0.03253222  0.73175844  1
  Bi2+  Bi122  1  0.85250123  0.15863514  0.22139201  1
  Bi2+  Bi123  1  0.85392822  0.21207811  0.70782451  1
  Bi2+  Bi124  1  0.83923954  0.50694226  0.20892961  1
  Bi2+  Bi125  1  0.91342852  0.45243986  0.72174939  1
  Bi2+  Bi126  1  0.87928532  0.76956747  0.26499441  1
  Bi2+  Bi127  1  0.88774346  0.73178992  0.68420592  1
  S2-  S128  1  -0.01426249  0.21386903  0.14872164  1
  S2-  S129  1  0.00346585  -0.01837371  0.64985582  1
  S2-  S130  1  -0.01727705  0.40806269  0.22482421  1
  S2-  S131  1  -0.01145319  0.27520166  0.64672880  1
  S2-  S132  1  -0.02240134  0.56698855  0.15552213  1
  S2-  S133  1  -0.04064297  0.57572360  0.65940935  1
  S2-  S134  1  0.03189332  0.80266621  0.15344546  1
  S2-  S135  1  0.03678735  0.76158306  0.64495383  1
  S2-  S136  1  0.20704884  0.11904043  0.15548379  1
  S2-  S137  1  0.16167810  0.12845705  0.64386233  1
  S2-  S138  1  0.15665975  0.37573508  0.14918777  1
  S2-  S139  1  0.37136801  0.36700762  0.64115964  1
  S2-  S140  1  0.23155534  0.62967904  0.15628507  1
  S2-  S141  1  0.26201313  0.63884763  0.65599033  1
  S2-  S142  1  0.30500871  0.87715935  0.14495888  1
  S2-  S143  1  0.26334597  0.90519630  0.64366164  1
  S2-  S144  1  0.49589065  0.04331264  0.14299420  1
  S2-  S145  1  0.39830102  0.11319697  0.63217032  1
  S2-  S146  1  0.53559894  0.48484821  0.13283606  1
  S2-  S147  1  0.60043571  0.35594988  0.64160297  1
  S2-  S148  1  0.48058892  0.70366357  0.14538681  1
  S2-  S149  1  0.51002454  0.61886730  0.66441578  1
  S2-  S150  1  0.47860017  0.86317056  0.20795701  1
  S2-  S151  1  0.53270316  0.88859857  0.65980847  1
  S2-  S152  1  0.73568446  0.13507173  0.14879302  1
  S2-  S153  1  0.72791969  0.12010248  0.65474285  1
  S2-  S154  1  0.81668081  0.37624162  0.15265557  1
  S2-  S155  1  0.77496501  0.45537955  0.65502715  1
  S2-  S156  1  0.73507535  0.61528553  0.14863544  1
  S2-  S157  1  0.72823522  0.64738630  0.67169877  1
  S2-  S158  1  0.66424509  0.88035047  0.14383617  1
  S2-  S159  1  0.76186319  0.86307361  0.67055640  1
  S2-  S160  1  0.13726646  0.05105251  0.33993095  1
  S2-  S161  1  0.11504485  -0.01709579  0.84224555  1
  S2-  S162  1  0.12602250  0.29000112  0.34323567  1
  S2-  S163  1  0.23008614  0.24932452  0.85728333  1
  S2-  S164  1  0.11324172  0.52361057  0.35265059  1
  S2-  S165  1  0.12053263  0.49426278  0.85127877  1
  S2-  S166  1  0.17341734  0.75672809  0.33958381  1
  S2-  S167  1  0.04382790  0.75322783  0.85104284  1
  S2-  S168  1  0.35384895  -0.03098874  0.32931389  1
  S2-  S169  1  0.35883476  0.03545707  0.84214344  1
  S2-  S170  1  0.39420064  0.22301122  0.33682398  1
  S2-  S171  1  0.48706597  0.23941521  0.85266463  1
  S2-  S172  1  0.39849612  0.48728746  0.34889972  1
  S2-  S173  1  0.40881893  0.47684704  0.85097484  1
  S2-  S174  1  0.43786759  0.74197547  0.35357687  1
  S2-  S175  1  0.49304851  0.75955494  0.85390094  1
  S2-  S176  1  0.63168979  -0.08105514  0.35891441  1
  S2-  S177  1  0.61672355  -0.03127305  0.83692976  1
  S2-  S178  1  0.62189278  0.36411232  0.36302756  1
  S2-  S179  1  0.63904501  0.37680206  0.85142432  1
  S2-  S180  1  0.62350640  0.58260294  0.35497502  1
  S2-  S181  1  0.62228814  0.58882642  0.83910272  1
  S2-  S182  1  0.60722270  0.74292768  0.28487687  1
  S2-  S183  1  0.71726814  0.76689786  0.84501260  1
  S2-  S184  1  0.89122090  -0.01897016  0.35151391  1
  S2-  S185  1  0.87561880  -0.06555648  0.85470598  1
  S2-  S186  1  0.87414214  0.29313456  0.34878161  1
  S2-  S187  1  0.87945159  0.36704072  0.86191840  1
  S2-  S188  1  0.87568241  0.52167680  0.34614504  1
  S2-  S189  1  0.87702830  0.58873132  0.84675252  1
  S2-  S190  1  0.78934179  0.74508621  0.36116937  1
  S2-  S191  1  0.87581581  0.76657991  0.77703403  1
  S2-  S192  1  -0.00442074  0.12163906  0.44847349  1
  S2-  S193  1  -0.00650051  0.12315864  0.95173386  1
  S2-  S194  1  -0.00059995  0.37080722  0.45957392  1
  S2-  S195  1  0.00325920  0.37066527  0.95624966  1
  S2-  S196  1  -0.00441127  0.61926373  0.46088241  1
  S2-  S197  1  -0.00288571  0.62329768  0.95648385  1
  S2-  S198  1  -0.00573991  0.86757229  0.46145129  1
  S2-  S199  1  -0.00595503  0.87011776  0.96046838  1
  S2-  S200  1  0.24822356  0.11844186  0.45231999  1
  S2-  S201  1  0.24679960  0.11785399  0.95412515  1
  S2-  S202  1  0.24648733  0.37392187  0.45741636  1
  S2-  S203  1  0.24590761  0.37766487  0.95799483  1
  S2-  S204  1  0.24831106  0.61949260  0.45055105  1
  S2-  S205  1  0.24675918  0.62128848  0.95370339  1
  S2-  S206  1  0.24783151  0.86824007  0.44456672  1
  S2-  S207  1  0.24776029  0.87064186  0.94531584  1
  S2-  S208  1  0.50027214  0.12045566  0.44572791  1
  S2-  S209  1  0.50022389  0.12030947  0.95076840  1
  S2-  S210  1  0.49311692  0.36864654  0.46075176  1
  S2-  S211  1  0.49525352  0.37319702  0.95615012  1
  S2-  S212  1  0.49511635  0.62100081  0.45821113  1
  S2-  S213  1  0.49550883  0.61812899  0.95312198  1
  S2-  S214  1  0.49809004  0.86826969  0.45550959  1
  S2-  S215  1  0.50006031  0.87530307  0.95059767  1
  S2-  S216  1  0.74380553  0.12020939  0.45131432  1
  S2-  S217  1  0.75076831  0.12454161  0.94607432  1
  S2-  S218  1  0.74723740  0.36810015  0.46246499  1
  S2-  S219  1  0.74646768  0.36751482  0.95518769  1
  S2-  S220  1  0.74528447  0.61545025  0.46447597  1
  S2-  S221  1  0.75286732  0.62476665  0.94729962  1
  S2-  S222  1  0.74588470  0.87280922  0.46495601  1
  S2-  S223  1  0.74986847  0.87191291  0.95378564  1
  S2-  S224  1  0.12332916  0.00063948  0.04769478  1
  S2-  S225  1  0.12449405  -0.00073349  0.54057693  1
  S2-  S226  1  0.12701203  0.24581294  0.04281997  1
  S2-  S227  1  0.12528075  0.24608211  0.54477631  1
  S2-  S228  1  0.12627732  0.50392018  0.05203894  1
  S2-  S229  1  0.12188546  0.49161671  0.55457720  1
  S2-  S230  1  0.12874055  0.75095306  0.04528010  1
  S2-  S231  1  0.12666211  0.75001364  0.53935348  1
  S2-  S232  1  0.37570914  -0.00238348  0.04359112  1
  S2-  S233  1  0.37324188  -0.00722668  0.53420082  1
  S2-  S234  1  0.37173290  0.25147045  0.03770206  1
  S2-  S235  1  0.37036707  0.24530136  0.53910993  1
  S2-  S236  1  0.36792747  0.49584401  0.04924095  1
  S2-  S237  1  0.37047407  0.49771212  0.54845719  1
  S2-  S238  1  0.37443001  0.74787973  0.03910114  1
  S2-  S239  1  0.36918197  0.74851559  0.54832151  1
  S2-  S240  1  0.62575903  0.00378233  0.04071657  1
  S2-  S241  1  0.61934318  -0.00066909  0.55078963  1
  S2-  S242  1  0.62139069  0.25087924  0.04093865  1
  S2-  S243  1  0.61580758  0.24081168  0.53947107  1
  S2-  S244  1  0.62844215  0.49708870  0.03279114  1
  S2-  S245  1  0.61783399  0.49485242  0.54709765  1
  S2-  S246  1  0.62271751  0.74938652  0.03982680  1
  S2-  S247  1  0.62436336  0.74541591  0.55984019  1
  S2-  S248  1  0.87079164  0.00307120  0.05060491  1
  S2-  S249  1  0.87183313  0.00061239  0.55441906  1
  S2-  S250  1  0.87114833  0.24833196  0.04134811  1
  S2-  S251  1  0.87244331  0.24353843  0.54815681  1
  S2-  S252  1  0.87616591  0.49725443  0.04475498  1
  S2-  S253  1  0.87580938  0.49131912  0.54937809  1
  S2-  S254  1  0.86911008  0.75682096  0.05994065  1
  S2-  S255  1  0.86797506  0.74616704  0.55446542  1
