# generated using pymatgen
data_La6Ce7Pr13Nd19Sm19(BiS2)64
_symmetry_space_group_name_H-M   'P 1'
_cell_length_a   16.13865807
_cell_length_b   16.10903595
_cell_length_c   27.16306045
_cell_angle_alpha   90.09784347
_cell_angle_beta   90.02342583
_cell_angle_gamma   90.04244323
_symmetry_Int_Tables_number   1
_chemical_formula_structural   La6Ce7Pr13Nd19Sm19(BiS2)64
_chemical_formula_sum   'La6 Ce7 Pr13 Nd19 Sm19 Bi64 S128'
_cell_volume   7061.79135711
_cell_formula_units_Z   1
loop_
 _symmetry_equiv_pos_site_id
 _symmetry_equiv_pos_as_xyz
  1  'x, y, z'
loop_
 _atom_type_symbol
 _atom_type_oxidation_number
  La3+  3.0
  Ce3+  3.0
  Pr3+  3.0
  Nd3+  3.0
  Sm3+  3.0
  Bi2+  2.0
  S2-  -2.0
loop_
 _atom_site_type_symbol
 _atom_site_label
 _atom_site_symmetry_multiplicity
 _atom_site_fract_x
 _atom_site_fract_y
 _atom_site_fract_z
 _atom_site_occupancy
  La3+  La0  1  0.74055007  0.62216156  0.59027921  1
  La3+  La1  1  0.36771433  -0.01553952  0.91095950  1
  La3+  La2  1  0.24784358  0.11435797  0.60186765  1
  La3+  La3  1  0.24241512  0.62349090  0.11366375  1
  La3+  La4  1  0.61659679  0.00197213  0.41904872  1
  La3+  La5  1  0.63377721  -0.00780272  0.91093388  1
  Ce3+  Ce6  1  0.12096892  -0.00203774  0.43888828  1
  Ce3+  Ce7  1  0.87049273  0.74230705  0.43797414  1
  Ce3+  Ce8  1  0.50313188  0.11242664  0.04628740  1
  Ce3+  Ce9  1  -0.00203632  0.37361805  0.56196540  1
  Ce3+  Ce10  1  0.87795976  -0.00681743  0.93361483  1
  Ce3+  Ce11  1  0.49150189  0.37131112  0.56049210  1
  Ce3+  Ce12  1  0.37056024  0.24520183  0.44772451  1
  Pr3+  Pr13  1  0.36957488  -0.00291915  0.44132931  1
  Pr3+  Pr14  1  0.37647776  0.73686073  0.93469297  1
  Pr3+  Pr15  1  0.37704301  0.49532598  0.93760851  1
  Pr3+  Pr16  1  0.11542340  0.74705276  0.41846912  1
  Pr3+  Pr17  1  0.11248106  0.48199518  0.41162714  1
  Pr3+  Pr18  1  0.86976442  0.24755328  0.44737787  1
  Pr3+  Pr19  1  0.00310432  0.86823582  0.05874417  1
  Pr3+  Pr20  1  0.24748559  0.62454877  0.55439693  1
  Pr3+  Pr21  1  -0.00333919  0.12298011  0.56924619  1
  Pr3+  Pr22  1  0.12805439  0.73785951  0.94334285  1
  Pr3+  Pr23  1  0.87046451  -0.00290060  0.44574115  1
  Pr3+  Pr24  1  0.49916800  0.61957123  0.06877434  1
  Pr3+  Pr25  1  0.37664198  0.49648373  0.42461649  1
  Nd3+  Nd26  1  0.62678698  0.24131570  0.93852245  1
  Nd3+  Nd27  1  0.25750805  0.87197057  0.06555276  1
  Nd3+  Nd28  1  0.49950172  0.87746169  0.56057130  1
  Nd3+  Nd29  1  0.62246886  0.50000478  0.44183930  1
  Nd3+  Nd30  1  0.37667561  0.24065487  0.93932921  1
  Nd3+  Nd31  1  0.50240393  0.36900963  0.05445893  1
  Nd3+  Nd32  1  0.25436436  0.37220837  0.06516910  1
  Nd3+  Nd33  1  0.00279538  0.11709127  0.05822949  1
  Nd3+  Nd34  1  0.87670775  0.73857743  0.94453841  1
  Nd3+  Nd35  1  0.00227026  0.61732451  0.06472644  1
  Nd3+  Nd36  1  0.12451590  -0.00963729  0.93415990  1
  Nd3+  Nd37  1  0.86674828  0.49851319  0.44075319  1
  Nd3+  Nd38  1  0.48858897  0.62397615  0.56629939  1
  Nd3+  Nd39  1  0.62795801  0.73318742  0.92613786  1
  Nd3+  Nd40  1  0.50582915  0.12134661  0.56782535  1
  Nd3+  Nd41  1  0.12259272  0.24605255  0.44653531  1
  Nd3+  Nd42  1  0.74262510  0.37562012  0.56714282  1
  Nd3+  Nd43  1  0.62364953  0.74290874  0.43963421  1
  Nd3+  Nd44  1  -0.00180265  0.62394834  0.55368927  1
  Sm3+  Sm45  1  0.24499668  0.87714269  0.55585971  1
  Sm3+  Sm46  1  0.75002260  0.11488721  0.05532029  1
  Sm3+  Sm47  1  0.74683372  0.61933969  0.06643385  1
  Sm3+  Sm48  1  -0.00239283  0.87215186  0.55470121  1
  Sm3+  Sm49  1  0.74965945  0.86907827  0.04800196  1
  Sm3+  Sm50  1  0.63110215  0.49407063  0.93701494  1
  Sm3+  Sm51  1  0.61872621  0.24773853  0.43837003  1
  Sm3+  Sm52  1  0.25549077  0.11409150  0.05752356  1
  Sm3+  Sm53  1  0.74448930  0.87079941  0.55174684  1
  Sm3+  Sm54  1  0.87717163  0.49161192  0.94453980  1
  Sm3+  Sm55  1  0.75181758  0.36774580  0.05258125  1
  Sm3+  Sm56  1  0.50407132  0.86854710  0.04490961  1
  Sm3+  Sm57  1  0.74433684  0.12053169  0.55950756  1
  Sm3+  Sm58  1  0.12688016  0.24232822  0.94847460  1
  Sm3+  Sm59  1  0.87816179  0.24286865  0.94755510  1
  Sm3+  Sm60  1  0.00245573  0.36735179  0.06301960  1
  Sm3+  Sm61  1  0.12733313  0.49133247  0.94737148  1
  Sm3+  Sm62  1  0.37356055  0.74819005  0.43764908  1
  Sm3+  Sm63  1  0.24735808  0.37348451  0.55534298  1
  Bi2+  Bi64  1  0.01478035  0.12462399  0.26593135  1
  Bi2+  Bi65  1  0.01863476  0.13423679  0.80474443  1
  Bi2+  Bi66  1  -0.01762445  0.33885994  0.29301443  1
  Bi2+  Bi67  1  -0.04331234  0.35543968  0.79889683  1
  Bi2+  Bi68  1  -0.07488434  0.61165540  0.29542779  1
  Bi2+  Bi69  1  0.02026925  0.63841095  0.80291755  1
  Bi2+  Bi70  1  -0.05975413  0.88442550  0.28458614  1
  Bi2+  Bi71  1  -0.00799315  0.94258200  0.80452560  1
  Bi2+  Bi72  1  0.21903767  0.12878442  0.26766041  1
  Bi2+  Bi73  1  0.25725133  0.14562248  0.80481263  1
  Bi2+  Bi74  1  0.25291931  0.32080881  0.28793757  1
  Bi2+  Bi75  1  0.22305999  0.38789514  0.75585564  1
  Bi2+  Bi76  1  0.28079530  0.63196365  0.31420694  1
  Bi2+  Bi77  1  0.23356137  0.61125129  0.80700518  1
  Bi2+  Bi78  1  0.25685574  0.90317603  0.30122470  1
  Bi2+  Bi79  1  0.24326485  0.85184496  0.78379979  1
  Bi2+  Bi80  1  0.48347666  0.13744905  0.28962945  1
  Bi2+  Bi81  1  0.51335088  0.15814417  0.79546371  1
  Bi2+  Bi82  1  0.52687828  0.36507732  0.30973100  1
  Bi2+  Bi83  1  0.49202713  0.40829276  0.77447960  1
  Bi2+  Bi84  1  0.57690699  0.62068287  0.28292753  1
  Bi2+  Bi85  1  0.50128517  0.60781436  0.78330055  1
  Bi2+  Bi86  1  0.50181127  0.87807104  0.29084685  1
  Bi2+  Bi87  1  0.51432490  0.82299429  0.78446745  1
  Bi2+  Bi88  1  0.79568705  0.12550755  0.28446427  1
  Bi2+  Bi89  1  0.76605307  0.14036552  0.78538166  1
  Bi2+  Bi90  1  0.72069763  0.42356996  0.31330231  1
  Bi2+  Bi91  1  0.77051984  0.40223990  0.77752062  1
  Bi2+  Bi92  1  0.74613323  0.62009795  0.35378563  1
  Bi2+  Bi93  1  0.75652977  0.65589317  0.80051263  1
  Bi2+  Bi94  1  0.75987834  0.81713636  0.29345615  1
  Bi2+  Bi95  1  0.80800658  0.90884651  0.76549076  1
  Bi2+  Bi96  1  0.10743761  -0.00366333  0.19873269  1
  Bi2+  Bi97  1  0.11376078  -0.01932640  0.71484220  1
  Bi2+  Bi98  1  0.10496635  0.25530534  0.19789313  1
  Bi2+  Bi99  1  0.08114413  0.26429315  0.72281221  1
  Bi2+  Bi100  1  0.12063257  0.49663973  0.22285801  1
  Bi2+  Bi101  1  0.13694279  0.54065937  0.70623457  1
  Bi2+  Bi102  1  0.11808761  0.75246331  0.21872619  1
  Bi2+  Bi103  1  0.11730520  0.73080009  0.69850773  1
  Bi2+  Bi104  1  0.37532195  0.04310075  0.20602236  1
  Bi2+  Bi105  1  0.37950104  -0.00349830  0.70988681  1
  Bi2+  Bi106  1  0.35728830  0.23785046  0.20494285  1
  Bi2+  Bi107  1  0.39628620  0.27117038  0.70244071  1
  Bi2+  Bi108  1  0.38921400  0.47866280  0.21353136  1
  Bi2+  Bi109  1  0.36273158  0.51198219  0.71343936  1
  Bi2+  Bi110  1  0.40913903  0.77972810  0.20495868  1
  Bi2+  Bi111  1  0.34402173  0.72158133  0.72481368  1
  Bi2+  Bi112  1  0.61791228  0.00628350  0.18709552  1
  Bi2+  Bi113  1  0.63365832  0.00003395  0.71019587  1
  Bi2+  Bi114  1  0.64350451  0.24758189  0.25449502  1
  Bi2+  Bi115  1  0.69972824  0.26111942  0.70330458  1
  Bi2+  Bi116  1  0.62539534  0.47583702  0.20998618  1
  Bi2+  Bi117  1  0.63511683  0.48964243  0.71083591  1
  Bi2+  Bi118  1  0.65339435  0.74747234  0.20582978  1
  Bi2+  Bi119  1  0.62339345  0.76843090  0.69677129  1
  Bi2+  Bi120  1  0.82801926  -0.01836428  0.20950006  1
  Bi2+  Bi121  1  0.89851729  0.05276212  0.70754795  1
  Bi2+  Bi122  1  0.83075509  0.29896344  0.22341137  1
  Bi2+  Bi123  1  0.88809663  0.24554228  0.68856738  1
  Bi2+  Bi124  1  0.82319142  0.50963762  0.21515429  1
  Bi2+  Bi125  1  0.93883584  0.50930383  0.72951863  1
  Bi2+  Bi126  1  0.84757428  0.70456028  0.20582423  1
  Bi2+  Bi127  1  0.92471240  0.77308240  0.71773888  1
  S2-  S128  1  0.00035636  0.12225787  0.15727731  1
  S2-  S129  1  0.09287251  0.11543337  0.65329910  1
  S2-  S130  1  0.01728264  0.38886643  0.16052339  1
  S2-  S131  1  -0.00136856  0.38175303  0.65903927  1
  S2-  S132  1  0.06906742  0.62172183  0.15640391  1
  S2-  S133  1  -0.01367202  0.62693732  0.65323777  1
  S2-  S134  1  0.02400236  0.86883500  0.15897629  1
  S2-  S135  1  0.02693233  0.86740227  0.65140736  1
  S2-  S136  1  0.25591262  0.00883402  0.13553658  1
  S2-  S137  1  0.27880562  0.14423581  0.70564480  1
  S2-  S138  1  0.24981206  0.45358252  0.15448129  1
  S2-  S139  1  0.26848968  0.36338816  0.65301014  1
  S2-  S140  1  0.22917367  0.62558999  0.22185652  1
  S2-  S141  1  0.35494420  0.62778499  0.63515153  1
  S2-  S142  1  0.25296974  0.78871152  0.15516005  1
  S2-  S143  1  0.24912564  0.94910206  0.64628929  1
  S2-  S144  1  0.51140660  0.10908391  0.14491657  1
  S2-  S145  1  0.45150098  0.12068656  0.66303856  1
  S2-  S146  1  0.48914766  0.40382335  0.15252222  1
  S2-  S147  1  0.52752623  0.36801354  0.65565859  1
  S2-  S148  1  0.40665894  0.62109858  0.15626307  1
  S2-  S149  1  0.58537042  0.62942686  0.64962408  1
  S2-  S150  1  0.49252267  0.87500425  0.14584399  1
  S2-  S151  1  0.48147831  0.88230770  0.66066523  1
  S2-  S152  1  0.73615899  0.10588590  0.15351492  1
  S2-  S153  1  0.65047372  0.11927221  0.64165568  1
  S2-  S154  1  0.74002515  0.37657689  0.14954142  1
  S2-  S155  1  0.76426105  0.47631230  0.64722276  1
  S2-  S156  1  0.63087442  0.62049193  0.13851471  1
  S2-  S157  1  0.77671852  0.69994316  0.68412152  1
  S2-  S158  1  0.72732618  0.88398855  0.14522134  1
  S2-  S159  1  0.70819622  0.90187158  0.64697258  1
  S2-  S160  1  0.12826239  -0.03004188  0.34283039  1
  S2-  S161  1  0.21172344  -0.00526630  0.84942282  1
  S2-  S162  1  0.12049272  0.32266302  0.35599843  1
  S2-  S163  1  0.13243937  0.24465092  0.85117014  1
  S2-  S164  1  0.13810735  0.55172060  0.31965683  1
  S2-  S165  1  0.10875528  0.50766698  0.84975604  1
  S2-  S166  1  0.16354122  0.76401919  0.31888920  1
  S2-  S167  1  0.13519623  0.75716405  0.84241845  1
  S2-  S168  1  0.40295422  0.00001355  0.34195493  1
  S2-  S169  1  0.39033261  0.04767414  0.81319734  1
  S2-  S170  1  0.39727378  0.25530533  0.35116714  1
  S2-  S171  1  0.38080988  0.25349906  0.84030795  1
  S2-  S172  1  0.33338023  0.47116572  0.32262527  1
  S2-  S173  1  0.37920977  0.60830545  0.86005501  1
  S2-  S174  1  0.36247112  0.78444301  0.34090915  1
  S2-  S175  1  0.37491584  0.83687516  0.84964797  1
  S2-  S176  1  0.64160174  -0.06061789  0.32310129  1
  S2-  S177  1  0.57795358  0.00437394  0.81303340  1
  S2-  S178  1  0.61441774  0.14759323  0.35816131  1
  S2-  S179  1  0.64189004  0.23227687  0.84002147  1
  S2-  S180  1  0.51997367  0.51279321  0.35984170  1
  S2-  S181  1  0.62495720  0.59574065  0.85842823  1
  S2-  S182  1  0.55212063  0.74747637  0.34858239  1
  S2-  S183  1  0.65530125  0.79679869  0.83159900  1
  S2-  S184  1  0.87806521  0.00626137  0.34570823  1
  S2-  S185  1  0.78245550  0.00160581  0.85133987  1
  S2-  S186  1  0.86745208  0.24679716  0.34738246  1
  S2-  S187  1  0.88125924  0.22492853  0.84965032  1
  S2-  S188  1  0.95735839  0.47433219  0.35587889  1
  S2-  S189  1  0.82268367  0.51664308  0.85221331  1
  S2-  S190  1  0.96679285  0.75376552  0.35525810  1
  S2-  S191  1  0.87711041  0.73184282  0.84493846  1
  S2-  S192  1  -0.00365762  0.12328930  0.45834695  1
  S2-  S193  1  0.00231800  0.11922083  0.95210768  1
  S2-  S194  1  -0.00485350  0.36996136  0.45903773  1
  S2-  S195  1  0.00132168  0.36694693  0.95691974  1
  S2-  S196  1  0.00068004  0.61685119  0.44954334  1
  S2-  S197  1  -0.00000436  0.61245353  0.95738932  1
  S2-  S198  1  -0.00351498  0.87354810  0.45201377  1
  S2-  S199  1  0.00054365  0.86524853  0.95062978  1
  S2-  S200  1  0.24479704  0.12250685  0.44253530  1
  S2-  S201  1  0.25036682  0.11903332  0.95335950  1
  S2-  S202  1  0.24739916  0.37524963  0.45047366  1
  S2-  S203  1  0.25116948  0.36745334  0.95557207  1
  S2-  S204  1  0.24563060  0.62274905  0.44557123  1
  S2-  S205  1  0.24692808  0.61242523  0.95578413  1
  S2-  S206  1  0.24441537  0.86894631  0.45051928  1
  S2-  S207  1  0.24749286  0.86610951  0.95636984  1
  S2-  S208  1  0.49496904  0.12283621  0.45957868  1
  S2-  S209  1  0.50141275  0.11473248  0.93971416  1
  S2-  S210  1  0.49761883  0.36963270  0.45497506  1
  S2-  S211  1  0.50456659  0.36995466  0.94664258  1
  S2-  S212  1  0.49318488  0.62684129  0.45926709  1
  S2-  S213  1  0.50660023  0.61436785  0.96050688  1
  S2-  S214  1  0.49638811  0.87197756  0.45241955  1
  S2-  S215  1  0.50963350  0.86721001  0.94131482  1
  S2-  S216  1  0.74524735  0.12244476  0.45571057  1
  S2-  S217  1  0.75412874  0.12129837  0.95150101  1
  S2-  S218  1  0.74263927  0.37163594  0.45813606  1
  S2-  S219  1  0.75315900  0.36705053  0.94771918  1
  S2-  S220  1  0.74578758  0.62186871  0.47025113  1
  S2-  S221  1  0.75435743  0.61436662  0.96223849  1
  S2-  S222  1  0.74563177  0.87107244  0.44681035  1
  S2-  S223  1  0.75449611  0.86328696  0.94520328  1
  S2-  S224  1  0.12567528  -0.00532542  0.04062011  1
  S2-  S225  1  0.12119997  -0.00133507  0.54503575  1
  S2-  S226  1  0.13033004  0.24230347  0.05355402  1
  S2-  S227  1  0.12715315  0.24651355  0.55291568  1
  S2-  S228  1  0.12425442  0.49100740  0.05114363  1
  S2-  S229  1  0.12451830  0.49820515  0.54786589  1
  S2-  S230  1  0.12709370  0.74142718  0.04992370  1
  S2-  S231  1  0.12323152  0.75146128  0.53941404  1
  S2-  S232  1  0.37942514  -0.00743110  0.03204550  1
  S2-  S233  1  0.37046697  0.00152912  0.54786551  1
  S2-  S234  1  0.37612476  0.24238581  0.04692582  1
  S2-  S235  1  0.36606780  0.24122431  0.55377788  1
  S2-  S236  1  0.37805112  0.49082817  0.04386393  1
  S2-  S237  1  0.36977722  0.49499158  0.53698134  1
  S2-  S238  1  0.38022136  0.74794415  0.04266550  1
  S2-  S239  1  0.36975296  0.75808633  0.54270160  1
  S2-  S240  1  0.63015081  -0.00758689  0.03106635  1
  S2-  S241  1  0.62429666  -0.00339560  0.53477768  1
  S2-  S242  1  0.62881954  0.24278271  0.04576848  1
  S2-  S243  1  0.62317936  0.24953948  0.54377315  1
  S2-  S244  1  0.62985807  0.48941883  0.04119874  1
  S2-  S245  1  0.61589395  0.49693151  0.54736600  1
  S2-  S246  1  0.62953965  0.74605248  0.03753490  1
  S2-  S247  1  0.62008141  0.75086489  0.54698731  1
  S2-  S248  1  0.87558972  -0.00632848  0.04387970  1
  S2-  S249  1  0.87034105  -0.00376152  0.55336203  1
  S2-  S250  1  0.87602235  0.24292147  0.05310587  1
  S2-  S251  1  0.86702861  0.24714691  0.55408734  1
  S2-  S252  1  0.87588682  0.49238998  0.05181260  1
  S2-  S253  1  0.87466308  0.49869677  0.54698992  1
  S2-  S254  1  0.87352887  0.74167038  0.05183502  1
  S2-  S255  1  0.87121399  0.75005226  0.54882426  1
