# generated using pymatgen
data_La6Ce7Pr13Nd19Sm19(BiS2)64
_symmetry_space_group_name_H-M   'P 1'
_cell_length_a   16.06313832
_cell_length_b   16.07940236
_cell_length_c   27.46120191
_cell_angle_alpha   90.36786185
_cell_angle_beta   89.90290058
_cell_angle_gamma   89.97971703
_symmetry_Int_Tables_number   1
_chemical_formula_structural   La6Ce7Pr13Nd19Sm19(BiS2)64
_chemical_formula_sum   'La6 Ce7 Pr13 Nd19 Sm19 Bi64 S128'
_cell_volume   7092.67793165
_cell_formula_units_Z   1
loop_
 _symmetry_equiv_pos_site_id
 _symmetry_equiv_pos_as_xyz
  1  'x, y, z'
loop_
 _atom_type_symbol
 _atom_type_oxidation_number
  La3+  3.0
  Ce3+  3.0
  Pr3+  3.0
  Nd3+  3.0
  Sm3+  3.0
  Bi2+  2.0
  S2-  -2.0
loop_
 _atom_site_type_symbol
 _atom_site_label
 _atom_site_symmetry_multiplicity
 _atom_site_fract_x
 _atom_site_fract_y
 _atom_site_fract_z
 _atom_site_occupancy
  La3+  La0  1  0.24602318  0.39003485  0.60039217  1
  La3+  La1  1  0.73170807  0.86926993  0.61689354  1
  La3+  La2  1  0.62013104  0.50848939  0.39244612  1
  La3+  La3  1  0.36584218  -0.01852345  0.93030269  1
  La3+  La4  1  0.49713391  0.38052389  0.56276321  1
  La3+  La5  1  0.10805619  0.24914438  0.88493935  1
  Ce3+  Ce6  1  0.36583141  0.48832237  0.94208914  1
  Ce3+  Ce7  1  0.24088045  0.87791356  0.56827727  1
  Ce3+  Ce8  1  0.11694089  0.74677907  0.93866534  1
  Ce3+  Ce9  1  0.74379456  0.12141903  0.55318640  1
  Ce3+  Ce10  1  0.25110938  0.12200138  0.57609598  1
  Ce3+  Ce11  1  0.87016056  0.48653422  0.93982266  1
  Ce3+  Ce12  1  0.11882029  0.75171220  0.44649576  1
  Pr3+  Pr13  1  0.62541374  0.73669236  0.93266953  1
  Pr3+  Pr14  1  0.49168289  0.87865652  0.55744583  1
  Pr3+  Pr15  1  0.24147502  0.11776165  0.05476229  1
  Pr3+  Pr16  1  0.36475845  0.25226548  0.44054162  1
  Pr3+  Pr17  1  0.61751106  0.75842158  0.43020135  1
  Pr3+  Pr18  1  0.74208859  0.62926531  0.55263580  1
  Pr3+  Pr19  1  0.12327205  0.49822522  0.43444166  1
  Pr3+  Pr20  1  0.61181289  0.25381151  0.42727457  1
  Pr3+  Pr21  1  0.36803808  0.23704260  0.92345997  1
  Pr3+  Pr22  1  -0.00906290  0.62611561  0.55140339  1
  Pr3+  Pr23  1  0.23949468  0.87828546  0.08154449  1
  Pr3+  Pr24  1  0.49107339  0.86602471  0.07039899  1
  Pr3+  Pr25  1  0.35884963  0.00171598  0.43076172  1
  Nd3+  Nd26  1  0.23932135  0.61844510  0.05510595  1
  Nd3+  Nd27  1  0.86560049  0.75207466  0.43522135  1
  Nd3+  Nd28  1  0.11773415  -0.01088193  0.93816852  1
  Nd3+  Nd29  1  0.36945074  0.50105093  0.43519976  1
  Nd3+  Nd30  1  0.61593580  0.48716433  0.93562642  1
  Nd3+  Nd31  1  0.61863292  -0.01422607  0.94348744  1
  Nd3+  Nd32  1  0.49562008  0.63053581  0.55120080  1
  Nd3+  Nd33  1  0.87078057  0.00233811  0.43746358  1
  Nd3+  Nd34  1  0.74022684  0.38000504  0.55923369  1
  Nd3+  Nd35  1  0.49161646  0.61618765  0.05908284  1
  Nd3+  Nd36  1  -0.01420794  0.86399459  0.07351187  1
  Nd3+  Nd37  1  0.86744722  0.25279070  0.43829469  1
  Nd3+  Nd38  1  -0.00705224  0.37940995  0.56259166  1
  Nd3+  Nd39  1  0.49448575  0.12652289  0.55329294  1
  Nd3+  Nd40  1  0.74060726  0.61585719  0.06191594  1
  Nd3+  Nd41  1  0.74137713  0.36600695  0.05751055  1
  Nd3+  Nd42  1  0.48955968  0.11820050  0.05517309  1
  Nd3+  Nd43  1  0.86965317  -0.01026587  0.94510462  1
  Nd3+  Nd44  1  0.86895664  0.49077281  0.42712238  1
  Sm3+  Sm45  1  0.35977183  0.75361962  0.43621755  1
  Sm3+  Sm46  1  -0.00646091  0.36571317  0.05965989  1
  Sm3+  Sm47  1  0.11891708  0.48753623  0.94157520  1
  Sm3+  Sm48  1  0.24112338  0.36516185  0.05666668  1
  Sm3+  Sm49  1  0.61547390  0.23900428  0.93439976  1
  Sm3+  Sm50  1  0.74073567  0.11944721  0.05440497  1
  Sm3+  Sm51  1  0.36782636  0.74247823  0.94603402  1
  Sm3+  Sm52  1  0.86862484  0.73967564  0.94273848  1
  Sm3+  Sm53  1  0.49031347  0.36513533  0.05853795  1
  Sm3+  Sm54  1  0.87118049  0.23961695  0.94557448  1
  Sm3+  Sm55  1  -0.01322092  0.87926274  0.56007978  1
  Sm3+  Sm56  1  0.12794789  0.25349026  0.44956641  1
  Sm3+  Sm57  1  0.24191552  0.62717981  0.56099095  1
  Sm3+  Sm58  1  0.73741535  0.86704343  0.06868653  1
  Sm3+  Sm59  1  0.12081530  0.00263587  0.44951721  1
  Sm3+  Sm60  1  -0.00736630  0.11723042  0.05953256  1
  Sm3+  Sm61  1  0.61671937  -0.00263862  0.43502674  1
  Sm3+  Sm62  1  -0.00890257  0.61638310  0.05485287  1
  Sm3+  Sm63  1  -0.00446247  0.13153928  0.55473111  1
  Bi2+  Bi64  1  0.00495767  0.11508151  0.30148909  1
  Bi2+  Bi65  1  -0.02879605  0.10673278  0.79749455  1
  Bi2+  Bi66  1  0.03252807  0.43614408  0.31541169  1
  Bi2+  Bi67  1  -0.10076781  0.37639358  0.77526382  1
  Bi2+  Bi68  1  0.02268002  0.62942979  0.29847250  1
  Bi2+  Bi69  1  0.06429135  0.66094245  0.81128309  1
  Bi2+  Bi70  1  0.00298870  0.91019040  0.30445217  1
  Bi2+  Bi71  1  -0.02443706  0.83903462  0.81073780  1
  Bi2+  Bi72  1  0.29497590  0.12298934  0.29800018  1
  Bi2+  Bi73  1  0.24213879  0.11207343  0.78359529  1
  Bi2+  Bi74  1  0.30016920  0.36328142  0.29619219  1
  Bi2+  Bi75  1  0.24900341  0.41276681  0.79962820  1
  Bi2+  Bi76  1  0.22748789  0.62278743  0.29550302  1
  Bi2+  Bi77  1  0.25560869  0.62261828  0.79279044  1
  Bi2+  Bi78  1  0.29545164  0.87528846  0.30809231  1
  Bi2+  Bi79  1  0.24523219  0.86374417  0.78785179  1
  Bi2+  Bi80  1  0.58697111  0.13188337  0.29997930  1
  Bi2+  Bi81  1  0.52892625  0.16690609  0.76923034  1
  Bi2+  Bi82  1  0.49555554  0.29895458  0.26612898  1
  Bi2+  Bi83  1  0.51633106  0.39075507  0.79163986  1
  Bi2+  Bi84  1  0.48188790  0.62262836  0.28526500  1
  Bi2+  Bi85  1  0.50949838  0.63862773  0.78854753  1
  Bi2+  Bi86  1  0.51108166  0.87807709  0.28398387  1
  Bi2+  Bi87  1  0.47938266  0.91676286  0.80324062  1
  Bi2+  Bi88  1  0.76638441  0.17995049  0.26273022  1
  Bi2+  Bi89  1  0.73952316  0.17846743  0.79444365  1
  Bi2+  Bi90  1  0.77079428  0.38201619  0.28468242  1
  Bi2+  Bi91  1  0.70521747  0.37491388  0.80448932  1
  Bi2+  Bi92  1  0.74015879  0.64186426  0.27800397  1
  Bi2+  Bi93  1  0.80111290  0.61975311  0.77930936  1
  Bi2+  Bi94  1  0.76602049  0.89191483  0.28805315  1
  Bi2+  Bi95  1  0.72655950  0.87113706  0.82053444  1
  Bi2+  Bi96  1  0.15604319  0.00467455  0.25654673  1
  Bi2+  Bi97  1  0.14817581  -0.07619083  0.69583011  1
  Bi2+  Bi98  1  0.12309881  0.27204788  0.27931311  1
  Bi2+  Bi99  1  0.09769396  0.24352937  0.68554179  1
  Bi2+  Bi100  1  0.13240082  0.50701100  0.21631697  1
  Bi2+  Bi101  1  0.09861309  0.54285594  0.71149849  1
  Bi2+  Bi102  1  0.11068959  0.76735017  0.22633292  1
  Bi2+  Bi103  1  0.16550342  0.73143223  0.69943801  1
  Bi2+  Bi104  1  0.37895060  0.01265693  0.19875204  1
  Bi2+  Bi105  1  0.43890110  -0.01699079  0.70272745  1
  Bi2+  Bi106  1  0.34753586  0.22096076  0.20406132  1
  Bi2+  Bi107  1  0.37746639  0.25201200  0.70292600  1
  Bi2+  Bi108  1  0.32794106  0.47110832  0.20241941  1
  Bi2+  Bi109  1  0.39270016  0.54547525  0.70962266  1
  Bi2+  Bi110  1  0.30767945  0.74780598  0.21803253  1
  Bi2+  Bi111  1  0.36877967  0.74839038  0.72566014  1
  Bi2+  Bi112  1  0.66350011  0.01222768  0.22198621  1
  Bi2+  Bi113  1  0.67005737  0.03268525  0.72737860  1
  Bi2+  Bi114  1  0.62814867  0.24640937  0.18555371  1
  Bi2+  Bi115  1  0.64784473  0.27141936  0.70213448  1
  Bi2+  Bi116  1  0.61042695  0.50791076  0.17191350  1
  Bi2+  Bi117  1  0.71213987  0.53511424  0.69384653  1
  Bi2+  Bi118  1  0.63932257  0.75100315  0.19732840  1
  Bi2+  Bi119  1  0.59857538  0.73563172  0.70834415  1
  Bi2+  Bi120  1  0.95214716  -0.01269730  0.20404028  1
  Bi2+  Bi121  1  0.96636045  -0.02238217  0.71475325  1
  Bi2+  Bi122  1  0.94503004  0.24700487  0.22066465  1
  Bi2+  Bi123  1  0.84786184  0.23282210  0.69764957  1
  Bi2+  Bi124  1  0.93753313  0.52208261  0.21244220  1
  Bi2+  Bi125  1  0.86066756  0.42187833  0.66801870  1
  Bi2+  Bi126  1  0.91262051  0.77789488  0.21585372  1
  Bi2+  Bi127  1  0.93912703  0.71866141  0.72479851  1
  S2-  S128  1  0.01030271  0.12226669  0.15716920  1
  S2-  S129  1  -0.02602047  0.12832704  0.65196668  1
  S2-  S130  1  -0.02412764  0.37766911  0.15649975  1
  S2-  S131  1  0.07891892  0.40112520  0.64763377  1
  S2-  S132  1  -0.01736309  0.64995723  0.15001286  1
  S2-  S133  1  -0.02287193  0.60723230  0.65082796  1
  S2-  S134  1  0.10275823  0.86507720  0.14711495  1
  S2-  S135  1  -0.09457820  0.87103452  0.64562181  1
  S2-  S136  1  0.24807736  0.03471864  0.14300231  1
  S2-  S137  1  0.23985322  0.14585275  0.67481000  1
  S2-  S138  1  0.24800201  0.34156147  0.15359906  1
  S2-  S139  1  0.23935179  0.34330762  0.70608085  1
  S2-  S140  1  0.25752792  0.61445490  0.15284545  1
  S2-  S141  1  0.24445873  0.55034859  0.64810238  1
  S2-  S142  1  0.37574307  0.86263295  0.14920578  1
  S2-  S143  1  0.30596070  0.95519018  0.64533327  1
  S2-  S144  1  0.48600735  0.13550696  0.15383575  1
  S2-  S145  1  0.47851190  0.12482443  0.65246809  1
  S2-  S146  1  0.47506254  0.41264044  0.15213553  1
  S2-  S147  1  0.40716045  0.38592021  0.65037299  1
  S2-  S148  1  0.51298234  0.65620888  0.15538010  1
  S2-  S149  1  0.50604191  0.61978469  0.65113352  1
  S2-  S150  1  0.61649081  0.88259446  0.14256039  1
  S2-  S151  1  0.55749780  0.87496915  0.65015991  1
  S2-  S152  1  0.74197433  0.12298664  0.15159079  1
  S2-  S153  1  0.73585774  0.04447802  0.64058727  1
  S2-  S154  1  0.72641776  0.37480569  0.15606774  1
  S2-  S155  1  0.62847786  0.39856798  0.63830352  1
  S2-  S156  1  0.74695521  0.62364964  0.16109688  1
  S2-  S157  1  0.73335828  0.69453532  0.64674577  1
  S2-  S158  1  0.85214186  0.87051202  0.14401818  1
  S2-  S159  1  0.72781768  0.86838468  0.72583724  1
  S2-  S160  1  0.21352190  0.00719786  0.36661440  1
  S2-  S161  1  0.11289834  0.07551540  0.85022119  1
  S2-  S162  1  0.23021678  0.24457419  0.36837962  1
  S2-  S163  1  0.09044320  0.22555296  0.77801174  1
  S2-  S164  1  0.24489934  0.49079867  0.35992977  1
  S2-  S165  1  0.11111346  0.41988231  0.85192031  1
  S2-  S166  1  0.20621580  0.76171221  0.36391039  1
  S2-  S167  1  0.12519052  0.86151920  0.86509399  1
  S2-  S168  1  0.43268504  -0.00677127  0.33605382  1
  S2-  S169  1  0.36193824  0.05661642  0.83659149  1
  S2-  S170  1  0.47209518  0.23839352  0.35751567  1
  S2-  S171  1  0.27127307  0.25430731  0.84012336  1
  S2-  S172  1  0.46016233  0.50446675  0.34739562  1
  S2-  S173  1  0.39944867  0.45674563  0.84864815  1
  S2-  S174  1  0.42132446  0.75818245  0.34355820  1
  S2-  S175  1  0.36129322  0.83823523  0.86539178  1
  S2-  S176  1  0.62524833  -0.10932480  0.35483824  1
  S2-  S177  1  0.61161806  0.00037927  0.84505831  1
  S2-  S178  1  0.65387264  0.35081720  0.34572701  1
  S2-  S179  1  0.50885386  0.24976751  0.85673397  1
  S2-  S180  1  0.61485201  0.51644119  0.26549563  1
  S2-  S181  1  0.61830796  0.53083878  0.84052860  1
  S2-  S182  1  0.61656936  0.66731981  0.34274899  1
  S2-  S183  1  0.57369571  0.78280909  0.83934105  1
  S2-  S184  1  0.85980166  0.01180882  0.33858013  1
  S2-  S185  1  0.86756470  -0.02639762  0.84621344  1
  S2-  S186  1  0.88812107  0.34778642  0.35659209  1
  S2-  S187  1  0.93203492  0.24660490  0.85510578  1
  S2-  S188  1  0.78264868  0.52543486  0.34233980  1
  S2-  S189  1  0.87998316  0.50773433  0.84285039  1
  S2-  S190  1  0.83111921  0.75801429  0.33673293  1
  S2-  S191  1  0.77185415  0.72569887  0.86218956  1
  S2-  S192  1  -0.00061908  0.13042788  0.44977231  1
  S2-  S193  1  -0.00854455  0.11659469  0.95604799  1
  S2-  S194  1  0.00030704  0.37238119  0.45801579  1
  S2-  S195  1  -0.00443758  0.36353016  0.95625011  1
  S2-  S196  1  -0.00763895  0.62389678  0.44436322  1
  S2-  S197  1  -0.00637238  0.61453885  0.95060133  1
  S2-  S198  1  -0.00439391  0.87816213  0.45301967  1
  S2-  S199  1  -0.01268522  0.86332301  0.96376328  1
  S2-  S200  1  0.24135036  0.12552666  0.46934115  1
  S2-  S201  1  0.24442182  0.11424631  0.95057219  1
  S2-  S202  1  0.24421532  0.37773355  0.46456510  1
  S2-  S203  1  0.24146073  0.36408416  0.95328701  1
  S2-  S204  1  0.24322726  0.62821077  0.45880990  1
  S2-  S205  1  0.24160944  0.61682991  0.94858284  1
  S2-  S206  1  0.24040352  0.87661168  0.46530180  1
  S2-  S207  1  0.24197416  0.86236621  0.96893457  1
  S2-  S208  1  0.49264996  0.11918541  0.45040615  1
  S2-  S209  1  0.49527354  0.11243604  0.95069448  1
  S2-  S210  1  0.49235322  0.37852925  0.45474206  1
  S2-  S211  1  0.49322951  0.36472946  0.95573196  1
  S2-  S212  1  0.48818385  0.63457158  0.44866554  1
  S2-  S213  1  0.49206671  0.61605739  0.95155919  1
  S2-  S214  1  0.48549573  0.87776925  0.45208154  1
  S2-  S215  1  0.49815661  0.86037773  0.96179083  1
  S2-  S216  1  0.74136438  0.12583625  0.44395478  1
  S2-  S217  1  0.74268810  0.11763496  0.94945350  1
  S2-  S218  1  0.74368704  0.37454419  0.45499225  1
  S2-  S219  1  0.74201687  0.36128265  0.95033679  1
  S2-  S220  1  0.74421687  0.62642177  0.44731612  1
  S2-  S221  1  0.74464480  0.60773704  0.95709340  1
  S2-  S222  1  0.74921783  0.88105445  0.44836410  1
  S2-  S223  1  0.74567870  0.86468177  0.96271336  1
  S2-  S224  1  0.11008093  -0.00622795  0.04432629  1
  S2-  S225  1  0.11470050  0.00328615  0.55352831  1
  S2-  S226  1  0.11523517  0.24326206  0.05571840  1
  S2-  S227  1  0.12336780  0.25257780  0.55323383  1
  S2-  S228  1  0.11597822  0.49067538  0.04813621  1
  S2-  S229  1  0.11920438  0.50474623  0.54150123  1
  S2-  S230  1  0.11350084  0.73864850  0.04522073  1
  S2-  S231  1  0.11475523  0.75363619  0.55292687  1
  S2-  S232  1  0.37131092  -0.00791953  0.04048994  1
  S2-  S233  1  0.36935873  0.00330726  0.53865337  1
  S2-  S234  1  0.36693229  0.24457544  0.04160839  1
  S2-  S235  1  0.36740511  0.25055071  0.54993770  1
  S2-  S236  1  0.36534189  0.49055225  0.04662213  1
  S2-  S237  1  0.36771386  0.50831450  0.54399327  1
  S2-  S238  1  0.36605203  0.73854214  0.04806803  1
  S2-  S239  1  0.36405355  0.75249749  0.54945692  1
  S2-  S240  1  0.61878337  -0.00208095  0.04682218  1
  S2-  S241  1  0.61719739  0.00023365  0.53795749  1
  S2-  S242  1  0.61606626  0.24282145  0.03945119  1
  S2-  S243  1  0.62106831  0.24789466  0.53934425  1
  S2-  S244  1  0.61522210  0.48911356  0.04273507  1
  S2-  S245  1  0.61894910  0.50828331  0.53910730  1
  S2-  S246  1  0.61873668  0.73864478  0.04227650  1
  S2-  S247  1  0.61992523  0.75776271  0.54015573  1
  S2-  S248  1  0.86360767  -0.00275832  0.04935651  1
  S2-  S249  1  0.87635838  0.00800386  0.54117168  1
  S2-  S250  1  0.86772581  0.24205871  0.05020453  1
  S2-  S251  1  0.86817329  0.25213301  0.54373421  1
  S2-  S252  1  0.86806748  0.49030439  0.04748051  1
  S2-  S253  1  0.86755200  0.50034345  0.53600632  1
  S2-  S254  1  0.86397013  0.73740683  0.04549933  1
  S2-  S255  1  0.86938188  0.75440052  0.54033773  1
