# generated using pymatgen
data_La6Ce7Pr13Nd19Sm19(BiS2)64
_symmetry_space_group_name_H-M   'P 1'
_cell_length_a   16.01431463
_cell_length_b   16.05436159
_cell_length_c   27.30387021
_cell_angle_alpha   89.98053434
_cell_angle_beta   89.87924825
_cell_angle_gamma   89.90351805
_symmetry_Int_Tables_number   1
_chemical_formula_structural   La6Ce7Pr13Nd19Sm19(BiS2)64
_chemical_formula_sum   'La6 Ce7 Pr13 Nd19 Sm19 Bi64 S128'
_cell_volume   7019.78810785
_cell_formula_units_Z   1
loop_
 _symmetry_equiv_pos_site_id
 _symmetry_equiv_pos_as_xyz
  1  'x, y, z'
loop_
 _atom_type_symbol
 _atom_type_oxidation_number
  La3+  3.0
  Ce3+  3.0
  Pr3+  3.0
  Nd3+  3.0
  Sm3+  3.0
  Bi2+  2.0
  S2-  -2.0
loop_
 _atom_site_type_symbol
 _atom_site_label
 _atom_site_symmetry_multiplicity
 _atom_site_fract_x
 _atom_site_fract_y
 _atom_site_fract_z
 _atom_site_occupancy
  La3+  La0  1  0.01697689  0.38529808  0.08667172  1
  La3+  La1  1  0.23877499  0.60132186  0.56223478  1
  La3+  La2  1  0.73911546  0.60181225  0.60071664  1
  La3+  La3  1  0.00430629  0.12165381  0.11158390  1
  La3+  La4  1  0.61457875  0.22374165  0.43069507  1
  La3+  La5  1  0.64949610  -0.00304159  0.91623237  1
  Ce3+  Ce6  1  0.26564015  0.62931186  0.06511662  1
  Ce3+  Ce7  1  0.10770511  0.22996718  0.42397667  1
  Ce3+  Ce8  1  -0.00989690  0.35891886  0.54647867  1
  Ce3+  Ce9  1  0.89007300  0.25377039  0.95436887  1
  Ce3+  Ce10  1  0.01621679  0.62973347  0.06382279  1
  Ce3+  Ce11  1  0.74738970  0.86134896  0.57528403  1
  Ce3+  Ce12  1  0.76725783  0.62446310  0.06013690  1
  Pr3+  Pr13  1  0.51738034  0.37925482  0.04634334  1
  Pr3+  Pr14  1  0.12989362  0.48280495  0.41246281  1
  Pr3+  Pr15  1  0.75379805  0.13646784  0.06978117  1
  Pr3+  Pr16  1  0.49081233  0.10180730  0.57917874  1
  Pr3+  Pr17  1  0.38220615  0.25104159  0.91611424  1
  Pr3+  Pr18  1  0.14276020  0.25873591  0.94457874  1
  Pr3+  Pr19  1  0.64993934  0.50689420  0.91919151  1
  Pr3+  Pr20  1  0.89664585  0.50331866  0.93290419  1
  Pr3+  Pr21  1  -0.00904910  0.85274832  0.57186165  1
  Pr3+  Pr22  1  0.01313757  0.87979996  0.06996446  1
  Pr3+  Pr23  1  0.23984945  0.11038812  0.56671215  1
  Pr3+  Pr24  1  0.49258732  0.60647782  0.56987939  1
  Pr3+  Pr25  1  0.63706780  0.24932287  0.91091200  1
  Nd3+  Nd26  1  0.85941058  0.23145440  0.42760223  1
  Nd3+  Nd27  1  0.49084241  0.85612410  0.56859508  1
  Nd3+  Nd28  1  0.76387273  0.38156669  0.05956424  1
  Nd3+  Nd29  1  0.14293685  0.50389953  0.93915776  1
  Nd3+  Nd30  1  0.74827933  0.10730685  0.56975901  1
  Nd3+  Nd31  1  0.25973110  0.13320266  0.06413037  1
  Nd3+  Nd32  1  0.51600455  0.13349705  0.04953326  1
  Nd3+  Nd33  1  0.36361910  -0.01848307  0.44323091  1
  Nd3+  Nd34  1  0.51722829  0.88350059  0.05187222  1
  Nd3+  Nd35  1  0.26742246  0.38648265  0.07403016  1
  Nd3+  Nd36  1  0.89746723  0.01069994  0.93843790  1
  Nd3+  Nd37  1  0.23996078  0.35287323  0.54875279  1
  Nd3+  Nd38  1  0.36892031  0.22041321  0.43078353  1
  Nd3+  Nd39  1  0.86388807  -0.02590336  0.43575722  1
  Nd3+  Nd40  1  0.60864113  0.73344819  0.43784487  1
  Nd3+  Nd41  1  0.26436506  0.88322771  0.05123944  1
  Nd3+  Nd42  1  0.36410589  0.73215970  0.44095148  1
  Nd3+  Nd43  1  0.76875334  0.88483971  0.05460376  1
  Nd3+  Nd44  1  0.51993842  0.63157877  0.05041877  1
  Sm3+  Sm45  1  0.90298975  0.75456294  0.93200677  1
  Sm3+  Sm46  1  0.86127625  0.48258901  0.43836243  1
  Sm3+  Sm47  1  -0.01164719  0.59977623  0.54937218  1
  Sm3+  Sm48  1  0.14090850  0.75485107  0.94376878  1
  Sm3+  Sm49  1  0.74394340  0.35195365  0.56777218  1
  Sm3+  Sm50  1  -0.00997531  0.10934608  0.55318976  1
  Sm3+  Sm51  1  0.39285052  0.50642894  0.93802050  1
  Sm3+  Sm52  1  0.13500040  0.00745255  0.94114269  1
  Sm3+  Sm53  1  0.61632011  -0.02281483  0.44265418  1
  Sm3+  Sm54  1  0.23658861  0.85416914  0.56733903  1
  Sm3+  Sm55  1  0.38957368  0.00710393  0.93594078  1
  Sm3+  Sm56  1  0.49468084  0.35073978  0.56477475  1
  Sm3+  Sm57  1  0.36984485  0.47748950  0.44223948  1
  Sm3+  Sm58  1  0.61777282  0.48114485  0.45215568  1
  Sm3+  Sm59  1  0.11411264  -0.02071827  0.44855491  1
  Sm3+  Sm60  1  0.38875647  0.75543899  0.93950821  1
  Sm3+  Sm61  1  0.11366393  0.73079329  0.44253826  1
  Sm3+  Sm62  1  0.86346182  0.72926703  0.44839218  1
  Sm3+  Sm63  1  0.64824083  0.75604035  0.93548312  1
  Bi2+  Bi64  1  0.01705124  0.10437374  0.30880164  1
  Bi2+  Bi65  1  0.02639515  0.12989580  0.78806573  1
  Bi2+  Bi66  1  -0.04686134  0.39141797  0.28303777  1
  Bi2+  Bi67  1  0.04927011  0.32562767  0.76542791  1
  Bi2+  Bi68  1  -0.03202978  0.66949441  0.27586870  1
  Bi2+  Bi69  1  0.05960827  0.60783692  0.78333245  1
  Bi2+  Bi70  1  0.02537115  0.84240778  0.31235425  1
  Bi2+  Bi71  1  0.02073279  0.88343931  0.78851392  1
  Bi2+  Bi72  1  0.27670577  0.07600270  0.22794630  1
  Bi2+  Bi73  1  0.22404894  0.13327187  0.79801383  1
  Bi2+  Bi74  1  0.28833954  0.35976572  0.29111062  1
  Bi2+  Bi75  1  0.19736879  0.43511683  0.80920943  1
  Bi2+  Bi76  1  0.25227264  0.70671806  0.26862116  1
  Bi2+  Bi77  1  0.21801178  0.70612280  0.82158476  1
  Bi2+  Bi78  1  0.28963923  0.93709578  0.31363975  1
  Bi2+  Bi79  1  0.22351455  0.92166036  0.79514768  1
  Bi2+  Bi80  1  0.45261761  0.14703093  0.28323151  1
  Bi2+  Bi81  1  0.47825765  0.14236409  0.77879731  1
  Bi2+  Bi82  1  0.48210645  0.39154934  0.29088451  1
  Bi2+  Bi83  1  0.43488275  0.37791911  0.76390419  1
  Bi2+  Bi84  1  0.51515783  0.61872580  0.28374559  1
  Bi2+  Bi85  1  0.46595895  0.67260548  0.73387225  1
  Bi2+  Bi86  1  0.46908154  0.87280387  0.30964323  1
  Bi2+  Bi87  1  0.41950311  0.88718229  0.79732451  1
  Bi2+  Bi88  1  0.73820460  0.12727011  0.29643036  1
  Bi2+  Bi89  1  0.77033862  0.14276375  0.80122801  1
  Bi2+  Bi90  1  0.70437292  0.40458327  0.28967810  1
  Bi2+  Bi91  1  0.85146506  0.37463023  0.79491440  1
  Bi2+  Bi92  1  0.71292983  0.64103685  0.28861647  1
  Bi2+  Bi93  1  0.71223479  0.62968532  0.79488072  1
  Bi2+  Bi94  1  0.72462174  0.83866733  0.28230628  1
  Bi2+  Bi95  1  0.76914579  0.87410208  0.78746253  1
  Bi2+  Bi96  1  0.13965744  -0.11203403  0.22262875  1
  Bi2+  Bi97  1  0.10893665  -0.00394925  0.70364587  1
  Bi2+  Bi98  1  0.14713396  0.24988940  0.22918277  1
  Bi2+  Bi99  1  0.12718974  0.18534154  0.68118617  1
  Bi2+  Bi100  1  0.14766815  0.49916985  0.21408176  1
  Bi2+  Bi101  1  0.09282426  0.46613915  0.67925081  1
  Bi2+  Bi102  1  0.10749668  0.69604935  0.18496298  1
  Bi2+  Bi103  1  0.18054550  0.73728117  0.71359277  1
  Bi2+  Bi104  1  0.44687234  0.01098395  0.18866339  1
  Bi2+  Bi105  1  0.34614221  -0.02167349  0.70242804  1
  Bi2+  Bi106  1  0.38183066  0.27023319  0.20071211  1
  Bi2+  Bi107  1  0.30266947  0.25278824  0.71538579  1
  Bi2+  Bi108  1  0.34916471  0.53892736  0.24005749  1
  Bi2+  Bi109  1  0.32569735  0.53480202  0.73985104  1
  Bi2+  Bi110  1  0.37978941  0.81514216  0.20941970  1
  Bi2+  Bi111  1  0.35792515  0.78801230  0.66903302  1
  Bi2+  Bi112  1  0.60467163  -0.00227610  0.26207293  1
  Bi2+  Bi113  1  0.61088484  0.01921222  0.71793946  1
  Bi2+  Bi114  1  0.58558098  0.23817129  0.19367632  1
  Bi2+  Bi115  1  0.64392807  0.28224820  0.71409539  1
  Bi2+  Bi116  1  0.60794113  0.48588996  0.19899675  1
  Bi2+  Bi117  1  0.60383841  0.49164952  0.72183034  1
  Bi2+  Bi118  1  0.61766770  0.73823614  0.20363160  1
  Bi2+  Bi119  1  0.59095514  0.82631923  0.74679954  1
  Bi2+  Bi120  1  0.87034122  -0.03595274  0.21768752  1
  Bi2+  Bi121  1  0.87235949  -0.01652732  0.70786597  1
  Bi2+  Bi122  1  0.83658178  0.23892709  0.21247472  1
  Bi2+  Bi123  1  0.88950807  0.23643374  0.70655625  1
  Bi2+  Bi124  1  0.83380939  0.60549715  0.19990773  1
  Bi2+  Bi125  1  0.87553016  0.50283288  0.70819316  1
  Bi2+  Bi126  1  0.91612840  0.77942452  0.18149104  1
  Bi2+  Bi127  1  0.91894161  0.73891671  0.73884916  1
  S2-  S128  1  -0.00010611  0.16714584  0.21687405  1
  S2-  S129  1  -0.08598594  0.10444169  0.64160901  1
  S2-  S130  1  -0.07467368  0.36017447  0.17890919  1
  S2-  S131  1  -0.03857528  0.36077502  0.64285356  1
  S2-  S132  1  0.02319291  0.54039946  0.14769321  1
  S2-  S133  1  -0.00985575  0.59491491  0.64738873  1
  S2-  S134  1  0.01947442  0.96389306  0.15871879  1
  S2-  S135  1  -0.12030344  0.84407034  0.65032888  1
  S2-  S136  1  0.17381766  0.13233955  0.15138997  1
  S2-  S137  1  0.34756757  0.12246678  0.64579957  1
  S2-  S138  1  0.15456806  0.36188896  0.15383907  1
  S2-  S139  1  0.22436465  0.35736289  0.64765538  1
  S2-  S140  1  0.28343951  0.52577864  0.14413870  1
  S2-  S141  1  0.22425245  0.58204122  0.66137940  1
  S2-  S142  1  0.26141466  0.89353071  0.14984724  1
  S2-  S143  1  0.12134851  0.84837360  0.64367597  1
  S2-  S144  1  0.60489187  0.10775798  0.13469983  1
  S2-  S145  1  0.55110063  0.16789355  0.67399551  1
  S2-  S146  1  0.49739846  0.37805347  0.14738773  1
  S2-  S147  1  0.50112418  0.38576856  0.66247726  1
  S2-  S148  1  0.53315548  0.61753880  0.14939822  1
  S2-  S149  1  0.58225617  0.61455443  0.65646126  1
  S2-  S150  1  0.52536881  0.86718035  0.15029632  1
  S2-  S151  1  0.50064481  0.96305812  0.64760294  1
  S2-  S152  1  0.83832243  0.08997547  0.15640678  1
  S2-  S153  1  0.74687296  0.23564062  0.64387571  1
  S2-  S154  1  0.72411247  0.28107004  0.14025066  1
  S2-  S155  1  0.74404571  0.44937207  0.65392883  1
  S2-  S156  1  0.74701045  0.50674081  0.13365684  1
  S2-  S157  1  0.78908736  0.65491784  0.69729801  1
  S2-  S158  1  0.76985179  0.87690903  0.15488035  1
  S2-  S159  1  0.72906827  0.98951951  0.64607795  1
  S2-  S160  1  0.12370680  -0.02055707  0.35076093  1
  S2-  S161  1  0.02436580  0.00516437  0.86285543  1
  S2-  S162  1  0.16273376  0.19978213  0.33177769  1
  S2-  S163  1  0.23550641  0.27824550  0.85718584  1
  S2-  S164  1  0.07849333  0.47868011  0.31364210  1
  S2-  S165  1  0.03020358  0.50376673  0.86007015  1
  S2-  S166  1  0.14402547  0.71840576  0.34685455  1
  S2-  S167  1  0.04181892  0.75875560  0.86359353  1
  S2-  S168  1  0.36239368  0.08450641  0.36264993  1
  S2-  S169  1  0.37602940  0.09947694  0.85224847  1
  S2-  S170  1  0.48757911  0.26181879  0.35870807  1
  S2-  S171  1  0.49462057  0.27885065  0.83883715  1
  S2-  S172  1  0.28661315  0.49191228  0.35672647  1
  S2-  S173  1  0.35274313  0.48596382  0.84337341  1
  S2-  S174  1  0.46660772  0.71676499  0.36108236  1
  S2-  S175  1  0.39267325  0.73174816  0.84235094  1
  S2-  S176  1  0.61714750  0.07984792  0.36136969  1
  S2-  S177  1  0.61476080  0.09900888  0.83508222  1
  S2-  S178  1  0.73444094  0.26530292  0.35541253  1
  S2-  S179  1  0.69635793  0.30651065  0.81662811  1
  S2-  S180  1  0.59369061  0.47858605  0.35428343  1
  S2-  S181  1  0.58355273  0.54109848  0.82520098  1
  S2-  S182  1  0.63214608  0.85650139  0.36693542  1
  S2-  S183  1  0.63340457  0.84943781  0.85234389  1
  S2-  S184  1  0.86673067  0.02495835  0.33956155  1
  S2-  S185  1  0.80103421  0.00633184  0.85262842  1
  S2-  S186  1  0.96850604  0.24696819  0.34872715  1
  S2-  S187  1  0.89234085  0.23575957  0.85603165  1
  S2-  S188  1  0.84470008  0.47341893  0.34015667  1
  S2-  S189  1  0.79029496  0.51918710  0.85021028  1
  S2-  S190  1  0.88501537  0.77235458  0.35374853  1
  S2-  S191  1  0.83239289  0.73971858  0.84057988  1
  S2-  S192  1  -0.01181688  0.10130088  0.45035301  1
  S2-  S193  1  0.02049407  0.13496343  0.95728499  1
  S2-  S194  1  -0.00666977  0.36805407  0.44273161  1
  S2-  S195  1  0.01756210  0.37880633  0.96142782  1
  S2-  S196  1  -0.00852238  0.60444592  0.44348832  1
  S2-  S197  1  0.02034151  0.63025850  0.96014815  1
  S2-  S198  1  -0.00843456  0.85265293  0.46165777  1
  S2-  S199  1  0.01839999  0.87939286  0.96359931  1
  S2-  S200  1  0.23324798  0.10526522  0.45931037  1
  S2-  S201  1  0.26269916  0.12596025  0.95782261  1
  S2-  S202  1  0.24462768  0.34931368  0.44430786  1
  S2-  S203  1  0.27222084  0.38554918  0.96175371  1
  S2-  S204  1  0.24203490  0.60771878  0.45483491  1
  S2-  S205  1  0.26721547  0.63012062  0.95608874  1
  S2-  S206  1  0.23722719  0.85349126  0.45989984  1
  S2-  S207  1  0.26412064  0.88252132  0.94523558  1
  S2-  S208  1  0.49000555  0.09938676  0.46653967  1
  S2-  S209  1  0.51314389  0.12851806  0.94639280  1
  S2-  S210  1  0.49203874  0.35930658  0.46092407  1
  S2-  S211  1  0.51574822  0.38438723  0.94072322  1
  S2-  S212  1  0.48921154  0.60267721  0.46285708  1
  S2-  S213  1  0.51743036  0.63491775  0.94430921  1
  S2-  S214  1  0.48623312  0.85756208  0.46366302  1
  S2-  S215  1  0.51050999  0.87931242  0.94735016  1
  S2-  S216  1  0.74584774  0.10049489  0.45956838  1
  S2-  S217  1  0.76346141  0.13148688  0.95379293  1
  S2-  S218  1  0.74059167  0.36091199  0.46075294  1
  S2-  S219  1  0.76603591  0.37850104  0.95028037  1
  S2-  S220  1  0.73756438  0.60885865  0.44605192  1
  S2-  S221  1  0.77159686  0.63629565  0.95382271  1
  S2-  S222  1  0.74426780  0.85199149  0.46608645  1
  S2-  S223  1  0.77644831  0.87342801  0.95091396  1
  S2-  S224  1  0.13784502  0.00612827  0.04550071  1
  S2-  S225  1  0.11470698  -0.01541204  0.55155710  1
  S2-  S226  1  0.14259414  0.26068429  0.04929218  1
  S2-  S227  1  0.11291576  0.23159434  0.53642913  1
  S2-  S228  1  0.14341902  0.50719338  0.04426219  1
  S2-  S229  1  0.11673187  0.48005343  0.53206121  1
  S2-  S230  1  0.14195159  0.75656396  0.04855553  1
  S2-  S231  1  0.11317939  0.72451320  0.54621228  1
  S2-  S232  1  0.38920700  0.00803585  0.04133472  1
  S2-  S233  1  0.35742234  -0.02470385  0.54838813  1
  S2-  S234  1  0.38715677  0.25539876  0.04546068  1
  S2-  S235  1  0.36879562  0.23328712  0.54214723  1
  S2-  S236  1  0.39483827  0.50891024  0.04150010  1
  S2-  S237  1  0.36929455  0.47741319  0.54967333  1
  S2-  S238  1  0.39093511  0.75638027  0.04545171  1
  S2-  S239  1  0.36407530  0.72960940  0.54657092  1
  S2-  S240  1  0.64131948  0.00175464  0.03075828  1
  S2-  S241  1  0.61781551  -0.02047488  0.54558850  1
  S2-  S242  1  0.63799213  0.25683283  0.02750023  1
  S2-  S243  1  0.61594799  0.23054980  0.54620599  1
  S2-  S244  1  0.63938084  0.50664286  0.02910538  1
  S2-  S245  1  0.61652774  0.47936203  0.55378860  1
  S2-  S246  1  0.64391251  0.75741755  0.04091966  1
  S2-  S247  1  0.61893068  0.73208173  0.55146704  1
  S2-  S248  1  0.89260531  0.00884152  0.04624035  1
  S2-  S249  1  0.87175284  -0.02055880  0.54258297  1
  S2-  S250  1  0.89650039  0.25218283  0.05927295  1
  S2-  S251  1  0.86834456  0.23327937  0.53504948  1
  S2-  S252  1  0.89342296  0.50372075  0.04143608  1
  S2-  S253  1  0.86015681  0.48466181  0.54336136  1
  S2-  S254  1  0.89038696  0.75330784  0.04355622  1
  S2-  S255  1  0.86122529  0.71893407  0.55195352  1
