# generated using pymatgen
data_La6Ce7Pr13Nd19Sm19(BiS2)64
_symmetry_space_group_name_H-M   'P 1'
_cell_length_a   15.97656267
_cell_length_b   16.07979862
_cell_length_c   27.40232952
_cell_angle_alpha   90.09330834
_cell_angle_beta   90.51083716
_cell_angle_gamma   90.00669249
_symmetry_Int_Tables_number   1
_chemical_formula_structural   La6Ce7Pr13Nd19Sm19(BiS2)64
_chemical_formula_sum   'La6 Ce7 Pr13 Nd19 Sm19 Bi64 S128'
_cell_volume   7039.36680933
_cell_formula_units_Z   1
loop_
 _symmetry_equiv_pos_site_id
 _symmetry_equiv_pos_as_xyz
  1  'x, y, z'
loop_
 _atom_type_symbol
 _atom_type_oxidation_number
  La3+  3.0
  Ce3+  3.0
  Pr3+  3.0
  Nd3+  3.0
  Sm3+  3.0
  Bi2+  2.0
  S2-  -2.0
loop_
 _atom_site_type_symbol
 _atom_site_label
 _atom_site_symmetry_multiplicity
 _atom_site_fract_x
 _atom_site_fract_y
 _atom_site_fract_z
 _atom_site_occupancy
  La3+  La0  1  0.72402129  0.89703697  0.08222668  1
  La3+  La1  1  0.76487171  0.12430875  0.57058624  1
  La3+  La2  1  0.50944118  0.87480118  0.59689591  1
  La3+  La3  1  0.34855449  0.51282132  0.91150093  1
  La3+  La4  1  0.09922630  0.76891525  0.92983675  1
  La3+  La5  1  0.87658821  0.48728963  0.38734325  1
  Ce3+  Ce6  1  0.01237791  0.62036742  0.53037494  1
  Ce3+  Ce7  1  0.63691144  0.50015408  0.43992834  1
  Ce3+  Ce8  1  0.38388750  0.74619701  0.45060372  1
  Ce3+  Ce9  1  0.63370447  0.74709397  0.44871806  1
  Ce3+  Ce10  1  0.24766943  0.62615910  0.56650787  1
  Ce3+  Ce11  1  0.13141330  0.24515169  0.43265584  1
  Ce3+  Ce12  1  0.61087774  0.51905327  0.94231891  1
  Pr3+  Pr13  1  0.26212419  0.86867128  0.56214256  1
  Pr3+  Pr14  1  0.23809582  0.89292023  0.06323375  1
  Pr3+  Pr15  1  0.75926573  0.62358713  0.56268018  1
  Pr3+  Pr16  1  0.86027659  0.26559155  0.94273254  1
  Pr3+  Pr17  1  0.01051258  0.86788431  0.55158407  1
  Pr3+  Pr18  1  0.74116909  0.64176720  0.08024835  1
  Pr3+  Pr19  1  0.48842916  0.14521541  0.05378181  1
  Pr3+  Pr20  1  0.01474712  0.12358969  0.57291194  1
  Pr3+  Pr21  1  0.61315280  0.27295912  0.93701868  1
  Pr3+  Pr22  1  0.62347594  0.02599183  0.90819357  1
  Pr3+  Pr23  1  0.24351539  0.64847391  0.07128134  1
  Pr3+  Pr24  1  0.38380216  0.49827333  0.43947672  1
  Pr3+  Pr25  1  0.60335951  0.76568576  0.93020814  1
  Nd3+  Nd26  1  0.49191421  0.89669693  0.04714733  1
  Nd3+  Nd27  1  0.73560944  0.39314151  0.07119521  1
  Nd3+  Nd28  1  -0.01371512  0.39359865  0.06643001  1
  Nd3+  Nd29  1  0.75896797  0.87149047  0.56283916  1
  Nd3+  Nd30  1  0.26079118  0.12114630  0.56091514  1
  Nd3+  Nd31  1  -0.01453867  0.89536601  0.06941205  1
  Nd3+  Nd32  1  -0.00335414  0.64899393  0.08381392  1
  Nd3+  Nd33  1  0.14295228  0.49221932  0.41209728  1
  Nd3+  Nd34  1  0.48312357  0.64507624  0.05378254  1
  Nd3+  Nd35  1  0.01243296  0.37668262  0.54796041  1
  Nd3+  Nd36  1  0.25973655  0.37579382  0.55832126  1
  Nd3+  Nd37  1  0.50840431  0.61446279  0.60458005  1
  Nd3+  Nd38  1  0.14542728  0.75587410  0.41252080  1
  Nd3+  Nd39  1  0.38849474  0.24496953  0.44533530  1
  Nd3+  Nd40  1  0.87760654  0.74815163  0.42240949  1
  Nd3+  Nd41  1  0.13210556  -0.00083936  0.43672264  1
  Nd3+  Nd42  1  0.34999487  0.77234269  0.92312802  1
  Nd3+  Nd43  1  0.10764582  0.26455817  0.94930722  1
  Nd3+  Nd44  1  0.86454362  0.52082509  0.94514415  1
  Sm3+  Sm45  1  0.85410140  0.76908012  0.95179620  1
  Sm3+  Sm46  1  0.63911791  0.24867129  0.44663203  1
  Sm3+  Sm47  1  0.76136123  0.37741367  0.55511570  1
  Sm3+  Sm48  1  0.10723345  0.01493513  0.94264347  1
  Sm3+  Sm49  1  0.35680020  0.26650470  0.93872979  1
  Sm3+  Sm50  1  0.73521971  0.14887278  0.07470322  1
  Sm3+  Sm51  1  0.50762049  0.37798409  0.56071937  1
  Sm3+  Sm52  1  0.48244973  0.39625621  0.05247283  1
  Sm3+  Sm53  1  0.35900773  0.01587782  0.93762561  1
  Sm3+  Sm54  1  0.23780022  0.14307885  0.05928069  1
  Sm3+  Sm55  1  0.10423382  0.52224526  0.94295081  1
  Sm3+  Sm56  1  0.39217725  -0.00200625  0.44030917  1
  Sm3+  Sm57  1  0.88639028  0.24443651  0.43974926  1
  Sm3+  Sm58  1  0.51869120  0.12236138  0.57316570  1
  Sm3+  Sm59  1  0.87701439  -0.00554847  0.42883961  1
  Sm3+  Sm60  1  0.63184057  -0.00253738  0.43959972  1
  Sm3+  Sm61  1  0.85398305  0.01655985  0.94922547  1
  Sm3+  Sm62  1  -0.01449747  0.13855519  0.06829215  1
  Sm3+  Sm63  1  0.23512746  0.39610656  0.05918448  1
  Bi2+  Bi64  1  0.00950662  0.11929517  0.34793910  1
  Bi2+  Bi65  1  0.09143834  0.09561157  0.81838487  1
  Bi2+  Bi66  1  -0.00664611  0.30630756  0.28906089  1
  Bi2+  Bi67  1  -0.03958898  0.37832445  0.80286201  1
  Bi2+  Bi68  1  -0.01470945  0.62349730  0.26645892  1
  Bi2+  Bi69  1  0.02907348  0.61175876  0.78260097  1
  Bi2+  Bi70  1  0.01595701  0.94663959  0.28689454  1
  Bi2+  Bi71  1  -0.02521951  0.84396609  0.79175797  1
  Bi2+  Bi72  1  0.20079996  0.12303524  0.31106540  1
  Bi2+  Bi73  1  0.29300003  0.11503185  0.82687148  1
  Bi2+  Bi74  1  0.24979463  0.30355277  0.27643019  1
  Bi2+  Bi75  1  0.20713112  0.35958563  0.79704667  1
  Bi2+  Bi76  1  0.24576075  0.63043850  0.29736890  1
  Bi2+  Bi77  1  0.24186081  0.60637535  0.78205966  1
  Bi2+  Bi78  1  0.29897147  0.89478643  0.29870227  1
  Bi2+  Bi79  1  0.22002045  0.86458743  0.79307921  1
  Bi2+  Bi80  1  0.39906407  0.09813712  0.30611940  1
  Bi2+  Bi81  1  0.47444279  0.11873973  0.78121799  1
  Bi2+  Bi82  1  0.46500704  0.40344014  0.29821089  1
  Bi2+  Bi83  1  0.48862986  0.31566138  0.78879626  1
  Bi2+  Bi84  1  0.49868370  0.60991134  0.28430544  1
  Bi2+  Bi85  1  0.57417837  0.61725424  0.81360200  1
  Bi2+  Bi86  1  0.49533388  0.88419256  0.28394262  1
  Bi2+  Bi87  1  0.56592744  0.81534290  0.77875512  1
  Bi2+  Bi88  1  0.82092244  0.13753002  0.30243038  1
  Bi2+  Bi89  1  0.76150293  0.17227037  0.79738852  1
  Bi2+  Bi90  1  0.70230242  0.34794693  0.29286520  1
  Bi2+  Bi91  1  0.80626864  0.44783085  0.73940395  1
  Bi2+  Bi92  1  0.71628773  0.64261660  0.28787509  1
  Bi2+  Bi93  1  0.83241651  0.63781117  0.76794480  1
  Bi2+  Bi94  1  0.75835743  0.88947224  0.29403707  1
  Bi2+  Bi95  1  0.81212115  0.93369583  0.76626022  1
  Bi2+  Bi96  1  0.13639144  0.00830318  0.20474712  1
  Bi2+  Bi97  1  0.12288615  -0.00107610  0.71514651  1
  Bi2+  Bi98  1  0.11410502  0.20652408  0.20896299  1
  Bi2+  Bi99  1  0.21245490  0.20075848  0.72793320  1
  Bi2+  Bi100  1  0.14440012  0.47451572  0.21288776  1
  Bi2+  Bi101  1  0.09485812  0.45571057  0.72008078  1
  Bi2+  Bi102  1  0.14220567  0.76366654  0.20818158  1
  Bi2+  Bi103  1  0.07734040  0.73498442  0.69170895  1
  Bi2+  Bi104  1  0.33166100  0.01568456  0.20804402  1
  Bi2+  Bi105  1  0.32177603  0.00122057  0.73078010  1
  Bi2+  Bi106  1  0.46369431  0.24959243  0.22171223  1
  Bi2+  Bi107  1  0.39970049  0.24042061  0.69711561  1
  Bi2+  Bi108  1  0.38622661  0.49700437  0.20315249  1
  Bi2+  Bi109  1  0.37922757  0.47700398  0.71569592  1
  Bi2+  Bi110  1  0.39861137  0.75138703  0.21489181  1
  Bi2+  Bi111  1  0.34738259  0.75135666  0.70317560  1
  Bi2+  Bi112  1  0.58955693  0.00072684  0.20797608  1
  Bi2+  Bi113  1  0.62974715  0.01909220  0.71330086  1
  Bi2+  Bi114  1  0.63939121  0.17459060  0.25343453  1
  Bi2+  Bi115  1  0.65972011  0.27443815  0.71781029  1
  Bi2+  Bi116  1  0.59938745  0.46812266  0.22077319  1
  Bi2+  Bi117  1  0.60386566  0.46172241  0.74467619  1
  Bi2+  Bi118  1  0.59583987  0.74001577  0.21424232  1
  Bi2+  Bi119  1  0.70785051  0.73564646  0.70161478  1
  Bi2+  Bi120  1  0.86430607  0.00802215  0.21848923  1
  Bi2+  Bi121  1  0.92985823  0.09379698  0.74757898  1
  Bi2+  Bi122  1  0.90734311  0.21088098  0.19936058  1
  Bi2+  Bi123  1  0.92515634  0.26969488  0.69736990  1
  Bi2+  Bi124  1  0.85169192  0.43991474  0.19402329  1
  Bi2+  Bi125  1  0.93501173  0.56224019  0.67782826  1
  Bi2+  Bi126  1  0.87196583  0.75803108  0.21494319  1
  Bi2+  Bi127  1  0.88660573  0.81320903  0.68104266  1
  S2-  S128  1  -0.00591869  0.02099605  0.14204299  1
  S2-  S129  1  -0.10887027  0.11735025  0.64481482  1
  S2-  S130  1  0.01578494  0.41354585  0.16414225  1
  S2-  S131  1  0.04372280  0.34343453  0.64516972  1
  S2-  S132  1  -0.10961551  0.61042040  0.16325643  1
  S2-  S133  1  0.08251416  0.60520421  0.62159989  1
  S2-  S134  1  0.00195358  0.79367694  0.15063873  1
  S2-  S135  1  0.03264482  0.90433196  0.64973520  1
  S2-  S136  1  0.26151319  0.15066703  0.15555200  1
  S2-  S137  1  0.15388634  0.12610292  0.64028432  1
  S2-  S138  1  0.25694364  0.40084406  0.15678576  1
  S2-  S139  1  0.29245631  0.36536177  0.65682122  1
  S2-  S140  1  0.13715532  0.62011276  0.15393163  1
  S2-  S141  1  0.34511970  0.59696249  0.65350175  1
  S2-  S142  1  0.26164297  0.80043557  0.14725533  1
  S2-  S143  1  0.21396735  0.75724310  0.63764365  1
  S2-  S144  1  0.51617029  0.13966888  0.15329316  1
  S2-  S145  1  0.50091381  0.02472534  0.65436494  1
  S2-  S146  1  0.49159734  0.37925579  0.14999991  1
  S2-  S147  1  0.51245898  0.45373696  0.64940215  1
  S2-  S148  1  0.38876212  0.62832669  0.13806296  1
  S2-  S149  1  0.50255777  0.74612835  0.67335717  1
  S2-  S150  1  0.55476137  0.88678756  0.14029449  1
  S2-  S151  1  0.34990745  0.89799782  0.65166793  1
  S2-  S152  1  0.73415015  0.03294281  0.15038260  1
  S2-  S153  1  0.65146442  0.14712747  0.64774491  1
  S2-  S154  1  0.76312950  0.27621996  0.14694471  1
  S2-  S155  1  0.77762195  0.34673627  0.65155583  1
  S2-  S156  1  0.71131400  0.50875439  0.14779067  1
  S2-  S157  1  0.67433786  0.60216947  0.64992788  1
  S2-  S158  1  0.73666986  0.76766790  0.15273500  1
  S2-  S159  1  0.67214806  0.89154539  0.64965057  1
  S2-  S160  1  0.15139712  -0.09096880  0.35228667  1
  S2-  S161  1  0.08912593  -0.07869772  0.85958550  1
  S2-  S162  1  0.13818159  0.33870895  0.35000032  1
  S2-  S163  1  0.07710305  0.26750792  0.85155225  1
  S2-  S164  1  0.10169950  0.53170042  0.31174783  1
  S2-  S165  1  0.19487603  0.50314772  0.85718128  1
  S2-  S166  1  0.09736295  0.72909605  0.31034561  1
  S2-  S167  1  0.21929589  0.73000195  0.85440411  1
  S2-  S168  1  0.50821355  0.00690162  0.36416822  1
  S2-  S169  1  0.33423335  -0.07948429  0.85627518  1
  S2-  S170  1  0.38146075  0.27388403  0.34711452  1
  S2-  S171  1  0.35251542  0.35010475  0.85283719  1
  S2-  S172  1  0.29452346  0.50776855  0.35277892  1
  S2-  S173  1  0.39665797  0.55934267  0.81316444  1
  S2-  S174  1  0.30941962  0.75136823  0.36051037  1
  S2-  S175  1  0.47551276  0.75429246  0.85244429  1
  S2-  S176  1  0.74040295  0.01607857  0.36112057  1
  S2-  S177  1  0.56635294  -0.03093141  0.81435420  1
  S2-  S178  1  0.61556557  0.24183395  0.34968909  1
  S2-  S179  1  0.62002957  0.17874184  0.85320887  1
  S2-  S180  1  0.70618587  0.49944574  0.35050352  1
  S2-  S181  1  0.63644074  0.46647812  0.85150134  1
  S2-  S182  1  0.68224675  0.76956537  0.35533986  1
  S2-  S183  1  0.68887707  0.74529627  0.84129094  1
  S2-  S184  1  0.89356565  -0.12497445  0.35026700  1
  S2-  S185  1  0.78684612  0.02135298  0.85733955  1
  S2-  S186  1  0.85300327  0.31224230  0.35080526  1
  S2-  S187  1  0.82385772  0.30724931  0.84797904  1
  S2-  S188  1  0.91039206  0.46491718  0.28277206  1
  S2-  S189  1  0.97632471  0.51553188  0.86832918  1
  S2-  S190  1  0.86616089  0.64756980  0.33950323  1
  S2-  S191  1  0.94647273  0.74972467  0.86931431  1
  S2-  S192  1  0.00535698  0.11954846  0.46299598  1
  S2-  S193  1  -0.01692036  0.13726453  0.96137984  1
  S2-  S194  1  0.00260549  0.37782601  0.44276187  1
  S2-  S195  1  -0.01394849  0.38864314  0.96265548  1
  S2-  S196  1  0.01240971  0.62022234  0.42868264  1
  S2-  S197  1  -0.01636041  0.64394751  0.97247276  1
  S2-  S198  1  0.00759369  0.87302105  0.44698383  1
  S2-  S199  1  -0.02233694  0.89785583  0.96418955  1
  S2-  S200  1  0.26336275  0.12053313  0.45323022  1
  S2-  S201  1  0.23362824  0.14021746  0.95513037  1
  S2-  S202  1  0.26272173  0.36648410  0.45325032  1
  S2-  S203  1  0.23033254  0.38809390  0.95687458  1
  S2-  S204  1  0.25669315  0.62366055  0.45570417  1
  S2-  S205  1  0.23314081  0.63997367  0.95959801  1
  S2-  S206  1  0.26670425  0.88075380  0.45678182  1
  S2-  S207  1  0.23069701  0.89599027  0.95886651  1
  S2-  S208  1  0.51536121  0.12701252  0.46500217  1
  S2-  S209  1  0.48200159  0.14423804  0.94740005  1
  S2-  S210  1  0.51185404  0.37237455  0.45507274  1
  S2-  S211  1  0.48180949  0.39265034  0.94897703  1
  S2-  S212  1  0.50961155  0.62263487  0.43864173  1
  S2-  S213  1  0.47704826  0.63464828  0.94978962  1
  S2-  S214  1  0.50958627  0.87064504  0.45637108  1
  S2-  S215  1  0.49386372  0.90663588  0.94483358  1
  S2-  S216  1  0.76081914  0.12648490  0.46080040  1
  S2-  S217  1  0.73461546  0.14528285  0.96338056  1
  S2-  S218  1  0.76208597  0.37445134  0.45322913  1
  S2-  S219  1  0.73936178  0.39473943  0.96304917  1
  S2-  S220  1  0.76224681  0.62160334  0.45534327  1
  S2-  S221  1  0.73748986  0.64094857  0.95787609  1
  S2-  S222  1  0.75801023  0.87377687  0.45869638  1
  S2-  S223  1  0.73149660  0.89244183  0.95488980  1
  S2-  S224  1  0.11604920  0.02112775  0.04577906  1
  S2-  S225  1  0.13743896  -0.00485434  0.54212668  1
  S2-  S226  1  0.11117859  0.26422345  0.05553108  1
  S2-  S227  1  0.13765498  0.24900762  0.53860378  1
  S2-  S228  1  0.11135006  0.51563914  0.04794504  1
  S2-  S229  1  0.13900098  0.49322192  0.52636437  1
  S2-  S230  1  0.11319504  0.77144590  0.04402855  1
  S2-  S231  1  0.13328657  0.74916123  0.52310494  1
  S2-  S232  1  0.36198298  0.01982492  0.04462370  1
  S2-  S233  1  0.38976772  0.00296318  0.54379569  1
  S2-  S234  1  0.35847478  0.26988082  0.04443951  1
  S2-  S235  1  0.38818836  0.24717091  0.55098918  1
  S2-  S236  1  0.35770592  0.51323419  0.03919959  1
  S2-  S237  1  0.38497704  0.50025111  0.54455669  1
  S2-  S238  1  0.36584019  0.77489317  0.03429930  1
  S2-  S239  1  0.39239683  0.74137014  0.55315815  1
  S2-  S240  1  0.61364576  0.02568975  0.04217756  1
  S2-  S241  1  0.63560040  -0.00132371  0.54405070  1
  S2-  S242  1  0.61013556  0.27296891  0.04448075  1
  S2-  S243  1  0.63319854  0.25706248  0.54905885  1
  S2-  S244  1  0.60623453  0.51894927  0.04666623  1
  S2-  S245  1  0.63223198  0.49738345  0.54399118  1
  S2-  S246  1  0.61078452  0.76328775  0.03996556  1
  S2-  S247  1  0.62896926  0.74630563  0.55257718  1
  S2-  S248  1  0.85508965  0.02151999  0.05029143  1
  S2-  S249  1  0.88462366  -0.00687093  0.54183631  1
  S2-  S250  1  0.86809578  0.26377618  0.04797292  1
  S2-  S251  1  0.88645083  0.25358673  0.54295266  1
  S2-  S252  1  0.86416864  0.51682193  0.05012191  1
  S2-  S253  1  0.88572163  0.49815200  0.54971176  1
  S2-  S254  1  0.85809451  0.77198765  0.05265339  1
  S2-  S255  1  0.88425193  0.74505244  0.53846280  1
