# generated using pymatgen
data_La6Ce7Pr13Nd19Sm19(BiS2)64
_symmetry_space_group_name_H-M   'P 1'
_cell_length_a   16.01501276
_cell_length_b   16.04883823
_cell_length_c   27.41944389
_cell_angle_alpha   90.32421423
_cell_angle_beta   89.77412114
_cell_angle_gamma   90.00654771
_symmetry_Int_Tables_number   1
_chemical_formula_structural   La6Ce7Pr13Nd19Sm19(BiS2)64
_chemical_formula_sum   'La6 Ce7 Pr13 Nd19 Sm19 Bi64 S128'
_cell_volume   7047.24225732
_cell_formula_units_Z   1
loop_
 _symmetry_equiv_pos_site_id
 _symmetry_equiv_pos_as_xyz
  1  'x, y, z'
loop_
 _atom_type_symbol
 _atom_type_oxidation_number
  La3+  3.0
  Ce3+  3.0
  Pr3+  3.0
  Nd3+  3.0
  Sm3+  3.0
  Bi2+  2.0
  S2-  -2.0
loop_
 _atom_site_type_symbol
 _atom_site_label
 _atom_site_symmetry_multiplicity
 _atom_site_fract_x
 _atom_site_fract_y
 _atom_site_fract_z
 _atom_site_occupancy
  La3+  La0  1  0.01107426  0.87794869  0.08093106  1
  La3+  La1  1  0.37385438  0.74110652  0.41341597  1
  La3+  La2  1  0.64621599  0.25464770  0.92746444  1
  La3+  La3  1  0.73727203  0.12320200  0.57995208  1
  La3+  La4  1  0.64377603  0.78506532  0.88447763  1
  La3+  La5  1  0.13841852  0.00331921  0.93642981  1
  Ce3+  Ce6  1  0.74260653  0.62854578  0.56906290  1
  Ce3+  Ce7  1  0.13608788  0.50665705  0.94919677  1
  Ce3+  Ce8  1  0.75740955  0.37822944  0.07210307  1
  Ce3+  Ce9  1  0.50786647  0.14147304  0.06336593  1
  Ce3+  Ce10  1  0.64436805  0.51404466  0.92928812  1
  Ce3+  Ce11  1  0.38440790  0.50605446  0.94501007  1
  Ce3+  Ce12  1  0.36690308  0.49965558  0.44182425  1
  Pr3+  Pr13  1  0.73696028  0.87712224  0.58679346  1
  Pr3+  Pr14  1  0.50840592  0.88000429  0.07033053  1
  Pr3+  Pr15  1  0.38296514  0.25542669  0.93028318  1
  Pr3+  Pr16  1  0.38686266  0.00177491  0.94782486  1
  Pr3+  Pr17  1  0.24081048  0.12509527  0.56414135  1
  Pr3+  Pr18  1  0.25782551  0.37798648  0.07157840  1
  Pr3+  Pr19  1  0.72902861  0.38168823  0.59905530  1
  Pr3+  Pr20  1  0.25355302  0.13657250  0.07218874  1
  Pr3+  Pr21  1  0.24006904  0.86444845  0.57830473  1
  Pr3+  Pr22  1  0.48808202  0.62938046  0.56191897  1
  Pr3+  Pr23  1  0.61701312  0.00431145  0.43383234  1
  Pr3+  Pr24  1  0.10661577  0.73841785  0.41247231  1
  Pr3+  Pr25  1  0.23306494  0.62431639  0.56008477  1
  Nd3+  Nd26  1  0.36584850  -0.00718408  0.43994642  1
  Nd3+  Nd27  1  0.11372437  0.24342155  0.43121111  1
  Nd3+  Nd28  1  0.88432387  0.50571949  0.94618030  1
  Nd3+  Nd29  1  0.26300727  0.88732022  0.07928336  1
  Nd3+  Nd30  1  0.38730248  0.75224961  0.93907115  1
  Nd3+  Nd31  1  0.11922636  -0.00737778  0.42911567  1
  Nd3+  Nd32  1  0.23971478  0.37478214  0.55154072  1
  Nd3+  Nd33  1  0.75785136  0.13086238  0.07095415  1
  Nd3+  Nd34  1  0.63425058  0.00884725  0.94697413  1
  Nd3+  Nd35  1  0.51284469  0.63012411  0.06194692  1
  Nd3+  Nd36  1  0.26568993  0.63515069  0.07289178  1
  Nd3+  Nd37  1  -0.01220310  0.37206057  0.55606921  1
  Nd3+  Nd38  1  0.13923229  0.75851099  0.93899760  1
  Nd3+  Nd39  1  0.01286477  0.38061741  0.06607443  1
  Nd3+  Nd40  1  0.48677436  0.12188268  0.56738865  1
  Nd3+  Nd41  1  0.48762719  0.87412429  0.56500721  1
  Nd3+  Nd42  1  -0.00242077  0.11826220  0.56181933  1
  Nd3+  Nd43  1  0.75278276  0.63134795  0.06697847  1
  Nd3+  Nd44  1  0.88324921  0.00024429  0.94615479  1
  Sm3+  Sm45  1  0.86563213  -0.00296652  0.44212454  1
  Sm3+  Sm46  1  0.51360774  0.38036045  0.04204752  1
  Sm3+  Sm47  1  0.61901776  0.49581950  0.44468211  1
  Sm3+  Sm48  1  0.11546442  0.49831041  0.43316414  1
  Sm3+  Sm49  1  0.13803053  0.24992306  0.93319130  1
  Sm3+  Sm50  1  0.61784520  0.74924405  0.44358511  1
  Sm3+  Sm51  1  0.61688206  0.24652823  0.44693536  1
  Sm3+  Sm52  1  0.00892921  0.12252124  0.06769292  1
  Sm3+  Sm53  1  0.86245620  0.49485786  0.44553956  1
  Sm3+  Sm54  1  0.86379994  0.74676374  0.44190785  1
  Sm3+  Sm55  1  0.36605274  0.24602580  0.44102359  1
  Sm3+  Sm56  1  0.86610085  0.24522376  0.44562637  1
  Sm3+  Sm57  1  0.88671202  0.25242678  0.94712644  1
  Sm3+  Sm58  1  0.00847042  0.63825549  0.06277993  1
  Sm3+  Sm59  1  -0.00832285  0.62568211  0.55707415  1
  Sm3+  Sm60  1  0.49259932  0.37478327  0.56049125  1
  Sm3+  Sm61  1  0.74838707  0.88408636  0.07334068  1
  Sm3+  Sm62  1  0.87978351  0.75731058  0.94810361  1
  Sm3+  Sm63  1  -0.00195732  0.87338069  0.55055255  1
  Bi2+  Bi64  1  -0.04531667  0.19474916  0.24881150  1
  Bi2+  Bi65  1  -0.01791028  0.13629545  0.79567139  1
  Bi2+  Bi66  1  -0.02138499  0.37768411  0.29321551  1
  Bi2+  Bi67  1  0.00574994  0.35449091  0.79733599  1
  Bi2+  Bi68  1  -0.08502803  0.62153052  0.28152290  1
  Bi2+  Bi69  1  0.03980011  0.63783539  0.79924173  1
  Bi2+  Bi70  1  -0.05001537  0.87626239  0.28858229  1
  Bi2+  Bi71  1  0.03505229  0.87169451  0.77455741  1
  Bi2+  Bi72  1  0.25498029  0.15021337  0.30392489  1
  Bi2+  Bi73  1  0.23419009  0.09794897  0.78342200  1
  Bi2+  Bi74  1  0.26718578  0.38739493  0.28830006  1
  Bi2+  Bi75  1  0.20675540  0.37452553  0.78803497  1
  Bi2+  Bi76  1  0.23177773  0.57410037  0.28505268  1
  Bi2+  Bi77  1  0.25119159  0.61607908  0.78860559  1
  Bi2+  Bi78  1  0.24071237  0.92057736  0.29672950  1
  Bi2+  Bi79  1  0.26105166  0.86693738  0.80341364  1
  Bi2+  Bi80  1  0.50787482  0.11537018  0.30776182  1
  Bi2+  Bi81  1  0.43845240  0.19314351  0.78463877  1
  Bi2+  Bi82  1  0.56423287  0.38157743  0.29406717  1
  Bi2+  Bi83  1  0.43415212  0.39224906  0.79227191  1
  Bi2+  Bi84  1  0.48373484  0.55925815  0.27948881  1
  Bi2+  Bi85  1  0.47171652  0.65486607  0.79208914  1
  Bi2+  Bi86  1  0.49753148  0.84974060  0.28757184  1
  Bi2+  Bi87  1  0.51518542  0.91042288  0.78122683  1
  Bi2+  Bi88  1  0.76282618  0.19138544  0.28464966  1
  Bi2+  Bi89  1  0.72266913  0.10127599  0.81190253  1
  Bi2+  Bi90  1  0.76932483  0.38980100  0.27588402  1
  Bi2+  Bi91  1  0.71881274  0.36082005  0.79999347  1
  Bi2+  Bi92  1  0.71665180  0.65745016  0.29978291  1
  Bi2+  Bi93  1  0.84666673  0.61364663  0.79870419  1
  Bi2+  Bi94  1  0.74621784  0.84872797  0.28273248  1
  Bi2+  Bi95  1  0.83763954  0.88236227  0.77675356  1
  Bi2+  Bi96  1  0.11535562  0.02418010  0.20387759  1
  Bi2+  Bi97  1  0.13978148  -0.00401688  0.70012874  1
  Bi2+  Bi98  1  0.16977145  0.27797356  0.20880759  1
  Bi2+  Bi99  1  0.11777613  0.22780901  0.72619702  1
  Bi2+  Bi100  1  0.01760571  0.49797104  0.20576078  1
  Bi2+  Bi101  1  0.04363977  0.49408917  0.71419365  1
  Bi2+  Bi102  1  0.09596918  0.75465166  0.21915304  1
  Bi2+  Bi103  1  0.13686495  0.73131404  0.70113976  1
  Bi2+  Bi104  1  0.39416839  -0.00690582  0.21254263  1
  Bi2+  Bi105  1  0.38937841  0.02950082  0.72116656  1
  Bi2+  Bi106  1  0.41835029  0.29845358  0.21976219  1
  Bi2+  Bi107  1  0.37311282  0.29710188  0.69197452  1
  Bi2+  Bi108  1  0.35395540  0.48773646  0.20300380  1
  Bi2+  Bi109  1  0.31859751  0.48743609  0.70899188  1
  Bi2+  Bi110  1  0.33296855  0.73080532  0.21004151  1
  Bi2+  Bi111  1  0.40882773  0.76835714  0.70160163  1
  Bi2+  Bi112  1  0.63373829  -0.01547500  0.21130630  1
  Bi2+  Bi113  1  0.63697446  -0.00631173  0.70993177  1
  Bi2+  Bi114  1  0.61113556  0.22772815  0.20264640  1
  Bi2+  Bi115  1  0.61480733  0.25715212  0.71266971  1
  Bi2+  Bi116  1  0.63743221  0.45871822  0.19465590  1
  Bi2+  Bi117  1  0.59437492  0.50027242  0.77210226  1
  Bi2+  Bi118  1  0.59982072  0.72297434  0.21816437  1
  Bi2+  Bi119  1  0.65866018  0.67145892  0.70836218  1
  Bi2+  Bi120  1  0.85709564  0.02276473  0.23512609  1
  Bi2+  Bi121  1  0.93849354  0.01088512  0.70817407  1
  Bi2+  Bi122  1  0.89812577  0.34261013  0.17868717  1
  Bi2+  Bi123  1  0.87254090  0.26240648  0.73190056  1
  Bi2+  Bi124  1  0.82341661  0.53129457  0.17862819  1
  Bi2+  Bi125  1  0.84636726  0.47029543  0.71773984  1
  Bi2+  Bi126  1  0.82482917  0.73675365  0.20007851  1
  Bi2+  Bi127  1  0.91765178  0.73279888  0.71515889  1
  S2-  S128  1  0.11183596  0.16431503  0.14449656  1
  S2-  S129  1  0.11419190  0.13571755  0.63635243  1
  S2-  S130  1  0.12685777  0.39437106  0.14437505  1
  S2-  S131  1  -0.03413442  0.37690523  0.65384945  1
  S2-  S132  1  -0.01585856  0.73411666  0.14648482  1
  S2-  S133  1  0.09439609  0.60578537  0.63543389  1
  S2-  S134  1  -0.01740598  1.01157605  0.15045605  1
  S2-  S135  1  0.08836112  0.86434673  0.63452244  1
  S2-  S136  1  0.27121471  0.03162260  0.15619264  1
  S2-  S137  1  0.35952631  0.13860499  0.64011095  1
  S2-  S138  1  0.30611035  0.25884902  0.14476884  1
  S2-  S139  1  0.22886294  0.37562584  0.65017024  1
  S2-  S140  1  0.19019915  0.65560597  0.16645015  1
  S2-  S141  1  0.27486406  0.72012133  0.64212353  1
  S2-  S142  1  0.14381164  0.87321171  0.15718291  1
  S2-  S143  1  0.37137400  0.90059304  0.64676179  1
  S2-  S144  1  0.51654978  0.09063595  0.15760861  1
  S2-  S145  1  0.58906249  0.12283443  0.64953230  1
  S2-  S146  1  0.52715988  0.35195014  0.13872376  1
  S2-  S147  1  0.57028355  0.37213980  0.64899023  1
  S2-  S148  1  0.40167129  0.63377048  0.14446435  1
  S2-  S149  1  0.49973151  0.63801325  0.66250354  1
  S2-  S150  1  0.39247590  0.86066898  0.15229209  1
  S2-  S151  1  0.59134363  0.87497463  0.64781109  1
  S2-  S152  1  0.75916482  0.01270219  0.14800075  1
  S2-  S153  1  0.78254544  0.00418045  0.65381951  1
  S2-  S154  1  0.74641198  0.25379262  0.14378059  1
  S2-  S155  1  0.76322018  0.24295318  0.65659085  1
  S2-  S156  1  0.62639670  0.61100294  0.14095929  1
  S2-  S157  1  0.72824998  0.53170883  0.65211445  1
  S2-  S158  1  0.62436404  0.85921368  0.14962985  1
  S2-  S159  1  0.77493732  0.74165944  0.64702052  1
  S2-  S160  1  0.13045023  0.05454663  0.33509322  1
  S2-  S161  1  0.11812471  -0.11935595  0.86292844  1
  S2-  S162  1  0.15308285  0.27020412  0.33588846  1
  S2-  S163  1  0.11447943  0.12304415  0.86092200  1
  S2-  S164  1  0.11388890  0.59087614  0.35087550  1
  S2-  S165  1  0.14370768  0.51882438  0.85231456  1
  S2-  S166  1  0.11969113  0.82276038  0.32078207  1
  S2-  S167  1  0.26224748  0.73565918  0.86331174  1
  S2-  S168  1  0.36952309  0.01925953  0.34089131  1
  S2-  S169  1  0.32328254  -0.01035945  0.85359465  1
  S2-  S170  1  0.40108030  0.23310515  0.34619943  1
  S2-  S171  1  0.25881259  0.28160877  0.86112301  1
  S2-  S172  1  0.37041637  0.58103872  0.35602840  1
  S2-  S173  1  0.37604071  0.53588754  0.84939358  1
  S2-  S174  1  0.33243192  0.78623812  0.31247896  1
  S2-  S175  1  0.47178471  0.78675067  0.85143044  1
  S2-  S176  1  0.59364331  -0.02906176  0.33414943  1
  S2-  S177  1  0.64239078  -0.04098706  0.85119229  1
  S2-  S178  1  0.63484408  0.16739789  0.36006222  1
  S2-  S179  1  0.58512871  0.16852938  0.84390621  1
  S2-  S180  1  0.62067003  0.52744692  0.34823251  1
  S2-  S181  1  0.61398871  0.61755755  0.85027823  1
  S2-  S182  1  0.53151211  0.74983685  0.35930021  1
  S2-  S183  1  0.64476503  0.78979886  0.77297879  1
  S2-  S184  1  0.87546903  -0.00427260  0.34412713  1
  S2-  S185  1  0.86712323  0.01438095  0.84645447  1
  S2-  S186  1  0.90312323  0.23412384  0.34977206  1
  S2-  S187  1  0.79220630  0.24071929  0.86336682  1
  S2-  S188  1  0.87195983  0.48605137  0.34755746  1
  S2-  S189  1  0.78480188  0.48976882  0.86491173  1
  S2-  S190  1  0.94124958  0.73764742  0.35520526  1
  S2-  S191  1  0.81660338  0.76656207  0.85665428  1
  S2-  S192  1  -0.00753239  0.11913809  0.45429008  1
  S2-  S193  1  0.00500514  0.12816434  0.96221088  1
  S2-  S194  1  -0.00915044  0.37269325  0.44997560  1
  S2-  S195  1  0.01029253  0.37758010  0.95483052  1
  S2-  S196  1  -0.01396016  0.61671116  0.45494325  1
  S2-  S197  1  0.00753527  0.63466250  0.95749628  1
  S2-  S198  1  -0.00983728  0.87350428  0.44808988  1
  S2-  S199  1  0.00514409  0.87620715  0.96501471  1
  S2-  S200  1  0.24162807  0.12414552  0.45168105  1
  S2-  S201  1  0.26250337  0.13152084  0.95964535  1
  S2-  S202  1  0.24005956  0.37238437  0.44555031  1
  S2-  S203  1  0.25856963  0.38353234  0.96299767  1
  S2-  S204  1  0.23915476  0.62046248  0.45282160  1
  S2-  S205  1  0.26004169  0.62771576  0.96577729  1
  S2-  S206  1  0.24097485  0.86678671  0.43448740  1
  S2-  S207  1  0.26331297  0.87894357  0.96724626  1
  S2-  S208  1  0.48824238  0.12466834  0.45989553  1
  S2-  S209  1  0.50839588  0.13340017  0.95570470  1
  S2-  S210  1  0.49273008  0.37178115  0.45361903  1
  S2-  S211  1  0.51435981  0.38073961  0.93740125  1
  S2-  S212  1  0.49737239  0.61934029  0.45689871  1
  S2-  S213  1  0.50836481  0.62599178  0.95739162  1
  S2-  S214  1  0.49433250  0.87538069  0.45547297  1
  S2-  S215  1  0.51545024  0.87998413  0.95799655  1
  S2-  S216  1  0.74627922  0.12325116  0.46154423  1
  S2-  S217  1  0.76342442  0.12757477  0.96424075  1
  S2-  S218  1  0.74125334  0.36835336  0.44519407  1
  S2-  S219  1  0.76671321  0.37695958  0.96546114  1
  S2-  S220  1  0.74135320  0.62251193  0.45706396  1
  S2-  S221  1  0.76385393  0.63236145  0.96201317  1
  S2-  S222  1  0.74273683  0.87252864  0.44311936  1
  S2-  S223  1  0.75479606  0.88033097  0.96070560  1
  S2-  S224  1  0.13479733  0.00446933  0.04633561  1
  S2-  S225  1  0.12405016  -0.00504335  0.53562353  1
  S2-  S226  1  0.13039636  0.25720418  0.03788878  1
  S2-  S227  1  0.11574823  0.25167652  0.53788019  1
  S2-  S228  1  0.13203057  0.51550276  0.05210424  1
  S2-  S229  1  0.11147445  0.49462570  0.53622247  1
  S2-  S230  1  0.13679994  0.75388646  0.04679812  1
  S2-  S231  1  0.11345310  0.74703194  0.53066371  1
  S2-  S232  1  0.38713719  0.01204450  0.05148931  1
  S2-  S233  1  0.36111758  -0.00474201  0.54222367  1
  S2-  S234  1  0.38646286  0.26046328  0.03609201  1
  S2-  S235  1  0.36864920  0.25540250  0.54291588  1
  S2-  S236  1  0.38560927  0.49905930  0.04977652  1
  S2-  S237  1  0.36636187  0.49876230  0.54936779  1
  S2-  S238  1  0.38572042  0.75675074  0.04445422  1
  S2-  S239  1  0.36488730  0.75012882  0.53432200  1
  S2-  S240  1  0.62907402  0.01087128  0.04970438  1
  S2-  S241  1  0.61686850  -0.00240692  0.54231767  1
  S2-  S242  1  0.63564395  0.25555163  0.03725446  1
  S2-  S243  1  0.61725784  0.25293552  0.54764478  1
  S2-  S244  1  0.63747149  0.49998042  0.03724210  1
  S2-  S245  1  0.61465860  0.49917099  0.54680458  1
  S2-  S246  1  0.63515050  0.75663708  0.04880121  1
  S2-  S247  1  0.61891738  0.75059256  0.54572447  1
  S2-  S248  1  0.87997612  0.00199973  0.04848081  1
  S2-  S249  1  0.87299171  -0.00483550  0.54614124  1
  S2-  S250  1  0.89084614  0.25308240  0.04967731  1
  S2-  S251  1  0.87148261  0.24230806  0.54943982  1
  S2-  S252  1  0.88747214  0.50796197  0.05142279  1
  S2-  S253  1  0.86535258  0.49854790  0.54986848  1
  S2-  S254  1  0.87334178  0.75908871  0.05031113  1
  S2-  S255  1  0.87233150  0.75362588  0.54370584  1
