# generated using pymatgen
data_La6Ce7Pr13Nd19Sm19(BiS2)64
_symmetry_space_group_name_H-M   'P 1'
_cell_length_a   16.13705106
_cell_length_b   16.07475640
_cell_length_c   27.32738602
_cell_angle_alpha   89.96332581
_cell_angle_beta   90.11601489
_cell_angle_gamma   90.05793962
_symmetry_Int_Tables_number   1
_chemical_formula_structural   La6Ce7Pr13Nd19Sm19(BiS2)64
_chemical_formula_sum   'La6 Ce7 Pr13 Nd19 Sm19 Bi64 S128'
_cell_volume   7088.68151213
_cell_formula_units_Z   1
loop_
 _symmetry_equiv_pos_site_id
 _symmetry_equiv_pos_as_xyz
  1  'x, y, z'
loop_
 _atom_type_symbol
 _atom_type_oxidation_number
  La3+  3.0
  Ce3+  3.0
  Pr3+  3.0
  Nd3+  3.0
  Sm3+  3.0
  Bi2+  2.0
  S2-  -2.0
loop_
 _atom_site_type_symbol
 _atom_site_label
 _atom_site_symmetry_multiplicity
 _atom_site_fract_x
 _atom_site_fract_y
 _atom_site_fract_z
 _atom_site_occupancy
  La3+  La0  1  0.88385583  0.00521163  0.43710250  1
  La3+  La1  1  0.63061150  0.75292290  0.38781134  1
  La3+  La2  1  0.76819514  0.12062464  0.58152522  1
  La3+  La3  1  0.39093562  0.24952110  0.41710020  1
  La3+  La4  1  0.60320895  0.26122093  0.88519718  1
  La3+  La5  1  0.38371575  0.75199279  0.43412801  1
  Ce3+  Ce6  1  0.11813711  0.49085997  0.94691361  1
  Ce3+  Ce7  1  0.86613141  -0.01673939  0.93065862  1
  Ce3+  Ce8  1  0.63992184  -0.00248396  0.44667583  1
  Ce3+  Ce9  1  0.88440324  0.25042402  0.43223545  1
  Ce3+  Ce10  1  0.51477574  0.87546986  0.55810970  1
  Ce3+  Ce11  1  0.63496665  0.25144450  0.43909799  1
  Ce3+  Ce12  1  0.11862234  -0.01072696  0.94108407  1
  Pr3+  Pr13  1  0.11773504  0.24216511  0.93690336  1
  Pr3+  Pr14  1  0.24765300  0.61565600  0.06058037  1
  Pr3+  Pr15  1  0.74556624  0.11386723  0.06270064  1
  Pr3+  Pr16  1  0.49731280  0.36368913  0.05872029  1
  Pr3+  Pr17  1  0.85979089  0.23933494  0.93689182  1
  Pr3+  Pr18  1  0.88555593  0.50577190  0.43847148  1
  Pr3+  Pr19  1  0.75337037  0.62335840  0.09398108  1
  Pr3+  Pr20  1  -0.00958442  0.36680552  0.05918258  1
  Pr3+  Pr21  1  -0.00975057  0.86579127  0.05778693  1
  Pr3+  Pr22  1  0.49407385  0.11933455  0.04677424  1
  Pr3+  Pr23  1  0.24327655  0.36254153  0.06417196  1
  Pr3+  Pr24  1  0.35336600  0.23659644  0.89130169  1
  Pr3+  Pr25  1  0.02122841  0.87762592  0.56857205  1
  Nd3+  Nd26  1  0.38895271  0.50384248  0.44906807  1
  Nd3+  Nd27  1  0.13703261  0.75516597  0.43719888  1
  Nd3+  Nd28  1  0.24520728  0.86419264  0.06022501  1
  Nd3+  Nd29  1  0.74260571  0.87020538  0.06362513  1
  Nd3+  Nd30  1  0.49688980  0.61887349  0.05878189  1
  Nd3+  Nd31  1  0.14022204  0.25267149  0.44236185  1
  Nd3+  Nd32  1  0.01453052  0.62769768  0.55579679  1
  Nd3+  Nd33  1  0.86697123  0.73253402  0.93403928  1
  Nd3+  Nd34  1  0.76964838  0.86957918  0.57174790  1
  Nd3+  Nd35  1  0.36811797  0.74290869  0.93124587  1
  Nd3+  Nd36  1  0.36745927  -0.00783903  0.92825289  1
  Nd3+  Nd37  1  0.49387503  0.86716975  0.05761411  1
  Nd3+  Nd38  1  0.88656068  0.76173765  0.43356701  1
  Nd3+  Nd39  1  0.76218749  0.37548199  0.55285889  1
  Nd3+  Nd40  1  0.61921053  0.74706050  0.93526566  1
  Nd3+  Nd41  1  0.24644849  0.11515910  0.05944903  1
  Nd3+  Nd42  1  0.61689507  -0.00252176  0.92910051  1
  Nd3+  Nd43  1  0.26617195  0.37518623  0.55909883  1
  Nd3+  Nd44  1  0.38679838  0.00430024  0.44240884  1
  Sm3+  Sm45  1  0.01038135  0.37642105  0.55210736  1
  Sm3+  Sm46  1  0.26657315  0.87727961  0.56335517  1
  Sm3+  Sm47  1  0.51516304  0.63037175  0.56053762  1
  Sm3+  Sm48  1  0.37017739  0.48452683  0.94151016  1
  Sm3+  Sm49  1  0.13919558  0.00648839  0.45134708  1
  Sm3+  Sm50  1  0.76384678  0.63194395  0.56079545  1
  Sm3+  Sm51  1  0.01046835  0.12939658  0.56072238  1
  Sm3+  Sm52  1  0.63683663  0.51040841  0.44500973  1
  Sm3+  Sm53  1  0.11769427  0.73743321  0.94937729  1
  Sm3+  Sm54  1  0.26596744  0.13141617  0.56700482  1
  Sm3+  Sm55  1  0.61793710  0.49265113  0.94826918  1
  Sm3+  Sm56  1  0.86273990  0.49087270  0.94753291  1
  Sm3+  Sm57  1  0.74163202  0.36499084  0.05787947  1
  Sm3+  Sm58  1  0.13768252  0.50136029  0.44603411  1
  Sm3+  Sm59  1  0.51456940  0.37563063  0.56046981  1
  Sm3+  Sm60  1  0.26360521  0.62629658  0.56082070  1
  Sm3+  Sm61  1  -0.00914559  0.11522112  0.04887315  1
  Sm3+  Sm62  1  -0.00867587  0.61611138  0.06442672  1
  Sm3+  Sm63  1  0.51345376  0.12714448  0.56200195  1
  Bi2+  Bi64  1  -0.04734135  0.08380356  0.27850057  1
  Bi2+  Bi65  1  0.02715830  0.13902593  0.76997150  1
  Bi2+  Bi66  1  -0.08352810  0.36151343  0.31177866  1
  Bi2+  Bi67  1  0.01411959  0.41322219  0.77293124  1
  Bi2+  Bi68  1  0.00570056  0.61280824  0.29674013  1
  Bi2+  Bi69  1  0.02491532  0.60436940  0.80628527  1
  Bi2+  Bi70  1  0.03678585  0.80185439  0.31519947  1
  Bi2+  Bi71  1  0.03937551  0.86873765  0.79751169  1
  Bi2+  Bi72  1  0.23073995  0.14949374  0.30491608  1
  Bi2+  Bi73  1  0.22853278  0.10889080  0.77400945  1
  Bi2+  Bi74  1  0.18635675  0.39156933  0.27182631  1
  Bi2+  Bi75  1  0.24166150  0.37482999  0.78815409  1
  Bi2+  Bi76  1  0.23864739  0.61881365  0.29713923  1
  Bi2+  Bi77  1  0.34741833  0.62377091  0.81888675  1
  Bi2+  Bi78  1  0.27464520  0.87056660  0.28552885  1
  Bi2+  Bi79  1  0.25353703  0.78997220  0.78583173  1
  Bi2+  Bi80  1  0.53609634  0.13784804  0.28122430  1
  Bi2+  Bi81  1  0.49266250  0.09999845  0.77796410  1
  Bi2+  Bi82  1  0.45330438  0.37828129  0.29124048  1
  Bi2+  Bi83  1  0.52245257  0.48904077  0.77859908  1
  Bi2+  Bi84  1  0.48123777  0.61599018  0.28748937  1
  Bi2+  Bi85  1  0.53998961  0.66907447  0.82235999  1
  Bi2+  Bi86  1  0.43981687  0.96643343  0.29931228  1
  Bi2+  Bi87  1  0.49710175  0.85661371  0.78757169  1
  Bi2+  Bi88  1  0.73334223  0.10527630  0.28371124  1
  Bi2+  Bi89  1  0.76183460  0.13952627  0.78511231  1
  Bi2+  Bi90  1  0.73313069  0.30744158  0.29679813  1
  Bi2+  Bi91  1  0.78301496  0.40412871  0.80748442  1
  Bi2+  Bi92  1  0.75242661  0.61783007  0.27973330  1
  Bi2+  Bi93  1  0.74694727  0.64762667  0.79844645  1
  Bi2+  Bi94  1  0.77440012  0.87802623  0.29536765  1
  Bi2+  Bi95  1  0.76572817  0.87826707  0.79199230  1
  Bi2+  Bi96  1  0.11026939  -0.03143021  0.26073815  1
  Bi2+  Bi97  1  0.10522202  -0.00852057  0.71321605  1
  Bi2+  Bi98  1  0.03744451  0.25679957  0.24675645  1
  Bi2+  Bi99  1  0.11132592  0.27473920  0.70772667  1
  Bi2+  Bi100  1  0.09765459  0.52336633  0.20479379  1
  Bi2+  Bi101  1  0.15407369  0.54107879  0.72340417  1
  Bi2+  Bi102  1  0.12260105  0.72125857  0.21893288  1
  Bi2+  Bi103  1  0.09001622  0.72544011  0.71074487  1
  Bi2+  Bi104  1  0.32270163  0.03136058  0.21313718  1
  Bi2+  Bi105  1  0.35761756  -0.10066641  0.70879423  1
  Bi2+  Bi106  1  0.36828780  0.24120402  0.18326665  1
  Bi2+  Bi107  1  0.37474255  0.24991941  0.69006381  1
  Bi2+  Bi108  1  0.32350878  0.50832918  0.22228952  1
  Bi2+  Bi109  1  0.35386461  0.50855817  0.72278131  1
  Bi2+  Bi110  1  0.37366401  0.76995432  0.19164025  1
  Bi2+  Bi111  1  0.38365661  0.70381980  0.70434016  1
  Bi2+  Bi112  1  0.59977905  0.00645766  0.20574212  1
  Bi2+  Bi113  1  0.61475958  0.01801687  0.70350632  1
  Bi2+  Bi114  1  0.60850489  0.25445257  0.19271890  1
  Bi2+  Bi115  1  0.62525534  0.30324405  0.69357882  1
  Bi2+  Bi116  1  0.62505470  0.46661879  0.26491533  1
  Bi2+  Bi117  1  0.66647993  0.54774499  0.70761074  1
  Bi2+  Bi118  1  0.60977447  0.73311402  0.18518369  1
  Bi2+  Bi119  1  0.64060404  0.74788252  0.71851854  1
  Bi2+  Bi120  1  0.88186533  -0.01783754  0.19226387  1
  Bi2+  Bi121  1  0.89299099  0.00159873  0.71106059  1
  Bi2+  Bi122  1  0.82328770  0.20923912  0.19949014  1
  Bi2+  Bi123  1  0.89273632  0.28202290  0.70040294  1
  Bi2+  Bi124  1  0.91632995  0.45876327  0.21129170  1
  Bi2+  Bi125  1  0.86669093  0.53966988  0.72201225  1
  Bi2+  Bi126  1  0.91965409  0.75355916  0.20685698  1
  Bi2+  Bi127  1  0.88354205  0.73992345  0.71336425  1
  S2-  S128  1  -0.05071098  0.11315423  0.14359037  1
  S2-  S129  1  -0.08320487  0.13823656  0.64283420  1
  S2-  S130  1  0.01674613  0.35515034  0.15789104  1
  S2-  S131  1  -0.00305480  0.37117855  0.64895240  1
  S2-  S132  1  -0.09485673  0.61032884  0.14957260  1
  S2-  S133  1  -0.02033353  0.62273504  0.65243517  1
  S2-  S134  1  0.00676281  0.87477993  0.15736389  1
  S2-  S135  1  -0.06984169  0.87421962  0.65309784  1
  S2-  S136  1  0.23561373  0.15722178  0.15649321  1
  S2-  S137  1  0.27811577  0.12749461  0.66574161  1
  S2-  S138  1  0.27190597  0.37382403  0.16386600  1
  S2-  S139  1  0.24849276  0.34969179  0.65565134  1
  S2-  S140  1  0.25686990  0.67795014  0.15401717  1
  S2-  S141  1  0.22882293  0.65451225  0.65439634  1
  S2-  S142  1  0.27353449  0.90368850  0.15465809  1
  S2-  S143  1  0.19994730  0.88959078  0.65232156  1
  S2-  S144  1  0.49581034  0.12000241  0.14907780  1
  S2-  S145  1  0.49618963  0.14017453  0.66049755  1
  S2-  S146  1  0.49902609  0.36323176  0.16030177  1
  S2-  S147  1  0.48339640  0.38293732  0.65621915  1
  S2-  S148  1  0.46997079  0.63506791  0.15630463  1
  S2-  S149  1  0.53007925  0.64030704  0.65890765  1
  S2-  S150  1  0.51167263  0.87546653  0.15722414  1
  S2-  S151  1  0.51135468  0.90389874  0.65462373  1
  S2-  S152  1  0.72876901  -0.00344426  0.13881006  1
  S2-  S153  1  0.70299631  0.16559032  0.67538049  1
  S2-  S154  1  0.74832164  0.34201189  0.15495460  1
  S2-  S155  1  0.76651810  0.37213205  0.65153927  1
  S2-  S156  1  0.68278279  0.57229987  0.18346120  1
  S2-  S157  1  0.76047098  0.73617999  0.64159325  1
  S2-  S158  1  0.75859355  0.77442962  0.14691132  1
  S2-  S159  1  0.75187384  0.97662429  0.65167237  1
  S2-  S160  1  0.15658008  0.01655337  0.35438870  1
  S2-  S161  1  0.13595285  -0.02318646  0.84474739  1
  S2-  S162  1  0.10315346  0.23373658  0.34637077  1
  S2-  S163  1  0.19345949  0.23512868  0.84640196  1
  S2-  S164  1  0.13637378  0.50237343  0.34814898  1
  S2-  S165  1  0.12443690  0.47189245  0.85107950  1
  S2-  S166  1  0.25162521  0.75295885  0.36208368  1
  S2-  S167  1  0.11758283  0.73279464  0.85168548  1
  S2-  S168  1  0.36854653  0.09938088  0.35978224  1
  S2-  S169  1  0.35511664  0.07850142  0.83950049  1
  S2-  S170  1  0.31312960  0.30482866  0.32970935  1
  S2-  S171  1  0.47220294  0.24656623  0.81526961  1
  S2-  S172  1  0.39986349  0.51355258  0.35010239  1
  S2-  S173  1  0.35554244  0.40521270  0.85485362  1
  S2-  S174  1  0.46930325  0.74355747  0.34535177  1
  S2-  S175  1  0.36510131  0.86166086  0.85619401  1
  S2-  S176  1  0.66233657  -0.07332415  0.35869094  1
  S2-  S177  1  0.62778150  0.09912592  0.84434370  1
  S2-  S178  1  0.53616874  0.26452917  0.35742565  1
  S2-  S179  1  0.67345409  0.28343664  0.78677769  1
  S2-  S180  1  0.63181423  0.57611529  0.35385491  1
  S2-  S181  1  0.62761873  0.43742220  0.85511539  1
  S2-  S182  1  0.64391533  0.76694509  0.27623136  1
  S2-  S183  1  0.62796944  0.86886406  0.85840152  1
  S2-  S184  1  0.90581591  -0.10533044  0.35956477  1
  S2-  S185  1  0.84420169  0.01896165  0.83463322  1
  S2-  S186  1  0.87363618  0.13085730  0.36183500  1
  S2-  S187  1  0.85534525  0.26165852  0.83740781  1
  S2-  S188  1  0.86653240  0.52998399  0.33942902  1
  S2-  S189  1  0.86862346  0.55110252  0.85614118  1
  S2-  S190  1  0.79522981  0.72982252  0.34997548  1
  S2-  S191  1  0.88601621  0.80970917  0.84462634  1
  S2-  S192  1  0.01618594  0.12953473  0.45767106  1
  S2-  S193  1  -0.00895202  0.11605380  0.94339627  1
  S2-  S194  1  0.01284378  0.37741379  0.44843561  1
  S2-  S195  1  -0.01140855  0.36729500  0.95127663  1
  S2-  S196  1  0.01443360  0.62878390  0.44960988  1
  S2-  S197  1  -0.00804828  0.61333249  0.95991418  1
  S2-  S198  1  0.02082850  0.88081768  0.46187126  1
  S2-  S199  1  -0.00479995  0.86112620  0.95199191  1
  S2-  S200  1  0.26209186  0.13089623  0.46255001  1
  S2-  S201  1  0.24302282  0.11654802  0.95241451  1
  S2-  S202  1  0.26397752  0.37840346  0.45282702  1
  S2-  S203  1  0.24272480  0.36475314  0.95792074  1
  S2-  S204  1  0.25912955  0.62321540  0.45815316  1
  S2-  S205  1  0.24551324  0.61441615  0.95362289  1
  S2-  S206  1  0.26046746  0.88306112  0.45977096  1
  S2-  S207  1  0.23898638  0.86280299  0.95477230  1
  S2-  S208  1  0.51433573  0.12459874  0.45724552  1
  S2-  S209  1  0.48883508  0.12520130  0.94154790  1
  S2-  S210  1  0.51463023  0.38294631  0.45659589  1
  S2-  S211  1  0.49717400  0.36555926  0.95210200  1
  S2-  S212  1  0.51236040  0.62941639  0.45681919  1
  S2-  S213  1  0.49219157  0.61499859  0.95298177  1
  S2-  S214  1  0.50919364  0.87749890  0.45253017  1
  S2-  S215  1  0.49168749  0.86743684  0.95361578  1
  S2-  S216  1  0.75571511  0.12963796  0.46308681  1
  S2-  S217  1  0.74607395  0.11065035  0.95395298  1
  S2-  S218  1  0.75802058  0.38050587  0.44644620  1
  S2-  S219  1  0.73972530  0.36636851  0.95371401  1
  S2-  S220  1  0.76227159  0.62898153  0.45852948  1
  S2-  S221  1  0.73858410  0.61595567  0.95203981  1
  S2-  S222  1  0.76357090  0.87645936  0.46476209  1
  S2-  S223  1  0.74732099  0.86245700  0.95689060  1
  S2-  S224  1  0.11801968  -0.00760809  0.04909246  1
  S2-  S225  1  0.14067043  0.01007687  0.55463138  1
  S2-  S226  1  0.11509020  0.23848816  0.04485534  1
  S2-  S227  1  0.13670511  0.25225515  0.54966139  1
  S2-  S228  1  0.11768272  0.49300226  0.05387263  1
  S2-  S229  1  0.13810610  0.49978369  0.55149920  1
  S2-  S230  1  0.11681649  0.73866730  0.05399415  1
  S2-  S231  1  0.14249376  0.75173114  0.54492687  1
  S2-  S232  1  0.36834842  -0.00944387  0.03960090  1
  S2-  S233  1  0.38554834  0.00506091  0.54999202  1
  S2-  S234  1  0.36774030  0.24214924  0.05042140  1
  S2-  S235  1  0.39061266  0.25197177  0.54585389  1
  S2-  S236  1  0.37100721  0.48998355  0.04856022  1
  S2-  S237  1  0.38944899  0.50390146  0.55464591  1
  S2-  S238  1  0.36977222  0.74188533  0.03946976  1
  S2-  S239  1  0.38531514  0.75048149  0.54901879  1
  S2-  S240  1  0.61481713  -0.00862653  0.03628617  1
  S2-  S241  1  0.63531445  0.00366000  0.55046045  1
  S2-  S242  1  0.62336769  0.24016543  0.05001199  1
  S2-  S243  1  0.63599063  0.25125207  0.54776551  1
  S2-  S244  1  0.62395048  0.49525151  0.05336843  1
  S2-  S245  1  0.63853755  0.50474285  0.55014937  1
  S2-  S246  1  0.62044569  0.74159585  0.04295990  1
  S2-  S247  1  0.63468501  0.75091920  0.55018056  1
  S2-  S248  1  0.87093058  -0.00887590  0.03780792  1
  S2-  S249  1  0.89448475  0.00009799  0.54517152  1
  S2-  S250  1  0.86752967  0.24178238  0.04368776  1
  S2-  S251  1  0.88816387  0.25407555  0.53927787  1
  S2-  S252  1  0.86322362  0.49216564  0.05071526  1
  S2-  S253  1  0.88672900  0.50315508  0.54577435  1
  S2-  S254  1  0.86979256  0.73716892  0.04128086  1
  S2-  S255  1  0.89377257  0.74992068  0.54124028  1
