# generated using pymatgen
data_La6Ce7Pr13Nd19Sm19(BiS2)64
_symmetry_space_group_name_H-M   'P 1'
_cell_length_a   16.16265909
_cell_length_b   16.13154705
_cell_length_c   27.38127380
_cell_angle_alpha   90.10350726
_cell_angle_beta   90.16224709
_cell_angle_gamma   89.99371611
_symmetry_Int_Tables_number   1
_chemical_formula_structural   La6Ce7Pr13Nd19Sm19(BiS2)64
_chemical_formula_sum   'La6 Ce7 Pr13 Nd19 Sm19 Bi64 S128'
_cell_volume   7139.04348852
_cell_formula_units_Z   1
loop_
 _symmetry_equiv_pos_site_id
 _symmetry_equiv_pos_as_xyz
  1  'x, y, z'
loop_
 _atom_type_symbol
 _atom_type_oxidation_number
  La3+  3.0
  Ce3+  3.0
  Pr3+  3.0
  Nd3+  3.0
  Sm3+  3.0
  Bi2+  2.0
  S2-  -2.0
loop_
 _atom_site_type_symbol
 _atom_site_label
 _atom_site_symmetry_multiplicity
 _atom_site_fract_x
 _atom_site_fract_y
 _atom_site_fract_z
 _atom_site_occupancy
  La3+  La0  1  0.12307168  0.24259809  0.42144095  1
  La3+  La1  1  0.60960096  0.75102034  0.92506150  1
  La3+  La2  1  0.00750465  0.62527921  0.57370017  1
  La3+  La3  1  0.48986960  0.11551812  0.10353067  1
  La3+  La4  1  0.01020691  0.12251365  0.56807336  1
  La3+  La5  1  0.87397544  0.48288469  0.38298204  1
  Ce3+  Ce6  1  0.87623771  -0.00112555  0.44191983  1
  Ce3+  Ce7  1  0.74077363  0.87480499  0.05628938  1
  Ce3+  Ce8  1  0.37829203  0.49655131  0.43568108  1
  Ce3+  Ce9  1  0.23909421  0.12013883  0.07169200  1
  Ce3+  Ce10  1  0.62637467  0.74056158  0.45102990  1
  Ce3+  Ce11  1  0.24982436  0.87119885  0.55610293  1
  Ce3+  Ce12  1  -0.00573251  0.37592958  0.06366752  1
  Pr3+  Pr13  1  0.75388372  0.12177454  0.56034400  1
  Pr3+  Pr14  1  -0.00640154  0.12383739  0.07188360  1
  Pr3+  Pr15  1  0.11643336  0.74914844  0.93995885  1
  Pr3+  Pr16  1  0.49577209  0.37318429  0.06300045  1
  Pr3+  Pr17  1  0.12524161  0.74800155  0.43077612  1
  Pr3+  Pr18  1  0.50327461  0.11921134  0.56719981  1
  Pr3+  Pr19  1  0.87045070  0.49770538  0.92929063  1
  Pr3+  Pr20  1  0.74252250  0.62246093  0.05524471  1
  Pr3+  Pr21  1  0.50075243  0.62380660  0.57129711  1
  Pr3+  Pr22  1  0.61131729  0.49804550  0.93047624  1
  Pr3+  Pr23  1  0.37906360  0.74673571  0.44003098  1
  Pr3+  Pr24  1  0.25068459  0.37037865  0.55098428  1
  Pr3+  Pr25  1  0.11583792  0.24678112  0.94466083  1
  Nd3+  Nd26  1  0.36866650  0.00141026  0.94333383  1
  Nd3+  Nd27  1  0.75561860  0.37550693  0.55574763  1
  Nd3+  Nd28  1  0.61046838  0.24673082  0.93877051  1
  Nd3+  Nd29  1  0.61576305  0.00185668  0.94235115  1
  Nd3+  Nd30  1  0.50376652  0.37152806  0.56098034  1
  Nd3+  Nd31  1  0.62173392  0.49741741  0.43419030  1
  Nd3+  Nd32  1  -0.00753826  0.87297094  0.05521599  1
  Nd3+  Nd33  1  0.25079083  0.62150898  0.55979542  1
  Nd3+  Nd34  1  0.49423999  0.87483019  0.06227434  1
  Nd3+  Nd35  1  0.12279174  -0.00659909  0.43327840  1
  Nd3+  Nd36  1  0.86626379  0.74778348  0.93932549  1
  Nd3+  Nd37  1  0.75547802  0.61851083  0.56746250  1
  Nd3+  Nd38  1  0.74237904  0.37385688  0.05060300  1
  Nd3+  Nd39  1  0.36656850  0.74979916  0.94373522  1
  Nd3+  Nd40  1  0.49951857  0.87575254  0.57124170  1
  Nd3+  Nd41  1  0.24403776  0.37215304  0.06125215  1
  Nd3+  Nd42  1  0.62629819  -0.00681711  0.44270720  1
  Nd3+  Nd43  1  0.38000841  -0.00780028  0.43223032  1
  Nd3+  Nd44  1  0.36629022  0.24632611  0.94705369  1
  Sm3+  Sm45  1  0.36756894  0.49773242  0.94733763  1
  Sm3+  Sm46  1  0.00177977  0.86914090  0.55213808  1
  Sm3+  Sm47  1  0.87505723  0.73501117  0.44234388  1
  Sm3+  Sm48  1  0.38012540  0.24429894  0.44376949  1
  Sm3+  Sm49  1  0.11513980  0.00152213  0.94173632  1
  Sm3+  Sm50  1  0.24380641  0.87463212  0.05352059  1
  Sm3+  Sm51  1  -0.00579907  0.62315608  0.05653463  1
  Sm3+  Sm52  1  0.74103006  0.12425536  0.05675600  1
  Sm3+  Sm53  1  0.87456897  0.24735626  0.43826987  1
  Sm3+  Sm54  1  0.00276467  0.37303796  0.54894903  1
  Sm3+  Sm55  1  0.86676795  0.00089557  0.94734825  1
  Sm3+  Sm56  1  0.62684027  0.24653099  0.44288244  1
  Sm3+  Sm57  1  0.75388780  0.86853079  0.55614463  1
  Sm3+  Sm58  1  0.49442395  0.62383446  0.05708347  1
  Sm3+  Sm59  1  0.11949835  0.49910896  0.43342099  1
  Sm3+  Sm60  1  0.11706584  0.49783315  0.94284604  1
  Sm3+  Sm61  1  0.24358270  0.62471732  0.05266509  1
  Sm3+  Sm62  1  0.86819237  0.24629842  0.94433385  1
  Sm3+  Sm63  1  0.25201569  0.12047270  0.54961666  1
  Bi2+  Bi64  1  0.01562374  0.16176747  0.29826740  1
  Bi2+  Bi65  1  0.00958237  0.14658450  0.81452405  1
  Bi2+  Bi66  1  0.00783576  0.37326635  0.26574199  1
  Bi2+  Bi67  1  -0.00217730  0.37855206  0.75151946  1
  Bi2+  Bi68  1  0.07539789  0.66002646  0.31273932  1
  Bi2+  Bi69  1  -0.00452024  0.61342913  0.80567946  1
  Bi2+  Bi70  1  -0.02037543  0.91489119  0.29455470  1
  Bi2+  Bi71  1  0.06815289  0.89052617  0.78905136  1
  Bi2+  Bi72  1  0.26115254  0.10284683  0.27797021  1
  Bi2+  Bi73  1  0.23154827  0.16926332  0.78023432  1
  Bi2+  Bi74  1  0.26070823  0.48204921  0.29667304  1
  Bi2+  Bi75  1  0.25240716  0.36650397  0.78919164  1
  Bi2+  Bi76  1  0.26957129  0.65848918  0.34232914  1
  Bi2+  Bi77  1  0.24317148  0.64494073  0.79153280  1
  Bi2+  Bi78  1  0.24934874  0.85607044  0.29283647  1
  Bi2+  Bi79  1  0.26289549  0.89721386  0.75960541  1
  Bi2+  Bi80  1  0.52286197  0.16902172  0.31077276  1
  Bi2+  Bi81  1  0.51260628  0.11323489  0.81212919  1
  Bi2+  Bi82  1  0.50660361  0.42433919  0.26371132  1
  Bi2+  Bi83  1  0.44984407  0.37219126  0.79022342  1
  Bi2+  Bi84  1  0.46901212  0.63966710  0.30393505  1
  Bi2+  Bi85  1  0.51587898  0.62300663  0.80323162  1
  Bi2+  Bi86  1  0.50058274  0.92655040  0.29854140  1
  Bi2+  Bi87  1  0.51060029  0.87809883  0.79789136  1
  Bi2+  Bi88  1  0.80150561  0.10159023  0.24712310  1
  Bi2+  Bi89  1  0.76943082  0.08512500  0.78997479  1
  Bi2+  Bi90  1  0.75297996  0.36124553  0.28216874  1
  Bi2+  Bi91  1  0.65465635  0.30904127  0.77067228  1
  Bi2+  Bi92  1  0.72392694  0.63203792  0.29020014  1
  Bi2+  Bi93  1  0.76553210  0.63104478  0.79659762  1
  Bi2+  Bi94  1  0.75563251  0.88863897  0.28649135  1
  Bi2+  Bi95  1  0.76657556  0.89867062  0.74585386  1
  Bi2+  Bi96  1  0.11746559  -0.04757029  0.20829865  1
  Bi2+  Bi97  1  0.12469628  0.01323226  0.70581693  1
  Bi2+  Bi98  1  0.18850307  0.23030405  0.20167966  1
  Bi2+  Bi99  1  0.10315285  0.25517270  0.68449391  1
  Bi2+  Bi100  1  0.12516791  0.51404157  0.21456114  1
  Bi2+  Bi101  1  0.15401724  0.49051700  0.71599941  1
  Bi2+  Bi102  1  0.14265236  0.71050491  0.21420208  1
  Bi2+  Bi103  1  0.14807866  0.74515029  0.70328726  1
  Bi2+  Bi104  1  0.36180976  -0.01679375  0.21213510  1
  Bi2+  Bi105  1  0.39108891  0.03917905  0.72820331  1
  Bi2+  Bi106  1  0.33122891  0.31186819  0.26303713  1
  Bi2+  Bi107  1  0.37277125  0.23418288  0.71306210  1
  Bi2+  Bi108  1  0.38051547  0.53704291  0.20509567  1
  Bi2+  Bi109  1  0.34556110  0.51959677  0.72911482  1
  Bi2+  Bi110  1  0.34450595  0.72895890  0.22736211  1
  Bi2+  Bi111  1  0.35263105  0.73531494  0.71407265  1
  Bi2+  Bi112  1  0.63760442  -0.00433464  0.20863747  1
  Bi2+  Bi113  1  0.63028979  0.04364274  0.70446623  1
  Bi2+  Bi114  1  0.64292446  0.26337474  0.20366454  1
  Bi2+  Bi115  1  0.56335949  0.22408229  0.68263098  1
  Bi2+  Bi116  1  0.62199529  0.50884621  0.18350342  1
  Bi2+  Bi117  1  0.61985000  0.47146167  0.70174776  1
  Bi2+  Bi118  1  0.59707032  0.77233019  0.25478414  1
  Bi2+  Bi119  1  0.62502324  0.72708323  0.69913571  1
  Bi2+  Bi120  1  0.87262147  -0.05936917  0.19469116  1
  Bi2+  Bi121  1  0.93346077  -0.01087353  0.71784836  1
  Bi2+  Bi122  1  0.95085682  0.18847158  0.19588903  1
  Bi2+  Bi123  1  0.84266439  0.25660076  0.75418568  1
  Bi2+  Bi124  1  0.86698302  0.50680851  0.17426808  1
  Bi2+  Bi125  1  0.85918535  0.48244480  0.69503104  1
  Bi2+  Bi126  1  0.88942895  0.74917150  0.26799825  1
  Bi2+  Bi127  1  0.90058026  0.76847282  0.70833782  1
  S2-  S128  1  0.11562890  0.09809996  0.14398472  1
  S2-  S129  1  -0.02527041  0.13209715  0.66595010  1
  S2-  S130  1  -0.03799809  0.35545408  0.15930313  1
  S2-  S131  1  -0.01619085  0.36809445  0.64725880  1
  S2-  S132  1  0.00155361  0.60097510  0.15300401  1
  S2-  S133  1  -0.06298417  0.61621511  0.66874326  1
  S2-  S134  1  0.01139809  0.85797200  0.15292301  1
  S2-  S135  1  0.01459333  0.80879556  0.64326255  1
  S2-  S136  1  0.33674901  0.12645717  0.15327037  1
  S2-  S137  1  0.19017114  0.12277063  0.63996203  1
  S2-  S138  1  0.19376072  0.38007486  0.15552309  1
  S2-  S139  1  0.21948518  0.36680866  0.64934975  1
  S2-  S140  1  0.25490234  0.63106135  0.14916465  1
  S2-  S141  1  0.14830216  0.61285194  0.63858283  1
  S2-  S142  1  0.24683877  0.89808763  0.15037729  1
  S2-  S143  1  0.26661811  0.85720607  0.65250149  1
  S2-  S144  1  0.52741571  0.15026894  0.20621457  1
  S2-  S145  1  0.48447940  0.00573839  0.64272992  1
  S2-  S146  1  0.51179609  0.35789149  0.16198183  1
  S2-  S147  1  0.49212738  0.38262250  0.65861604  1
  S2-  S148  1  0.51508050  0.62095646  0.15371678  1
  S2-  S149  1  0.52488733  0.59610883  0.67062027  1
  S2-  S150  1  0.49608903  0.95528740  0.14978753  1
  S2-  S151  1  0.49767457  0.79331719  0.65956664  1
  S2-  S152  1  0.71789589  0.12826934  0.15299750  1
  S2-  S153  1  0.74877696  0.12663850  0.65980376  1
  S2-  S154  1  0.74176481  0.38457024  0.14956987  1
  S2-  S155  1  0.74116072  0.37337540  0.65436004  1
  S2-  S156  1  0.74719743  0.62193881  0.15577989  1
  S2-  S157  1  0.73199328  0.59710107  0.66697116  1
  S2-  S158  1  0.72089861  0.87411119  0.15245470  1
  S2-  S159  1  0.75407763  0.82626764  0.65112488  1
  S2-  S160  1  0.13794160  0.10041013  0.35498016  1
  S2-  S161  1  0.12607483  0.03038249  0.84632483  1
  S2-  S162  1  0.11097237  0.30128948  0.32380543  1
  S2-  S163  1  0.13476388  0.26102794  0.84534101  1
  S2-  S164  1  0.03867030  0.50230237  0.34622540  1
  S2-  S165  1  0.07488867  0.49733329  0.84901965  1
  S2-  S166  1  0.11891648  0.87605592  0.35694824  1
  S2-  S167  1  0.11214266  0.73624899  0.84091137  1
  S2-  S168  1  0.38673513  0.07199119  0.34265836  1
  S2-  S169  1  0.39919488  -0.01250939  0.84593716  1
  S2-  S170  1  0.40819194  0.27833918  0.34990958  1
  S2-  S171  1  0.43482055  0.23729880  0.85573919  1
  S2-  S172  1  0.49056920  0.49405769  0.36054056  1
  S2-  S173  1  0.42307832  0.50751685  0.85633956  1
  S2-  S174  1  0.38773668  0.85929215  0.36045259  1
  S2-  S175  1  0.43754414  0.75368653  0.85509680  1
  S2-  S176  1  0.61330920  0.02860959  0.34631329  1
  S2-  S177  1  0.61716036  -0.03412947  0.84475441  1
  S2-  S178  1  0.64072060  0.26609058  0.34535313  1
  S2-  S179  1  0.65779015  0.19583839  0.84772675  1
  S2-  S180  1  0.70681209  0.49397612  0.34720450  1
  S2-  S181  1  0.63810906  0.52596041  0.83228705  1
  S2-  S182  1  0.61378773  0.72385144  0.35517242  1
  S2-  S183  1  0.63929655  0.74387763  0.82577644  1
  S2-  S184  1  0.90445913  0.04817486  0.35045326  1
  S2-  S185  1  0.89220931  0.03372308  0.85283165  1
  S2-  S186  1  0.87402661  0.31123729  0.34640727  1
  S2-  S187  1  0.90134917  0.26700111  0.85008046  1
  S2-  S188  1  0.86539026  0.48725858  0.27119792  1
  S2-  S189  1  0.85844783  0.51104510  0.82879551  1
  S2-  S190  1  0.85869768  0.65753264  0.35555992  1
  S2-  S191  1  0.87730127  0.73402586  0.84065941  1
  S2-  S192  1  -0.00127800  0.12305829  0.45819172  1
  S2-  S193  1  -0.00883904  0.12300634  0.96319389  1
  S2-  S194  1  -0.00469076  0.37468314  0.44653162  1
  S2-  S195  1  -0.00765719  0.37398114  0.95559898  1
  S2-  S196  1  0.00421593  0.62364177  0.45824533  1
  S2-  S197  1  -0.00700658  0.62308657  0.95221561  1
  S2-  S198  1  -0.00824674  0.86802058  0.45064726  1
  S2-  S199  1  -0.00922207  0.87630630  0.94861655  1
  S2-  S200  1  0.25682102  0.12289743  0.44938190  1
  S2-  S201  1  0.24120007  0.12239174  0.95791565  1
  S2-  S202  1  0.25105967  0.37062843  0.44337448  1
  S2-  S203  1  0.24338340  0.37543903  0.95370168  1
  S2-  S204  1  0.24939548  0.61756211  0.45549670  1
  S2-  S205  1  0.24330349  0.62146580  0.94825903  1
  S2-  S206  1  0.25150886  0.87289540  0.45354897  1
  S2-  S207  1  0.24148627  0.87645554  0.94780829  1
  S2-  S208  1  0.50441741  0.12153035  0.45917164  1
  S2-  S209  1  0.49221481  0.12264574  0.95757127  1
  S2-  S210  1  0.50333899  0.36733591  0.45728522  1
  S2-  S211  1  0.49030414  0.37346049  0.95654806  1
  S2-  S212  1  0.49839527  0.62048453  0.46319943  1
  S2-  S213  1  0.49053808  0.62381630  0.95486243  1
  S2-  S214  1  0.50597148  0.86998786  0.46305422  1
  S2-  S215  1  0.49179846  0.87608152  0.95724575  1
  S2-  S216  1  0.75005024  0.12314212  0.45285640  1
  S2-  S217  1  0.74442921  0.12430102  0.95367799  1
  S2-  S218  1  0.75089620  0.36980240  0.45134635  1
  S2-  S219  1  0.74192484  0.37105266  0.94387773  1
  S2-  S220  1  0.74924478  0.61691350  0.46115618  1
  S2-  S221  1  0.74074787  0.62332177  0.94756172  1
  S2-  S222  1  0.75371529  0.86713349  0.45106120  1
  S2-  S223  1  0.74323089  0.87469992  0.94892945  1
  S2-  S224  1  0.11696840  -0.00803981  0.04346952  1
  S2-  S225  1  0.12539763  -0.00674463  0.54102354  1
  S2-  S226  1  0.11662607  0.25109403  0.05015703  1
  S2-  S227  1  0.12729508  0.24693561  0.53398621  1
  S2-  S228  1  0.12086463  0.50146823  0.04713854  1
  S2-  S229  1  0.12595693  0.49298100  0.53779991  1
  S2-  S230  1  0.11972183  0.74808807  0.04662975  1
  S2-  S231  1  0.12831101  0.74883769  0.53738655  1
  S2-  S232  1  0.36744319  -0.00202598  0.04789669  1
  S2-  S233  1  0.37235392  -0.00258226  0.54066732  1
  S2-  S234  1  0.37005664  0.24789898  0.05271286  1
  S2-  S235  1  0.37697641  0.24344408  0.54963367  1
  S2-  S236  1  0.36841023  0.50042259  0.05156495  1
  S2-  S237  1  0.37619976  0.49653425  0.54902828  1
  S2-  S238  1  0.36918549  0.74911076  0.05023841  1
  S2-  S239  1  0.37572303  0.74561225  0.54764919  1
  S2-  S240  1  0.61640371  0.00333827  0.04796071  1
  S2-  S241  1  0.63224381  -0.00727467  0.54888919  1
  S2-  S242  1  0.61745032  0.24607803  0.04707332  1
  S2-  S243  1  0.62873574  0.24708375  0.54792175  1
  S2-  S244  1  0.61661723  0.49917443  0.03933826  1
  S2-  S245  1  0.62573767  0.49749020  0.54781499  1
  S2-  S246  1  0.61580621  0.74832407  0.04127293  1
  S2-  S247  1  0.62867514  0.74538037  0.55440376  1
  S2-  S248  1  0.86703283  0.00050063  0.05183281  1
  S2-  S249  1  0.87809566  -0.00693599  0.55038046  1
  S2-  S250  1  0.86593713  0.24768800  0.04892081  1
  S2-  S251  1  0.87907478  0.24724141  0.54482924  1
  S2-  S252  1  0.87002189  0.49930181  0.03835033  1
  S2-  S253  1  0.88123596  0.49639517  0.55445556  1
  S2-  S254  1  0.86919160  0.74756145  0.04643156  1
  S2-  S255  1  0.87593226  0.74522913  0.54597392  1
