# generated using pymatgen
data_La6Ce7Pr13Nd19Sm19(BiS2)64
_symmetry_space_group_name_H-M   'P 1'
_cell_length_a   16.13277878
_cell_length_b   16.11121523
_cell_length_c   27.46010400
_cell_angle_alpha   89.76750902
_cell_angle_beta   90.03758643
_cell_angle_gamma   89.96066591
_symmetry_Int_Tables_number   1
_chemical_formula_structural   La6Ce7Pr13Nd19Sm19(BiS2)64
_chemical_formula_sum   'La6 Ce7 Pr13 Nd19 Sm19 Bi64 S128'
_cell_volume   7137.33174994
_cell_formula_units_Z   1
loop_
 _symmetry_equiv_pos_site_id
 _symmetry_equiv_pos_as_xyz
  1  'x, y, z'
loop_
 _atom_type_symbol
 _atom_type_oxidation_number
  La3+  3.0
  Ce3+  3.0
  Pr3+  3.0
  Nd3+  3.0
  Sm3+  3.0
  Bi2+  2.0
  S2-  -2.0
loop_
 _atom_site_type_symbol
 _atom_site_label
 _atom_site_symmetry_multiplicity
 _atom_site_fract_x
 _atom_site_fract_y
 _atom_site_fract_z
 _atom_site_occupancy
  La3+  La0  1  0.49722926  0.11023355  0.07449678  1
  La3+  La1  1  0.00026037  0.36194467  0.60576369  1
  La3+  La2  1  0.49346042  0.61740898  0.06500424  1
  La3+  La3  1  0.87892667  0.25897411  0.42681334  1
  La3+  La4  1  0.37126160  0.75326006  0.88411813  1
  La3+  La5  1  -0.00119915  0.35470702  0.11217549  1
  Ce3+  Ce6  1  0.00515710  0.62078334  0.56100794  1
  Ce3+  Ce7  1  0.37843137  0.25171491  0.43980247  1
  Ce3+  Ce8  1  0.62758233  0.25098332  0.44549884  1
  Ce3+  Ce9  1  0.87787011  0.49833475  0.44532100  1
  Ce3+  Ce10  1  0.38038273  0.74592507  0.43944982  1
  Ce3+  Ce11  1  0.12626853  0.00085899  0.44619642  1
  Ce3+  Ce12  1  0.87813388  0.74810452  0.44914899  1
  Pr3+  Pr13  1  0.00531378  0.87225223  0.56654542  1
  Pr3+  Pr14  1  0.38001733  0.49286326  0.92274684  1
  Pr3+  Pr15  1  0.12948810  0.25715837  0.43722497  1
  Pr3+  Pr16  1  0.24394801  0.86588640  0.06213748  1
  Pr3+  Pr17  1  0.63060317  0.00126272  0.43852316  1
  Pr3+  Pr18  1  0.37800962  -0.00137472  0.43687437  1
  Pr3+  Pr19  1  0.74889104  0.86844862  0.05546979  1
  Pr3+  Pr20  1  0.49556466  0.36936443  0.07063248  1
  Pr3+  Pr21  1  0.12320229  0.24995488  0.93597985  1
  Pr3+  Pr22  1  0.11869243  0.74537278  0.93034296  1
  Pr3+  Pr23  1  0.12661060  0.75080123  0.43598311  1
  Pr3+  Pr24  1  0.50227445  0.87569757  0.55933663  1
  Pr3+  Pr25  1  0.87153974  -0.00414926  0.93729083  1
  Nd3+  Nd26  1  0.24711739  0.61792900  0.04887628  1
  Nd3+  Nd27  1  0.75311540  0.37017533  0.06120434  1
  Nd3+  Nd28  1  0.87162154  0.49479536  0.93496524  1
  Nd3+  Nd29  1  -0.00483777  0.86846504  0.05539635  1
  Nd3+  Nd30  1  0.87280687  0.24746016  0.93717202  1
  Nd3+  Nd31  1  0.25064028  0.37140458  0.06516466  1
  Nd3+  Nd32  1  0.62543691  0.49979446  0.44419008  1
  Nd3+  Nd33  1  0.50217528  0.62309615  0.56279076  1
  Nd3+  Nd34  1  0.75745454  0.12602784  0.55383913  1
  Nd3+  Nd35  1  0.50317737  0.12271349  0.55439390  1
  Nd3+  Nd36  1  0.88201704  -0.00141006  0.43806157  1
  Nd3+  Nd37  1  0.61945122  0.24511948  0.95061397  1
  Nd3+  Nd38  1  0.24455840  0.12230787  0.05530845  1
  Nd3+  Nd39  1  -0.00344767  0.61142387  0.06188610  1
  Nd3+  Nd40  1  0.25831246  0.37653399  0.56652439  1
  Nd3+  Nd41  1  0.87266726  0.74513742  0.93357140  1
  Nd3+  Nd42  1  0.38662092  0.49038017  0.42067439  1
  Nd3+  Nd43  1  0.37290703  -0.00623106  0.94169059  1
  Nd3+  Nd44  1  0.13070130  0.50128538  0.44288716  1
  Sm3+  Sm45  1  0.61418346  0.74395143  0.94447240  1
  Sm3+  Sm46  1  0.75572074  0.37245839  0.56138300  1
  Sm3+  Sm47  1  0.12364578  0.49416376  0.94118907  1
  Sm3+  Sm48  1  0.75044188  0.12056281  0.05403049  1
  Sm3+  Sm49  1  0.74744075  0.61896576  0.05067884  1
  Sm3+  Sm50  1  0.25435946  0.62087259  0.55356102  1
  Sm3+  Sm51  1  0.37523929  0.24815711  0.94182055  1
  Sm3+  Sm52  1  0.61881911  -0.00515749  0.94396826  1
  Sm3+  Sm53  1  0.25109137  0.12829544  0.55550928  1
  Sm3+  Sm54  1  0.75520327  0.87488510  0.55508873  1
  Sm3+  Sm55  1  0.61847696  0.49517492  0.94725118  1
  Sm3+  Sm56  1  0.25186901  0.87350140  0.55415617  1
  Sm3+  Sm57  1  0.00307960  0.12864936  0.55615026  1
  Sm3+  Sm58  1  -0.00258748  0.12414383  0.05152715  1
  Sm3+  Sm59  1  0.75381634  0.62105607  0.55844861  1
  Sm3+  Sm60  1  0.62797992  0.74834644  0.44718765  1
  Sm3+  Sm61  1  0.50168265  0.37370659  0.56764038  1
  Sm3+  Sm62  1  0.49317293  0.86738838  0.05839107  1
  Sm3+  Sm63  1  0.12545093  -0.00620392  0.94616351  1
  Bi2+  Bi64  1  0.01543869  0.09957477  0.30691448  1
  Bi2+  Bi65  1  -0.06709618  0.10240804  0.78941178  1
  Bi2+  Bi66  1  0.00842113  0.34776906  0.31509179  1
  Bi2+  Bi67  1  0.01089666  0.37784461  0.80968546  1
  Bi2+  Bi68  1  -0.01900880  0.62324846  0.23821982  1
  Bi2+  Bi69  1  0.01937907  0.66751495  0.76308450  1
  Bi2+  Bi70  1  0.03982935  0.80383996  0.30269549  1
  Bi2+  Bi71  1  -0.00608541  0.88244506  0.79720950  1
  Bi2+  Bi72  1  0.26019039  0.10231287  0.26848088  1
  Bi2+  Bi73  1  0.30666040  0.12042326  0.76279525  1
  Bi2+  Bi74  1  0.25761800  0.41408984  0.28386780  1
  Bi2+  Bi75  1  0.24960983  0.36315016  0.79174748  1
  Bi2+  Bi76  1  0.25003857  0.67873701  0.27850951  1
  Bi2+  Bi77  1  0.22562646  0.61280148  0.78536532  1
  Bi2+  Bi78  1  0.22140412  0.90808399  0.29049870  1
  Bi2+  Bi79  1  0.24059079  0.88579778  0.78279128  1
  Bi2+  Bi80  1  0.50516531  0.12496280  0.29568323  1
  Bi2+  Bi81  1  0.48824117  0.13949538  0.80820704  1
  Bi2+  Bi82  1  0.52026065  0.37311934  0.20518745  1
  Bi2+  Bi83  1  0.49796327  0.38341880  0.78812591  1
  Bi2+  Bi84  1  0.49158201  0.63075127  0.31113549  1
  Bi2+  Bi85  1  0.54571117  0.62664665  0.79446326  1
  Bi2+  Bi86  1  0.57009290  0.85482332  0.27743539  1
  Bi2+  Bi87  1  0.50155945  0.90092230  0.78921255  1
  Bi2+  Bi88  1  0.69814269  0.10923887  0.29182095  1
  Bi2+  Bi89  1  0.68073504  0.17139758  0.77603030  1
  Bi2+  Bi90  1  0.70877499  0.46453215  0.30859917  1
  Bi2+  Bi91  1  0.74843829  0.35377877  0.78661340  1
  Bi2+  Bi92  1  0.80452939  0.63660897  0.29965765  1
  Bi2+  Bi93  1  0.74807827  0.62732821  0.80168987  1
  Bi2+  Bi94  1  0.77389541  0.85913034  0.29147894  1
  Bi2+  Bi95  1  0.72487503  0.88551723  0.75784517  1
  Bi2+  Bi96  1  0.09800811  -0.01936600  0.21042353  1
  Bi2+  Bi97  1  0.11147267  0.04317049  0.75369188  1
  Bi2+  Bi98  1  0.13856596  0.22066616  0.20313596  1
  Bi2+  Bi99  1  0.14539207  0.22401356  0.71025956  1
  Bi2+  Bi100  1  0.14406851  0.52008165  0.21229756  1
  Bi2+  Bi101  1  0.13388291  0.50908508  0.70371481  1
  Bi2+  Bi102  1  0.16172201  0.78978002  0.19708785  1
  Bi2+  Bi103  1  0.10416901  0.79657865  0.69588935  1
  Bi2+  Bi104  1  0.39743288  0.02366964  0.19400066  1
  Bi2+  Bi105  1  0.40791206  -0.00925400  0.69780867  1
  Bi2+  Bi106  1  0.37671342  0.26626223  0.26527208  1
  Bi2+  Bi107  1  0.42771207  0.25640515  0.71171246  1
  Bi2+  Bi108  1  0.38691577  0.52458711  0.19709690  1
  Bi2+  Bi109  1  0.37756225  0.50453726  0.71193092  1
  Bi2+  Bi110  1  0.38561408  0.81538599  0.24341380  1
  Bi2+  Bi111  1  0.36262475  0.74118735  0.68026598  1
  Bi2+  Bi112  1  0.65575049  0.02313570  0.19252260  1
  Bi2+  Bi113  1  0.60055533  0.02458001  0.71511558  1
  Bi2+  Bi114  1  0.68310735  0.29379657  0.25313943  1
  Bi2+  Bi115  1  0.61943937  0.31008177  0.69493938  1
  Bi2+  Bi116  1  0.61058868  0.54515789  0.19719481  1
  Bi2+  Bi117  1  0.63314662  0.49957758  0.71768375  1
  Bi2+  Bi118  1  0.67931899  0.72750263  0.21808201  1
  Bi2+  Bi119  1  0.65046469  0.71758118  0.71336286  1
  Bi2+  Bi120  1  0.91123206  -0.02591100  0.24385138  1
  Bi2+  Bi121  1  0.85545400  -0.00078820  0.70078957  1
  Bi2+  Bi122  1  0.87382207  0.22245631  0.21219978  1
  Bi2+  Bi123  1  0.87200389  0.23250751  0.70969494  1
  Bi2+  Bi124  1  0.83257092  0.49226889  0.22029140  1
  Bi2+  Bi125  1  0.83181439  0.49714672  0.72706779  1
  Bi2+  Bi126  1  0.86810624  0.77384244  0.19563196  1
  Bi2+  Bi127  1  0.84856274  0.73842747  0.72451279  1
  S2-  S128  1  -0.00249220  0.17518760  0.14450372  1
  S2-  S129  1  0.00566779  0.19771065  0.64568987  1
  S2-  S130  1  0.00152706  0.32950420  0.21977396  1
  S2-  S131  1  -0.00248441  0.42119088  0.71073399  1
  S2-  S132  1  0.00211633  0.52441560  0.14716168  1
  S2-  S133  1  0.03181301  0.64120802  0.65618461  1
  S2-  S134  1  0.01130586  0.84956565  0.15198569  1
  S2-  S135  1  0.00416673  0.92524255  0.66064634  1
  S2-  S136  1  0.26726989  0.13072754  0.15271310  1
  S2-  S137  1  0.24778958  0.13741815  0.65286466  1
  S2-  S138  1  0.16374289  0.35654284  0.15163642  1
  S2-  S139  1  0.16327003  0.36592466  0.64996797  1
  S2-  S140  1  0.25081141  0.59540109  0.14965566  1
  S2-  S141  1  0.26283486  0.60313695  0.65155469  1
  S2-  S142  1  0.29939748  0.87931879  0.15672300  1
  S2-  S143  1  0.24257180  0.86320627  0.65100178  1
  S2-  S144  1  0.50927097  0.14338960  0.17246221  1
  S2-  S145  1  0.50068617  0.12193045  0.65198777  1
  S2-  S146  1  0.37306890  0.37719863  0.14040201  1
  S2-  S147  1  0.38465364  0.38590860  0.64063879  1
  S2-  S148  1  0.48016015  0.65158234  0.16318249  1
  S2-  S149  1  0.47637521  0.60905909  0.66053159  1
  S2-  S150  1  0.51854984  0.93891971  0.14501908  1
  S2-  S151  1  0.48984907  0.84879636  0.65677634  1
  S2-  S152  1  0.75797224  0.13059035  0.15096541  1
  S2-  S153  1  0.77446825  0.12743784  0.65174697  1
  S2-  S154  1  0.82979790  0.35515796  0.14904853  1
  S2-  S155  1  0.83647825  0.36104968  0.64650409  1
  S2-  S156  1  0.75870775  0.58941246  0.14587275  1
  S2-  S157  1  0.77430552  0.62010961  0.65451721  1
  S2-  S158  1  0.75982041  0.89961405  0.15263268  1
  S2-  S159  1  0.75337724  0.88772699  0.65100339  1
  S2-  S160  1  0.08850069  -0.04326845  0.35585853  1
  S2-  S161  1  0.12413247  -0.02600448  0.84993782  1
  S2-  S162  1  0.12189195  0.21689479  0.33905241  1
  S2-  S163  1  0.14001125  0.25650537  0.83567374  1
  S2-  S164  1  0.13417648  0.44238645  0.34994517  1
  S2-  S165  1  0.14319894  0.48227829  0.84251816  1
  S2-  S166  1  0.12289062  0.67552382  0.34591771  1
  S2-  S167  1  0.20841047  0.75490190  0.84413720  1
  S2-  S168  1  0.37660839  0.04888868  0.34100888  1
  S2-  S169  1  0.36353668  -0.07365381  0.85144706  1
  S2-  S170  1  0.37484233  0.34465612  0.35839947  1
  S2-  S171  1  0.36351698  0.34541780  0.85973693  1
  S2-  S172  1  0.33812389  0.55879701  0.33204107  1
  S2-  S173  1  0.35986771  0.59435854  0.83948068  1
  S2-  S174  1  0.38770680  0.77532586  0.34474454  1
  S2-  S175  1  0.37418858  0.77501600  0.77189543  1
  S2-  S176  1  0.59607244  -0.01572454  0.34167832  1
  S2-  S177  1  0.58989569  0.00810207  0.84931777  1
  S2-  S178  1  0.61774680  0.24195945  0.34833023  1
  S2-  S179  1  0.59110134  0.25789699  0.85430790  1
  S2-  S180  1  0.54172514  0.49478882  0.35692566  1
  S2-  S181  1  0.54155539  0.49027359  0.86180740  1
  S2-  S182  1  0.61090387  0.72630426  0.35147364  1
  S2-  S183  1  0.54534813  0.76157484  0.85570579  1
  S2-  S184  1  0.85020971  -0.00447141  0.34145963  1
  S2-  S185  1  0.86231175  -0.03922975  0.84045052  1
  S2-  S186  1  0.89326832  0.21461820  0.32892591  1
  S2-  S187  1  0.89309118  0.25839631  0.83927788  1
  S2-  S188  1  0.87047606  0.42091631  0.35813605  1
  S2-  S189  1  0.91750854  0.49834078  0.84000579  1
  S2-  S190  1  0.89178265  0.76314743  0.35322953  1
  S2-  S191  1  0.98377658  0.74426341  0.85760221  1
  S2-  S192  1  0.00241035  0.12702133  0.45190474  1
  S2-  S193  1  -0.00054841  0.11937985  0.94691873  1
  S2-  S194  1  0.00510740  0.37778805  0.45310558  1
  S2-  S195  1  -0.00372270  0.37237929  0.94564362  1
  S2-  S196  1  0.00270765  0.62329314  0.45477863  1
  S2-  S197  1  -0.00338958  0.61583431  0.95497995  1
  S2-  S198  1  0.00227641  0.87334043  0.45989600  1
  S2-  S199  1  -0.00323550  0.87426105  0.95250870  1
  S2-  S200  1  0.25283134  0.12529549  0.45034672  1
  S2-  S201  1  0.24911176  0.12169743  0.94784694  1
  S2-  S202  1  0.25608853  0.37749340  0.45932290  1
  S2-  S203  1  0.24790137  0.37058940  0.95745198  1
  S2-  S204  1  0.25647702  0.62301143  0.44982326  1
  S2-  S205  1  0.24505165  0.61850668  0.94646895  1
  S2-  S206  1  0.25308624  0.87406732  0.44984343  1
  S2-  S207  1  0.24576995  0.87023934  0.95566263  1
  S2-  S208  1  0.50271328  0.12464928  0.45003393  1
  S2-  S209  1  0.49566905  0.11979851  0.96138870  1
  S2-  S210  1  0.50478192  0.37266999  0.46397367  1
  S2-  S211  1  0.49823946  0.36805190  0.96423808  1
  S2-  S212  1  0.50405794  0.62503957  0.45795896  1
  S2-  S213  1  0.49733087  0.62176494  0.95774256  1
  S2-  S214  1  0.50551236  0.87380223  0.45285652  1
  S2-  S215  1  0.49700011  0.87193553  0.95723826  1
  S2-  S216  1  0.75665372  0.12612209  0.44818305  1
  S2-  S217  1  0.74506480  0.12017834  0.94817901  1
  S2-  S218  1  0.74930758  0.37602746  0.45824868  1
  S2-  S219  1  0.74484236  0.37075905  0.95257439  1
  S2-  S220  1  0.75080457  0.62345981  0.45397410  1
  S2-  S221  1  0.74273100  0.62169505  0.94685045  1
  S2-  S222  1  0.75266459  0.87307493  0.45092479  1
  S2-  S223  1  0.74322453  0.86714705  0.94790342  1
  S2-  S224  1  0.11891362  -0.00356843  0.05061777  1
  S2-  S225  1  0.12888078  0.00242889  0.55167838  1
  S2-  S226  1  0.12008608  0.24592548  0.04222642  1
  S2-  S227  1  0.12753150  0.24935963  0.54376694  1
  S2-  S228  1  0.12335369  0.49239791  0.04362605  1
  S2-  S229  1  0.12891962  0.49832018  0.54924414  1
  S2-  S230  1  0.11748411  0.74123068  0.04290570  1
  S2-  S231  1  0.13137066  0.74694967  0.54395976  1
  S2-  S232  1  0.36876477  -0.00701982  0.04619328  1
  S2-  S233  1  0.37383078  0.00058182  0.54449463  1
  S2-  S234  1  0.37460934  0.23943462  0.04508517  1
  S2-  S235  1  0.37989587  0.24600143  0.54571966  1
  S2-  S236  1  0.37251235  0.49538630  0.03774092  1
  S2-  S237  1  0.38171094  0.50237892  0.53921704  1
  S2-  S238  1  0.37158264  0.74571003  0.05389578  1
  S2-  S239  1  0.37632877  0.74852314  0.54566718  1
  S2-  S240  1  0.62687884  -0.00478005  0.04550292  1
  S2-  S241  1  0.63135955  -0.00029651  0.54598714  1
  S2-  S242  1  0.62458033  0.24408528  0.05640260  1
  S2-  S243  1  0.62812046  0.25017697  0.55196369  1
  S2-  S244  1  0.62446040  0.49280881  0.05058300  1
  S2-  S245  1  0.62849089  0.49629064  0.55379285  1
  S2-  S246  1  0.62189022  0.74508143  0.05013887  1
  S2-  S247  1  0.63121712  0.74859988  0.55192892  1
  S2-  S248  1  0.87414472  -0.00231641  0.04435107  1
  S2-  S249  1  0.88047509  -0.00053351  0.54464149  1
  S2-  S250  1  0.87365055  0.24466440  0.04163781  1
  S2-  S251  1  0.88032820  0.25116665  0.53931180  1
  S2-  S252  1  0.86920679  0.49596529  0.04089288  1
  S2-  S253  1  0.87958713  0.49722922  0.55127704  1
  S2-  S254  1  0.87315475  0.74057962  0.04002395  1
  S2-  S255  1  0.87616375  0.74813289  0.55488609  1
