# generated using pymatgen
data_La6Ce7Pr13Nd19Sm19(BiS2)64
_symmetry_space_group_name_H-M   'P 1'
_cell_length_a   16.13734986
_cell_length_b   16.11686217
_cell_length_c   27.33593289
_cell_angle_alpha   90.02436243
_cell_angle_beta   89.92275345
_cell_angle_gamma   90.05060063
_symmetry_Int_Tables_number   1
_chemical_formula_structural   La6Ce7Pr13Nd19Sm19(BiS2)64
_chemical_formula_sum   'La6 Ce7 Pr13 Nd19 Sm19 Bi64 S128'
_cell_volume   7109.61368780
_cell_formula_units_Z   1
loop_
 _symmetry_equiv_pos_site_id
 _symmetry_equiv_pos_as_xyz
  1  'x, y, z'
loop_
 _atom_type_symbol
 _atom_type_oxidation_number
  La3+  3.0
  Ce3+  3.0
  Pr3+  3.0
  Nd3+  3.0
  Sm3+  3.0
  Bi2+  2.0
  S2-  -2.0
loop_
 _atom_site_type_symbol
 _atom_site_label
 _atom_site_symmetry_multiplicity
 _atom_site_fract_x
 _atom_site_fract_y
 _atom_site_fract_z
 _atom_site_occupancy
  La3+  La0  1  0.24766815  0.62044935  0.07550095  1
  La3+  La1  1  0.25216697  0.63737604  0.57350452  1
  La3+  La2  1  -0.00776930  0.86973154  0.08910042  1
  La3+  La3  1  0.12756079  0.74650512  0.89841502  1
  La3+  La4  1  -0.00564440  0.13544221  0.10124465  1
  La3+  La5  1  -0.00408149  0.89258062  0.59030847  1
  Ce3+  Ce6  1  0.24692622  0.36818447  0.05676927  1
  Ce3+  Ce7  1  0.11848107  -0.01036683  0.95109913  1
  Ce3+  Ce8  1  0.62319999  0.49776095  0.94381029  1
  Ce3+  Ce9  1  0.37111480  0.74443279  0.94817067  1
  Ce3+  Ce10  1  0.36966947  -0.00848750  0.94362322  1
  Ce3+  Ce11  1  0.49864893  0.87231002  0.05633541  1
  Ce3+  Ce12  1  0.62716171  -0.00579279  0.94309934  1
  Pr3+  Pr13  1  0.37215223  0.49931579  0.93816360  1
  Pr3+  Pr14  1  0.88099509  0.75642555  0.43076063  1
  Pr3+  Pr15  1  0.13695513  0.00191301  0.42608248  1
  Pr3+  Pr16  1  0.88259205  0.50829857  0.43694986  1
  Pr3+  Pr17  1  0.49874512  0.38254373  0.56619833  1
  Pr3+  Pr18  1  0.74983550  0.12263024  0.06515178  1
  Pr3+  Pr19  1  0.37445760  0.75834258  0.43831541  1
  Pr3+  Pr20  1  0.37312715  0.24579045  0.93684023  1
  Pr3+  Pr21  1  0.75735191  0.12892913  0.55687007  1
  Pr3+  Pr22  1  0.75626399  0.38163444  0.55441609  1
  Pr3+  Pr23  1  0.87519496  0.24528719  0.93630513  1
  Pr3+  Pr24  1  0.75880333  0.63294530  0.55839639  1
  Pr3+  Pr25  1  0.88107147  0.25617585  0.43302915  1
  Nd3+  Nd26  1  0.49287510  0.61899718  0.07634944  1
  Nd3+  Nd27  1  0.37930622  0.25556934  0.44279018  1
  Nd3+  Nd28  1  0.25051987  0.12799292  0.56425549  1
  Nd3+  Nd29  1  0.50552625  0.88098807  0.55800766  1
  Nd3+  Nd30  1  0.62709249  0.50756252  0.43898403  1
  Nd3+  Nd31  1  0.14123653  0.50927760  0.42989846  1
  Nd3+  Nd32  1  0.74894752  0.61974772  0.06028750  1
  Nd3+  Nd33  1  0.00627945  0.38104588  0.55269336  1
  Nd3+  Nd34  1  0.24702579  0.12045282  0.05869535  1
  Nd3+  Nd35  1  0.62883286  0.75680903  0.43711042  1
  Nd3+  Nd36  1  0.74929417  0.87032191  0.06373144  1
  Nd3+  Nd37  1  0.62812087  0.25662745  0.44638177  1
  Nd3+  Nd38  1  0.87653756  0.50051745  0.94621664  1
  Nd3+  Nd39  1  0.38398641  0.51052041  0.43568288  1
  Nd3+  Nd40  1  0.62908039  0.00655260  0.43801512  1
  Nd3+  Nd41  1  0.49644738  0.37220596  0.06414840  1
  Nd3+  Nd42  1  0.25255442  0.88574759  0.56915785  1
  Nd3+  Nd43  1  0.13109356  0.25117126  0.43630216  1
  Nd3+  Nd44  1  0.00351231  0.62232322  0.07585846  1
  Sm3+  Sm45  1  0.12145092  0.24399989  0.94508586  1
  Sm3+  Sm46  1  0.50364614  0.13131539  0.55531951  1
  Sm3+  Sm47  1  0.87723483  -0.00652550  0.94704426  1
  Sm3+  Sm48  1  0.87114930  0.00519228  0.42229681  1
  Sm3+  Sm49  1  0.75526047  0.88019776  0.55633546  1
  Sm3+  Sm50  1  0.75012337  0.37043883  0.05301045  1
  Sm3+  Sm51  1  0.88176005  0.74829945  0.94447522  1
  Sm3+  Sm52  1  0.12788912  0.76084136  0.44384031  1
  Sm3+  Sm53  1  -0.00305527  0.37057214  0.05423832  1
  Sm3+  Sm54  1  0.00573732  0.63421276  0.55179427  1
  Sm3+  Sm55  1  0.62526782  0.74564386  0.94826460  1
  Sm3+  Sm56  1  0.24272587  0.87202454  0.06107890  1
  Sm3+  Sm57  1  0.62407543  0.24572008  0.94610608  1
  Sm3+  Sm58  1  0.00289951  0.12623056  0.54705130  1
  Sm3+  Sm59  1  0.49779872  0.12078524  0.05138220  1
  Sm3+  Sm60  1  0.50327026  0.63265155  0.56011548  1
  Sm3+  Sm61  1  0.37989281  0.00614022  0.44329348  1
  Sm3+  Sm62  1  0.25141163  0.38494378  0.55502489  1
  Sm3+  Sm63  1  0.12345512  0.50217212  0.94643550  1
  Bi2+  Bi64  1  -0.00932530  0.13421843  0.29633525  1
  Bi2+  Bi65  1  0.00133655  0.12752998  0.74083148  1
  Bi2+  Bi66  1  -0.01045542  0.38143673  0.23717877  1
  Bi2+  Bi67  1  -0.01766979  0.32254310  0.79954172  1
  Bi2+  Bi68  1  -0.01864061  0.61732566  0.29371430  1
  Bi2+  Bi69  1  -0.06812456  0.60823001  0.77245493  1
  Bi2+  Bi70  1  0.03045833  0.87668323  0.29829341  1
  Bi2+  Bi71  1  -0.00981312  0.86492699  0.79661194  1
  Bi2+  Bi72  1  0.24530819  0.13365263  0.30769930  1
  Bi2+  Bi73  1  0.20350851  0.14344065  0.76845231  1
  Bi2+  Bi74  1  0.30091247  0.36583920  0.27979972  1
  Bi2+  Bi75  1  0.22866469  0.34568170  0.78778290  1
  Bi2+  Bi76  1  0.24111335  0.63634982  0.30943496  1
  Bi2+  Bi77  1  0.27447063  0.61761842  0.79870451  1
  Bi2+  Bi78  1  0.32137636  0.89209306  0.27635603  1
  Bi2+  Bi79  1  0.26619451  0.88819638  0.80518891  1
  Bi2+  Bi80  1  0.52111123  0.11993470  0.29590493  1
  Bi2+  Bi81  1  0.47854214  0.16010571  0.78977454  1
  Bi2+  Bi82  1  0.51289267  0.39037277  0.29265407  1
  Bi2+  Bi83  1  0.49691961  0.39175907  0.80250652  1
  Bi2+  Bi84  1  0.53444941  0.64756579  0.29688673  1
  Bi2+  Bi85  1  0.53834254  0.65938558  0.74256711  1
  Bi2+  Bi86  1  0.51281858  0.92492760  0.30478274  1
  Bi2+  Bi87  1  0.48545665  0.88582389  0.75491115  1
  Bi2+  Bi88  1  0.72384563  0.12704116  0.29779432  1
  Bi2+  Bi89  1  0.74824973  0.11494793  0.79091283  1
  Bi2+  Bi90  1  0.71236103  0.36046431  0.28642939  1
  Bi2+  Bi91  1  0.79840246  0.38585368  0.78629224  1
  Bi2+  Bi92  1  0.73984638  0.55700229  0.29845140  1
  Bi2+  Bi93  1  0.73035589  0.63865663  0.80684619  1
  Bi2+  Bi94  1  0.68417743  0.84316603  0.26703130  1
  Bi2+  Bi95  1  0.73907039  0.87115341  0.80686518  1
  Bi2+  Bi96  1  0.17974579  0.00551543  0.19559657  1
  Bi2+  Bi97  1  0.12360738  -0.01252318  0.70750779  1
  Bi2+  Bi98  1  0.16038269  0.25210347  0.21903075  1
  Bi2+  Bi99  1  0.12015071  0.27478159  0.69808123  1
  Bi2+  Bi100  1  0.15291561  0.48155237  0.21934071  1
  Bi2+  Bi101  1  0.08729944  0.48020733  0.77440277  1
  Bi2+  Bi102  1  0.12916354  0.75587618  0.20381903  1
  Bi2+  Bi103  1  0.11735099  0.68953511  0.69792762  1
  Bi2+  Bi104  1  0.38866194  0.04653391  0.22119628  1
  Bi2+  Bi105  1  0.37693607  0.04620238  0.71646889  1
  Bi2+  Bi106  1  0.44011439  0.27928389  0.20974352  1
  Bi2+  Bi107  1  0.39436900  0.23977851  0.69468612  1
  Bi2+  Bi108  1  0.37892969  0.50794102  0.21107100  1
  Bi2+  Bi109  1  0.35261423  0.47757652  0.69346339  1
  Bi2+  Bi110  1  0.43297969  0.76207396  0.21978343  1
  Bi2+  Bi111  1  0.37284559  0.74139312  0.70966100  1
  Bi2+  Bi112  1  0.60879769  -0.00992193  0.20014047  1
  Bi2+  Bi113  1  0.65011154  -0.01504111  0.72118748  1
  Bi2+  Bi114  1  0.62433450  0.20246167  0.20263805  1
  Bi2+  Bi115  1  0.63424469  0.25777216  0.75119616  1
  Bi2+  Bi116  1  0.63186379  0.48749852  0.21035368  1
  Bi2+  Bi117  1  0.64441742  0.49272265  0.74519454  1
  Bi2+  Bi118  1  0.61458118  0.69997585  0.19528901  1
  Bi2+  Bi119  1  0.62149715  0.80472862  0.67917838  1
  Bi2+  Bi120  1  0.79976645  -0.00381455  0.22245745  1
  Bi2+  Bi121  1  0.84935251  0.00687093  0.70896405  1
  Bi2+  Bi122  1  0.83077645  0.27649865  0.20417294  1
  Bi2+  Bi123  1  0.86641757  0.26862133  0.68883099  1
  Bi2+  Bi124  1  0.88269859  0.53635786  0.20929888  1
  Bi2+  Bi125  1  0.86519776  0.49290059  0.68829500  1
  Bi2+  Bi126  1  0.86272608  0.75518820  0.22231878  1
  Bi2+  Bi127  1  0.80081665  0.74454697  0.71970140  1
  S2-  S128  1  0.04975358  0.11919471  0.19835111  1
  S2-  S129  1  0.00476693  0.05534076  0.63622775  1
  S2-  S130  1  -0.01232961  0.30434411  0.14364256  1
  S2-  S131  1  -0.00343753  0.38103585  0.65139499  1
  S2-  S132  1  -0.01954605  0.72983317  0.15582003  1
  S2-  S133  1  -0.00943422  0.62993563  0.64895021  1
  S2-  S134  1  0.04778384  0.91174276  0.18924130  1
  S2-  S135  1  0.04376384  0.84304560  0.68626079  1
  S2-  S136  1  0.24270298  0.16362190  0.15485543  1
  S2-  S137  1  0.25185661  0.01499688  0.63968870  1
  S2-  S138  1  0.25959510  0.42156991  0.14837607  1
  S2-  S139  1  0.26366964  0.34307524  0.64942383  1
  S2-  S140  1  0.13197816  0.61033758  0.15338582  1
  S2-  S141  1  0.22196161  0.55271431  0.66101053  1
  S2-  S142  1  0.24674465  0.85262112  0.15913865  1
  S2-  S143  1  0.24707289  0.76947718  0.64441957  1
  S2-  S144  1  0.47920112  0.14234538  0.14696037  1
  S2-  S145  1  0.49988063  0.12281994  0.65206529  1
  S2-  S146  1  0.50396508  0.48016291  0.14257233  1
  S2-  S147  1  0.48873250  0.37313933  0.66571067  1
  S2-  S148  1  0.36833070  0.63978740  0.15096692  1
  S2-  S149  1  0.45268540  0.60404936  0.65237751  1
  S2-  S150  1  0.50211785  0.87718405  0.15299083  1
  S2-  S151  1  0.44940640  0.86943517  0.65065363  1
  S2-  S152  1  0.84037583  0.12075182  0.15144063  1
  S2-  S153  1  0.77177536  0.13888403  0.65549756  1
  S2-  S154  1  0.74339228  0.38480506  0.14955005  1
  S2-  S155  1  0.74952834  0.37041239  0.65335571  1
  S2-  S156  1  0.77305850  0.64428364  0.15746855  1
  S2-  S157  1  0.75266018  0.61256563  0.65731259  1
  S2-  S158  1  0.83263983  0.87785045  0.15052577  1
  S2-  S159  1  0.84127626  0.88096857  0.64063070  1
  S2-  S160  1  0.10933467  0.01578264  0.32488228  1
  S2-  S161  1  0.11777203  -0.07672442  0.85945763  1
  S2-  S162  1  0.11479242  0.24293380  0.33763237  1
  S2-  S163  1  0.12577179  0.24150124  0.84774691  1
  S2-  S164  1  0.09561535  0.52744370  0.33374350  1
  S2-  S165  1  0.13344784  0.57598425  0.85903184  1
  S2-  S166  1  0.15209548  0.77356629  0.34665338  1
  S2-  S167  1  0.15406486  0.75220990  0.79226513  1
  S2-  S168  1  0.29411789  -0.01386491  0.36090359  1
  S2-  S169  1  0.35579671  0.00442980  0.84735922  1
  S2-  S170  1  0.35405020  0.23560056  0.34575804  1
  S2-  S171  1  0.37153062  0.27506732  0.83830029  1
  S2-  S172  1  0.28342237  0.49752919  0.35614650  1
  S2-  S173  1  0.37611256  0.51025360  0.83719921  1
  S2-  S174  1  0.37908530  0.69844730  0.34409886  1
  S2-  S175  1  0.34313112  0.75019654  0.85184318  1
  S2-  S176  1  0.72807657  -0.00379820  0.35829065  1
  S2-  S177  1  0.64179233  0.00156946  0.84699668  1
  S2-  S178  1  0.60584221  0.26287414  0.34905779  1
  S2-  S179  1  0.60013347  0.26702630  0.85065487  1
  S2-  S180  1  0.51414805  0.51209453  0.36401292  1
  S2-  S181  1  0.60149458  0.50534623  0.84815657  1
  S2-  S182  1  0.67455109  0.72097867  0.34431710  1
  S2-  S183  1  0.63062062  0.75526248  0.85045711  1
  S2-  S184  1  0.92093378  -0.01190508  0.32617388  1
  S2-  S185  1  0.88411361  -0.05011565  0.84927007  1
  S2-  S186  1  0.86652781  0.22083832  0.33586721  1
  S2-  S187  1  0.86278559  0.20281661  0.83977564  1
  S2-  S188  1  0.88016076  0.48865700  0.33873003  1
  S2-  S189  1  0.86645127  0.51396225  0.84776962  1
  S2-  S190  1  0.90181438  0.76655379  0.33007824  1
  S2-  S191  1  0.96409545  0.74150973  0.85681528  1
  S2-  S192  1  0.00276903  0.12614518  0.44275790  1
  S2-  S193  1  -0.00111118  0.11910021  0.94645318  1
  S2-  S194  1  0.00970808  0.38197807  0.44534680  1
  S2-  S195  1  0.00108417  0.37381301  0.94962869  1
  S2-  S196  1  0.00888287  0.63276053  0.44693628  1
  S2-  S197  1  0.00016098  0.62207249  0.96447779  1
  S2-  S198  1  0.00294112  0.88274183  0.43926031  1
  S2-  S199  1  -0.00439406  0.87063117  0.96601594  1
  S2-  S200  1  0.25606648  0.12987365  0.45843612  1
  S2-  S201  1  0.24513458  0.12061473  0.95210043  1
  S2-  S202  1  0.25440000  0.37651437  0.45254234  1
  S2-  S203  1  0.24412847  0.37216710  0.94987710  1
  S2-  S204  1  0.25158215  0.63686645  0.46053897  1
  S2-  S205  1  0.24645600  0.62323385  0.96194243  1
  S2-  S206  1  0.25503359  0.88021810  0.46243884  1
  S2-  S207  1  0.24405259  0.86598149  0.95727123  1
  S2-  S208  1  0.50363959  0.12954697  0.45050139  1
  S2-  S209  1  0.49928860  0.12035417  0.94780861  1
  S2-  S210  1  0.50325731  0.37966991  0.45927865  1
  S2-  S211  1  0.49846864  0.37038059  0.95748475  1
  S2-  S212  1  0.50452169  0.63752883  0.45792796  1
  S2-  S213  1  0.49962146  0.62325150  0.96093593  1
  S2-  S214  1  0.50431081  0.88193255  0.45068755  1
  S2-  S215  1  0.50035232  0.86929301  0.95006472  1
  S2-  S216  1  0.75346958  0.13415611  0.45152258  1
  S2-  S217  1  0.74905048  0.12137523  0.95636090  1
  S2-  S218  1  0.75280391  0.38248072  0.44749149  1
  S2-  S219  1  0.74928710  0.37131256  0.94839076  1
  S2-  S220  1  0.75387001  0.63059676  0.45177301  1
  S2-  S221  1  0.75111636  0.62444524  0.95453222  1
  S2-  S222  1  0.75422165  0.87685646  0.45316288  1
  S2-  S223  1  0.75215365  0.86817735  0.95798622  1
  S2-  S224  1  0.11727061  0.00085400  0.05894945  1
  S2-  S225  1  0.12446498  0.00462254  0.53597470  1
  S2-  S226  1  0.11885898  0.24306917  0.04868133  1
  S2-  S227  1  0.12797279  0.25233125  0.54372783  1
  S2-  S228  1  0.12015314  0.49102723  0.04952469  1
  S2-  S229  1  0.12824675  0.50722843  0.54059801  1
  S2-  S230  1  0.12288839  0.75112497  0.05797207  1
  S2-  S231  1  0.11610027  0.76624735  0.54799254  1
  S2-  S232  1  0.37193766  -0.00316083  0.05098842  1
  S2-  S233  1  0.38326779  0.00740886  0.54522714  1
  S2-  S234  1  0.37438573  0.24563377  0.04421970  1
  S2-  S235  1  0.37621939  0.25315427  0.54797347  1
  S2-  S236  1  0.37214466  0.49459765  0.04389621  1
  S2-  S237  1  0.37600996  0.50761046  0.54318587  1
  S2-  S238  1  0.37249584  0.75171155  0.05141225  1
  S2-  S239  1  0.38312016  0.75651280  0.54487902  1
  S2-  S240  1  0.62466530  -0.00177423  0.05006830  1
  S2-  S241  1  0.62992269  0.00550040  0.54602587  1
  S2-  S242  1  0.62243772  0.24743308  0.05014956  1
  S2-  S243  1  0.62764568  0.25564249  0.55217998  1
  S2-  S244  1  0.62602907  0.49521825  0.04740488  1
  S2-  S245  1  0.62747624  0.50774146  0.54761933  1
  S2-  S246  1  0.62330073  0.74426299  0.05278734  1
  S2-  S247  1  0.62960677  0.75502741  0.54430017  1
  S2-  S248  1  0.87707183  0.00046758  0.04994182  1
  S2-  S249  1  0.87724970  0.00388709  0.53242635  1
  S2-  S250  1  0.87361523  0.24651581  0.04236712  1
  S2-  S251  1  0.88246372  0.25513837  0.54043138  1
  S2-  S252  1  0.87540720  0.49500517  0.05190952  1
  S2-  S253  1  0.88262926  0.50679713  0.54306372  1
  S2-  S254  1  0.87196160  0.74373598  0.04764809  1
  S2-  S255  1  0.88230629  0.75822839  0.53961937  1
