# generated using pymatgen
data_La6Ce7Pr13Nd19Sm19(BiS2)64
_symmetry_space_group_name_H-M   'P 1'
_cell_length_a   16.04456730
_cell_length_b   16.00617757
_cell_length_c   27.28402057
_cell_angle_alpha   89.93082392
_cell_angle_beta   89.92795008
_cell_angle_gamma   89.87434941
_symmetry_Int_Tables_number   1
_chemical_formula_structural   La6Ce7Pr13Nd19Sm19(BiS2)64
_chemical_formula_sum   'La6 Ce7 Pr13 Nd19 Sm19 Bi64 S128'
_cell_volume   7006.84169242
_cell_formula_units_Z   1
loop_
 _symmetry_equiv_pos_site_id
 _symmetry_equiv_pos_as_xyz
  1  'x, y, z'
loop_
 _atom_type_symbol
 _atom_type_oxidation_number
  La3+  3.0
  Ce3+  3.0
  Pr3+  3.0
  Nd3+  3.0
  Sm3+  3.0
  Bi2+  2.0
  S2-  -2.0
loop_
 _atom_site_type_symbol
 _atom_site_label
 _atom_site_symmetry_multiplicity
 _atom_site_fract_x
 _atom_site_fract_y
 _atom_site_fract_z
 _atom_site_occupancy
  La3+  La0  1  0.22628184  0.38505007  0.11894735  1
  La3+  La1  1  0.88292734  0.24760547  0.90961420  1
  La3+  La2  1  0.61198491  0.25386393  0.91347513  1
  La3+  La3  1  0.75033110  0.35932333  0.58194117  1
  La3+  La4  1  0.38992261  0.50077365  0.41892738  1
  La3+  La5  1  0.75135995  0.62095311  0.61210643  1
  Ce3+  Ce6  1  0.12198367  -0.00102239  0.94523393  1
  Ce3+  Ce7  1  0.50749726  0.86202148  0.56075930  1
  Ce3+  Ce8  1  0.87705871  0.74458493  0.44070079  1
  Ce3+  Ce9  1  0.62045953  0.50135441  0.93019084  1
  Ce3+  Ce10  1  0.87692039  0.49062034  0.45693731  1
  Ce3+  Ce11  1  0.75645699  0.11871128  0.55666005  1
  Ce3+  Ce12  1  0.50113869  0.36954051  0.56690102  1
  Pr3+  Pr13  1  0.49527472  0.37582197  0.08510487  1
  Pr3+  Pr14  1  0.24732519  0.13025527  0.06780163  1
  Pr3+  Pr15  1  0.25182911  0.86842320  0.56298843  1
  Pr3+  Pr16  1  0.24463515  0.63013082  0.06717483  1
  Pr3+  Pr17  1  0.50485346  0.11899573  0.56918935  1
  Pr3+  Pr18  1  0.49787750  0.62426754  0.06448873  1
  Pr3+  Pr19  1  0.25255993  0.36710668  0.55976269  1
  Pr3+  Pr20  1  0.00150012  0.36095519  0.57472715  1
  Pr3+  Pr21  1  0.25184855  0.11442186  0.56781862  1
  Pr3+  Pr22  1  0.87126563  0.25153608  0.42690236  1
  Pr3+  Pr23  1  0.61629520  0.74807659  0.92103604  1
  Pr3+  Pr24  1  0.49848027  0.87175743  0.06579019  1
  Pr3+  Pr25  1  0.12850776  0.49409928  0.43225425  1
  Nd3+  Nd26  1  0.00321228  0.11567259  0.55608948  1
  Nd3+  Nd27  1  0.38013162  0.24300079  0.43751498  1
  Nd3+  Nd28  1  0.37379180  0.25307047  0.94898903  1
  Nd3+  Nd29  1  0.75011533  0.87145929  0.05333555  1
  Nd3+  Nd30  1  0.74820425  0.12757122  0.04729400  1
  Nd3+  Nd31  1  0.36889200  0.74796539  0.93136890  1
  Nd3+  Nd32  1  0.12876799  0.74293992  0.42490458  1
  Nd3+  Nd33  1  0.87679475  0.75040693  0.92805736  1
  Nd3+  Nd34  1  0.49736048  0.61435580  0.57059957  1
  Nd3+  Nd35  1  0.12854488  -0.00639329  0.42859147  1
  Nd3+  Nd36  1  -0.00901648  0.87408543  0.07130570  1
  Nd3+  Nd37  1  -0.01574660  0.36740291  0.07230701  1
  Nd3+  Nd38  1  0.12055305  0.24356548  0.42589971  1
  Nd3+  Nd39  1  0.87510418  -0.01291424  0.42890693  1
  Nd3+  Nd40  1  0.74573153  0.37205720  0.04869051  1
  Nd3+  Nd41  1  0.24825452  0.87507355  0.06378986  1
  Nd3+  Nd42  1  0.63029560  0.49368579  0.45045923  1
  Nd3+  Nd43  1  -0.00655255  0.12434586  0.06402998  1
  Nd3+  Nd44  1  0.62137930  -0.00019117  0.93907099  1
  Sm3+  Sm45  1  0.74719552  0.62581654  0.05121565  1
  Sm3+  Sm46  1  0.37324797  0.00111388  0.94608714  1
  Sm3+  Sm47  1  0.63012411  0.74057106  0.44804801  1
  Sm3+  Sm48  1  0.37087326  0.49885126  0.95236787  1
  Sm3+  Sm49  1  0.25424952  0.61752500  0.55774596  1
  Sm3+  Sm50  1  0.87404010  0.00051904  0.93250810  1
  Sm3+  Sm51  1  0.87320975  0.49740195  0.94111177  1
  Sm3+  Sm52  1  0.50245496  0.12977744  0.06466434  1
  Sm3+  Sm53  1  0.62844099  -0.00761118  0.44914750  1
  Sm3+  Sm54  1  0.12294864  0.49574216  0.94464618  1
  Sm3+  Sm55  1  0.38042613  0.74311923  0.43974078  1
  Sm3+  Sm56  1  0.75606598  0.86446715  0.56584781  1
  Sm3+  Sm57  1  0.00383655  0.62037490  0.56179084  1
  Sm3+  Sm58  1  0.00469903  0.86858133  0.55946898  1
  Sm3+  Sm59  1  0.00069882  0.62316824  0.05589115  1
  Sm3+  Sm60  1  0.12143179  0.25124628  0.94546052  1
  Sm3+  Sm61  1  0.62472198  0.24475899  0.43526142  1
  Sm3+  Sm62  1  0.12101915  0.74939295  0.93223243  1
  Sm3+  Sm63  1  0.37866873  -0.00677053  0.44461321  1
  Bi2+  Bi64  1  0.02197654  0.10532364  0.28594015  1
  Bi2+  Bi65  1  0.00342702  0.06110979  0.78026940  1
  Bi2+  Bi66  1  -0.00636975  0.38182374  0.29649185  1
  Bi2+  Bi67  1  -0.00177124  0.39963611  0.80846939  1
  Bi2+  Bi68  1  -0.03491927  0.62850572  0.29149031  1
  Bi2+  Bi69  1  0.07470071  0.66941265  0.76655828  1
  Bi2+  Bi70  1  -0.02173771  0.82780457  0.28227343  1
  Bi2+  Bi71  1  -0.08079331  0.87740032  0.81210844  1
  Bi2+  Bi72  1  0.28149712  0.11269190  0.28457375  1
  Bi2+  Bi73  1  0.24698780  0.17833134  0.77329507  1
  Bi2+  Bi74  1  0.27198798  0.30383205  0.30416560  1
  Bi2+  Bi75  1  0.22710334  0.37337251  0.79270728  1
  Bi2+  Bi76  1  0.24726269  0.68978077  0.29240269  1
  Bi2+  Bi77  1  0.29035208  0.62913496  0.79082448  1
  Bi2+  Bi78  1  0.24068438  0.88349831  0.29030574  1
  Bi2+  Bi79  1  0.14283100  0.86166567  0.80298292  1
  Bi2+  Bi80  1  0.55347693  0.09090014  0.27580902  1
  Bi2+  Bi81  1  0.49205286  0.09043058  0.80280139  1
  Bi2+  Bi82  1  0.50282632  0.36082150  0.29460022  1
  Bi2+  Bi83  1  0.45007075  0.36967043  0.79684736  1
  Bi2+  Bi84  1  0.53857831  0.63690835  0.29805895  1
  Bi2+  Bi85  1  0.49603403  0.62364448  0.79553258  1
  Bi2+  Bi86  1  0.45604013  0.89665659  0.28206031  1
  Bi2+  Bi87  1  0.44371436  0.85009017  0.76057940  1
  Bi2+  Bi88  1  0.74837715  0.07845037  0.27440815  1
  Bi2+  Bi89  1  0.73720421  0.05080168  0.79048893  1
  Bi2+  Bi90  1  0.73588692  0.38661744  0.30723204  1
  Bi2+  Bi91  1  0.73911038  0.42487827  0.78541083  1
  Bi2+  Bi92  1  0.76593303  0.61047985  0.29128196  1
  Bi2+  Bi93  1  0.78670596  0.64918568  0.79170438  1
  Bi2+  Bi94  1  0.72257443  0.86748004  0.29550678  1
  Bi2+  Bi95  1  0.72761381  0.82904982  0.80624742  1
  Bi2+  Bi96  1  0.14445065  0.00203323  0.20856881  1
  Bi2+  Bi97  1  0.12704478  -0.04566833  0.70443631  1
  Bi2+  Bi98  1  0.10244790  0.24849444  0.21963718  1
  Bi2+  Bi99  1  0.10789434  0.28157734  0.71639670  1
  Bi2+  Bi100  1  0.10851199  0.55314789  0.21117102  1
  Bi2+  Bi101  1  0.13010160  0.55047833  0.68114337  1
  Bi2+  Bi102  1  0.10738630  0.80656913  0.19795226  1
  Bi2+  Bi103  1  0.13461695  0.74776006  0.64824424  1
  Bi2+  Bi104  1  0.33512573  -0.02885583  0.17711616  1
  Bi2+  Bi105  1  0.31019968  -0.00566115  0.74515084  1
  Bi2+  Bi106  1  0.41542788  0.15164721  0.20139620  1
  Bi2+  Bi107  1  0.38741254  0.23605550  0.70051014  1
  Bi2+  Bi108  1  0.38893529  0.50121103  0.21866429  1
  Bi2+  Bi109  1  0.32191087  0.48453041  0.71176118  1
  Bi2+  Bi110  1  0.37406748  0.76206861  0.21292179  1
  Bi2+  Bi111  1  0.31590008  0.74738125  0.69981580  1
  Bi2+  Bi112  1  0.54309612  -0.01117490  0.17685806  1
  Bi2+  Bi113  1  0.69167340  -0.06583249  0.70073665  1
  Bi2+  Bi114  1  0.63798765  0.31859985  0.21500540  1
  Bi2+  Bi115  1  0.62714936  0.23324827  0.71306077  1
  Bi2+  Bi116  1  0.65226427  0.52034491  0.21087835  1
  Bi2+  Bi117  1  0.52907780  0.47898895  0.71751474  1
  Bi2+  Bi118  1  0.60456878  0.81227854  0.21450629  1
  Bi2+  Bi119  1  0.60202050  0.75426351  0.71626388  1
  Bi2+  Bi120  1  0.86724027  -0.01305011  0.20282187  1
  Bi2+  Bi121  1  0.88069831  -0.01715293  0.70279991  1
  Bi2+  Bi122  1  0.84348362  0.24214259  0.20144718  1
  Bi2+  Bi123  1  0.88151065  0.24590195  0.71057539  1
  Bi2+  Bi124  1  0.86774530  0.47821509  0.22408450  1
  Bi2+  Bi125  1  0.94385683  0.51282552  0.71516702  1
  Bi2+  Bi126  1  0.85135842  0.71970343  0.20580280  1
  Bi2+  Bi127  1  0.95613445  0.78989756  0.70570014  1
  S2-  S128  1  -0.02158496  0.22939203  0.14540485  1
  S2-  S129  1  -0.00087753  0.21254459  0.64394641  1
  S2-  S130  1  0.06032139  0.43250225  0.15419487  1
  S2-  S131  1  -0.12104536  0.37913664  0.65514407  1
  S2-  S132  1  0.02168629  0.66949839  0.15012063  1
  S2-  S133  1  -0.07807908  0.64170084  0.64963748  1
  S2-  S134  1  -0.00035084  1.00510921  0.14273708  1
  S2-  S135  1  0.00700843  0.99098985  0.63112611  1
  S2-  S136  1  0.21976663  0.21348507  0.15547677  1
  S2-  S137  1  0.24325758  0.19814826  0.65926373  1
  S2-  S138  1  0.19746218  0.38954763  0.23367126  1
  S2-  S139  1  0.13710359  0.38788079  0.63894102  1
  S2-  S140  1  0.25645376  0.55089064  0.15963467  1
  S2-  S141  1  0.36096715  0.61729527  0.63890248  1
  S2-  S142  1  0.24465884  0.76259462  0.14003438  1
  S2-  S143  1  0.26161915  0.98338284  0.64176596  1
  S2-  S144  1  0.54335158  0.22984491  0.14300693  1
  S2-  S145  1  0.52264164  0.12265600  0.67097789  1
  S2-  S146  1  0.38274224  0.36939640  0.16742346  1
  S2-  S147  1  0.37536937  0.37150198  0.63676374  1
  S2-  S148  1  0.51243863  0.52178611  0.14979131  1
  S2-  S149  1  0.58691567  0.61383158  0.65795413  1
  S2-  S150  1  0.49963468  0.74846373  0.13986785  1
  S2-  S151  1  0.49780091  0.86652711  0.65750766  1
  S2-  S152  1  0.77876061  0.11211192  0.14615041  1
  S2-  S153  1  0.75512941  0.19235329  0.64651204  1
  S2-  S154  1  0.82758511  0.37809646  0.13866777  1
  S2-  S155  1  0.60869522  0.35994792  0.65096188  1
  S2-  S156  1  0.73499923  0.64296902  0.14909066  1
  S2-  S157  1  0.76731385  0.55285750  0.71248119  1
  S2-  S158  1  0.84652716  0.85873450  0.13693816  1
  S2-  S159  1  0.75011778  0.78555784  0.65402992  1
  S2-  S160  1  0.15253478  0.11381797  0.35469833  1
  S2-  S161  1  0.12616405  0.01928865  0.84797242  1
  S2-  S162  1  0.13515838  0.37614989  0.35630304  1
  S2-  S163  1  0.04146986  0.26212273  0.85756713  1
  S2-  S164  1  0.13349794  0.61669032  0.35190883  1
  S2-  S165  1  0.12573259  0.49243937  0.84448596  1
  S2-  S166  1  0.10682432  0.87151036  0.35368930  1
  S2-  S167  1  0.24302088  0.75450695  0.85903201  1
  S2-  S168  1  0.38522182  0.01242302  0.34700348  1
  S2-  S169  1  0.37122302  0.00801102  0.84770984  1
  S2-  S170  1  0.49865054  0.24251745  0.36087260  1
  S2-  S171  1  0.44939464  0.23648740  0.85827684  1
  S2-  S172  1  0.34886299  0.44857778  0.32197128  1
  S2-  S173  1  0.38826185  0.51370014  0.85328650  1
  S2-  S174  1  0.39294042  0.65862650  0.35412195  1
  S2-  S175  1  0.47963338  0.76837765  0.85360210  1
  S2-  S176  1  0.64234001  -0.00378293  0.35115652  1
  S2-  S177  1  0.59580689  -0.02069653  0.84090227  1
  S2-  S178  1  0.73553432  0.24761693  0.35792864  1
  S2-  S179  1  0.64704441  0.18445140  0.81578049  1
  S2-  S180  1  0.55336193  0.49580661  0.35911989  1
  S2-  S181  1  0.61610523  0.39685778  0.84907586  1
  S2-  S182  1  0.61612025  0.75284798  0.34924755  1
  S2-  S183  1  0.63781042  0.61433245  0.85178144  1
  S2-  S184  1  0.88412453  0.05509270  0.33477425  1
  S2-  S185  1  0.87812698  0.09595085  0.84971640  1
  S2-  S186  1  0.98490480  0.24184820  0.34762478  1
  S2-  S187  1  0.83793247  0.30332326  0.80998894  1
  S2-  S188  1  0.87628240  0.42534183  0.36712993  1
  S2-  S189  1  0.86504567  0.51667090  0.84285990  1
  S2-  S190  1  0.85922949  0.84503865  0.35966333  1
  S2-  S191  1  1.00051682  0.73295511  0.85694754  1
  S2-  S192  1  -0.00193088  0.11267587  0.45080684  1
  S2-  S193  1  -0.00097043  0.12275154  0.95654376  1
  S2-  S194  1  0.00420695  0.36947068  0.46471718  1
  S2-  S195  1  -0.00330435  0.37730983  0.95916896  1
  S2-  S196  1  0.00008454  0.61988166  0.45526252  1
  S2-  S197  1  -0.00104932  0.61923937  0.95301005  1
  S2-  S198  1  0.00267751  0.86737009  0.45671040  1
  S2-  S199  1  -0.00372016  0.87682252  0.95607535  1
  S2-  S200  1  0.25942697  0.11677334  0.45738451  1
  S2-  S201  1  0.24823110  0.12707572  0.95724975  1
  S2-  S202  1  0.26110824  0.36933731  0.45181107  1
  S2-  S203  1  0.24697426  0.37351346  0.94693316  1
  S2-  S204  1  0.25727516  0.62077107  0.45394416  1
  S2-  S205  1  0.24252957  0.62208246  0.95746714  1
  S2-  S206  1  0.25776145  0.86707735  0.45137406  1
  S2-  S207  1  0.24908467  0.87832421  0.95777505  1
  S2-  S208  1  0.50493817  0.11303201  0.46022878  1
  S2-  S209  1  0.49762780  0.12199162  0.95950833  1
  S2-  S210  1  0.50388126  0.36942057  0.46067800  1
  S2-  S211  1  0.49513057  0.37906914  0.95953770  1
  S2-  S212  1  0.50595040  0.62335132  0.46315751  1
  S2-  S213  1  0.49429219  0.62415007  0.95655609  1
  S2-  S214  1  0.50445283  0.86732090  0.45263889  1
  S2-  S215  1  0.49581420  0.87796204  0.95784958  1
  S2-  S216  1  0.75122188  0.11427388  0.45278595  1
  S2-  S217  1  0.74406647  0.12608947  0.94247550  1
  S2-  S218  1  0.74778145  0.36797613  0.46771098  1
  S2-  S219  1  0.75234589  0.37260615  0.94399674  1
  S2-  S220  1  0.75353122  0.61877529  0.44494870  1
  S2-  S221  1  0.75321489  0.62708127  0.94857889  1
  S2-  S222  1  0.74762673  0.86691318  0.46132759  1
  S2-  S223  1  0.74929893  0.87437990  0.94675623  1
  S2-  S224  1  0.12533215  -0.00023892  0.04968186  1
  S2-  S225  1  0.13079682  -0.00989861  0.53445589  1
  S2-  S226  1  0.12094301  0.25509681  0.04768653  1
  S2-  S227  1  0.13025813  0.23765896  0.53767179  1
  S2-  S228  1  0.12362189  0.49959706  0.04786856  1
  S2-  S229  1  0.12791997  0.50102762  0.53957878  1
  S2-  S230  1  0.11605914  0.75526138  0.03783352  1
  S2-  S231  1  0.12849060  0.74331307  0.53381479  1
  S2-  S232  1  0.37548824  0.00391774  0.05066929  1
  S2-  S233  1  0.38536087  -0.01008019  0.54757151  1
  S2-  S234  1  0.37628253  0.24925261  0.05234257  1
  S2-  S235  1  0.37931161  0.23665056  0.54292788  1
  S2-  S236  1  0.36723872  0.49772089  0.05360162  1
  S2-  S237  1  0.37669933  0.49558328  0.53557793  1
  S2-  S238  1  0.37208965  0.75089108  0.03817085  1
  S2-  S239  1  0.37745778  0.74627426  0.54335570  1
  S2-  S240  1  0.62489943  -0.00146970  0.04561787  1
  S2-  S241  1  0.63116459  -0.00970080  0.55459743  1
  S2-  S242  1  0.62351506  0.25038230  0.03387426  1
  S2-  S243  1  0.62587012  0.23901662  0.54233783  1
  S2-  S244  1  0.62650732  0.50016803  0.04138144  1
  S2-  S245  1  0.63316019  0.49800161  0.55498703  1
  S2-  S246  1  0.62627797  0.75004820  0.03558651  1
  S2-  S247  1  0.63340515  0.73761135  0.55175537  1
  S2-  S248  1  0.87086390  -0.00106472  0.03599209  1
  S2-  S249  1  0.87379557  -0.01226432  0.53906342  1
  S2-  S250  1  0.87039876  0.24702714  0.03120610  1
  S2-  S251  1  0.87694501  0.24103525  0.53887079  1
  S2-  S252  1  0.87319417  0.50501960  0.04530090  1
  S2-  S253  1  0.87257820  0.50246141  0.55831253  1
  S2-  S254  1  0.87534147  0.74516972  0.03532105  1
  S2-  S255  1  0.88043885  0.74623207  0.54566454  1
