# generated using pymatgen
data_La6Ce7Pr13Nd19Sm19(BiS2)64
_symmetry_space_group_name_H-M   'P 1'
_cell_length_a   16.05831895
_cell_length_b   16.05248913
_cell_length_c   27.59473098
_cell_angle_alpha   89.81317081
_cell_angle_beta   89.81956816
_cell_angle_gamma   90.16206631
_symmetry_Int_Tables_number   1
_chemical_formula_structural   La6Ce7Pr13Nd19Sm19(BiS2)64
_chemical_formula_sum   'La6 Ce7 Pr13 Nd19 Sm19 Bi64 S128'
_cell_volume   7113.15735780
_cell_formula_units_Z   1
loop_
 _symmetry_equiv_pos_site_id
 _symmetry_equiv_pos_as_xyz
  1  'x, y, z'
loop_
 _atom_type_symbol
 _atom_type_oxidation_number
  La3+  3.0
  Ce3+  3.0
  Pr3+  3.0
  Nd3+  3.0
  Sm3+  3.0
  Bi2+  2.0
  S2-  -2.0
loop_
 _atom_site_type_symbol
 _atom_site_label
 _atom_site_symmetry_multiplicity
 _atom_site_fract_x
 _atom_site_fract_y
 _atom_site_fract_z
 _atom_site_occupancy
  La3+  La0  1  0.86905730  0.00853574  0.87932369  1
  La3+  La1  1  0.23831764  0.39101718  0.07264508  1
  La3+  La2  1  0.39471367  0.72313941  0.43423928  1
  La3+  La3  1  0.49964597  0.87317528  0.11810798  1
  La3+  La4  1  0.61295000  0.26927728  0.93579241  1
  La3+  La5  1  0.73973149  0.38485787  0.07947047  1
  Ce3+  Ce6  1  0.61792304  0.02458555  0.93064938  1
  Ce3+  Ce7  1  0.88696817  0.47522463  0.42196394  1
  Ce3+  Ce8  1  0.14626491  0.72781741  0.44489717  1
  Ce3+  Ce9  1  0.14406327  0.22790568  0.43933108  1
  Ce3+  Ce10  1  0.01943363  0.85171708  0.56852347  1
  Ce3+  Ce11  1  0.77010795  0.60457025  0.55664508  1
  Ce3+  Ce12  1  0.01711627  0.10202329  0.55722432  1
  Pr3+  Pr13  1  0.52323099  0.35289821  0.56296371  1
  Pr3+  Pr14  1  0.11326999  0.26772148  0.93299651  1
  Pr3+  Pr15  1  0.36548131  0.76993740  0.94191742  1
  Pr3+  Pr16  1  0.89309571  -0.02625584  0.43410923  1
  Pr3+  Pr17  1  0.86255900  0.26831246  0.93148597  1
  Pr3+  Pr18  1  0.11404037  0.51500535  0.93191453  1
  Pr3+  Pr19  1  -0.00919390  0.89536685  0.06383281  1
  Pr3+  Pr20  1  0.26719430  0.84635564  0.57897508  1
  Pr3+  Pr21  1  0.64460364  0.73130453  0.44009596  1
  Pr3+  Pr22  1  0.23916168  0.64234329  0.06035429  1
  Pr3+  Pr23  1  0.77872778  0.35164391  0.56330632  1
  Pr3+  Pr24  1  0.23754852  0.89022904  0.07059475  1
  Pr3+  Pr25  1  0.26905893  0.35301210  0.56733524  1
  Nd3+  Nd26  1  0.48788513  0.13176521  0.06282102  1
  Nd3+  Nd27  1  0.64382625  0.47376626  0.43634677  1
  Nd3+  Nd28  1  0.14486858  -0.03188368  0.43752485  1
  Nd3+  Nd29  1  0.12140849  0.02094759  0.91895076  1
  Nd3+  Nd30  1  0.38934137  -0.02912586  0.43065804  1
  Nd3+  Nd31  1  0.23321740  0.13684209  0.05984611  1
  Nd3+  Nd32  1  0.11162211  0.77066478  0.94328912  1
  Nd3+  Nd33  1  0.90292875  0.22366248  0.42129775  1
  Nd3+  Nd34  1  0.73754468  0.14045920  0.05579751  1
  Nd3+  Nd35  1  0.51451203  0.85233056  0.56498844  1
  Nd3+  Nd36  1  0.26818303  0.10166510  0.55356388  1
  Nd3+  Nd37  1  0.64469460  -0.02410123  0.44826090  1
  Nd3+  Nd38  1  0.77109027  0.10127279  0.56005150  1
  Nd3+  Nd39  1  0.51843695  0.60172473  0.55702377  1
  Nd3+  Nd40  1  0.36401577  0.27166632  0.94629155  1
  Nd3+  Nd41  1  0.51817038  0.10199372  0.55447016  1
  Nd3+  Nd42  1  0.77318438  0.84307858  0.58455561  1
  Nd3+  Nd43  1  0.86434158  0.77066805  0.94192742  1
  Nd3+  Nd44  1  0.64750544  0.22654934  0.43941806  1
  Sm3+  Sm45  1  0.39581587  0.47737047  0.42979473  1
  Sm3+  Sm46  1  -0.01290889  0.13940608  0.04367318  1
  Sm3+  Sm47  1  0.86271899  0.51119407  0.94257490  1
  Sm3+  Sm48  1  0.61451989  0.51160969  0.94119310  1
  Sm3+  Sm49  1  0.36507466  0.51821621  0.94775817  1
  Sm3+  Sm50  1  0.01532318  0.60215953  0.55314888  1
  Sm3+  Sm51  1  0.36259264  0.01545621  0.94492376  1
  Sm3+  Sm52  1  0.49028024  0.64532868  0.05481138  1
  Sm3+  Sm53  1  0.26973171  0.59849783  0.56570461  1
  Sm3+  Sm54  1  -0.01066823  0.38770675  0.06681126  1
  Sm3+  Sm55  1  0.14331090  0.47727857  0.44628663  1
  Sm3+  Sm56  1  0.61531938  0.77199426  0.94016089  1
  Sm3+  Sm57  1  0.89584396  0.73061115  0.43825796  1
  Sm3+  Sm58  1  0.73684553  0.64130941  0.05203422  1
  Sm3+  Sm59  1  0.48865123  0.38979448  0.07218410  1
  Sm3+  Sm60  1  0.01498894  0.35169250  0.55397396  1
  Sm3+  Sm61  1  0.39222350  0.22813611  0.44329876  1
  Sm3+  Sm62  1  -0.01361859  0.63883013  0.05505466  1
  Sm3+  Sm63  1  0.73713622  0.89379739  0.05454159  1
  Bi2+  Bi64  1  -0.03985831  0.10909344  0.26624461  1
  Bi2+  Bi65  1  0.07684538  0.17166540  0.74409951  1
  Bi2+  Bi66  1  0.01671751  0.42392245  0.28736072  1
  Bi2+  Bi67  1  0.02901949  0.35817109  0.76590095  1
  Bi2+  Bi68  1  -0.04334644  0.61021809  0.31729783  1
  Bi2+  Bi69  1  -0.02289071  0.59376725  0.81142640  1
  Bi2+  Bi70  1  -0.02853995  0.88197131  0.28166500  1
  Bi2+  Bi71  1  0.00635011  0.82605940  0.78800865  1
  Bi2+  Bi72  1  0.18836214  0.17572511  0.30406098  1
  Bi2+  Bi73  1  0.26207474  0.13878343  0.80019569  1
  Bi2+  Bi74  1  0.27896766  0.35921073  0.30007410  1
  Bi2+  Bi75  1  0.23510131  0.41198359  0.79179376  1
  Bi2+  Bi76  1  0.23558903  0.59477256  0.29079440  1
  Bi2+  Bi77  1  0.17126435  0.60713372  0.80463929  1
  Bi2+  Bi78  1  0.25092329  0.91789366  0.30595367  1
  Bi2+  Bi79  1  0.26125113  0.87088687  0.78860403  1
  Bi2+  Bi80  1  0.55661226  0.10134711  0.24386288  1
  Bi2+  Bi81  1  0.44498278  0.07834980  0.75713188  1
  Bi2+  Bi82  1  0.50531247  0.41625359  0.26564402  1
  Bi2+  Bi83  1  0.48321944  0.34525662  0.80178235  1
  Bi2+  Bi84  1  0.50887093  0.61306529  0.30020830  1
  Bi2+  Bi85  1  0.43483097  0.60634180  0.80741741  1
  Bi2+  Bi86  1  0.50785837  0.89756484  0.31462849  1
  Bi2+  Bi87  1  0.51376932  0.80907354  0.78112678  1
  Bi2+  Bi88  1  0.76775753  0.17100484  0.29073759  1
  Bi2+  Bi89  1  0.70484338  0.11957750  0.78820966  1
  Bi2+  Bi90  1  0.75004197  0.36814867  0.29200665  1
  Bi2+  Bi91  1  0.74149559  0.31217347  0.80937077  1
  Bi2+  Bi92  1  0.76745560  0.63096407  0.28766060  1
  Bi2+  Bi93  1  0.71233762  0.61277244  0.79612105  1
  Bi2+  Bi94  1  0.76172441  0.90885435  0.29080761  1
  Bi2+  Bi95  1  0.74892782  0.86344604  0.77748841  1
  Bi2+  Bi96  1  0.11098005  0.05061278  0.19523863  1
  Bi2+  Bi97  1  0.11065185  -0.02509890  0.74189715  1
  Bi2+  Bi98  1  0.13520833  0.30742794  0.22685875  1
  Bi2+  Bi99  1  0.17898023  0.32073622  0.69032048  1
  Bi2+  Bi100  1  0.15581391  0.55122966  0.18873632  1
  Bi2+  Bi101  1  0.09274072  0.52693111  0.71171757  1
  Bi2+  Bi102  1  0.09361112  0.72637082  0.26591862  1
  Bi2+  Bi103  1  0.12169444  0.73556754  0.70332650  1
  Bi2+  Bi104  1  0.35834429  0.03007949  0.21193743  1
  Bi2+  Bi105  1  0.30144017  -0.01462460  0.69817587  1
  Bi2+  Bi106  1  0.41634043  0.24046237  0.24301006  1
  Bi2+  Bi107  1  0.36157495  0.24455472  0.71027962  1
  Bi2+  Bi108  1  0.34593111  0.50413086  0.21057958  1
  Bi2+  Bi109  1  0.36988671  0.50582079  0.71858238  1
  Bi2+  Bi110  1  0.37197493  0.75186865  0.21215192  1
  Bi2+  Bi111  1  0.38412143  0.73208919  0.70722298  1
  Bi2+  Bi112  1  0.72724980  0.02927415  0.20262681  1
  Bi2+  Bi113  1  0.56533008  -0.04669234  0.70913541  1
  Bi2+  Bi114  1  0.60574528  0.27358490  0.20229107  1
  Bi2+  Bi115  1  0.60579478  0.23734893  0.69213741  1
  Bi2+  Bi116  1  0.62669657  0.55194071  0.21518512  1
  Bi2+  Bi117  1  0.57004391  0.50214046  0.74750760  1
  Bi2+  Bi118  1  0.74752766  0.76894716  0.20862842  1
  Bi2+  Bi119  1  0.61256815  0.68876710  0.70568150  1
  Bi2+  Bi120  1  0.91168088  -0.02877415  0.18376419  1
  Bi2+  Bi121  1  0.87657287  0.00641727  0.67972636  1
  Bi2+  Bi122  1  0.88859808  0.25093690  0.19781589  1
  Bi2+  Bi123  1  0.85440178  0.25876850  0.68794829  1
  Bi2+  Bi124  1  0.89159625  0.51886454  0.22081861  1
  Bi2+  Bi125  1  0.83981611  0.46831049  0.76320949  1
  Bi2+  Bi126  1  0.94307207  0.77142705  0.18652418  1
  Bi2+  Bi127  1  0.86712417  0.65628429  0.72336332  1
  S2-  S128  1  0.00751209  0.16139888  0.14098032  1
  S2-  S129  1  -0.01175827  0.14134488  0.65139551  1
  S2-  S130  1  0.10948748  0.39200245  0.14104499  1
  S2-  S131  1  -0.08171550  0.37260776  0.63378434  1
  S2-  S132  1  -0.00413730  0.61199398  0.15130880  1
  S2-  S133  1  -0.00028327  0.62887163  0.64987756  1
  S2-  S134  1  0.10790177  0.91389173  0.14114331  1
  S2-  S135  1  -0.08727661  0.85890038  0.64663752  1
  S2-  S136  1  0.25628296  0.13163749  0.15904322  1
  S2-  S137  1  0.26243977  0.13255899  0.65023552  1
  S2-  S138  1  0.36509045  0.38420295  0.14465949  1
  S2-  S139  1  0.27675958  0.47639187  0.63928751  1
  S2-  S140  1  0.23321973  0.69262541  0.15542318  1
  S2-  S141  1  0.26133014  0.70305838  0.64474480  1
  S2-  S142  1  0.33221130  0.89483030  0.15714947  1
  S2-  S143  1  0.13062606  0.87112851  0.64685427  1
  S2-  S144  1  0.49393845  0.04713303  0.15028862  1
  S2-  S145  1  0.51965694  0.10086494  0.65232538  1
  S2-  S146  1  0.60408479  0.41599500  0.14448244  1
  S2-  S147  1  0.47987740  0.33634020  0.65938447  1
  S2-  S148  1  0.48244019  0.69846375  0.14714873  1
  S2-  S149  1  0.48451328  0.60678987  0.65329148  1
  S2-  S150  1  0.50228428  0.85311128  0.22532048  1
  S2-  S151  1  0.40903731  0.86747965  0.64368125  1
  S2-  S152  1  0.74519608  0.22866313  0.14250462  1
  S2-  S153  1  0.74945633  0.13046739  0.65768274  1
  S2-  S154  1  0.87847250  0.39643167  0.14480066  1
  S2-  S155  1  0.70983969  0.34829328  0.65763145  1
  S2-  S156  1  0.73480564  0.62253217  0.14833095  1
  S2-  S157  1  0.75940234  0.68586157  0.64277271  1
  S2-  S158  1  0.67150220  0.88888763  0.14454044  1
  S2-  S159  1  0.71235676  0.90449605  0.67586704  1
  S2-  S160  1  0.13589590  0.01643691  0.34119586  1
  S2-  S161  1  0.02881397  -0.02538866  0.83823626  1
  S2-  S162  1  0.05966036  0.22921091  0.35646206  1
  S2-  S163  1  0.12334913  0.16630513  0.84927683  1
  S2-  S164  1  0.15587337  0.46898008  0.34891587  1
  S2-  S165  1  0.10934605  0.39186878  0.85937562  1
  S2-  S166  1  0.15065589  0.80094266  0.35752886  1
  S2-  S167  1  0.14172724  0.77217205  0.84595259  1
  S2-  S168  1  0.38504115  0.02211882  0.33298171  1
  S2-  S169  1  0.27164645  -0.00417690  0.86149859  1
  S2-  S170  1  0.39071002  0.25939693  0.34832861  1
  S2-  S171  1  0.38276926  0.24574580  0.84881377  1
  S2-  S172  1  0.36706135  0.60260942  0.35941946  1
  S2-  S173  1  0.37457519  0.46339428  0.85597376  1
  S2-  S174  1  0.36965569  0.83374748  0.35878770  1
  S2-  S175  1  0.36979228  0.76609029  0.84234079  1
  S2-  S176  1  0.65008647  -0.01120874  0.35015444  1
  S2-  S177  1  0.69737893  -0.02274003  0.84612149  1
  S2-  S178  1  0.64437438  0.25569193  0.34233690  1
  S2-  S179  1  0.59849570  0.15534692  0.85659403  1
  S2-  S180  1  0.52535527  0.46792923  0.36078536  1
  S2-  S181  1  0.61224997  0.40053001  0.86488257  1
  S2-  S182  1  0.57752601  0.74333562  0.34803950  1
  S2-  S183  1  0.64731980  0.76001724  0.84408939  1
  S2-  S184  1  0.88317955  0.08933496  0.35572920  1
  S2-  S185  1  0.84844961  0.00408770  0.77180202  1
  S2-  S186  1  0.88699736  0.35012953  0.35042345  1
  S2-  S187  1  0.84461369  0.18035148  0.84222872  1
  S2-  S188  1  0.74745353  0.49768116  0.35652887  1
  S2-  S189  1  0.85410730  0.40648445  0.86457917  1
  S2-  S190  1  0.87879965  0.84343834  0.36295140  1
  S2-  S191  1  0.86612040  0.82918314  0.84886446  1
  S2-  S192  1  0.02371918  0.09751121  0.45441410  1
  S2-  S193  1  -0.01535552  0.13555238  0.94241868  1
  S2-  S194  1  0.01914215  0.35624384  0.45306210  1
  S2-  S195  1  -0.01114470  0.39424662  0.96195210  1
  S2-  S196  1  0.01790354  0.60226143  0.44917079  1
  S2-  S197  1  -0.01380832  0.64019004  0.95083882  1
  S2-  S198  1  0.01924553  0.85028455  0.46028825  1
  S2-  S199  1  -0.01181912  0.89287205  0.95558871  1
  S2-  S200  1  0.26907645  0.10187679  0.44844828  1
  S2-  S201  1  0.24262437  0.14424546  0.95546972  1
  S2-  S202  1  0.27031187  0.35537458  0.45711643  1
  S2-  S203  1  0.24167301  0.39559534  0.96188184  1
  S2-  S204  1  0.26493174  0.59769894  0.46194946  1
  S2-  S205  1  0.23948466  0.64140022  0.95272176  1
  S2-  S206  1  0.26804451  0.85100216  0.46695690  1
  S2-  S207  1  0.23765935  0.88890423  0.96107689  1
  S2-  S208  1  0.51581545  0.10287315  0.44891576  1
  S2-  S209  1  0.48230038  0.14013259  0.95850210  1
  S2-  S210  1  0.51799715  0.34714872  0.45771103  1
  S2-  S211  1  0.48640998  0.39590522  0.96692425  1
  S2-  S212  1  0.52313913  0.60098221  0.45494741  1
  S2-  S213  1  0.49403631  0.64146998  0.94986370  1
  S2-  S214  1  0.51763724  0.85495948  0.46033166  1
  S2-  S215  1  0.49121325  0.89548289  0.93699614  1
  S2-  S216  1  0.76774194  0.10183316  0.45561893  1
  S2-  S217  1  0.74138545  0.14260635  0.95337327  1
  S2-  S218  1  0.76890588  0.34900703  0.45638882  1
  S2-  S219  1  0.73698038  0.39465246  0.96755276  1
  S2-  S220  1  0.77026282  0.60911188  0.45364370  1
  S2-  S221  1  0.73878529  0.63915624  0.94831547  1
  S2-  S222  1  0.76735001  0.85225892  0.46438430  1
  S2-  S223  1  0.74020309  0.89166123  0.95320470  1
  S2-  S224  1  0.11250241  0.01867686  0.03430112  1
  S2-  S225  1  0.14370359  -0.01919458  0.54423992  1
  S2-  S226  1  0.11255455  0.26381872  0.03977825  1
  S2-  S227  1  0.14261666  0.23069186  0.54565074  1
  S2-  S228  1  0.11147320  0.51981639  0.03989962  1
  S2-  S229  1  0.13644553  0.47642532  0.54902324  1
  S2-  S230  1  0.10976689  0.76224096  0.04707547  1
  S2-  S231  1  0.14105993  0.72086533  0.54654560  1
  S2-  S232  1  0.35939613  0.01460964  0.04580527  1
  S2-  S233  1  0.39271569  -0.01958140  0.54006484  1
  S2-  S234  1  0.36325005  0.25920739  0.05038759  1
  S2-  S235  1  0.39343844  0.22869811  0.54714429  1
  S2-  S236  1  0.36794182  0.52140822  0.05011740  1
  S2-  S237  1  0.39709287  0.47566336  0.53851068  1
  S2-  S238  1  0.36756941  0.76879306  0.04609564  1
  S2-  S239  1  0.39407770  0.72263214  0.54325301  1
  S2-  S240  1  0.61522679  0.01536550  0.03981045  1
  S2-  S241  1  0.64352796  -0.02477196  0.55340999  1
  S2-  S242  1  0.60597592  0.26329659  0.04555109  1
  S2-  S243  1  0.64515126  0.22583911  0.54503232  1
  S2-  S244  1  0.61145838  0.52147514  0.04303092  1
  S2-  S245  1  0.64662780  0.47834891  0.54685098  1
  S2-  S246  1  0.61436181  0.76728085  0.04341277  1
  S2-  S247  1  0.63996183  0.73082797  0.54670012  1
  S2-  S248  1  0.86202367  0.01703005  0.05301893  1
  S2-  S249  1  0.89239548  -0.02320694  0.54367132  1
  S2-  S250  1  0.86787989  0.26475830  0.03921163  1
  S2-  S251  1  0.89608513  0.22422994  0.53478488  1
  S2-  S252  1  0.86180005  0.51881007  0.04457699  1
  S2-  S253  1  0.89361692  0.48278307  0.53315836  1
  S2-  S254  1  0.86194949  0.76607774  0.04726244  1
  S2-  S255  1  0.89485061  0.72706661  0.54116622  1
