# generated using pymatgen
data_La6Ce7Pr13Nd19Sm19(BiS2)64
_symmetry_space_group_name_H-M   'P 1'
_cell_length_a   16.08321646
_cell_length_b   16.11379997
_cell_length_c   27.35963160
_cell_angle_alpha   89.87365448
_cell_angle_beta   90.07771225
_cell_angle_gamma   89.86963028
_symmetry_Int_Tables_number   1
_chemical_formula_structural   La6Ce7Pr13Nd19Sm19(BiS2)64
_chemical_formula_sum   'La6 Ce7 Pr13 Nd19 Sm19 Bi64 S128'
_cell_volume   7090.52737194
_cell_formula_units_Z   1
loop_
 _symmetry_equiv_pos_site_id
 _symmetry_equiv_pos_as_xyz
  1  'x, y, z'
loop_
 _atom_type_symbol
 _atom_type_oxidation_number
  La3+  3.0
  Ce3+  3.0
  Pr3+  3.0
  Nd3+  3.0
  Sm3+  3.0
  Bi2+  2.0
  S2-  -2.0
loop_
 _atom_site_type_symbol
 _atom_site_label
 _atom_site_symmetry_multiplicity
 _atom_site_fract_x
 _atom_site_fract_y
 _atom_site_fract_z
 _atom_site_occupancy
  La3+  La0  1  0.00763666  0.12296520  0.55817029  1
  La3+  La1  1  0.12556202  0.74990644  0.92525509  1
  La3+  La2  1  0.86862342  0.25739892  0.90978769  1
  La3+  La3  1  0.25977239  0.36460258  0.58631177  1
  La3+  La4  1  -0.00361461  0.09602243  0.11002755  1
  La3+  La5  1  0.74818608  0.87106354  0.60427403  1
  Ce3+  Ce6  1  0.75573102  0.62641627  0.56532160  1
  Ce3+  Ce7  1  0.13463002  0.49194479  0.44988695  1
  Ce3+  Ce8  1  0.37980318  -0.00303779  0.44123949  1
  Ce3+  Ce9  1  0.75176781  0.37346085  0.06510002  1
  Ce3+  Ce10  1  0.25370543  0.12597391  0.06712882  1
  Ce3+  Ce11  1  0.87604673  0.49825444  0.94474371  1
  Ce3+  Ce12  1  0.50390983  0.12207104  0.56120131  1
  Pr3+  Pr13  1  0.00770786  0.36964038  0.56298713  1
  Pr3+  Pr14  1  0.14396785  0.25782063  0.41717205  1
  Pr3+  Pr15  1  0.25834604  0.37418262  0.07390638  1
  Pr3+  Pr16  1  0.37380331  0.75076937  0.92134072  1
  Pr3+  Pr17  1  0.11997923  0.24754002  0.94324615  1
  Pr3+  Pr18  1  0.00324242  0.62624578  0.05933032  1
  Pr3+  Pr19  1  0.12939026  -0.00767819  0.42341310  1
  Pr3+  Pr20  1  0.37462675  0.24806692  0.93645740  1
  Pr3+  Pr21  1  0.12325663  0.74668741  0.42803870  1
  Pr3+  Pr22  1  0.49963871  0.12090571  0.06789740  1
  Pr3+  Pr23  1  0.37712977  0.00078262  0.93427850  1
  Pr3+  Pr24  1  0.75045056  0.12578184  0.56915019  1
  Pr3+  Pr25  1  0.50631690  0.37371208  0.56871090  1
  Nd3+  Nd26  1  0.50479751  0.87209356  0.56167826  1
  Nd3+  Nd27  1  0.63393512  0.74953308  0.43474242  1
  Nd3+  Nd28  1  0.38790988  0.25451120  0.43082494  1
  Nd3+  Nd29  1  0.87438940  0.74963868  0.43795829  1
  Nd3+  Nd30  1  0.00549942  0.62409864  0.55860433  1
  Nd3+  Nd31  1  0.87955419  0.49607071  0.44244888  1
  Nd3+  Nd32  1  0.49872237  0.87286268  0.05892047  1
  Nd3+  Nd33  1  0.75250011  0.62665390  0.05725796  1
  Nd3+  Nd34  1  0.25367552  0.62418017  0.55612109  1
  Nd3+  Nd35  1  0.63151124  -0.00242332  0.44938519  1
  Nd3+  Nd36  1  0.88357519  0.24742157  0.44099086  1
  Nd3+  Nd37  1  0.12590697  0.49426091  0.94578825  1
  Nd3+  Nd38  1  0.62624935  0.50047901  0.94183839  1
  Nd3+  Nd39  1  0.86517527  -0.00312634  0.90537767  1
  Nd3+  Nd40  1  0.87968321  -0.00136603  0.44381945  1
  Nd3+  Nd41  1  0.75595742  0.37384255  0.55888862  1
  Nd3+  Nd42  1  0.00516017  0.87166692  0.56399280  1
  Nd3+  Nd43  1  -0.00553803  0.36384589  0.07011608  1
  Nd3+  Nd44  1  0.62613774  -0.00167652  0.94164646  1
  Sm3+  Sm45  1  0.49920344  0.62785086  0.05114383  1
  Sm3+  Sm46  1  0.88041994  0.74903289  0.92324008  1
  Sm3+  Sm47  1  0.25541857  0.12558140  0.54952250  1
  Sm3+  Sm48  1  0.24808739  0.87674027  0.05009694  1
  Sm3+  Sm49  1  0.38207868  0.49693132  0.44732314  1
  Sm3+  Sm50  1  0.62941881  0.24844493  0.94595950  1
  Sm3+  Sm51  1  0.50678400  0.62650763  0.55413320  1
  Sm3+  Sm52  1  0.75852690  0.12391270  0.05516716  1
  Sm3+  Sm53  1  0.00013573  0.87488534  0.04905599  1
  Sm3+  Sm54  1  0.37939032  0.74811215  0.44660895  1
  Sm3+  Sm55  1  0.50365415  0.37470938  0.05957458  1
  Sm3+  Sm56  1  0.11803767  0.00449939  0.93915565  1
  Sm3+  Sm57  1  0.37569796  0.49627568  0.94394704  1
  Sm3+  Sm58  1  0.62855861  0.24651455  0.43890880  1
  Sm3+  Sm59  1  0.75571177  0.87687847  0.05527209  1
  Sm3+  Sm60  1  0.63081289  0.49839026  0.44624956  1
  Sm3+  Sm61  1  0.25032469  0.62699816  0.05483974  1
  Sm3+  Sm62  1  0.62700428  0.74927771  0.94479582  1
  Sm3+  Sm63  1  0.24883351  0.87511187  0.56211460  1
  Bi2+  Bi64  1  -0.02328533  0.11502528  0.31645147  1
  Bi2+  Bi65  1  0.04577723  0.12640218  0.80184170  1
  Bi2+  Bi66  1  -0.02811929  0.38173014  0.29919795  1
  Bi2+  Bi67  1  0.00187163  0.39466275  0.79628878  1
  Bi2+  Bi68  1  0.02308409  0.60891200  0.29352124  1
  Bi2+  Bi69  1  -0.03604661  0.59081263  0.77623603  1
  Bi2+  Bi70  1  0.01072640  0.85441501  0.29283593  1
  Bi2+  Bi71  1  0.00671422  0.84857248  0.78850425  1
  Bi2+  Bi72  1  0.28735180  0.10415967  0.28434963  1
  Bi2+  Bi73  1  0.26998573  0.13826232  0.72762887  1
  Bi2+  Bi74  1  0.26413181  0.38582646  0.29764015  1
  Bi2+  Bi75  1  0.24010193  0.38054941  0.80157166  1
  Bi2+  Bi76  1  0.22043291  0.57283638  0.25617583  1
  Bi2+  Bi77  1  0.31666233  0.63231225  0.77960131  1
  Bi2+  Bi78  1  0.25898804  0.78142087  0.28065055  1
  Bi2+  Bi79  1  0.26904491  0.88959825  0.79205754  1
  Bi2+  Bi80  1  0.53721314  0.11720154  0.28986508  1
  Bi2+  Bi81  1  0.49273243  0.10957588  0.80640671  1
  Bi2+  Bi82  1  0.52118768  0.37656427  0.29517430  1
  Bi2+  Bi83  1  0.48475490  0.39954922  0.81129569  1
  Bi2+  Bi84  1  0.50042742  0.63586275  0.29405619  1
  Bi2+  Bi85  1  0.48888051  0.71665397  0.80605941  1
  Bi2+  Bi86  1  0.53051978  0.82669646  0.30603772  1
  Bi2+  Bi87  1  0.46412880  0.91258849  0.81639151  1
  Bi2+  Bi88  1  0.73486026  0.10365718  0.27911287  1
  Bi2+  Bi89  1  0.72899782  0.11820348  0.78737777  1
  Bi2+  Bi90  1  0.71619227  0.36627290  0.28184077  1
  Bi2+  Bi91  1  0.73585987  0.45192779  0.78745160  1
  Bi2+  Bi92  1  0.72239898  0.63034632  0.29549193  1
  Bi2+  Bi93  1  0.77366555  0.65016237  0.79243989  1
  Bi2+  Bi94  1  0.70021030  0.88430479  0.25994958  1
  Bi2+  Bi95  1  0.72231187  0.87183911  0.78163756  1
  Bi2+  Bi96  1  0.12699094  -0.03317019  0.20825386  1
  Bi2+  Bi97  1  0.13884758  -0.00859800  0.72586435  1
  Bi2+  Bi98  1  0.12573352  0.22820316  0.21893686  1
  Bi2+  Bi99  1  0.09849950  0.27128117  0.69367057  1
  Bi2+  Bi100  1  0.05913273  0.48419030  0.21227366  1
  Bi2+  Bi101  1  0.13573824  0.55362285  0.71588881  1
  Bi2+  Bi102  1  0.15332247  0.72879637  0.18917242  1
  Bi2+  Bi103  1  0.15337632  0.75339081  0.70322739  1
  Bi2+  Bi104  1  0.37973085  -0.05760243  0.24311801  1
  Bi2+  Bi105  1  0.32896171  -0.02920794  0.67513099  1
  Bi2+  Bi106  1  0.37625843  0.25258931  0.20489811  1
  Bi2+  Bi107  1  0.44611910  0.22484451  0.70869595  1
  Bi2+  Bi108  1  0.44823432  0.50134446  0.21704419  1
  Bi2+  Bi109  1  0.42784265  0.49983346  0.71965013  1
  Bi2+  Bi110  1  0.41105424  0.76614553  0.20037824  1
  Bi2+  Bi111  1  0.37250988  0.78795407  0.71301553  1
  Bi2+  Bi112  1  0.60310454  0.02672848  0.19657291  1
  Bi2+  Bi113  1  0.51903676  0.00104208  0.70954072  1
  Bi2+  Bi114  1  0.63280455  0.23009793  0.20281492  1
  Bi2+  Bi115  1  0.61071553  0.26733514  0.76869186  1
  Bi2+  Bi116  1  0.62491623  0.42844283  0.18172528  1
  Bi2+  Bi117  1  0.61698901  0.50383600  0.69895271  1
  Bi2+  Bi118  1  0.60990053  0.72633955  0.21174546  1
  Bi2+  Bi119  1  0.60574065  0.72262079  0.71378475  1
  Bi2+  Bi120  1  0.85595697  -0.02976566  0.20695127  1
  Bi2+  Bi121  1  0.89858262  0.02201051  0.70605805  1
  Bi2+  Bi122  1  0.85553423  0.26158359  0.20324651  1
  Bi2+  Bi123  1  0.84842901  0.27986747  0.70546057  1
  Bi2+  Bi124  1  0.79672590  0.51597324  0.21117547  1
  Bi2+  Bi125  1  0.81096142  0.54357539  0.69369485  1
  Bi2+  Bi126  1  0.89323977  0.70479195  0.22669276  1
  Bi2+  Bi127  1  0.89822738  0.74829686  0.71309095  1
  S2-  S128  1  0.00059992  0.08424692  0.22286022  1
  S2-  S129  1  0.01054306  0.13491507  0.65849927  1
  S2-  S130  1  0.00622517  0.25876827  0.15191187  1
  S2-  S131  1  -0.02300813  0.37494337  0.66258141  1
  S2-  S132  1  0.00793523  0.63617976  0.15888340  1
  S2-  S133  1  0.02278731  0.65389921  0.65518626  1
  S2-  S134  1  -0.00532627  0.92094049  0.14419034  1
  S2-  S135  1  -0.08714316  0.87973942  0.64940965  1
  S2-  S136  1  0.16503490  0.09813014  0.15095342  1
  S2-  S137  1  0.23425000  0.20664587  0.63624522  1
  S2-  S138  1  0.22258707  0.32741601  0.17149430  1
  S2-  S139  1  0.19875781  0.41141553  0.68393759  1
  S2-  S140  1  0.25219677  0.60634974  0.15149768  1
  S2-  S141  1  0.25481739  0.63167137  0.65448628  1
  S2-  S142  1  0.22955715  0.87386939  0.14753825  1
  S2-  S143  1  0.13343339  0.87044389  0.63617293  1
  S2-  S144  1  0.38105675  0.13465720  0.14260767  1
  S2-  S145  1  0.56591375  0.13632417  0.65139755  1
  S2-  S146  1  0.40982466  0.38471004  0.14138301  1
  S2-  S147  1  0.40499454  0.36880297  0.64965695  1
  S2-  S148  1  0.49311386  0.63496987  0.14821554  1
  S2-  S149  1  0.50435328  0.62090673  0.65157724  1
  S2-  S150  1  0.48408193  0.92308517  0.15300408  1
  S2-  S151  1  0.57610999  0.85862603  0.65140031  1
  S2-  S152  1  0.82803259  0.11719704  0.14585597  1
  S2-  S153  1  0.79595139  0.14002494  0.66635075  1
  S2-  S154  1  0.85763892  0.38925658  0.14302415  1
  S2-  S155  1  0.72583374  0.33742106  0.65381450  1
  S2-  S156  1  0.78044181  0.65911443  0.15264120  1
  S2-  S157  1  0.75032697  0.71343600  0.64999086  1
  S2-  S158  1  0.74396749  0.89508211  0.15289520  1
  S2-  S159  1  0.74394926  0.94805765  0.70051783  1
  S2-  S160  1  0.14315163  0.05768909  0.32776765  1
  S2-  S161  1  0.10239611  -0.02638944  0.84244074  1
  S2-  S162  1  0.07809263  0.24758662  0.32115081  1
  S2-  S163  1  0.13884884  0.26167536  0.84217139  1
  S2-  S164  1  0.14412613  0.42550987  0.36203899  1
  S2-  S165  1  0.12475584  0.49159528  0.84638405  1
  S2-  S166  1  0.15370227  0.85924473  0.35198224  1
  S2-  S167  1  0.01054111  0.71740547  0.85054189  1
  S2-  S168  1  0.38245909  0.00134315  0.34420749  1
  S2-  S169  1  0.33841784  0.04472338  0.83936441  1
  S2-  S170  1  0.28542446  0.24730951  0.34947605  1
  S2-  S171  1  0.35334140  0.28306348  0.83861122  1
  S2-  S172  1  0.39157863  0.45280965  0.35326954  1
  S2-  S173  1  0.34353486  0.49955079  0.84837978  1
  S2-  S174  1  0.38293345  0.73263986  0.34947718  1
  S2-  S175  1  0.24646696  0.74369878  0.85041577  1
  S2-  S176  1  0.64818371  0.02517343  0.35206612  1
  S2-  S177  1  0.70143676  -0.00002366  0.85185663  1
  S2-  S178  1  0.52007666  0.24840451  0.36147619  1
  S2-  S179  1  0.71223132  0.24551800  0.85926546  1
  S2-  S180  1  0.64983748  0.48992303  0.34921895  1
  S2-  S181  1  0.60263044  0.50818894  0.84423644  1
  S2-  S182  1  0.75271770  0.74759554  0.36107518  1
  S2-  S183  1  0.65526477  0.74853611  0.84913952  1
  S2-  S184  1  0.91306422  -0.04235314  0.34813692  1
  S2-  S185  1  0.89448159  0.05651919  0.80958368  1
  S2-  S186  1  0.87218724  0.25356148  0.34239281  1
  S2-  S187  1  0.92489774  0.25179774  0.80534195  1
  S2-  S188  1  0.89845010  0.50728166  0.34382999  1
  S2-  S189  1  0.87063271  0.42082428  0.85828369  1
  S2-  S190  1  0.98499826  0.73943180  0.36061441  1
  S2-  S191  1  0.86323955  0.85574575  0.84501582  1
  S2-  S192  1  0.00962753  0.12433188  0.44851582  1
  S2-  S193  1  -0.00917659  0.12400464  0.93201975  1
  S2-  S194  1  0.00416010  0.37139856  0.45563332  1
  S2-  S195  1  -0.00167886  0.37283717  0.95903675  1
  S2-  S196  1  0.00572518  0.61498391  0.45477461  1
  S2-  S197  1  0.00095354  0.62136357  0.95444548  1
  S2-  S198  1  0.00450227  0.87584779  0.45853170  1
  S2-  S199  1  -0.00370002  0.87767827  0.94676752  1
  S2-  S200  1  0.25623142  0.12172301  0.44760673  1
  S2-  S201  1  0.24815074  0.12328412  0.95310245  1
  S2-  S202  1  0.26429963  0.37415691  0.46388584  1
  S2-  S203  1  0.25281582  0.37357906  0.95946475  1
  S2-  S204  1  0.25723149  0.62233040  0.44913314  1
  S2-  S205  1  0.25257689  0.62020227  0.95135188  1
  S2-  S206  1  0.25819805  0.87067816  0.45773606  1
  S2-  S207  1  0.24890895  0.88077187  0.94643499  1
  S2-  S208  1  0.50545472  0.12100293  0.45628674  1
  S2-  S209  1  0.50438414  0.12546637  0.95607946  1
  S2-  S210  1  0.50987496  0.37687893  0.46181445  1
  S2-  S211  1  0.50345108  0.37316680  0.95489399  1
  S2-  S212  1  0.50662225  0.62390179  0.44998849  1
  S2-  S213  1  0.49831810  0.62565299  0.94712181  1
  S2-  S214  1  0.50583515  0.87097043  0.45428610  1
  S2-  S215  1  0.50202026  0.87150010  0.95215266  1
  S2-  S216  1  0.75369400  0.12623957  0.45799649  1
  S2-  S217  1  0.75278012  0.12110224  0.95306658  1
  S2-  S218  1  0.75256190  0.37059026  0.45157755  1
  S2-  S219  1  0.74675793  0.37614793  0.95916535  1
  S2-  S220  1  0.75406058  0.61889609  0.45925054  1
  S2-  S221  1  0.75293534  0.62701471  0.95055086  1
  S2-  S222  1  0.75510975  0.87752475  0.45613771  1
  S2-  S223  1  0.75147522  0.87083184  0.95252835  1
  S2-  S224  1  0.12223795  -0.00070663  0.04169763  1
  S2-  S225  1  0.13427655  0.00177388  0.53848090  1
  S2-  S226  1  0.13073787  0.25314761  0.04821160  1
  S2-  S227  1  0.13095788  0.24908795  0.53662470  1
  S2-  S228  1  0.12765641  0.49703589  0.05290278  1
  S2-  S229  1  0.13252208  0.49608025  0.55562459  1
  S2-  S230  1  0.12694789  0.75174422  0.03771794  1
  S2-  S231  1  0.13027046  0.74584551  0.53628470  1
  S2-  S232  1  0.37456665  -0.00333263  0.04172101  1
  S2-  S233  1  0.37771025  -0.00342595  0.54695968  1
  S2-  S234  1  0.38058005  0.25160809  0.04208686  1
  S2-  S235  1  0.38378224  0.24583090  0.54179538  1
  S2-  S236  1  0.37731007  0.50473609  0.04593977  1
  S2-  S237  1  0.38234312  0.50333859  0.55088089  1
  S2-  S238  1  0.37305615  0.75040719  0.03793027  1
  S2-  S239  1  0.37856837  0.74985859  0.55127197  1
  S2-  S240  1  0.62788784  -0.00139952  0.04673199  1
  S2-  S241  1  0.63274918  -0.00539717  0.55425804  1
  S2-  S242  1  0.62550119  0.24603575  0.05079579  1
  S2-  S243  1  0.62875535  0.24991874  0.54318888  1
  S2-  S244  1  0.62382520  0.50337469  0.04778768  1
  S2-  S245  1  0.62988266  0.50032333  0.55085512  1
  S2-  S246  1  0.62667895  0.75175914  0.04953227  1
  S2-  S247  1  0.63006378  0.74926585  0.54192847  1
  S2-  S248  1  0.87714919  -0.00250731  0.04212528  1
  S2-  S249  1  0.87484828  0.00032586  0.54994737  1
  S2-  S250  1  0.87006344  0.25011694  0.03990982  1
  S2-  S251  1  0.87849112  0.24791351  0.54763322  1
  S2-  S252  1  0.87785981  0.50364634  0.04788690  1
  S2-  S253  1  0.88096061  0.49742223  0.54927401  1
  S2-  S254  1  0.87676095  0.75155315  0.03933337  1
  S2-  S255  1  0.88039818  0.74771256  0.54550296  1
