# generated using pymatgen
data_La6Ce7Pr13Nd19Sm19(BiS2)64
_symmetry_space_group_name_H-M   'P 1'
_cell_length_a   16.03847376
_cell_length_b   16.10140812
_cell_length_c   27.45415798
_cell_angle_alpha   89.83688322
_cell_angle_beta   90.16847695
_cell_angle_gamma   90.01165213
_symmetry_Int_Tables_number   1
_chemical_formula_structural   La6Ce7Pr13Nd19Sm19(BiS2)64
_chemical_formula_sum   'La6 Ce7 Pr13 Nd19 Sm19 Bi64 S128'
_cell_volume   7089.75746794
_cell_formula_units_Z   1
loop_
 _symmetry_equiv_pos_site_id
 _symmetry_equiv_pos_as_xyz
  1  'x, y, z'
loop_
 _atom_type_symbol
 _atom_type_oxidation_number
  La3+  3.0
  Ce3+  3.0
  Pr3+  3.0
  Nd3+  3.0
  Sm3+  3.0
  Bi2+  2.0
  S2-  -2.0
loop_
 _atom_site_type_symbol
 _atom_site_label
 _atom_site_symmetry_multiplicity
 _atom_site_fract_x
 _atom_site_fract_y
 _atom_site_fract_z
 _atom_site_occupancy
  La3+  La0  1  0.11428134  0.73442298  0.38905003  1
  La3+  La1  1  0.35810754  0.25787919  0.42604052  1
  La3+  La2  1  0.38041317  0.24806753  0.92268225  1
  La3+  La3  1  0.51647481  0.11435998  0.06849730  1
  La3+  La4  1  0.26601531  0.60410872  0.07710507  1
  La3+  La5  1  0.39591842  0.76946467  0.88502040  1
  Ce3+  Ce6  1  0.23830304  0.13257447  0.55114568  1
  Ce3+  Ce7  1  0.26337934  0.85976497  0.06025090  1
  Ce3+  Ce8  1  0.24773090  0.87950795  0.56622539  1
  Ce3+  Ce9  1  0.63593456  0.48928605  0.94207736  1
  Ce3+  Ce10  1  0.73897929  0.62954572  0.55638755  1
  Ce3+  Ce11  1  0.48618315  0.37813169  0.56177095  1
  Ce3+  Ce12  1  0.75854435  0.35932588  0.06422939  1
  Pr3+  Pr13  1  0.89018776  -0.01225774  0.94220938  1
  Pr3+  Pr14  1  0.88551930  0.48878691  0.94558115  1
  Pr3+  Pr15  1  0.38340312  0.49840973  0.93530071  1
  Pr3+  Pr16  1  0.10937295  0.25815233  0.42677425  1
  Pr3+  Pr17  1  0.23677055  0.36788096  0.58649324  1
  Pr3+  Pr18  1  0.49489170  0.87879751  0.56990881  1
  Pr3+  Pr19  1  0.11594758  -0.00598221  0.43525894  1
  Pr3+  Pr20  1  0.38679671  -0.00490595  0.94292439  1
  Pr3+  Pr21  1  0.63622778  -0.01473278  0.93394583  1
  Pr3+  Pr22  1  0.89073879  0.73806953  0.93465583  1
  Pr3+  Pr23  1  0.36524881  0.75530250  0.43681949  1
  Pr3+  Pr24  1  0.22861469  0.63565164  0.59213715  1
  Pr3+  Pr25  1  0.86230727  0.00096079  0.44393452  1
  Nd3+  Nd26  1  0.61085358  0.75595133  0.43145029  1
  Nd3+  Nd27  1  0.51177483  0.61179246  0.06253768  1
  Nd3+  Nd28  1  0.35652543  0.50786538  0.44911572  1
  Nd3+  Nd29  1  0.48696969  0.62587089  0.56136443  1
  Nd3+  Nd30  1  0.27149486  0.35590058  0.07119196  1
  Nd3+  Nd31  1  0.86491953  0.75327008  0.43667316  1
  Nd3+  Nd32  1  0.60806973  0.25689231  0.43226802  1
  Nd3+  Nd33  1  0.13954228  0.49009279  0.94092921  1
  Nd3+  Nd34  1  -0.00717604  0.87795017  0.55900927  1
  Nd3+  Nd35  1  0.51118678  0.85951161  0.06025341  1
  Nd3+  Nd36  1  0.63233806  0.23912374  0.92737040  1
  Nd3+  Nd37  1  0.13885687  -0.01089351  0.94927965  1
  Nd3+  Nd38  1  0.61347292  0.50290377  0.44021010  1
  Nd3+  Nd39  1  0.01456216  0.86518423  0.06826689  1
  Nd3+  Nd40  1  0.14156106  0.73777607  0.93796312  1
  Nd3+  Nd41  1  0.01321181  0.61078604  0.06503361  1
  Nd3+  Nd42  1  -0.00984222  0.37606653  0.56696169  1
  Nd3+  Nd43  1  0.11514690  0.50687680  0.44900770  1
  Nd3+  Nd44  1  0.01377909  0.11564030  0.06498992  1
  Sm3+  Sm45  1  0.76350958  0.86287176  0.05606966  1
  Sm3+  Sm46  1  0.61550688  0.00814603  0.44651823  1
  Sm3+  Sm47  1  0.74146127  0.37782536  0.55034228  1
  Sm3+  Sm48  1  0.26911413  0.11964305  0.06816826  1
  Sm3+  Sm49  1  0.76482877  0.61387931  0.05760355  1
  Sm3+  Sm50  1  -0.00888591  0.12861004  0.54793498  1
  Sm3+  Sm51  1  0.63233343  0.73687613  0.94754680  1
  Sm3+  Sm52  1  0.76045030  0.11324444  0.05017572  1
  Sm3+  Sm53  1  0.73662039  0.87963687  0.56066714  1
  Sm3+  Sm54  1  0.74204557  0.13403859  0.56114354  1
  Sm3+  Sm55  1  0.86578244  0.50513274  0.44560077  1
  Sm3+  Sm56  1  0.86525396  0.25266696  0.43152678  1
  Sm3+  Sm57  1  0.36729017  0.00173393  0.44376384  1
  Sm3+  Sm58  1  0.51663414  0.36183242  0.05954307  1
  Sm3+  Sm59  1  -0.00757892  0.63235961  0.56078239  1
  Sm3+  Sm60  1  0.01374624  0.35958197  0.05329715  1
  Sm3+  Sm61  1  0.88753980  0.23991847  0.93378673  1
  Sm3+  Sm62  1  0.48947371  0.13483234  0.55782470  1
  Sm3+  Sm63  1  0.13346575  0.23922145  0.93505990  1
  Bi2+  Bi64  1  -0.01851573  0.08542770  0.29027589  1
  Bi2+  Bi65  1  -0.05424476  0.09373929  0.80856822  1
  Bi2+  Bi66  1  -0.01219221  0.36051893  0.26988757  1
  Bi2+  Bi67  1  -0.05377716  0.36282659  0.79499108  1
  Bi2+  Bi68  1  -0.02720169  0.61235950  0.29298596  1
  Bi2+  Bi69  1  -0.01246469  0.63447702  0.78607793  1
  Bi2+  Bi70  1  -0.02574232  0.89242980  0.27364700  1
  Bi2+  Bi71  1  -0.00909278  0.89891272  0.81584738  1
  Bi2+  Bi72  1  0.17651657  0.11325557  0.29305059  1
  Bi2+  Bi73  1  0.26722596  0.14698483  0.76936376  1
  Bi2+  Bi74  1  0.27425388  0.36719785  0.27798152  1
  Bi2+  Bi75  1  0.25406915  0.37519250  0.78830862  1
  Bi2+  Bi76  1  0.24487680  0.59766252  0.29620934  1
  Bi2+  Bi77  1  0.25198126  0.62104389  0.79008269  1
  Bi2+  Bi78  1  0.24419521  0.88065682  0.28786934  1
  Bi2+  Bi79  1  0.18745631  0.88889783  0.77836356  1
  Bi2+  Bi80  1  0.52884764  0.12723085  0.31538432  1
  Bi2+  Bi81  1  0.52670760  0.12985298  0.76421545  1
  Bi2+  Bi82  1  0.54983011  0.37839764  0.27744590  1
  Bi2+  Bi83  1  0.51704867  0.36543179  0.79589927  1
  Bi2+  Bi84  1  0.54647535  0.64562413  0.28213639  1
  Bi2+  Bi85  1  0.52292038  0.63651794  0.79199595  1
  Bi2+  Bi86  1  0.48646082  0.89194964  0.29317948  1
  Bi2+  Bi87  1  0.54299024  0.90623764  0.79279471  1
  Bi2+  Bi88  1  0.80390671  0.17434114  0.28354374  1
  Bi2+  Bi89  1  0.77469020  0.14475374  0.75674917  1
  Bi2+  Bi90  1  0.73640507  0.43259921  0.30038839  1
  Bi2+  Bi91  1  0.75369516  0.30309819  0.82340570  1
  Bi2+  Bi92  1  0.71998155  0.71139842  0.31997685  1
  Bi2+  Bi93  1  0.79080267  0.66995355  0.80990330  1
  Bi2+  Bi94  1  0.73861129  0.90194958  0.29452843  1
  Bi2+  Bi95  1  0.78519784  0.85696766  0.77211967  1
  Bi2+  Bi96  1  0.09437748  0.01423259  0.20067280  1
  Bi2+  Bi97  1  0.14016552  0.03072492  0.70551915  1
  Bi2+  Bi98  1  0.09868840  0.23173683  0.20917535  1
  Bi2+  Bi99  1  0.10950273  0.22662109  0.71149643  1
  Bi2+  Bi100  1  0.10070864  0.48170013  0.20510893  1
  Bi2+  Bi101  1  0.05818952  0.49221858  0.71869966  1
  Bi2+  Bi102  1  0.11604146  0.75899906  0.18711908  1
  Bi2+  Bi103  1  0.09293757  0.75813234  0.71347069  1
  Bi2+  Bi104  1  0.34038110  0.03258046  0.24219643  1
  Bi2+  Bi105  1  0.38491127  -0.00497995  0.74337824  1
  Bi2+  Bi106  1  0.36026448  0.22774356  0.21020762  1
  Bi2+  Bi107  1  0.39197019  0.24378210  0.69469702  1
  Bi2+  Bi108  1  0.38450107  0.46902057  0.20806447  1
  Bi2+  Bi109  1  0.42929500  0.50116389  0.70549710  1
  Bi2+  Bi110  1  0.37369326  0.75319160  0.19415611  1
  Bi2+  Bi111  1  0.38276734  0.75851216  0.68413840  1
  Bi2+  Bi112  1  0.56632953  0.05555798  0.21531195  1
  Bi2+  Bi113  1  0.66899093  -0.01547098  0.71114801  1
  Bi2+  Bi114  1  0.63668764  0.24607329  0.20945158  1
  Bi2+  Bi115  1  0.64877943  0.30923655  0.72102197  1
  Bi2+  Bi116  1  0.63989230  0.51595699  0.21020592  1
  Bi2+  Bi117  1  0.72159850  0.48959504  0.77281146  1
  Bi2+  Bi118  1  0.61349850  0.78851569  0.21189274  1
  Bi2+  Bi119  1  0.65501451  0.72612085  0.70672756  1
  Bi2+  Bi120  1  0.76142801  0.03051121  0.20771893  1
  Bi2+  Bi121  1  0.94535525  -0.01173863  0.71050529  1
  Bi2+  Bi122  1  0.83272290  0.30351969  0.19881545  1
  Bi2+  Bi123  1  0.91171081  0.25983078  0.69643931  1
  Bi2+  Bi124  1  0.84062239  0.49792375  0.21198148  1
  Bi2+  Bi125  1  0.87047316  0.45752986  0.69874492  1
  Bi2+  Bi126  1  0.80924837  0.75491345  0.22120388  1
  Bi2+  Bi127  1  0.85959652  0.71420072  0.70215605  1
  S2-  S128  1  -0.02112890  0.12551318  0.16100914  1
  S2-  S129  1  0.00011641  0.13369566  0.64493232  1
  S2-  S130  1  0.02711972  0.36836426  0.15046518  1
  S2-  S131  1  0.09272683  0.36944629  0.64738742  1
  S2-  S132  1  0.01375808  0.62177787  0.16357246  1
  S2-  S133  1  0.07418190  0.62143878  0.64901521  1
  S2-  S134  1  -0.01269032  0.88234190  0.16604840  1
  S2-  S135  1  -0.03228095  0.84634169  0.65618318  1
  S2-  S136  1  0.22995226  0.23381121  0.14240796  1
  S2-  S137  1  0.24832839  0.20721585  0.63739436  1
  S2-  S138  1  0.24361219  0.46617282  0.14764650  1
  S2-  S139  1  0.30427580  0.40111219  0.68339033  1
  S2-  S140  1  0.24452194  0.65840943  0.17653659  1
  S2-  S141  1  0.29426631  0.60386823  0.68764265  1
  S2-  S142  1  0.25282170  0.86386227  0.15867351  1
  S2-  S143  1  0.21994342  0.78947286  0.64873312  1
  S2-  S144  1  0.39028118  0.10392016  0.14216346  1
  S2-  S145  1  0.50196323  0.14131979  0.65584389  1
  S2-  S146  1  0.42200080  0.34575331  0.14278211  1
  S2-  S147  1  0.53106195  0.39508009  0.65592199  1
  S2-  S148  1  0.44510013  0.60765251  0.15452466  1
  S2-  S149  1  0.51522431  0.64646478  0.65863077  1
  S2-  S150  1  0.49285431  0.87074140  0.15867939  1
  S2-  S151  1  0.38742766  0.91458206  0.64752346  1
  S2-  S152  1  0.66196824  0.11985590  0.13101858  1
  S2-  S153  1  0.75453852  0.09176471  0.65487526  1
  S2-  S154  1  0.64079014  0.36343709  0.13613341  1
  S2-  S155  1  0.77098291  0.33782076  0.64306913  1
  S2-  S156  1  0.75086624  0.62054482  0.15471492  1
  S2-  S157  1  0.73971965  0.60978341  0.65293266  1
  S2-  S158  1  0.75331818  0.87740744  0.15253944  1
  S2-  S159  1  0.63151573  0.86252760  0.63794015  1
  S2-  S160  1  0.12068490  -0.09687119  0.34894168  1
  S2-  S161  1  0.13181045  -0.00269889  0.85068643  1
  S2-  S162  1  0.23189780  0.26093704  0.35135858  1
  S2-  S163  1  0.23380267  0.24182154  0.85534738  1
  S2-  S164  1  0.10515651  0.55619859  0.35257546  1
  S2-  S165  1  0.17241830  0.49315982  0.84127623  1
  S2-  S166  1  0.11196751  0.71583368  0.27925012  1
  S2-  S167  1  0.22823781  0.74675654  0.84908550  1
  S2-  S168  1  0.38351211  0.01852318  0.34592254  1
  S2-  S169  1  0.39426506  -0.05879623  0.84797173  1
  S2-  S170  1  0.48277905  0.26983324  0.35500338  1
  S2-  S171  1  0.37758129  0.38822268  0.85249195  1
  S2-  S172  1  0.32830446  0.49341297  0.34952486  1
  S2-  S173  1  0.38792309  0.60207943  0.85061250  1
  S2-  S174  1  0.27964823  0.74598154  0.34677096  1
  S2-  S175  1  0.41249475  0.76127043  0.77719912  1
  S2-  S176  1  0.60710136  -0.03261546  0.35187514  1
  S2-  S177  1  0.61285973  0.03414899  0.83878307  1
  S2-  S178  1  0.68069741  0.18711061  0.35071021  1
  S2-  S179  1  0.51234996  0.22631041  0.85234095  1
  S2-  S180  1  0.56104854  0.51026643  0.34664084  1
  S2-  S181  1  0.59870915  0.50341541  0.84699883  1
  S2-  S182  1  0.48957056  0.76857162  0.35827601  1
  S2-  S183  1  0.57887877  0.76103987  0.85568918  1
  S2-  S184  1  0.88197258  -0.03143320  0.34663391  1
  S2-  S185  1  0.82902338  -0.02864368  0.84940964  1
  S2-  S186  1  0.97587102  0.27805026  0.35724343  1
  S2-  S187  1  1.00501830  0.23104268  0.86124186  1
  S2-  S188  1  0.86880408  0.51236517  0.34873241  1
  S2-  S189  1  0.92012642  0.50544332  0.84902187  1
  S2-  S190  1  0.94813357  0.74500195  0.34984536  1
  S2-  S191  1  1.01421644  0.74510931  0.86416795  1
  S2-  S192  1  -0.01045521  0.12420311  0.44565644  1
  S2-  S193  1  0.01163630  0.11266931  0.95947155  1
  S2-  S194  1  -0.01417272  0.38305965  0.46028031  1
  S2-  S195  1  0.01112552  0.36490415  0.95192790  1
  S2-  S196  1  -0.01255587  0.62990181  0.45800366  1
  S2-  S197  1  0.01191776  0.61208700  0.95969691  1
  S2-  S198  1  -0.01229995  0.87573177  0.45476610  1
  S2-  S199  1  0.01444407  0.86467674  0.96341843  1
  S2-  S200  1  0.23794444  0.12316240  0.44763901  1
  S2-  S201  1  0.26036264  0.11620328  0.95893832  1
  S2-  S202  1  0.23416678  0.38059500  0.45826841  1
  S2-  S203  1  0.25610108  0.36393278  0.96092363  1
  S2-  S204  1  0.23513911  0.63344191  0.45489012  1
  S2-  S205  1  0.25627962  0.61238416  0.96389077  1
  S2-  S206  1  0.24669418  0.88118398  0.45876400  1
  S2-  S207  1  0.26508515  0.86412117  0.95434856  1
  S2-  S208  1  0.48949305  0.12839937  0.45415558  1
  S2-  S209  1  0.51592429  0.11235325  0.95726336  1
  S2-  S210  1  0.48506172  0.38410347  0.45680533  1
  S2-  S211  1  0.51356757  0.36674813  0.95512388  1
  S2-  S212  1  0.48956861  0.62610824  0.45559719  1
  S2-  S213  1  0.51350226  0.61603629  0.95779476  1
  S2-  S214  1  0.49323742  0.88480220  0.46262457  1
  S2-  S215  1  0.50893976  0.86282886  0.95544160  1
  S2-  S216  1  0.74189936  0.13059544  0.45750696  1
  S2-  S217  1  0.76255107  0.11563223  0.94683601  1
  S2-  S218  1  0.74218873  0.37688211  0.44623524  1
  S2-  S219  1  0.76252174  0.36152840  0.95529953  1
  S2-  S220  1  0.73863629  0.62753647  0.45088559  1
  S2-  S221  1  0.76121260  0.61677807  0.95329036  1
  S2-  S222  1  0.73561044  0.87736537  0.45630183  1
  S2-  S223  1  0.76130272  0.85811950  0.95179806  1
  S2-  S224  1  0.14110697  -0.00680818  0.05531400  1
  S2-  S225  1  0.11564376  0.00374849  0.54450585  1
  S2-  S226  1  0.13436313  0.23690098  0.04043171  1
  S2-  S227  1  0.11035470  0.25371619  0.53680020  1
  S2-  S228  1  0.13217765  0.48474934  0.04616282  1
  S2-  S229  1  0.11541140  0.50411112  0.55195797  1
  S2-  S230  1  0.13550093  0.73690677  0.05051274  1
  S2-  S231  1  0.11260371  0.75465484  0.54851614  1
  S2-  S232  1  0.38782684  -0.01496976  0.04727141  1
  S2-  S233  1  0.36791598  0.01292090  0.54603577  1
  S2-  S234  1  0.39263158  0.23635057  0.03666626  1
  S2-  S235  1  0.36529048  0.25572888  0.53856030  1
  S2-  S236  1  0.39268329  0.48531584  0.04337798  1
  S2-  S237  1  0.35559363  0.50386811  0.55633395  1
  S2-  S238  1  0.38680338  0.73671629  0.05571555  1
  S2-  S239  1  0.36626994  0.75044512  0.54793223  1
  S2-  S240  1  0.63981822  -0.01745657  0.04066332  1
  S2-  S241  1  0.61694743  0.01248937  0.54894116  1
  S2-  S242  1  0.63959831  0.23967364  0.03249838  1
  S2-  S243  1  0.61671208  0.25500448  0.54346989  1
  S2-  S244  1  0.64093743  0.49367991  0.04598524  1
  S2-  S245  1  0.61680079  0.50043767  0.54646563  1
  S2-  S246  1  0.64008040  0.73721396  0.05207156  1
  S2-  S247  1  0.61451274  0.74991504  0.53802759  1
  S2-  S248  1  0.88521054  -0.01029619  0.05001680  1
  S2-  S249  1  0.86275983  0.00424524  0.54963941  1
  S2-  S250  1  0.88570100  0.23650915  0.04222961  1
  S2-  S251  1  0.86725724  0.25255786  0.53749188  1
  S2-  S252  1  0.88663080  0.48534990  0.05274093  1
  S2-  S253  1  0.86714224  0.50365929  0.54985823  1
  S2-  S254  1  0.88797698  0.73963695  0.04780128  1
  S2-  S255  1  0.86271267  0.75587106  0.54563016  1
