# generated using pymatgen
data_La6Ce7Pr13Nd19Sm19(BiS2)64
_symmetry_space_group_name_H-M   'P 1'
_cell_length_a   16.00204954
_cell_length_b   16.04587479
_cell_length_c   27.53743075
_cell_angle_alpha   89.68682556
_cell_angle_beta   90.29470614
_cell_angle_gamma   89.91720266
_symmetry_Int_Tables_number   1
_chemical_formula_structural   La6Ce7Pr13Nd19Sm19(BiS2)64
_chemical_formula_sum   'La6 Ce7 Pr13 Nd19 Sm19 Bi64 S128'
_cell_volume   7070.49344130
_cell_formula_units_Z   1
loop_
 _symmetry_equiv_pos_site_id
 _symmetry_equiv_pos_as_xyz
  1  'x, y, z'
loop_
 _atom_type_symbol
 _atom_type_oxidation_number
  La3+  3.0
  Ce3+  3.0
  Pr3+  3.0
  Nd3+  3.0
  Sm3+  3.0
  Bi2+  2.0
  S2-  -2.0
loop_
 _atom_site_type_symbol
 _atom_site_label
 _atom_site_symmetry_multiplicity
 _atom_site_fract_x
 _atom_site_fract_y
 _atom_site_fract_z
 _atom_site_occupancy
  La3+  La0  1  0.24053671  0.12156688  0.58020810  1
  La3+  La1  1  0.73907183  0.36493154  0.59737453  1
  La3+  La2  1  0.61477019  0.74339150  0.42163233  1
  La3+  La3  1  0.73035189  0.11107474  0.60193518  1
  La3+  La4  1  0.35789655  0.49634264  0.40481817  1
  La3+  La5  1  0.51068547  0.63604241  0.08412497  1
  Ce3+  Ce6  1  0.35769790  -0.00024061  0.43959220  1
  Ce3+  Ce7  1  0.87901501  0.50709161  0.94067445  1
  Ce3+  Ce8  1  0.11711449  0.50089818  0.43715725  1
  Ce3+  Ce9  1  0.11360530  -0.00182477  0.45067430  1
  Ce3+  Ce10  1  0.01097178  0.63052016  0.05061906  1
  Ce3+  Ce11  1  0.75551775  0.38283181  0.06357851  1
  Ce3+  Ce12  1  0.11678269  0.74981007  0.44737380  1
  Pr3+  Pr13  1  0.35001762  0.76855031  0.39130437  1
  Pr3+  Pr14  1  0.61224986  0.25232667  0.43442861  1
  Pr3+  Pr15  1  0.75301954  0.13113603  0.05878191  1
  Pr3+  Pr16  1  0.10657572  0.24661519  0.43762443  1
  Pr3+  Pr17  1  0.61172236  -0.00072434  0.43231097  1
  Pr3+  Pr18  1  0.24022413  0.37043680  0.56713330  1
  Pr3+  Pr19  1  0.24597121  0.63271322  0.07186520  1
  Pr3+  Pr20  1  0.49269964  0.37115476  0.55411716  1
  Pr3+  Pr21  1  -0.01539243  0.12589229  0.57226094  1
  Pr3+  Pr22  1  0.50885112  0.89877262  0.10848773  1
  Pr3+  Pr23  1  -0.01295293  0.62262069  0.55961711  1
  Pr3+  Pr24  1  0.88363404  0.76053721  0.93683381  1
  Pr3+  Pr25  1  0.25744077  0.12877710  0.06668469  1
  Nd3+  Nd26  1  0.63080310  0.00790499  0.93821768  1
  Nd3+  Nd27  1  0.62671453  0.26684359  0.93042363  1
  Nd3+  Nd28  1  0.00767942  0.13322856  0.05269773  1
  Nd3+  Nd29  1  0.75806477  0.63299370  0.06425061  1
  Nd3+  Nd30  1  -0.00899469  0.37397090  0.56520033  1
  Nd3+  Nd31  1  0.87690662  0.26007934  0.93468699  1
  Nd3+  Nd32  1  0.38332178  0.75652603  0.95003567  1
  Nd3+  Nd33  1  0.24536685  0.37568003  0.09012641  1
  Nd3+  Nd34  1  0.38331335  0.00817153  0.94502487  1
  Nd3+  Nd35  1  0.85879829  0.74826610  0.44215051  1
  Nd3+  Nd36  1  0.13845043  0.50592320  0.93063904  1
  Nd3+  Nd37  1  0.63263323  0.75545318  0.94019999  1
  Nd3+  Nd38  1  0.73036413  0.61828823  0.57202560  1
  Nd3+  Nd39  1  0.76182989  0.88269944  0.06776410  1
  Nd3+  Nd40  1  0.62891549  0.51363849  0.93773702  1
  Nd3+  Nd41  1  0.25651276  0.88091639  0.05796394  1
  Nd3+  Nd42  1  0.24394040  0.87288057  0.56818610  1
  Nd3+  Nd43  1  -0.01717819  0.87223160  0.56050457  1
  Nd3+  Nd44  1  0.13453417  0.75943669  0.92618364  1
  Sm3+  Sm45  1  0.00747498  0.37988157  0.05327632  1
  Sm3+  Sm46  1  0.50932653  0.13244029  0.05510765  1
  Sm3+  Sm47  1  0.87743236  0.00963218  0.93854211  1
  Sm3+  Sm48  1  0.49196690  0.62238707  0.54800509  1
  Sm3+  Sm49  1  0.86014451  0.00087899  0.44729126  1
  Sm3+  Sm50  1  0.49135891  0.87248024  0.55021689  1
  Sm3+  Sm51  1  0.13621065  0.25983709  0.93367940  1
  Sm3+  Sm52  1  0.49520716  0.12500997  0.54688523  1
  Sm3+  Sm53  1  0.38117917  0.26275924  0.95405383  1
  Sm3+  Sm54  1  0.13302909  0.01196230  0.93161492  1
  Sm3+  Sm55  1  0.37988658  0.50891312  0.95945592  1
  Sm3+  Sm56  1  0.86381401  0.25006329  0.44502858  1
  Sm3+  Sm57  1  0.51143513  0.38682659  0.07344861  1
  Sm3+  Sm58  1  0.24458171  0.62408153  0.55431372  1
  Sm3+  Sm59  1  0.00703207  0.88235797  0.05853975  1
  Sm3+  Sm60  1  0.86084157  0.49963930  0.44617477  1
  Sm3+  Sm61  1  0.61169604  0.50030202  0.43502798  1
  Sm3+  Sm62  1  0.73082694  0.87046993  0.56243776  1
  Sm3+  Sm63  1  0.35016237  0.25011879  0.43310578  1
  Bi2+  Bi64  1  -0.06287919  0.13106019  0.29081411  1
  Bi2+  Bi65  1  0.03265706  0.06304819  0.78523921  1
  Bi2+  Bi66  1  -0.00824076  0.35165291  0.28089056  1
  Bi2+  Bi67  1  0.04253759  0.38410829  0.77633411  1
  Bi2+  Bi68  1  -0.01430177  0.63336978  0.29761159  1
  Bi2+  Bi69  1  0.03533159  0.60588509  0.77794069  1
  Bi2+  Bi70  1  -0.03316540  0.83594777  0.28924228  1
  Bi2+  Bi71  1  0.01155848  0.79430460  0.80472217  1
  Bi2+  Bi72  1  0.18125986  0.12541079  0.28097670  1
  Bi2+  Bi73  1  0.27398639  0.15411874  0.80159584  1
  Bi2+  Bi74  1  0.24711686  0.35491694  0.29283092  1
  Bi2+  Bi75  1  0.30208145  0.38053251  0.80671532  1
  Bi2+  Bi76  1  0.18366746  0.64005527  0.28383399  1
  Bi2+  Bi77  1  0.29527658  0.63713477  0.80095385  1
  Bi2+  Bi78  1  0.18557046  0.91061170  0.29605193  1
  Bi2+  Bi79  1  0.25908198  0.85841939  0.79096115  1
  Bi2+  Bi80  1  0.46362463  0.13729151  0.28658155  1
  Bi2+  Bi81  1  0.46992825  0.03657151  0.78188194  1
  Bi2+  Bi82  1  0.58401677  0.38367745  0.29450397  1
  Bi2+  Bi83  1  0.48870729  0.43951272  0.78621579  1
  Bi2+  Bi84  1  0.53102996  0.65584413  0.28436782  1
  Bi2+  Bi85  1  0.54523607  0.66075896  0.76000322  1
  Bi2+  Bi86  1  0.48347931  0.93385527  0.28520250  1
  Bi2+  Bi87  1  0.52072629  0.84512483  0.79263951  1
  Bi2+  Bi88  1  0.76265370  0.19942303  0.25722012  1
  Bi2+  Bi89  1  0.76588714  0.10679961  0.80240367  1
  Bi2+  Bi90  1  0.78872967  0.39303219  0.28580258  1
  Bi2+  Bi91  1  0.73750824  0.35082271  0.80740260  1
  Bi2+  Bi92  1  0.77552150  0.63719315  0.29446111  1
  Bi2+  Bi93  1  0.74168660  0.61839562  0.79893484  1
  Bi2+  Bi94  1  0.77054051  0.90149893  0.29152962  1
  Bi2+  Bi95  1  0.73080586  0.85284444  0.77836602  1
  Bi2+  Bi96  1  0.13594491  -0.00465185  0.19710533  1
  Bi2+  Bi97  1  0.17998124  0.02373357  0.72370384  1
  Bi2+  Bi98  1  0.08370615  0.25158605  0.20072533  1
  Bi2+  Bi99  1  0.14891034  0.26155596  0.70812500  1
  Bi2+  Bi100  1  0.03569629  0.50679572  0.21088599  1
  Bi2+  Bi101  1  0.16382803  0.49810971  0.71203261  1
  Bi2+  Bi102  1  0.07254892  0.75888588  0.20246340  1
  Bi2+  Bi103  1  0.14415410  0.75663587  0.72120928  1
  Bi2+  Bi104  1  0.32681183  0.10581947  0.20426869  1
  Bi2+  Bi105  1  0.38860995  -0.13023724  0.70407686  1
  Bi2+  Bi106  1  0.41728216  0.28968503  0.22073137  1
  Bi2+  Bi107  1  0.39621367  0.18411620  0.71538138  1
  Bi2+  Bi108  1  0.38398056  0.52627169  0.22616236  1
  Bi2+  Bi109  1  0.35890797  0.45613686  0.70222023  1
  Bi2+  Bi110  1  0.33545678  0.78497295  0.20748918  1
  Bi2+  Bi111  1  0.37383853  0.65433115  0.69830769  1
  Bi2+  Bi112  1  0.67425322  0.02602769  0.21272496  1
  Bi2+  Bi113  1  0.60907227  -0.01431213  0.70664858  1
  Bi2+  Bi114  1  0.59092855  0.21533995  0.19403524  1
  Bi2+  Bi115  1  0.57793340  0.24316020  0.71359581  1
  Bi2+  Bi116  1  0.64110422  0.48747711  0.20631583  1
  Bi2+  Bi117  1  0.61996761  0.50159249  0.70709550  1
  Bi2+  Bi118  1  0.64068505  0.75803778  0.21776573  1
  Bi2+  Bi119  1  0.70709346  0.73086476  0.68926762  1
  Bi2+  Bi120  1  0.92749449  -0.00688684  0.20855271  1
  Bi2+  Bi121  1  0.91425142  -0.07997777  0.73637166  1
  Bi2+  Bi122  1  0.86257553  0.32600826  0.18432644  1
  Bi2+  Bi123  1  0.89099790  0.22449965  0.71951121  1
  Bi2+  Bi124  1  0.84447005  0.52515291  0.18003978  1
  Bi2+  Bi125  1  0.89256621  0.47480310  0.72000688  1
  Bi2+  Bi126  1  0.87169446  0.72840735  0.20257447  1
  Bi2+  Bi127  1  0.90357499  0.73080688  0.69312811  1
  S2-  S128  1  0.02400642  0.11273907  0.15016158  1
  S2-  S129  1  0.10442981  0.13235166  0.65116416  1
  S2-  S130  1  0.08892237  0.39436304  0.13916142  1
  S2-  S131  1  -0.09758310  0.34977080  0.65183543  1
  S2-  S132  1  0.09740556  0.63232107  0.13457725  1
  S2-  S133  1  -0.02584476  0.58701523  0.65689707  1
  S2-  S134  1  -0.09872340  0.87426670  0.13662596  1
  S2-  S135  1  0.00845566  0.86750524  0.65840863  1
  S2-  S136  1  0.23028159  0.22421967  0.14685465  1
  S2-  S137  1  0.28982342  0.25380025  0.64511685  1
  S2-  S138  1  0.29049167  0.40772828  0.19055563  1
  S2-  S139  1  0.11514634  0.38657008  0.63969103  1
  S2-  S140  1  0.30432705  0.62783447  0.16857680  1
  S2-  S141  1  0.21275111  0.64530537  0.65081398  1
  S2-  S142  1  0.20005225  0.84887637  0.14928725  1
  S2-  S143  1  0.27653676  0.97882993  0.64574609  1
  S2-  S144  1  0.54087609  0.07043859  0.14392136  1
  S2-  S145  1  0.55501877  0.11819637  0.63907623  1
  S2-  S146  1  0.49456042  0.50021351  0.15131994  1
  S2-  S147  1  0.57067977  0.36875367  0.64435366  1
  S2-  S148  1  0.48764451  0.74989773  0.16450043  1
  S2-  S149  1  0.58455207  0.62785520  0.63252185  1
  S2-  S150  1  0.40062295  0.93320211  0.18938755  1
  S2-  S151  1  0.52736924  0.86837179  0.64679908  1
  S2-  S152  1  0.79201256  0.07383596  0.15072368  1
  S2-  S153  1  0.88618939  0.11012748  0.65629425  1
  S2-  S154  1  0.64680140  0.35669332  0.13780222  1
  S2-  S155  1  0.72916936  0.24088651  0.67589553  1
  S2-  S156  1  0.66336971  0.63387153  0.14742406  1
  S2-  S157  1  0.76259336  0.50979657  0.65380319  1
  S2-  S158  1  0.66774692  0.88371133  0.15203574  1
  S2-  S159  1  0.73758898  0.95152367  0.64882045  1
  S2-  S160  1  0.10298559  0.01840400  0.35468793  1
  S2-  S161  1  0.13154371  -0.10701620  0.85846498  1
  S2-  S162  1  0.21735679  0.23048431  0.36019393  1
  S2-  S163  1  0.13354304  0.13948426  0.86208018  1
  S2-  S164  1  0.20047037  0.49674281  0.34921693  1
  S2-  S165  1  0.14392958  0.37995302  0.85906160  1
  S2-  S166  1  0.17573052  0.76497541  0.35737040  1
  S2-  S167  1  0.15466815  0.62890342  0.85703273  1
  S2-  S168  1  0.34113999  -0.06633190  0.34867852  1
  S2-  S169  1  0.34208268  0.01364385  0.84965012  1
  S2-  S170  1  0.37427596  0.34171501  0.35000530  1
  S2-  S171  1  0.38786194  0.26186882  0.85652216  1
  S2-  S172  1  0.46426334  0.51278434  0.32324994  1
  S2-  S173  1  0.38035823  0.51621496  0.86061336  1
  S2-  S174  1  0.33875764  0.69097085  0.29758815  1
  S2-  S175  1  0.38104408  0.76306862  0.85020637  1
  S2-  S176  1  0.61953025  -0.02152543  0.33248261  1
  S2-  S177  1  0.68494229  -0.01394631  0.84500391  1
  S2-  S178  1  0.59393082  0.22855348  0.33506379  1
  S2-  S179  1  0.64704597  0.20467150  0.83457822  1
  S2-  S180  1  0.64339169  0.59906675  0.35558050  1
  S2-  S181  1  0.61096583  0.40102843  0.86135032  1
  S2-  S182  1  0.50908275  0.78732555  0.34217724  1
  S2-  S183  1  0.61698335  0.63931430  0.86438317  1
  S2-  S184  1  0.86371071  0.00215375  0.34898777  1
  S2-  S185  1  0.90577899  0.01299581  0.84222203  1
  S2-  S186  1  0.97073166  0.24428149  0.36571775  1
  S2-  S187  1  0.87092635  0.24678503  0.83469614  1
  S2-  S188  1  0.87524901  0.51710900  0.34838099  1
  S2-  S189  1  0.82705196  0.48428291  0.84879624  1
  S2-  S190  1  0.76319392  0.76900486  0.35917635  1
  S2-  S191  1  0.81499423  0.75126275  0.84461647  1
  S2-  S192  1  -0.01589897  0.11964329  0.46473006  1
  S2-  S193  1  0.00107375  0.13466238  0.94987183  1
  S2-  S194  1  -0.01209207  0.38049525  0.45830918  1
  S2-  S195  1  0.00445487  0.38071597  0.95024879  1
  S2-  S196  1  -0.01245471  0.62549229  0.45284918  1
  S2-  S197  1  0.00613669  0.63128485  0.94599999  1
  S2-  S198  1  -0.01513726  0.87284314  0.45435186  1
  S2-  S199  1  0.00395658  0.88972254  0.95451970  1
  S2-  S200  1  0.23688027  0.12124082  0.46422433  1
  S2-  S201  1  0.26109368  0.13468549  0.96148515  1
  S2-  S202  1  0.23866721  0.37819623  0.45925439  1
  S2-  S203  1  0.25992582  0.38146117  0.96283039  1
  S2-  S204  1  0.24687655  0.62808730  0.45074105  1
  S2-  S205  1  0.25744144  0.63425883  0.96373021  1
  S2-  S206  1  0.24111609  0.87240841  0.46272498  1
  S2-  S207  1  0.25855205  0.88461007  0.95445564  1
  S2-  S208  1  0.48329997  0.12650958  0.44305135  1
  S2-  S209  1  0.50668349  0.13544087  0.95067570  1
  S2-  S210  1  0.48677010  0.37879007  0.44930943  1
  S2-  S211  1  0.50279243  0.38613281  0.96773656  1
  S2-  S212  1  0.48117259  0.61974843  0.44584125  1
  S2-  S213  1  0.50363797  0.63241541  0.96944645  1
  S2-  S214  1  0.48273895  0.87422270  0.44862042  1
  S2-  S215  1  0.50800038  0.88222227  0.94435361  1
  S2-  S216  1  0.74085028  0.12678823  0.43836188  1
  S2-  S217  1  0.75439191  0.13449332  0.95166151  1
  S2-  S218  1  0.74051483  0.37598730  0.43776061  1
  S2-  S219  1  0.75526097  0.38349573  0.95849656  1
  S2-  S220  1  0.74057299  0.62094028  0.46255884  1
  S2-  S221  1  0.76031570  0.63378350  0.95937686  1
  S2-  S222  1  0.73731650  0.87778455  0.45806451  1
  S2-  S223  1  0.75699593  0.88340026  0.95587725  1
  S2-  S224  1  0.13071276  0.00660845  0.04047862  1
  S2-  S225  1  0.11139602  -0.00744244  0.55407455  1
  S2-  S226  1  0.13157853  0.25667887  0.03850103  1
  S2-  S227  1  0.11310787  0.24703076  0.54355111  1
  S2-  S228  1  0.13141490  0.50164388  0.03659609  1
  S2-  S229  1  0.11758215  0.50530686  0.54163037  1
  S2-  S230  1  0.12786512  0.76260749  0.03362590  1
  S2-  S231  1  0.11519019  0.74992906  0.55146556  1
  S2-  S232  1  0.38654259  0.00391405  0.05152753  1
  S2-  S233  1  0.37221584  0.00020717  0.54349188  1
  S2-  S234  1  0.38664150  0.25839839  0.05882085  1
  S2-  S235  1  0.36951981  0.24507140  0.53756557  1
  S2-  S236  1  0.36917503  0.50009259  0.05983050  1
  S2-  S237  1  0.36711554  0.50021004  0.55448189  1
  S2-  S238  1  0.38021018  0.75878534  0.05504571  1
  S2-  S239  1  0.36970993  0.74730648  0.55616973  1
  S2-  S240  1  0.63051873  0.00351643  0.04228270  1
  S2-  S241  1  0.61548112  -0.00168263  0.53794134  1
  S2-  S242  1  0.62892217  0.25425101  0.03753204  1
  S2-  S243  1  0.62234383  0.24591859  0.54025223  1
  S2-  S244  1  0.63420793  0.50791448  0.04433659  1
  S2-  S245  1  0.61775953  0.49350478  0.53716143  1
  S2-  S246  1  0.63497049  0.76171151  0.04505507  1
  S2-  S247  1  0.61289495  0.74979261  0.53351002  1
  S2-  S248  1  0.88364212  0.00877740  0.04014992  1
  S2-  S249  1  0.85725254  -0.00385800  0.54920297  1
  S2-  S250  1  0.88105522  0.25648406  0.04293880  1
  S2-  S251  1  0.85653463  0.24854902  0.54643896  1
  S2-  S252  1  0.88469799  0.50569713  0.04620467  1
  S2-  S253  1  0.86148474  0.49575954  0.54752712  1
  S2-  S254  1  0.88497531  0.75456048  0.04175897  1
  S2-  S255  1  0.85676217  0.74729968  0.54882445  1
