# generated using pymatgen
data_La6Ce7Pr13Nd19Sm19(BiS2)64
_symmetry_space_group_name_H-M   'P 1'
_cell_length_a   16.08976609
_cell_length_b   16.08948603
_cell_length_c   27.23483489
_cell_angle_alpha   89.99780874
_cell_angle_beta   89.93526193
_cell_angle_gamma   90.06214556
_symmetry_Int_Tables_number   1
_chemical_formula_structural   La6Ce7Pr13Nd19Sm19(BiS2)64
_chemical_formula_sum   'La6 Ce7 Pr13 Nd19 Sm19 Bi64 S128'
_cell_volume   7050.43827791
_cell_formula_units_Z   1
loop_
 _symmetry_equiv_pos_site_id
 _symmetry_equiv_pos_as_xyz
  1  'x, y, z'
loop_
 _atom_type_symbol
 _atom_type_oxidation_number
  La3+  3.0
  Ce3+  3.0
  Pr3+  3.0
  Nd3+  3.0
  Sm3+  3.0
  Bi2+  2.0
  S2-  -2.0
loop_
 _atom_site_type_symbol
 _atom_site_label
 _atom_site_symmetry_multiplicity
 _atom_site_fract_x
 _atom_site_fract_y
 _atom_site_fract_z
 _atom_site_occupancy
  La3+  La0  1  0.36640688  0.00431291  0.41069934  1
  La3+  La1  1  0.60802236  -0.01409577  0.91524029  1
  La3+  La2  1  0.75717063  0.87371451  0.11055646  1
  La3+  La3  1  0.49596167  0.88445621  0.07691119  1
  La3+  La4  1  0.75412062  0.13616096  0.61552084  1
  La3+  La5  1  0.60980955  0.25616848  0.91436160  1
  Ce3+  Ce6  1  0.23919940  0.62686309  0.05984130  1
  Ce3+  Ce7  1  -0.00693415  0.62663315  0.05267204  1
  Ce3+  Ce8  1  0.49656588  0.12530317  0.05515275  1
  Ce3+  Ce9  1  0.11888221  0.00153334  0.94438964  1
  Ce3+  Ce10  1  0.25568444  0.11868767  0.56557234  1
  Ce3+  Ce11  1  0.49337274  0.62913313  0.06490596  1
  Ce3+  Ce12  1  0.86456346  -0.00121819  0.93304736  1
  Pr3+  Pr13  1  0.87355333  -0.00511083  0.43485289  1
  Pr3+  Pr14  1  0.74044568  0.37608887  0.06668586  1
  Pr3+  Pr15  1  0.12373979  0.74968963  0.93034906  1
  Pr3+  Pr16  1  0.87478745  0.74415385  0.43873670  1
  Pr3+  Pr17  1  0.37625419  0.24775717  0.43929650  1
  Pr3+  Pr18  1  0.74572223  0.62353972  0.07091791  1
  Pr3+  Pr19  1  -0.00129420  0.62485651  0.57108994  1
  Pr3+  Pr20  1  0.87521419  0.24368897  0.44328566  1
  Pr3+  Pr21  1  0.61561438  0.50472009  0.93508515  1
  Pr3+  Pr22  1  -0.01427001  0.12337510  0.05718961  1
  Pr3+  Pr23  1  0.74658747  0.62790002  0.57090617  1
  Pr3+  Pr24  1  0.36655950  0.75210251  0.94203263  1
  Pr3+  Pr25  1  0.49862568  0.62373047  0.55809262  1
  Nd3+  Nd26  1  -0.00261238  0.11799576  0.55948710  1
  Nd3+  Nd27  1  0.62314058  -0.00491623  0.43322628  1
  Nd3+  Nd28  1  0.24064401  0.37406437  0.06932611  1
  Nd3+  Nd29  1  0.11666382  0.24541302  0.93940441  1
  Nd3+  Nd30  1  0.37648807  0.49245662  0.43485816  1
  Nd3+  Nd31  1  0.36410454  0.25283751  0.94026178  1
  Nd3+  Nd32  1  0.11397806  0.49300027  0.93032093  1
  Nd3+  Nd33  1  0.37281118  0.73513159  0.42372274  1
  Nd3+  Nd34  1  0.36671390  0.00007729  0.94318879  1
  Nd3+  Nd35  1  0.87303396  0.75076918  0.92868070  1
  Nd3+  Nd36  1  0.24293933  0.88330913  0.07972242  1
  Nd3+  Nd37  1  -0.00182162  0.36946073  0.56820468  1
  Nd3+  Nd38  1  0.62931547  0.49280720  0.44227824  1
  Nd3+  Nd39  1  0.62538279  0.73996978  0.42930123  1
  Nd3+  Nd40  1  0.25201171  0.37009044  0.56003734  1
  Nd3+  Nd41  1  0.74781946  0.87779972  0.56703897  1
  Nd3+  Nd42  1  0.50029265  0.11302379  0.56690974  1
  Nd3+  Nd43  1  0.12545918  0.74195568  0.44123915  1
  Nd3+  Nd44  1  0.86535442  0.49900108  0.93267075  1
  Sm3+  Sm45  1  0.12771854  -0.00449229  0.44254784  1
  Sm3+  Sm46  1  0.50123226  0.36942303  0.56223156  1
  Sm3+  Sm47  1  0.36612480  0.50244366  0.94937864  1
  Sm3+  Sm48  1  0.74875011  0.37065608  0.56235748  1
  Sm3+  Sm49  1  -0.01104028  0.87369802  0.05186790  1
  Sm3+  Sm50  1  0.25273048  0.62301389  0.55924883  1
  Sm3+  Sm51  1  0.73686722  0.11768617  0.04769760  1
  Sm3+  Sm52  1  -0.00001109  0.87207272  0.55284977  1
  Sm3+  Sm53  1  0.49498041  0.37546381  0.05551732  1
  Sm3+  Sm54  1  0.87462627  0.49612948  0.44983983  1
  Sm3+  Sm55  1  -0.01032775  0.37437006  0.05212057  1
  Sm3+  Sm56  1  0.12404002  0.24655412  0.44950778  1
  Sm3+  Sm57  1  0.12273929  0.49484765  0.45338459  1
  Sm3+  Sm58  1  0.86197056  0.24931579  0.93996507  1
  Sm3+  Sm59  1  0.25415939  0.87156197  0.54847542  1
  Sm3+  Sm60  1  0.62633823  0.24304858  0.44690433  1
  Sm3+  Sm61  1  0.24123962  0.12991366  0.06753742  1
  Sm3+  Sm62  1  0.49882666  0.87275853  0.54302336  1
  Sm3+  Sm63  1  0.62123576  0.75198891  0.95110382  1
  Bi2+  Bi64  1  -0.00589078  0.19309234  0.28168306  1
  Bi2+  Bi65  1  0.03152740  0.14313074  0.78219531  1
  Bi2+  Bi66  1  0.02616519  0.38693857  0.29816478  1
  Bi2+  Bi67  1  0.00765313  0.33819103  0.80131032  1
  Bi2+  Bi68  1  0.02136665  0.58717570  0.24642571  1
  Bi2+  Bi69  1  0.04148541  0.60174787  0.78847191  1
  Bi2+  Bi70  1  0.01338548  0.86409481  0.28546903  1
  Bi2+  Bi71  1  0.05186039  0.86005606  0.77847735  1
  Bi2+  Bi72  1  0.26474203  0.21556564  0.28888804  1
  Bi2+  Bi73  1  0.24728540  0.13912993  0.79118343  1
  Bi2+  Bi74  1  0.23184131  0.41762945  0.30341359  1
  Bi2+  Bi75  1  0.24880546  0.41990120  0.79297218  1
  Bi2+  Bi76  1  0.20761591  0.62180763  0.29735515  1
  Bi2+  Bi77  1  0.29632637  0.67830507  0.76379453  1
  Bi2+  Bi78  1  0.24705284  0.87301085  0.30548464  1
  Bi2+  Bi79  1  0.25220416  0.87675234  0.79280140  1
  Bi2+  Bi80  1  0.54604028  0.22063722  0.27531640  1
  Bi2+  Bi81  1  0.49397653  0.10439827  0.79436696  1
  Bi2+  Bi82  1  0.42194958  0.36214271  0.32268446  1
  Bi2+  Bi83  1  0.43733478  0.36980187  0.78380451  1
  Bi2+  Bi84  1  0.47968383  0.54066174  0.28399141  1
  Bi2+  Bi85  1  0.48687838  0.62499485  0.79818913  1
  Bi2+  Bi86  1  0.51638962  0.87595101  0.28990209  1
  Bi2+  Bi87  1  0.46650554  0.82154821  0.79575029  1
  Bi2+  Bi88  1  0.77419414  0.16024274  0.26708052  1
  Bi2+  Bi89  1  0.78941886  0.11719901  0.81557246  1
  Bi2+  Bi90  1  0.75441300  0.36966230  0.29355536  1
  Bi2+  Bi91  1  0.72931406  0.42999091  0.77717109  1
  Bi2+  Bi92  1  0.75337754  0.60904641  0.30455300  1
  Bi2+  Bi93  1  0.67927723  0.60327326  0.81815724  1
  Bi2+  Bi94  1  0.76353069  0.87462014  0.31948287  1
  Bi2+  Bi95  1  0.75053877  0.85223958  0.80153270  1
  Bi2+  Bi96  1  0.13510583  0.00282514  0.24399073  1
  Bi2+  Bi97  1  0.11508425  0.00775641  0.70760632  1
  Bi2+  Bi98  1  0.12729621  0.29474754  0.21110162  1
  Bi2+  Bi99  1  0.14712563  0.20314870  0.69037712  1
  Bi2+  Bi100  1  0.16870255  0.48999742  0.18965363  1
  Bi2+  Bi101  1  0.11651414  0.39527559  0.70913418  1
  Bi2+  Bi102  1  0.13935782  0.82517056  0.19756675  1
  Bi2+  Bi103  1  0.15672393  0.76824252  0.69973956  1
  Bi2+  Bi104  1  0.36214222  0.00632445  0.20332141  1
  Bi2+  Bi105  1  0.31972335  0.00175118  0.71508569  1
  Bi2+  Bi106  1  0.39623293  0.25494335  0.20524628  1
  Bi2+  Bi107  1  0.34853025  0.23771188  0.71087633  1
  Bi2+  Bi108  1  0.35978410  0.45198488  0.20968805  1
  Bi2+  Bi109  1  0.37143612  0.51018768  0.70873201  1
  Bi2+  Bi110  1  0.31470830  0.74393280  0.22574668  1
  Bi2+  Bi111  1  0.42091226  0.78097864  0.68742443  1
  Bi2+  Bi112  1  0.62967300  0.01215064  0.21009470  1
  Bi2+  Bi113  1  0.59880513  -0.01961895  0.71027568  1
  Bi2+  Bi114  1  0.67212418  0.26559756  0.18640497  1
  Bi2+  Bi115  1  0.62794608  0.25552359  0.72075983  1
  Bi2+  Bi116  1  0.62697157  0.45351775  0.21577890  1
  Bi2+  Bi117  1  0.58679130  0.50585861  0.70269921  1
  Bi2+  Bi118  1  0.62133198  0.71572384  0.21293171  1
  Bi2+  Bi119  1  0.65563893  0.72832929  0.72622503  1
  Bi2+  Bi120  1  0.89060959  0.02406563  0.20464569  1
  Bi2+  Bi121  1  0.89548205  -0.02513748  0.70868958  1
  Bi2+  Bi122  1  0.87068473  0.26238447  0.18448623  1
  Bi2+  Bi123  1  0.89858742  0.27004125  0.70907018  1
  Bi2+  Bi124  1  0.87432837  0.45785011  0.21568863  1
  Bi2+  Bi125  1  0.77982480  0.56576155  0.69729432  1
  Bi2+  Bi126  1  0.91150191  0.74443155  0.21395724  1
  Bi2+  Bi127  1  0.89448997  0.72348899  0.70116789  1
  S2-  S128  1  -0.00619049  0.11843557  0.15771048  1
  S2-  S129  1  -0.07419650  0.12002349  0.64984979  1
  S2-  S130  1  -0.00812438  0.37500906  0.14999894  1
  S2-  S131  1  -0.04123681  0.40316417  0.66343379  1
  S2-  S132  1  -0.02426539  0.63179728  0.14972827  1
  S2-  S133  1  0.03201920  0.64102504  0.67071611  1
  S2-  S134  1  -0.07318068  0.88228853  0.14434195  1
  S2-  S135  1  -0.04382222  0.86533891  0.64883975  1
  S2-  S136  1  0.22809104  0.02583264  0.14817287  1
  S2-  S137  1  0.37041303  0.10339701  0.63815264  1
  S2-  S138  1  0.24782699  0.25122250  0.14161941  1
  S2-  S139  1  0.30130544  0.37288496  0.65425219  1
  S2-  S140  1  0.25574197  0.63479823  0.15674284  1
  S2-  S141  1  0.27870600  0.62056040  0.65538473  1
  S2-  S142  1  0.36986800  0.86505732  0.15225583  1
  S2-  S143  1  0.27205722  0.86098048  0.64598762  1
  S2-  S144  1  0.49937990  0.05736655  0.14610765  1
  S2-  S145  1  0.58753992  0.12600125  0.65558592  1
  S2-  S146  1  0.49828780  0.37904165  0.15392803  1
  S2-  S147  1  0.53162252  0.36254005  0.65881148  1
  S2-  S148  1  0.51725011  0.62924049  0.16227700  1
  S2-  S149  1  0.53130089  0.66122425  0.65413516  1
  S2-  S150  1  0.59555513  0.86458913  0.16198966  1
  S2-  S151  1  0.51327849  0.90358295  0.64102250  1
  S2-  S152  1  0.74730857  0.04909408  0.13921481  1
  S2-  S153  1  0.76353120  0.14892096  0.72410629  1
  S2-  S154  1  0.74657298  0.49170414  0.14401226  1
  S2-  S155  1  0.75325532  0.30769431  0.65318469  1
  S2-  S156  1  0.76103115  0.71409973  0.15902384  1
  S2-  S157  1  0.74644127  0.75507258  0.64146972  1
  S2-  S158  1  0.76080059  0.90176603  0.22591006  1
  S2-  S159  1  0.74780905  0.96996938  0.65425057  1
  S2-  S160  1  0.18413387  0.01034552  0.35080678  1
  S2-  S161  1  0.13321211  0.06033514  0.85301706  1
  S2-  S162  1  0.11802914  0.24388253  0.35231682  1
  S2-  S163  1  0.16308760  0.31197620  0.85260617  1
  S2-  S164  1  0.09413914  0.51351405  0.35768232  1
  S2-  S165  1  0.16526349  0.55570396  0.84150818  1
  S2-  S166  1  0.11657629  0.75259293  0.34261806  1
  S2-  S167  1  0.01722825  0.74026197  0.84961419  1
  S2-  S168  1  0.39763581  -0.01970201  0.30704792  1
  S2-  S169  1  0.44854591  -0.01292017  0.85468320  1
  S2-  S170  1  0.37183969  0.15676855  0.35538671  1
  S2-  S171  1  0.44264746  0.24203531  0.85165717  1
  S2-  S172  1  0.35935102  0.59367308  0.35460966  1
  S2-  S173  1  0.40760518  0.50442554  0.85419074  1
  S2-  S174  1  0.40071371  0.78258320  0.32792485  1
  S2-  S175  1  0.25781904  0.75385714  0.86188186  1
  S2-  S176  1  0.63087022  -0.00853555  0.33297622  1
  S2-  S177  1  0.65649187  0.00119415  0.81287140  1
  S2-  S178  1  0.62856143  0.29464647  0.35218729  1
  S2-  S179  1  0.63574758  0.19708113  0.81946982  1
  S2-  S180  1  0.61949376  0.54949481  0.34892253  1
  S2-  S181  1  0.62608764  0.40233135  0.85343598  1
  S2-  S182  1  0.63029566  0.75544515  0.32862526  1
  S2-  S183  1  0.59983294  0.81748443  0.85916301  1
  S2-  S184  1  0.89960819  -0.02320707  0.33571599  1
  S2-  S185  1  0.87610054  -0.03466725  0.83554389  1
  S2-  S186  1  0.86906038  0.24725625  0.34307351  1
  S2-  S187  1  0.85768095  0.27304965  0.84292250  1
  S2-  S188  1  0.83874078  0.49629013  0.35405912  1
  S2-  S189  1  0.96140695  0.50004471  0.84765575  1
  S2-  S190  1  0.86246485  0.72667139  0.33929541  1
  S2-  S191  1  0.81219398  0.71272699  0.83587416  1
  S2-  S192  1  0.00368050  0.11854600  0.45184409  1
  S2-  S193  1  -0.01246195  0.12671131  0.94921513  1
  S2-  S194  1  -0.00119878  0.37160139  0.46037916  1
  S2-  S195  1  -0.01089233  0.36954978  0.94949038  1
  S2-  S196  1  -0.00103964  0.61874931  0.46166057  1
  S2-  S197  1  -0.00561148  0.62164964  0.95031619  1
  S2-  S198  1  0.00404326  0.87062120  0.44844388  1
  S2-  S199  1  -0.00570493  0.87766706  0.94836187  1
  S2-  S200  1  0.24520248  0.12389958  0.45883946  1
  S2-  S201  1  0.24429049  0.12707164  0.95973689  1
  S2-  S202  1  0.24694466  0.37189457  0.45334786  1
  S2-  S203  1  0.24386940  0.37802700  0.96157980  1
  S2-  S204  1  0.24675668  0.61579742  0.45591441  1
  S2-  S205  1  0.24057882  0.61935271  0.95639086  1
  S2-  S206  1  0.25126756  0.86743533  0.44461160  1
  S2-  S207  1  0.24164166  0.87946632  0.96309066  1
  S2-  S208  1  0.50358714  0.12128093  0.45335869  1
  S2-  S209  1  0.49322114  0.12563645  0.95126039  1
  S2-  S210  1  0.50363214  0.37149924  0.45717556  1
  S2-  S211  1  0.48882561  0.37851567  0.95372982  1
  S2-  S212  1  0.50144341  0.61805357  0.45182508  1
  S2-  S213  1  0.49187041  0.62861261  0.95679474  1
  S2-  S214  1  0.49685332  0.86737199  0.43871830  1
  S2-  S215  1  0.48900330  0.87238264  0.96383905  1
  S2-  S216  1  0.74798413  0.12086765  0.44029518  1
  S2-  S217  1  0.73607375  0.12489842  0.94262830  1
  S2-  S218  1  0.75192810  0.36955611  0.45797032  1
  S2-  S219  1  0.74299627  0.37531134  0.95589348  1
  S2-  S220  1  0.75061705  0.61992121  0.46118654  1
  S2-  S221  1  0.74421187  0.62559786  0.95676788  1
  S2-  S222  1  0.74788119  0.86836278  0.45158334  1
  S2-  S223  1  0.74498452  0.87240134  0.94330603  1
  S2-  S224  1  0.11266015  0.00029836  0.04908238  1
  S2-  S225  1  0.12637700  -0.00611038  0.54871071  1
  S2-  S226  1  0.11232998  0.25056725  0.04507540  1
  S2-  S227  1  0.12445818  0.24514268  0.55425061  1
  S2-  S228  1  0.11602272  0.49579471  0.04378108  1
  S2-  S229  1  0.12617108  0.49746374  0.55860350  1
  S2-  S230  1  0.11789610  0.75552990  0.04641345  1
  S2-  S231  1  0.12703295  0.74734134  0.54785130  1
  S2-  S232  1  0.36393026  0.00662299  0.04715504  1
  S2-  S233  1  0.37444946  -0.00729561  0.52987795  1
  S2-  S234  1  0.37159213  0.25221145  0.04526193  1
  S2-  S235  1  0.37895289  0.24781810  0.54615550  1
  S2-  S236  1  0.36766266  0.49845706  0.05439513  1
  S2-  S237  1  0.37574917  0.49553266  0.54444483  1
  S2-  S238  1  0.36478782  0.75058436  0.04888121  1
  S2-  S239  1  0.37416028  0.74623046  0.53582556  1
  S2-  S240  1  0.61663297  0.00025318  0.03560031  1
  S2-  S241  1  0.62301702  -0.00616997  0.53940365  1
  S2-  S242  1  0.61888258  0.25098595  0.04224686  1
  S2-  S243  1  0.62630917  0.24577730  0.54944463  1
  S2-  S244  1  0.61449385  0.50136071  0.04348284  1
  S2-  S245  1  0.62592138  0.49556527  0.55059822  1
  S2-  S246  1  0.62299429  0.75148693  0.05321272  1
  S2-  S247  1  0.62207412  0.74953391  0.53745861  1
  S2-  S248  1  0.86343628  -0.00330076  0.03887662  1
  S2-  S249  1  0.87686272  -0.00683496  0.54157578  1
  S2-  S250  1  0.86162596  0.24953832  0.04500757  1
  S2-  S251  1  0.87249882  0.24511289  0.54928537  1
  S2-  S252  1  0.87007397  0.49840494  0.04005309  1
  S2-  S253  1  0.87259272  0.49758745  0.55459686  1
  S2-  S254  1  0.86745760  0.75101317  0.04009560  1
  S2-  S255  1  0.87726612  0.74809163  0.54468768  1
