# generated using pymatgen
data_La6Ce7Pr13Nd19Sm19(BiS2)64
_symmetry_space_group_name_H-M   'P 1'
_cell_length_a   16.09826531
_cell_length_b   16.12211714
_cell_length_c   27.28312327
_cell_angle_alpha   90.13469353
_cell_angle_beta   90.00594991
_cell_angle_gamma   89.98503146
_symmetry_Int_Tables_number   1
_chemical_formula_structural   La6Ce7Pr13Nd19Sm19(BiS2)64
_chemical_formula_sum   'La6 Ce7 Pr13 Nd19 Sm19 Bi64 S128'
_cell_volume   7080.99065345
_cell_formula_units_Z   1
loop_
 _symmetry_equiv_pos_site_id
 _symmetry_equiv_pos_as_xyz
  1  'x, y, z'
loop_
 _atom_type_symbol
 _atom_type_oxidation_number
  La3+  3.0
  Ce3+  3.0
  Pr3+  3.0
  Nd3+  3.0
  Sm3+  3.0
  Bi2+  2.0
  S2-  -2.0
loop_
 _atom_site_type_symbol
 _atom_site_label
 _atom_site_symmetry_multiplicity
 _atom_site_fract_x
 _atom_site_fract_y
 _atom_site_fract_z
 _atom_site_occupancy
  La3+  La0  1  0.35725036  0.75060541  0.91348998  1
  La3+  La1  1  0.22970907  0.36790987  0.58829414  1
  La3+  La2  1  0.49141919  0.85244825  0.61564017  1
  La3+  La3  1  0.87878326  -0.00175330  0.93461800  1
  La3+  La4  1  0.12961589  0.49530256  0.89161801  1
  La3+  La5  1  0.11309184  0.24966847  0.92817713  1
  Ce3+  Ce6  1  0.62224683  0.75004846  0.94199730  1
  Ce3+  Ce7  1  0.24527885  0.12655741  0.05190809  1
  Ce3+  Ce8  1  0.74732674  0.62375395  0.05642659  1
  Ce3+  Ce9  1  0.23482362  0.13095756  0.55322075  1
  Ce3+  Ce10  1  0.49077590  0.11964495  0.56241502  1
  Ce3+  Ce11  1  0.11258873  0.49782987  0.44259898  1
  Ce3+  Ce12  1  0.48555384  0.62368376  0.55531765  1
  Pr3+  Pr13  1  0.85833259  0.75466660  0.42973147  1
  Pr3+  Pr14  1  0.62070242  0.49992983  0.93183736  1
  Pr3+  Pr15  1  -0.00571715  0.13742875  0.08640400  1
  Pr3+  Pr16  1  0.38043059  0.00214635  0.92651806  1
  Pr3+  Pr17  1  0.87288470  0.24943488  0.94655795  1
  Pr3+  Pr18  1  0.87384064  0.74780536  0.94142298  1
  Pr3+  Pr19  1  0.36272215  0.75306554  0.43642890  1
  Pr3+  Pr20  1  0.24077981  0.62676157  0.56403031  1
  Pr3+  Pr21  1  0.61459289  0.25155350  0.42931065  1
  Pr3+  Pr22  1  0.74441190  0.11680436  0.07688635  1
  Pr3+  Pr23  1  0.10805497  0.25469321  0.41957030  1
  Pr3+  Pr24  1  0.49849668  0.12216209  0.06872550  1
  Pr3+  Pr25  1  0.85527854  -0.00302914  0.41945812  1
  Nd3+  Nd26  1  0.24874029  0.87520140  0.05957617  1
  Nd3+  Nd27  1  -0.01797233  0.37464300  0.56535385  1
  Nd3+  Nd28  1  0.37687984  0.49470524  0.93073681  1
  Nd3+  Nd29  1  -0.01139062  0.62722190  0.55582703  1
  Nd3+  Nd30  1  0.24464306  0.37457463  0.05944767  1
  Nd3+  Nd31  1  0.74470871  0.88600956  0.57219548  1
  Nd3+  Nd32  1  0.86140145  0.50099669  0.43950075  1
  Nd3+  Nd33  1  0.62306408  0.24699647  0.94617868  1
  Nd3+  Nd34  1  0.24903188  0.62313307  0.05426362  1
  Nd3+  Nd35  1  -0.00266307  0.87673739  0.06709983  1
  Nd3+  Nd36  1  -0.01173062  0.88175671  0.56186852  1
  Nd3+  Nd37  1  0.36200273  0.25136613  0.44351618  1
  Nd3+  Nd38  1  0.61312241  0.75341085  0.44086818  1
  Nd3+  Nd39  1  -0.00163030  0.38318569  0.06678808  1
  Nd3+  Nd40  1  0.74724428  0.87401967  0.06610844  1
  Nd3+  Nd41  1  0.74110237  0.12559355  0.55688285  1
  Nd3+  Nd42  1  0.63053363  0.00083487  0.93289210  1
  Nd3+  Nd43  1  0.87497665  0.49812334  0.93370027  1
  Nd3+  Nd44  1  0.73722467  0.63364509  0.56363423  1
  Sm3+  Sm45  1  0.73926028  0.37580383  0.56214873  1
  Sm3+  Sm46  1  0.49460877  0.62605210  0.05246170  1
  Sm3+  Sm47  1  0.49009843  0.37541190  0.55575467  1
  Sm3+  Sm48  1  0.24167453  0.87930158  0.56158039  1
  Sm3+  Sm49  1  0.11793818  0.00075584  0.94763534  1
  Sm3+  Sm50  1  0.49435834  0.87455260  0.05116995  1
  Sm3+  Sm51  1  0.61394247  0.50024042  0.44470182  1
  Sm3+  Sm52  1  0.49638415  0.37664502  0.05858850  1
  Sm3+  Sm53  1  0.12422668  0.74727562  0.94549237  1
  Sm3+  Sm54  1  0.36364119  0.00129794  0.44317161  1
  Sm3+  Sm55  1  0.11356264  0.75236346  0.44646507  1
  Sm3+  Sm56  1  0.37077725  0.24941142  0.94491302  1
  Sm3+  Sm57  1  -0.00068250  0.61906418  0.05493194  1
  Sm3+  Sm58  1  0.86179068  0.24988049  0.42905420  1
  Sm3+  Sm59  1  0.11205894  -0.00178404  0.43523857  1
  Sm3+  Sm60  1  0.61397315  -0.00041194  0.44133053  1
  Sm3+  Sm61  1  0.74632012  0.37615673  0.05765120  1
  Sm3+  Sm62  1  -0.01149001  0.12926104  0.54553671  1
  Sm3+  Sm63  1  0.35987375  0.49865385  0.44297790  1
  Bi2+  Bi64  1  0.01603516  0.14878107  0.28563194  1
  Bi2+  Bi65  1  0.00735712  0.12383466  0.78640357  1
  Bi2+  Bi66  1  0.01945559  0.40865755  0.29282947  1
  Bi2+  Bi67  1  -0.03305378  0.35521088  0.78459876  1
  Bi2+  Bi68  1  0.00982254  0.64750006  0.27334467  1
  Bi2+  Bi69  1  -0.10103917  0.66298249  0.80499847  1
  Bi2+  Bi70  1  0.03845573  0.89036011  0.29065981  1
  Bi2+  Bi71  1  0.00497573  0.90951314  0.77966890  1
  Bi2+  Bi72  1  0.29691593  0.10031912  0.28328720  1
  Bi2+  Bi73  1  0.20862073  0.09076402  0.77558761  1
  Bi2+  Bi74  1  0.26673976  0.37851085  0.30383550  1
  Bi2+  Bi75  1  0.27340485  0.36199583  0.77989064  1
  Bi2+  Bi76  1  0.29592905  0.61632421  0.24725135  1
  Bi2+  Bi77  1  0.27380303  0.63942954  0.79203820  1
  Bi2+  Bi78  1  0.28172361  0.82976081  0.29735862  1
  Bi2+  Bi79  1  0.21444087  0.89171425  0.78745446  1
  Bi2+  Bi80  1  0.54915423  0.15299172  0.30921916  1
  Bi2+  Bi81  1  0.41784733  0.11885796  0.80318229  1
  Bi2+  Bi82  1  0.49113075  0.34064550  0.30488468  1
  Bi2+  Bi83  1  0.56096810  0.35136073  0.79510990  1
  Bi2+  Bi84  1  0.51996805  0.69822484  0.30838194  1
  Bi2+  Bi85  1  0.57906436  0.55616223  0.77065344  1
  Bi2+  Bi86  1  0.49658258  0.88746200  0.28591656  1
  Bi2+  Bi87  1  0.51243434  0.84891071  0.81517954  1
  Bi2+  Bi88  1  0.73759468  0.11814632  0.29005593  1
  Bi2+  Bi89  1  0.75430316  0.14563109  0.79163676  1
  Bi2+  Bi90  1  0.74201618  0.37812432  0.28604611  1
  Bi2+  Bi91  1  0.77374229  0.34348165  0.80980842  1
  Bi2+  Bi92  1  0.82218294  0.62347707  0.30694834  1
  Bi2+  Bi93  1  0.75045390  0.54157528  0.82454318  1
  Bi2+  Bi94  1  0.76137980  0.85984159  0.28967813  1
  Bi2+  Bi95  1  0.76403807  0.88344539  0.79065324  1
  Bi2+  Bi96  1  0.18536994  -0.01295124  0.21762063  1
  Bi2+  Bi97  1  0.11661256  -0.03678990  0.68090504  1
  Bi2+  Bi98  1  0.15518299  0.25288404  0.20130964  1
  Bi2+  Bi99  1  0.10255108  0.23223687  0.70455330  1
  Bi2+  Bi100  1  0.12212118  0.49617549  0.20932793  1
  Bi2+  Bi101  1  0.12270071  0.51951310  0.70310683  1
  Bi2+  Bi102  1  0.15040163  0.74194772  0.21688883  1
  Bi2+  Bi103  1  0.10427150  0.77732961  0.71081466  1
  Bi2+  Bi104  1  0.40204929  0.00414096  0.19987633  1
  Bi2+  Bi105  1  0.35634571  0.07434100  0.69998684  1
  Bi2+  Bi106  1  0.40937061  0.19780624  0.20800082  1
  Bi2+  Bi107  1  0.42255515  0.25672021  0.72074752  1
  Bi2+  Bi108  1  0.44188717  0.49332418  0.21820198  1
  Bi2+  Bi109  1  0.42623255  0.52228527  0.70476517  1
  Bi2+  Bi110  1  0.42720775  0.76188551  0.20368706  1
  Bi2+  Bi111  1  0.35077603  0.74427175  0.71011649  1
  Bi2+  Bi112  1  0.60528241  0.00594344  0.21667633  1
  Bi2+  Bi113  1  0.64545826  -0.00899201  0.70959384  1
  Bi2+  Bi114  1  0.59918888  0.26841169  0.21613887  1
  Bi2+  Bi115  1  0.61343693  0.19281078  0.70657933  1
  Bi2+  Bi116  1  0.61860858  0.54981816  0.25633150  1
  Bi2+  Bi117  1  0.66827361  0.38345407  0.69738657  1
  Bi2+  Bi118  1  0.64949789  0.74046681  0.22185639  1
  Bi2+  Bi119  1  0.70959323  0.72956580  0.73088668  1
  Bi2+  Bi120  1  0.88652220  0.00391003  0.19838530  1
  Bi2+  Bi121  1  0.92323964  0.01731555  0.69305413  1
  Bi2+  Bi122  1  0.86470763  0.30093189  0.20988136  1
  Bi2+  Bi123  1  0.82529390  0.25243655  0.70499613  1
  Bi2+  Bi124  1  0.86810195  0.54411363  0.20255295  1
  Bi2+  Bi125  1  0.85261635  0.53025667  0.71926676  1
  Bi2+  Bi126  1  0.86583592  0.74784501  0.21092919  1
  Bi2+  Bi127  1  0.91184968  0.73270371  0.69815149  1
  S2-  S128  1  0.04691227  0.07388554  0.17988282  1
  S2-  S129  1  -0.02452212  0.15854559  0.64312745  1
  S2-  S130  1  0.01310464  0.28627180  0.15080655  1
  S2-  S131  1  0.08231299  0.37377517  0.64793183  1
  S2-  S132  1  -0.00850304  0.51853203  0.13688449  1
  S2-  S133  1  -0.01640092  0.58163499  0.65223601  1
  S2-  S134  1  -0.02951613  0.85945674  0.16501114  1
  S2-  S135  1  -0.11827392  0.86894297  0.63947365  1
  S2-  S136  1  0.25734316  0.16342826  0.14753563  1
  S2-  S137  1  0.22929755  0.21112206  0.64062434  1
  S2-  S138  1  0.22544807  0.38599512  0.16094484  1
  S2-  S139  1  0.28249572  0.44902087  0.67599980  1
  S2-  S140  1  0.21640826  0.61389062  0.15257761  1
  S2-  S141  1  0.20808522  0.65584715  0.66180506  1
  S2-  S142  1  0.23722703  0.86292588  0.15839938  1
  S2-  S143  1  0.32044003  0.86826630  0.64777278  1
  S2-  S144  1  0.61111207  0.13311479  0.14614663  1
  S2-  S145  1  0.49802567  0.02647702  0.64578983  1
  S2-  S146  1  0.48375567  0.36488557  0.15599282  1
  S2-  S147  1  0.50817454  0.40377938  0.65185422  1
  S2-  S148  1  0.46782413  0.62644400  0.14941341  1
  S2-  S149  1  0.47681804  0.67063539  0.64905304  1
  S2-  S150  1  0.51272671  0.89527126  0.14772749  1
  S2-  S151  1  0.47929510  0.85124261  0.72418822  1
  S2-  S152  1  0.85193584  0.14648791  0.15585950  1
  S2-  S153  1  0.75492604  0.03839414  0.64354827  1
  S2-  S154  1  0.75393969  0.38174950  0.15597904  1
  S2-  S155  1  0.85176749  0.37284821  0.63661521  1
  S2-  S156  1  0.73357753  0.62998798  0.15306731  1
  S2-  S157  1  0.72894578  0.60456583  0.66255979  1
  S2-  S158  1  0.74894208  0.96191636  0.15202072  1
  S2-  S159  1  0.65653980  0.84335288  0.65640288  1
  S2-  S160  1  0.10075042  0.02044123  0.33711524  1
  S2-  S161  1  0.01771753  0.01218801  0.86764175  1
  S2-  S162  1  0.15417814  0.24600808  0.31703593  1
  S2-  S163  1  0.14969179  0.34029281  0.84015302  1
  S2-  S164  1  0.14020286  0.48591622  0.34512659  1
  S2-  S165  1  0.11956663  0.57263548  0.79345211  1
  S2-  S166  1  0.13244727  0.79460891  0.35208535  1
  S2-  S167  1  0.19162736  0.75369934  0.85534147  1
  S2-  S168  1  0.34288184  -0.02284579  0.34603967  1
  S2-  S169  1  0.35223490  -0.10626725  0.84756526  1
  S2-  S170  1  0.35526752  0.24714857  0.34439154  1
  S2-  S171  1  0.37156401  0.27120014  0.84800076  1
  S2-  S172  1  0.38128720  0.46650384  0.34671783  1
  S2-  S173  1  0.29397725  0.49482456  0.84257085  1
  S2-  S174  1  0.34081585  0.68976430  0.34306607  1
  S2-  S175  1  0.43569629  0.69841769  0.82715977  1
  S2-  S176  1  0.70278687  -0.01473656  0.35656709  1
  S2-  S177  1  0.52216378  0.01361016  0.85506933  1
  S2-  S178  1  0.73954391  0.26090609  0.35704937  1
  S2-  S179  1  0.62819824  0.21456478  0.84879705  1
  S2-  S180  1  0.62937768  0.47307904  0.34831811  1
  S2-  S181  1  0.50796200  0.48461420  0.85518987  1
  S2-  S182  1  0.71987836  0.74215566  0.36119898  1
  S2-  S183  1  0.66480695  0.77765282  0.84848210  1
  S2-  S184  1  0.88552512  0.08532095  0.32782578  1
  S2-  S185  1  0.75728135  0.00963618  0.86039596  1
  S2-  S186  1  0.96981893  0.27250578  0.35240892  1
  S2-  S187  1  0.96782341  0.23458038  0.86123039  1
  S2-  S188  1  0.87195593  0.46601879  0.34191274  1
  S2-  S189  1  0.96627151  0.47417074  0.84980470  1
  S2-  S190  1  0.89847373  0.86583995  0.35192678  1
  S2-  S191  1  0.89526929  0.82409720  0.85207221  1
  S2-  S192  1  -0.01151043  0.12250971  0.44338802  1
  S2-  S193  1  -0.00276908  0.12509755  0.97123854  1
  S2-  S194  1  -0.01529262  0.37846238  0.45657398  1
  S2-  S195  1  -0.00200044  0.37768523  0.95906044  1
  S2-  S196  1  -0.01168237  0.62836034  0.44745790  1
  S2-  S197  1  0.00337834  0.62270100  0.95002791  1
  S2-  S198  1  -0.00681695  0.87528755  0.45675299  1
  S2-  S199  1  0.00368523  0.86937582  0.96153196  1
  S2-  S200  1  0.23603147  0.12431751  0.44581136  1
  S2-  S201  1  0.24566022  0.12302892  0.94402364  1
  S2-  S202  1  0.23853447  0.37419732  0.45026072  1
  S2-  S203  1  0.24875393  0.37299246  0.95357771  1
  S2-  S204  1  0.23745281  0.62594216  0.45574093  1
  S2-  S205  1  0.24377583  0.61693862  0.94902700  1
  S2-  S206  1  0.23789973  0.87798726  0.45628565  1
  S2-  S207  1  0.24193492  0.87921152  0.95545487  1
  S2-  S208  1  0.48931683  0.12504728  0.45291957  1
  S2-  S209  1  0.49697678  0.12820460  0.96096876  1
  S2-  S210  1  0.48939935  0.37655328  0.45214093  1
  S2-  S211  1  0.49722434  0.36920350  0.95538251  1
  S2-  S212  1  0.48793747  0.62214973  0.44934552  1
  S2-  S213  1  0.49446369  0.62776245  0.94953789  1
  S2-  S214  1  0.48886038  0.87876777  0.44181078  1
  S2-  S215  1  0.49610944  0.87058769  0.94914164  1
  S2-  S216  1  0.73661068  0.12636601  0.45246607  1
  S2-  S217  1  0.74863654  0.12663994  0.96510281  1
  S2-  S218  1  0.73741900  0.37795859  0.45835934  1
  S2-  S219  1  0.74497718  0.37552941  0.95219005  1
  S2-  S220  1  0.73533864  0.62257299  0.45761338  1
  S2-  S221  1  0.74710318  0.62404813  0.95163036  1
  S2-  S222  1  0.73634530  0.87581611  0.46260660  1
  S2-  S223  1  0.74968205  0.87172984  0.96084206  1
  S2-  S224  1  0.12238966  -0.00017794  0.05269480  1
  S2-  S225  1  0.11351951  0.00352535  0.54173572  1
  S2-  S226  1  0.12291335  0.25162419  0.04270784  1
  S2-  S227  1  0.10956849  0.25297151  0.53365322  1
  S2-  S228  1  0.12631383  0.50142086  0.04554387  1
  S2-  S229  1  0.11500610  0.50178097  0.54770453  1
  S2-  S230  1  0.12102326  0.74737861  0.05074561  1
  S2-  S231  1  0.11394939  0.75538905  0.55140223  1
  S2-  S232  1  0.37219984  0.00008015  0.04217803  1
  S2-  S233  1  0.35773613  0.00620343  0.54517415  1
  S2-  S234  1  0.37496465  0.25066396  0.04937039  1
  S2-  S235  1  0.36808209  0.25280103  0.54889124  1
  S2-  S236  1  0.37370447  0.49861005  0.04400656  1
  S2-  S237  1  0.36120362  0.49497722  0.54834551  1
  S2-  S238  1  0.37144811  0.75086362  0.04172333  1
  S2-  S239  1  0.36387160  0.75409994  0.54371326  1
  S2-  S240  1  0.61994864  -0.00503521  0.04095587  1
  S2-  S241  1  0.61665677  0.00098574  0.54304725  1
  S2-  S242  1  0.62166314  0.25585934  0.05057731  1
  S2-  S243  1  0.61514772  0.25195739  0.54596879  1
  S2-  S244  1  0.61885801  0.50026232  0.04473627  1
  S2-  S245  1  0.61590358  0.50098389  0.54965137  1
  S2-  S246  1  0.61904880  0.75023120  0.04991304  1
  S2-  S247  1  0.60823380  0.75220730  0.54617049  1
  S2-  S248  1  0.87464744  -0.00317566  0.04867132  1
  S2-  S249  1  0.86786371  0.00579928  0.53412594  1
  S2-  S250  1  0.86927106  0.25751454  0.05106021  1
  S2-  S251  1  0.86161957  0.24917495  0.53503973  1
  S2-  S252  1  0.86824566  0.50085814  0.04013410  1
  S2-  S253  1  0.85997219  0.50669584  0.54420268  1
  S2-  S254  1  0.87556988  0.74706744  0.04996281  1
  S2-  S255  1  0.86433969  0.74984567  0.53981674  1
