# generated using pymatgen
data_La6Ce7Pr13Nd19Sm19(BiS2)64
_symmetry_space_group_name_H-M   'P 1'
_cell_length_a   16.08946786
_cell_length_b   16.06202070
_cell_length_c   27.33586122
_cell_angle_alpha   89.99228173
_cell_angle_beta   90.24926037
_cell_angle_gamma   89.99722079
_symmetry_Int_Tables_number   1
_chemical_formula_structural   La6Ce7Pr13Nd19Sm19(BiS2)64
_chemical_formula_sum   'La6 Ce7 Pr13 Nd19 Sm19 Bi64 S128'
_cell_volume   7064.32235707
_cell_formula_units_Z   1
loop_
 _symmetry_equiv_pos_site_id
 _symmetry_equiv_pos_as_xyz
  1  'x, y, z'
loop_
 _atom_type_symbol
 _atom_type_oxidation_number
  La3+  3.0
  Ce3+  3.0
  Pr3+  3.0
  Nd3+  3.0
  Sm3+  3.0
  Bi2+  2.0
  S2-  -2.0
loop_
 _atom_site_type_symbol
 _atom_site_label
 _atom_site_symmetry_multiplicity
 _atom_site_fract_x
 _atom_site_fract_y
 _atom_site_fract_z
 _atom_site_occupancy
  La3+  La0  1  0.74918301  0.63159671  0.60878406  1
  La3+  La1  1  0.86456682  0.50947210  0.92091406  1
  La3+  La2  1  0.86187185  0.26057823  0.41377184  1
  La3+  La3  1  0.37274035  0.25895528  0.43429603  1
  La3+  La4  1  0.75453799  0.13246159  0.57482981  1
  La3+  La5  1  0.75695785  0.88317198  0.06895383  1
  Ce3+  Ce6  1  0.37491454  0.51010275  0.43443417  1
  Ce3+  Ce7  1  0.62855635  0.00819499  0.43771421  1
  Ce3+  Ce8  1  0.62436330  0.75784069  0.94124099  1
  Ce3+  Ce9  1  0.87186898  0.25964751  0.94151436  1
  Ce3+  Ce10  1  0.36364399  0.00282968  0.92475886  1
  Ce3+  Ce11  1  0.11950880  0.25928566  0.95152743  1
  Ce3+  Ce12  1  -0.00294522  0.13804560  0.07230673  1
  Pr3+  Pr13  1  0.00026461  0.62875337  0.56985033  1
  Pr3+  Pr14  1  0.24763434  0.12777276  0.56688312  1
  Pr3+  Pr15  1  0.61556254  0.25397614  0.92362149  1
  Pr3+  Pr16  1  0.62578316  0.00308459  0.93416096  1
  Pr3+  Pr17  1  0.37096268  0.75295462  0.93212507  1
  Pr3+  Pr18  1  -0.00406311  0.13592877  0.55793372  1
  Pr3+  Pr19  1  0.11990561  0.49693772  0.93131690  1
  Pr3+  Pr20  1  -0.00143637  0.88039333  0.05499639  1
  Pr3+  Pr21  1  0.12416829  0.74537358  0.91398927  1
  Pr3+  Pr22  1  -0.01211299  0.38293479  0.07550221  1
  Pr3+  Pr23  1  0.74210362  0.62700518  0.06115744  1
  Pr3+  Pr24  1  0.49709183  0.38357571  0.57146261  1
  Pr3+  Pr25  1  0.24831607  0.64080620  0.56941974  1
  Nd3+  Nd26  1  0.74523369  0.38756923  0.57419515  1
  Nd3+  Nd27  1  0.12244856  0.51120325  0.43242606  1
  Nd3+  Nd28  1  0.36004329  0.00760188  0.42334423  1
  Nd3+  Nd29  1  0.62464907  0.50742831  0.44936171  1
  Nd3+  Nd30  1  0.49663568  0.63439537  0.56570622  1
  Nd3+  Nd31  1  0.87614996  0.50865126  0.43328028  1
  Nd3+  Nd32  1  0.24948401  0.12908295  0.05515286  1
  Nd3+  Nd33  1  -0.01360681  0.88419404  0.57488539  1
  Nd3+  Nd34  1  0.61643448  0.50607626  0.93070593  1
  Nd3+  Nd35  1  0.88162490  0.01114640  0.92940471  1
  Nd3+  Nd36  1  0.49516041  0.37415332  0.06662645  1
  Nd3+  Nd37  1  0.73810908  0.88144227  0.57106415  1
  Nd3+  Nd38  1  0.10841227  0.00531937  0.43626682  1
  Nd3+  Nd39  1  0.24446434  0.62799556  0.05494329  1
  Nd3+  Nd40  1  0.86437886  0.00406961  0.43562808  1
  Nd3+  Nd41  1  0.24588540  0.87740506  0.05562748  1
  Nd3+  Nd42  1  -0.00468789  0.38599229  0.55419806  1
  Nd3+  Nd43  1  0.87577048  0.75733081  0.93178638  1
  Nd3+  Nd44  1  0.73914149  0.37891343  0.06288385  1
  Sm3+  Sm45  1  0.50027305  0.63082962  0.06240295  1
  Sm3+  Sm46  1  0.11958740  0.75988964  0.44924692  1
  Sm3+  Sm47  1  0.74641657  0.13017121  0.05148501  1
  Sm3+  Sm48  1  0.49965937  0.88605277  0.55567805  1
  Sm3+  Sm49  1  0.24839891  0.38469426  0.55332693  1
  Sm3+  Sm50  1  0.86914230  0.75485398  0.45357393  1
  Sm3+  Sm51  1  -0.01102559  0.62321108  0.06086983  1
  Sm3+  Sm52  1  0.49550531  0.12557807  0.05093641  1
  Sm3+  Sm53  1  0.12022771  0.25576541  0.44094481  1
  Sm3+  Sm54  1  0.25386945  0.38221183  0.06073923  1
  Sm3+  Sm55  1  0.62399027  0.75557481  0.44419262  1
  Sm3+  Sm56  1  0.37684643  0.50464280  0.93809038  1
  Sm3+  Sm57  1  0.37151850  0.75861265  0.43392468  1
  Sm3+  Sm58  1  0.24680651  0.88573083  0.56274154  1
  Sm3+  Sm59  1  0.49722693  0.13287598  0.55296697  1
  Sm3+  Sm60  1  0.12288783  0.00668361  0.93749432  1
  Sm3+  Sm61  1  0.49495914  0.88202854  0.04965170  1
  Sm3+  Sm62  1  0.62617128  0.26102357  0.44648429  1
  Sm3+  Sm63  1  0.37216906  0.25667115  0.93332199  1
  Bi2+  Bi64  1  0.04211034  0.09989277  0.29145212  1
  Bi2+  Bi65  1  0.02755057  0.17014984  0.78970651  1
  Bi2+  Bi66  1  -0.00074240  0.37110791  0.30597461  1
  Bi2+  Bi67  1  0.06603769  0.38376708  0.77211981  1
  Bi2+  Bi68  1  0.04417826  0.60546304  0.26757561  1
  Bi2+  Bi69  1  0.01577136  0.66594775  0.78282804  1
  Bi2+  Bi70  1  -0.01568728  0.85021692  0.29771147  1
  Bi2+  Bi71  1  -0.03100070  0.94590379  0.78275359  1
  Bi2+  Bi72  1  0.27107726  0.10562635  0.27683975  1
  Bi2+  Bi73  1  0.25740822  0.11993502  0.78419596  1
  Bi2+  Bi74  1  0.28254041  0.38043951  0.27821219  1
  Bi2+  Bi75  1  0.27574509  0.31452893  0.80928612  1
  Bi2+  Bi76  1  0.23264201  0.56577035  0.30904674  1
  Bi2+  Bi77  1  0.27058870  0.51179968  0.82176270  1
  Bi2+  Bi78  1  0.25262989  0.78110908  0.28951413  1
  Bi2+  Bi79  1  0.23995166  0.87914577  0.77788021  1
  Bi2+  Bi80  1  0.50546643  0.13216503  0.28856058  1
  Bi2+  Bi81  1  0.45513193  0.11285875  0.79589316  1
  Bi2+  Bi82  1  0.51703652  0.35682085  0.28964825  1
  Bi2+  Bi83  1  0.46324891  0.39346180  0.78439466  1
  Bi2+  Bi84  1  0.50202700  0.58008543  0.29439777  1
  Bi2+  Bi85  1  0.40345667  0.65701611  0.80908235  1
  Bi2+  Bi86  1  0.47479627  0.92936404  0.29008376  1
  Bi2+  Bi87  1  0.43622844  0.86725967  0.80614410  1
  Bi2+  Bi88  1  0.69972667  0.11643511  0.28413679  1
  Bi2+  Bi89  1  0.76133183  0.12877089  0.80478731  1
  Bi2+  Bi90  1  0.71815827  0.37384759  0.28746982  1
  Bi2+  Bi91  1  0.80354476  0.37864933  0.79801813  1
  Bi2+  Bi92  1  0.77646552  0.64399949  0.28107504  1
  Bi2+  Bi93  1  0.73668910  0.64029843  0.78762796  1
  Bi2+  Bi94  1  0.73105709  0.84655910  0.30252591  1
  Bi2+  Bi95  1  0.63102924  0.88627193  0.79920676  1
  Bi2+  Bi96  1  0.13219464  -0.06083800  0.24187205  1
  Bi2+  Bi97  1  0.11497598  -0.01712165  0.70286968  1
  Bi2+  Bi98  1  0.14175427  0.25032654  0.24063193  1
  Bi2+  Bi99  1  0.12550960  0.17454990  0.68507100  1
  Bi2+  Bi100  1  0.16478401  0.48495228  0.20642637  1
  Bi2+  Bi101  1  0.19740014  0.50504384  0.71702650  1
  Bi2+  Bi102  1  0.12505213  0.74895859  0.20300261  1
  Bi2+  Bi103  1  0.17085584  0.72374866  0.71487116  1
  Bi2+  Bi104  1  0.34980185  -0.02637108  0.19666883  1
  Bi2+  Bi105  1  0.38178906  -0.01597084  0.71493878  1
  Bi2+  Bi106  1  0.37675916  0.23811665  0.19279671  1
  Bi2+  Bi107  1  0.31697262  0.25611436  0.69618618  1
  Bi2+  Bi108  1  0.36871876  0.56107620  0.21104662  1
  Bi2+  Bi109  1  0.40210322  0.47121326  0.68215010  1
  Bi2+  Bi110  1  0.41776990  0.74947182  0.22676445  1
  Bi2+  Bi111  1  0.38454442  0.66775309  0.69456776  1
  Bi2+  Bi112  1  0.59250532  -0.00586829  0.21145214  1
  Bi2+  Bi113  1  0.60044538  0.01199423  0.71005693  1
  Bi2+  Bi114  1  0.62237974  0.25577546  0.21039390  1
  Bi2+  Bi115  1  0.50911872  0.23950510  0.70825735  1
  Bi2+  Bi116  1  0.63741051  0.51175656  0.21302916  1
  Bi2+  Bi117  1  0.59018352  0.48545366  0.71502016  1
  Bi2+  Bi118  1  0.61396344  0.71530487  0.22876798  1
  Bi2+  Bi119  1  0.55329426  0.77073968  0.71472478  1
  Bi2+  Bi120  1  0.84116417  -0.00759373  0.19738065  1
  Bi2+  Bi121  1  0.83430311  0.03683278  0.71625814  1
  Bi2+  Bi122  1  0.89325750  0.23202706  0.19817911  1
  Bi2+  Bi123  1  0.94818219  0.27303130  0.70260426  1
  Bi2+  Bi124  1  0.88899409  0.51020747  0.20310655  1
  Bi2+  Bi125  1  0.90115257  0.50905109  0.71997592  1
  Bi2+  Bi126  1  0.89703513  0.74471552  0.21422341  1
  Bi2+  Bi127  1  0.89433029  0.78555633  0.71334556  1
  S2-  S128  1  -0.02495462  0.08484894  0.16636833  1
  S2-  S129  1  -0.09618484  0.13033315  0.64318980  1
  S2-  S130  1  0.03015756  0.27712337  0.15741408  1
  S2-  S131  1  -0.00662170  0.41709599  0.65255787  1
  S2-  S132  1  0.02577774  0.51445657  0.14060406  1
  S2-  S133  1  -0.08708343  0.64245882  0.65750018  1
  S2-  S134  1  -0.09406791  0.87737868  0.14018703  1
  S2-  S135  1  0.05030703  0.83607998  0.66667846  1
  S2-  S136  1  0.26768808  0.12171598  0.15364369  1
  S2-  S137  1  0.26050378  0.00047004  0.63769872  1
  S2-  S138  1  0.36438550  0.37472182  0.13806497  1
  S2-  S139  1  0.21986716  0.37147340  0.64984630  1
  S2-  S140  1  0.23824757  0.62890744  0.15459765  1
  S2-  S141  1  0.13023013  0.60732966  0.64248155  1
  S2-  S142  1  0.21102600  0.88261836  0.15278436  1
  S2-  S143  1  0.27558026  0.77323588  0.63898524  1
  S2-  S144  1  0.50629472  0.16784350  0.14591368  1
  S2-  S145  1  0.47715872  0.09840257  0.64852413  1
  S2-  S146  1  0.61790129  0.38329272  0.13875283  1
  S2-  S147  1  0.60789477  0.35619936  0.65031641  1
  S2-  S148  1  0.61566028  0.62881912  0.13675398  1
  S2-  S149  1  0.58368644  0.62597840  0.65367147  1
  S2-  S150  1  0.47285217  0.90917526  0.14545466  1
  S2-  S151  1  0.59779847  0.88359723  0.64027312  1
  S2-  S152  1  0.77093220  0.13148609  0.14942906  1
  S2-  S153  1  0.70085670  0.12977950  0.67382266  1
  S2-  S154  1  0.84309638  0.37890835  0.14719399  1
  S2-  S155  1  0.77279056  0.47982886  0.66154676  1
  S2-  S156  1  0.86295806  0.63903765  0.13571742  1
  S2-  S157  1  0.74206176  0.73507961  0.69816193  1
  S2-  S158  1  0.70458059  0.89651872  0.16568056  1
  S2-  S159  1  0.85153678  0.90793748  0.64598683  1
  S2-  S160  1  0.18949313  0.02258154  0.34700346  1
  S2-  S161  1  0.01686829  0.04479763  0.86218407  1
  S2-  S162  1  0.13740280  0.29517730  0.34514753  1
  S2-  S163  1  0.11614334  0.30644678  0.85851759  1
  S2-  S164  1  0.00740360  0.52704687  0.35705514  1
  S2-  S165  1  0.11502888  0.60068993  0.84997923  1
  S2-  S166  1  0.11422094  0.77573969  0.35076814  1
  S2-  S167  1  0.03508061  0.81043749  0.83301048  1
  S2-  S168  1  0.36294162  -0.12772643  0.35875415  1
  S2-  S169  1  0.23468607  -0.00229802  0.85756316  1
  S2-  S170  1  0.36942718  0.14329378  0.35709334  1
  S2-  S171  1  0.47675230  0.25846084  0.85601784  1
  S2-  S172  1  0.38894277  0.38322521  0.36049181  1
  S2-  S173  1  0.48641099  0.51636381  0.86067879  1
  S2-  S174  1  0.37375368  0.63364453  0.36260726  1
  S2-  S175  1  0.26649551  0.75496634  0.84981577  1
  S2-  S176  1  0.73930543  -0.00376457  0.36019357  1
  S2-  S177  1  0.61025582  0.06044041  0.83930648  1
  S2-  S178  1  0.70509848  0.24366811  0.35861094  1
  S2-  S179  1  0.68498941  0.27263900  0.82819450  1
  S2-  S180  1  0.61062792  0.47427744  0.35106531  1
  S2-  S181  1  0.72424696  0.49857299  0.84945369  1
  S2-  S182  1  0.60547412  0.77660686  0.34652500  1
  S2-  S183  1  0.63265447  0.72391234  0.84502818  1
  S2-  S184  1  0.97954398  -0.01020396  0.36108695  1
  S2-  S185  1  0.81898736  -0.03462937  0.83811170  1
  S2-  S186  1  0.92974570  0.21138463  0.31800681  1
  S2-  S187  1  0.88640219  0.22795042  0.84404630  1
  S2-  S188  1  0.84991640  0.40563114  0.35223713  1
  S2-  S189  1  0.94343015  0.45666141  0.83250779  1
  S2-  S190  1  0.86143914  0.76024510  0.35379731  1
  S2-  S191  1  0.86365114  0.67080339  0.84469821  1
  S2-  S192  1  -0.00877295  0.13999875  0.45153694  1
  S2-  S193  1  -0.00040664  0.13677407  0.96461484  1
  S2-  S194  1  -0.00182809  0.37873130  0.45035687  1
  S2-  S195  1  -0.00736700  0.38254563  0.95960572  1
  S2-  S196  1  -0.00255106  0.63666937  0.46129113  1
  S2-  S197  1  -0.00328528  0.62913054  0.95446131  1
  S2-  S198  1  -0.00861151  0.87714121  0.46475913  1
  S2-  S199  1  0.00166985  0.87853754  0.95005118  1
  S2-  S200  1  0.24023870  0.13208725  0.45933679  1
  S2-  S201  1  0.24682788  0.13583533  0.94956023  1
  S2-  S202  1  0.24258581  0.38427149  0.45056860  1
  S2-  S203  1  0.25370182  0.38089937  0.95654107  1
  S2-  S204  1  0.24309318  0.63712168  0.45943656  1
  S2-  S205  1  0.24904438  0.62517709  0.95176417  1
  S2-  S206  1  0.24046532  0.88383474  0.45833630  1
  S2-  S207  1  0.24094149  0.87361540  0.95281257  1
  S2-  S208  1  0.50505915  0.13349818  0.44969131  1
  S2-  S209  1  0.49220938  0.12310323  0.94878194  1
  S2-  S210  1  0.50190075  0.38195841  0.46467086  1
  S2-  S211  1  0.49417347  0.37852993  0.95859928  1
  S2-  S212  1  0.50111377  0.63457841  0.45900972  1
  S2-  S213  1  0.49725835  0.63559115  0.95927777  1
  S2-  S214  1  0.50250082  0.88329942  0.45334331  1
  S2-  S215  1  0.49487048  0.88134040  0.94560082  1
  S2-  S216  1  0.74871837  0.13536574  0.46180173  1
  S2-  S217  1  0.74817645  0.13028991  0.94665669  1
  S2-  S218  1  0.74795274  0.38401065  0.46356699  1
  S2-  S219  1  0.74092058  0.37660338  0.95312741  1
  S2-  S220  1  0.74760590  0.63150697  0.44476788  1
  S2-  S221  1  0.74367189  0.63308988  0.95460350  1
  S2-  S222  1  0.74471083  0.87661289  0.46391970  1
  S2-  S223  1  0.75242528  0.88145440  0.95395286  1
  S2-  S224  1  0.12269004  0.00672038  0.04531081  1
  S2-  S225  1  0.11512758  0.00569022  0.54548065  1
  S2-  S226  1  0.13033416  0.26022868  0.05488760  1
  S2-  S227  1  0.12399486  0.25954701  0.54542818  1
  S2-  S228  1  0.12813794  0.49984972  0.03950582  1
  S2-  S229  1  0.12561609  0.50493792  0.53823623  1
  S2-  S230  1  0.11784309  0.74916333  0.04846948  1
  S2-  S231  1  0.11769795  0.76488003  0.55070989  1
  S2-  S232  1  0.36928821  0.00260283  0.03550107  1
  S2-  S233  1  0.37676595  0.00717457  0.53487619  1
  S2-  S234  1  0.37275108  0.25049920  0.03735573  1
  S2-  S235  1  0.37159457  0.25670859  0.54705839  1
  S2-  S236  1  0.37595324  0.51019542  0.04283107  1
  S2-  S237  1  0.37056008  0.51005236  0.54506779  1
  S2-  S238  1  0.37396572  0.75371036  0.04608783  1
  S2-  S239  1  0.37889445  0.76343763  0.53879176  1
  S2-  S240  1  0.62183105  0.00419593  0.04298257  1
  S2-  S241  1  0.62192810  0.01301909  0.54382502  1
  S2-  S242  1  0.61900746  0.24712180  0.03623405  1
  S2-  S243  1  0.62300085  0.25421524  0.54912520  1
  S2-  S244  1  0.61454993  0.50382356  0.03667446  1
  S2-  S245  1  0.62373266  0.51178481  0.55300528  1
  S2-  S246  1  0.62088496  0.76360189  0.04651042  1
  S2-  S247  1  0.62303564  0.75206819  0.54805867  1
  S2-  S248  1  0.87513406  0.01147611  0.03843492  1
  S2-  S249  1  0.86988911  0.00734671  0.54027849  1
  S2-  S250  1  0.86756690  0.25396083  0.04618049  1
  S2-  S251  1  0.87002754  0.26586927  0.54890635  1
  S2-  S252  1  0.86477536  0.50271602  0.03570941  1
  S2-  S253  1  0.86985217  0.51057829  0.54414358  1
  S2-  S254  1  0.87255274  0.75469282  0.03616964  1
  S2-  S255  1  0.86305203  0.75282024  0.55579431  1
