# generated using pymatgen
data_La6Ce7Pr13Nd19Sm19(BiS2)64
_symmetry_space_group_name_H-M   'P 1'
_cell_length_a   16.12534230
_cell_length_b   16.10419317
_cell_length_c   27.24574347
_cell_angle_alpha   89.89363000
_cell_angle_beta   90.16071862
_cell_angle_gamma   90.02469864
_symmetry_Int_Tables_number   1
_chemical_formula_structural   La6Ce7Pr13Nd19Sm19(BiS2)64
_chemical_formula_sum   'La6 Ce7 Pr13 Nd19 Sm19 Bi64 S128'
_cell_volume   7075.28731510
_cell_formula_units_Z   1
loop_
 _symmetry_equiv_pos_site_id
 _symmetry_equiv_pos_as_xyz
  1  'x, y, z'
loop_
 _atom_type_symbol
 _atom_type_oxidation_number
  La3+  3.0
  Ce3+  3.0
  Pr3+  3.0
  Nd3+  3.0
  Sm3+  3.0
  Bi2+  2.0
  S2-  -2.0
loop_
 _atom_site_type_symbol
 _atom_site_label
 _atom_site_symmetry_multiplicity
 _atom_site_fract_x
 _atom_site_fract_y
 _atom_site_fract_z
 _atom_site_occupancy
  La3+  La0  1  0.85838917  0.75014314  0.90392062  1
  La3+  La1  1  0.61512206  0.00595631  0.91844816  1
  La3+  La2  1  0.01518843  0.60566389  0.58694672  1
  La3+  La3  1  0.74653839  0.60812167  0.58740139  1
  La3+  La4  1  0.51161507  0.89153840  0.08531410  1
  La3+  La5  1  0.12052241  0.75056644  0.38810270  1
  Ce3+  Ce6  1  0.61870042  0.50787205  0.93941837  1
  Ce3+  Ce7  1  0.11765606  -0.00144023  0.93717214  1
  Ce3+  Ce8  1  0.12933846  0.48565532  0.44096220  1
  Ce3+  Ce9  1  0.01029686  0.35993999  0.56995882  1
  Ce3+  Ce10  1  0.25724063  0.10798951  0.55635776  1
  Ce3+  Ce11  1  0.63385569  -0.01965170  0.44345774  1
  Ce3+  Ce12  1  0.51197237  0.10759743  0.55765626  1
  Pr3+  Pr13  1  0.88547622  0.23210761  0.44653383  1
  Pr3+  Pr14  1  0.12275811  0.51711461  0.92722831  1
  Pr3+  Pr15  1  0.38183747  0.23108766  0.43942992  1
  Pr3+  Pr16  1  0.63033468  0.73036955  0.42237292  1
  Pr3+  Pr17  1  0.50591778  0.62269030  0.09585936  1
  Pr3+  Pr18  1  0.24470821  0.37738414  0.06038273  1
  Pr3+  Pr19  1  0.75777292  0.35847364  0.57199995  1
  Pr3+  Pr20  1  0.24279339  0.62360906  0.06995048  1
  Pr3+  Pr21  1  0.51008279  0.85349614  0.56263287  1
  Pr3+  Pr22  1  -0.00738221  0.62974846  0.05387608  1
  Pr3+  Pr23  1  0.12153504  0.75940513  0.93244313  1
  Pr3+  Pr24  1  0.76445624  0.10558914  0.57303279  1
  Pr3+  Pr25  1  0.12918608  0.23575963  0.43556215  1
  Nd3+  Nd26  1  0.37939573  0.73016260  0.42838281  1
  Nd3+  Nd27  1  0.63775128  0.23625310  0.43723347  1
  Nd3+  Nd28  1  0.74568371  0.62770155  0.05905398  1
  Nd3+  Nd29  1  0.63624738  0.48182515  0.43385235  1
  Nd3+  Nd30  1  0.24459120  0.12650898  0.05664679  1
  Nd3+  Nd31  1  0.74386280  0.37692079  0.05321647  1
  Nd3+  Nd32  1  0.60810416  0.25920621  0.92337267  1
  Nd3+  Nd33  1  0.25815504  0.60680800  0.56153003  1
  Nd3+  Nd34  1  0.50615234  0.60691999  0.55578072  1
  Nd3+  Nd35  1  0.86873035  0.49720256  0.92302310  1
  Nd3+  Nd36  1  0.50841692  0.35754591  0.55786488  1
  Nd3+  Nd37  1  0.36992661  0.50897947  0.94636272  1
  Nd3+  Nd38  1  0.25617812  0.85543602  0.55672506  1
  Nd3+  Nd39  1  0.49577257  0.37574735  0.06090982  1
  Nd3+  Nd40  1  0.61573317  0.75682537  0.94010074  1
  Nd3+  Nd41  1  0.37097688  -0.00477743  0.93949613  1
  Nd3+  Nd42  1  0.24578818  0.87649958  0.07176438  1
  Nd3+  Nd43  1  0.36174794  0.25600758  0.92885666  1
  Nd3+  Nd44  1  0.88515056  0.72682026  0.45240931  1
  Sm3+  Sm45  1  0.00849850  0.10838549  0.56632950  1
  Sm3+  Sm46  1  -0.00635594  0.12844679  0.05310895  1
  Sm3+  Sm47  1  0.88306144  0.48724417  0.45229778  1
  Sm3+  Sm48  1  0.74366947  0.13002205  0.05033399  1
  Sm3+  Sm49  1  0.75698200  0.85498516  0.55911961  1
  Sm3+  Sm50  1  -0.00812614  0.87721274  0.05124884  1
  Sm3+  Sm51  1  0.37554226  0.75543310  0.96266061  1
  Sm3+  Sm52  1  0.88264809  -0.01811497  0.44504238  1
  Sm3+  Sm53  1  0.86743911  0.25444876  0.93433607  1
  Sm3+  Sm54  1  0.12208057  0.25345979  0.93752919  1
  Sm3+  Sm55  1  0.00874438  0.85336721  0.56045016  1
  Sm3+  Sm56  1  0.38205337  -0.01938249  0.44397612  1
  Sm3+  Sm57  1  0.74416361  0.88012999  0.05032977  1
  Sm3+  Sm58  1  0.13170781  -0.01930614  0.44485042  1
  Sm3+  Sm59  1  0.86846202  0.00542716  0.94136732  1
  Sm3+  Sm60  1  -0.00595544  0.38011077  0.05114446  1
  Sm3+  Sm61  1  0.38152110  0.48403405  0.43743730  1
  Sm3+  Sm62  1  0.25726899  0.35599613  0.55531334  1
  Sm3+  Sm63  1  0.49433677  0.12988777  0.05251921  1
  Bi2+  Bi64  1  0.01313217  0.19192970  0.31936948  1
  Bi2+  Bi65  1  0.05347221  0.13817838  0.80462684  1
  Bi2+  Bi66  1  0.03792304  0.36471844  0.26611746  1
  Bi2+  Bi67  1  -0.00512108  0.33112667  0.78470832  1
  Bi2+  Bi68  1  -0.02315840  0.60351543  0.29908976  1
  Bi2+  Bi69  1  0.01901052  0.59905152  0.78598232  1
  Bi2+  Bi70  1  -0.09578850  0.86321512  0.28540956  1
  Bi2+  Bi71  1  0.04686342  0.93206613  0.78587099  1
  Bi2+  Bi72  1  0.28524170  0.16128564  0.30210847  1
  Bi2+  Bi73  1  0.25036792  0.11229560  0.80864101  1
  Bi2+  Bi74  1  0.24012063  0.35269335  0.28892100  1
  Bi2+  Bi75  1  0.25820383  0.38318864  0.78416498  1
  Bi2+  Bi76  1  0.24195711  0.61390290  0.29025143  1
  Bi2+  Bi77  1  0.25766956  0.63022074  0.77446825  1
  Bi2+  Bi78  1  0.25902160  0.90911955  0.28811078  1
  Bi2+  Bi79  1  0.27591938  0.82911395  0.79174197  1
  Bi2+  Bi80  1  0.57692962  0.13566574  0.28255864  1
  Bi2+  Bi81  1  0.43665253  0.16729227  0.77546733  1
  Bi2+  Bi82  1  0.52195901  0.35019629  0.28496675  1
  Bi2+  Bi83  1  0.44799845  0.42973520  0.79045265  1
  Bi2+  Bi84  1  0.49943181  0.61602372  0.29164619  1
  Bi2+  Bi85  1  0.48207730  0.62551981  0.78164834  1
  Bi2+  Bi86  1  0.50926789  0.88633780  0.29004927  1
  Bi2+  Bi87  1  0.51817042  0.86163567  0.81264272  1
  Bi2+  Bi88  1  0.76819157  0.10583474  0.30352286  1
  Bi2+  Bi89  1  0.82429836  0.20648105  0.80061602  1
  Bi2+  Bi90  1  0.75054255  0.32648772  0.27988999  1
  Bi2+  Bi91  1  0.67209049  0.35859154  0.78609007  1
  Bi2+  Bi92  1  0.76349848  0.59363458  0.28319791  1
  Bi2+  Bi93  1  0.73910195  0.62253190  0.78479244  1
  Bi2+  Bi94  1  0.72362772  0.79275756  0.29445389  1
  Bi2+  Bi95  1  0.77646402  0.88814797  0.79330348  1
  Bi2+  Bi96  1  0.12228943  0.05246617  0.27622950  1
  Bi2+  Bi97  1  0.11984591  0.04807401  0.70323655  1
  Bi2+  Bi98  1  0.15801300  0.21983659  0.21465205  1
  Bi2+  Bi99  1  0.04920670  0.23492629  0.68241604  1
  Bi2+  Bi100  1  0.09920285  0.51126200  0.18847559  1
  Bi2+  Bi101  1  0.13319036  0.41093242  0.70032058  1
  Bi2+  Bi102  1  0.09011018  0.76790577  0.18813016  1
  Bi2+  Bi103  1  0.13420064  0.75418996  0.69213742  1
  Bi2+  Bi104  1  0.41587940  0.08663205  0.21895037  1
  Bi2+  Bi105  1  0.33045807  -0.00936737  0.73807933  1
  Bi2+  Bi106  1  0.42855237  0.25389409  0.16468731  1
  Bi2+  Bi107  1  0.30214076  0.24549834  0.70613505  1
  Bi2+  Bi108  1  0.37411476  0.41810259  0.21651972  1
  Bi2+  Bi109  1  0.37295219  0.56019110  0.68933102  1
  Bi2+  Bi110  1  0.33636110  0.77343989  0.21257079  1
  Bi2+  Bi111  1  0.39537801  0.75216253  0.70460808  1
  Bi2+  Bi112  1  0.69902798  0.01281855  0.21260970  1
  Bi2+  Bi113  1  0.59144792  0.01675338  0.71062185  1
  Bi2+  Bi114  1  0.62178934  0.26509260  0.19606603  1
  Bi2+  Bi115  1  0.58343230  0.24587417  0.70939289  1
  Bi2+  Bi116  1  0.63013862  0.48703843  0.20905399  1
  Bi2+  Bi117  1  0.58859996  0.50882237  0.70901654  1
  Bi2+  Bi118  1  0.60802172  0.76024472  0.20352695  1
  Bi2+  Bi119  1  0.64359079  0.77865632  0.69608647  1
  Bi2+  Bi120  1  0.90040248  0.00178627  0.20389004  1
  Bi2+  Bi121  1  0.89930208  0.04811478  0.74164255  1
  Bi2+  Bi122  1  0.88094915  0.19252377  0.21300998  1
  Bi2+  Bi123  1  0.83779416  0.24765028  0.68599407  1
  Bi2+  Bi124  1  0.87188707  0.44611755  0.22125030  1
  Bi2+  Bi125  1  0.85235692  0.42651260  0.72202482  1
  Bi2+  Bi126  1  0.85501805  0.71903238  0.21263728  1
  Bi2+  Bi127  1  0.89256299  0.79563511  0.71049039  1
  S2-  S128  1  -0.00036036  0.12407808  0.15051933  1
  S2-  S129  1  -0.09921032  0.09133688  0.64286399  1
  S2-  S130  1  0.00285531  0.38906816  0.14886278  1
  S2-  S131  1  -0.00803279  0.45864539  0.65088854  1
  S2-  S132  1  -0.02451098  0.63217369  0.15505954  1
  S2-  S133  1  -0.01775548  0.66443177  0.68716757  1
  S2-  S134  1  -0.03409628  0.87341990  0.14798994  1
  S2-  S135  1  0.01454558  0.87479240  0.65808889  1
  S2-  S136  1  0.27550810  0.14430837  0.15356900  1
  S2-  S137  1  0.26735652  0.08686224  0.65360644  1
  S2-  S138  1  0.23689848  0.45376474  0.15004405  1
  S2-  S139  1  0.28985657  0.38775561  0.64989969  1
  S2-  S140  1  0.21700368  0.65881491  0.16709237  1
  S2-  S141  1  0.17016778  0.61500649  0.64800963  1
  S2-  S142  1  0.21250978  0.89031844  0.16950006  1
  S2-  S143  1  0.26699712  0.84100890  0.65563290  1
  S2-  S144  1  0.51226031  0.05077022  0.13852401  1
  S2-  S145  1  0.49093673  0.11501503  0.65485773  1
  S2-  S146  1  0.50367694  0.46748169  0.14723457  1
  S2-  S147  1  0.52282829  0.37291506  0.65673914  1
  S2-  S148  1  0.44459849  0.65641138  0.19254105  1
  S2-  S149  1  0.58896419  0.64410967  0.63969318  1
  S2-  S150  1  0.46082362  0.86492631  0.18513859  1
  S2-  S151  1  0.51183697  0.88151319  0.66258117  1
  S2-  S152  1  0.74046606  0.15134239  0.14817325  1
  S2-  S153  1  0.69163562  0.11800948  0.66731604  1
  S2-  S154  1  0.76119185  0.42455325  0.14813254  1
  S2-  S155  1  0.73876427  0.46407857  0.65236760  1
  S2-  S156  1  0.66070564  0.63210627  0.14738621  1
  S2-  S157  1  0.77825739  0.67404834  0.68491629  1
  S2-  S158  1  0.67525386  0.88754098  0.14019172  1
  S2-  S159  1  0.75155921  0.88426796  0.65752749  1
  S2-  S160  1  0.12482592  -0.07737908  0.35234643  1
  S2-  S161  1  0.15082081  -0.10915941  0.86179498  1
  S2-  S162  1  0.11640205  0.36031175  0.36380931  1
  S2-  S163  1  0.23028083  0.27144246  0.86009054  1
  S2-  S164  1  0.12179828  0.57728923  0.35663607  1
  S2-  S165  1  0.05955713  0.46831157  0.83645221  1
  S2-  S166  1  0.11247024  0.73464482  0.27941459  1
  S2-  S167  1  0.12867419  0.65375361  0.85110257  1
  S2-  S168  1  0.38291962  -0.03103370  0.34504411  1
  S2-  S169  1  0.46840015  -0.00514464  0.85716475  1
  S2-  S170  1  0.39653192  0.27851844  0.34358298  1
  S2-  S171  1  0.46790542  0.28096441  0.85091779  1
  S2-  S172  1  0.37515499  0.53790971  0.34270926  1
  S2-  S173  1  0.34341077  0.53769915  0.84923719  1
  S2-  S174  1  0.28279531  0.74549903  0.34293405  1
  S2-  S175  1  0.39646683  0.79243695  0.86594544  1
  S2-  S176  1  0.62797808  -0.07382748  0.35062866  1
  S2-  S177  1  0.64737441  -0.01798505  0.81329464  1
  S2-  S178  1  0.64337102  0.35366317  0.36196279  1
  S2-  S179  1  0.66433646  0.20309819  0.83423862  1
  S2-  S180  1  0.63127408  0.58801241  0.35320177  1
  S2-  S181  1  0.66798016  0.50507472  0.84535881  1
  S2-  S182  1  0.49833876  0.74773034  0.35145188  1
  S2-  S183  1  0.69086326  0.75198826  0.84771692  1
  S2-  S184  1  0.88429738  -0.00014913  0.34729798  1
  S2-  S185  1  0.85470559  0.00842950  0.84450798  1
  S2-  S186  1  0.85850655  0.25831943  0.34854516  1
  S2-  S187  1  0.86641263  0.35882241  0.85575056  1
  S2-  S188  1  0.87822378  0.50462674  0.35215796  1
  S2-  S189  1  0.87053242  0.60378174  0.84235345  1
  S2-  S190  1  0.94668720  0.73702602  0.35932823  1
  S2-  S191  1  0.93425910  0.80255758  0.81595791  1
  S2-  S192  1  0.00914893  0.10420382  0.45992402  1
  S2-  S193  1  -0.00571594  0.13095320  0.94761126  1
  S2-  S194  1  0.00336889  0.35950605  0.46359204  1
  S2-  S195  1  0.00033119  0.37511813  0.94861075  1
  S2-  S196  1  0.00598805  0.60484490  0.46830298  1
  S2-  S197  1  -0.01134068  0.63286767  0.94803810  1
  S2-  S198  1  0.00738876  0.85922467  0.45610059  1
  S2-  S199  1  -0.01453590  0.87686690  0.94731550  1
  S2-  S200  1  0.25523274  0.10518950  0.44891002  1
  S2-  S201  1  0.24253904  0.12150283  0.95161925  1
  S2-  S202  1  0.26082995  0.35840301  0.45189369  1
  S2-  S203  1  0.24031261  0.38783529  0.95520783  1
  S2-  S204  1  0.26204681  0.60563426  0.45611046  1
  S2-  S205  1  0.24868278  0.63653658  0.96168802  1
  S2-  S206  1  0.25663128  0.85923192  0.45167491  1
  S2-  S207  1  0.24920152  0.87658437  0.96558852  1
  S2-  S208  1  0.50977043  0.10796879  0.44853881  1
  S2-  S209  1  0.48958145  0.13213672  0.94901078  1
  S2-  S210  1  0.50518359  0.35844149  0.45306507  1
  S2-  S211  1  0.49209567  0.38406491  0.95522052  1
  S2-  S212  1  0.50469739  0.60656111  0.45235599  1
  S2-  S213  1  0.49478438  0.63166671  0.95101799  1
  S2-  S214  1  0.50413266  0.85920414  0.45644515  1
  S2-  S215  1  0.49799051  0.88004927  0.96808310  1
  S2-  S216  1  0.75872932  0.10706433  0.45852620  1
  S2-  S217  1  0.74419743  0.13127064  0.94612742  1
  S2-  S218  1  0.76263431  0.35882698  0.46396682  1
  S2-  S219  1  0.73884800  0.37498055  0.94911357  1
  S2-  S220  1  0.75754978  0.60884397  0.45753424  1
  S2-  S221  1  0.74533380  0.62998888  0.95360840  1
  S2-  S222  1  0.76156581  0.85622698  0.45293529  1
  S2-  S223  1  0.74494197  0.88262038  0.94640007  1
  S2-  S224  1  0.11676449  0.00202487  0.04636155  1
  S2-  S225  1  0.12979590  -0.01788086  0.55008186  1
  S2-  S226  1  0.11771926  0.25270657  0.04348137  1
  S2-  S227  1  0.13320978  0.23184809  0.54510618  1
  S2-  S228  1  0.11724581  0.50333197  0.03929998  1
  S2-  S229  1  0.13727047  0.47885532  0.54721540  1
  S2-  S230  1  0.11945640  0.75578796  0.04577738  1
  S2-  S231  1  0.13182526  0.73507995  0.55125603  1
  S2-  S232  1  0.36823427  0.00234665  0.04782256  1
  S2-  S233  1  0.38363292  -0.01810000  0.54889453  1
  S2-  S234  1  0.36707662  0.25232160  0.03649854  1
  S2-  S235  1  0.38300380  0.23307707  0.54726608  1
  S2-  S236  1  0.37320398  0.50651209  0.05138770  1
  S2-  S237  1  0.38284882  0.48085318  0.54307668  1
  S2-  S238  1  0.37595907  0.75168283  0.06586099  1
  S2-  S239  1  0.38249549  0.73181709  0.54506370  1
  S2-  S240  1  0.62604197  0.01014345  0.03253118  1
  S2-  S241  1  0.63605904  -0.01777006  0.54978262  1
  S2-  S242  1  0.61898661  0.25221862  0.03860752  1
  S2-  S243  1  0.63560726  0.23314219  0.54558642  1
  S2-  S244  1  0.61970669  0.50319943  0.04394894  1
  S2-  S245  1  0.62999883  0.48228008  0.54218028  1
  S2-  S246  1  0.62082628  0.75222803  0.04549415  1
  S2-  S247  1  0.63531142  0.73537790  0.53618612  1
  S2-  S248  1  0.86862120  0.00557310  0.04586995  1
  S2-  S249  1  0.88423516  -0.02390344  0.54772281  1
  S2-  S250  1  0.87130674  0.25390132  0.04085753  1
  S2-  S251  1  0.88594231  0.23487586  0.55129267  1
  S2-  S252  1  0.86962187  0.50064127  0.03704190  1
  S2-  S253  1  0.87767290  0.48862342  0.55441935  1
  S2-  S254  1  0.86543990  0.75632932  0.04516329  1
  S2-  S255  1  0.88031118  0.73186457  0.55860336  1
