# generated using pymatgen
data_La6Ce7Pr13Nd19Sm19(BiS2)64
_symmetry_space_group_name_H-M   'P 1'
_cell_length_a   16.07668155
_cell_length_b   16.04688923
_cell_length_c   27.43813266
_cell_angle_alpha   89.97651175
_cell_angle_beta   89.74825521
_cell_angle_gamma   90.03016966
_symmetry_Int_Tables_number   1
_chemical_formula_structural   La6Ce7Pr13Nd19Sm19(BiS2)64
_chemical_formula_sum   'La6 Ce7 Pr13 Nd19 Sm19 Bi64 S128'
_cell_volume   7078.43953021
_cell_formula_units_Z   1
loop_
 _symmetry_equiv_pos_site_id
 _symmetry_equiv_pos_as_xyz
  1  'x, y, z'
loop_
 _atom_type_symbol
 _atom_type_oxidation_number
  La3+  3.0
  Ce3+  3.0
  Pr3+  3.0
  Nd3+  3.0
  Sm3+  3.0
  Bi2+  2.0
  S2-  -2.0
loop_
 _atom_site_type_symbol
 _atom_site_label
 _atom_site_symmetry_multiplicity
 _atom_site_fract_x
 _atom_site_fract_y
 _atom_site_fract_z
 _atom_site_occupancy
  La3+  La0  1  0.75839855  0.61083725  0.10783328  1
  La3+  La1  1  0.27289841  0.85829006  0.07044071  1
  La3+  La2  1  0.38828741  0.74098230  0.90858340  1
  La3+  La3  1  0.87770144  0.23273085  0.39381364  1
  La3+  La4  1  0.39095762  -0.00519259  0.92074952  1
  La3+  La5  1  0.00201578  0.60856556  0.59832303  1
  Ce3+  Ce6  1  0.49567383  0.36655857  0.55469405  1
  Ce3+  Ce7  1  0.77336316  0.35961748  0.08040414  1
  Ce3+  Ce8  1  0.00037209  0.12161551  0.56211215  1
  Ce3+  Ce9  1  0.25000293  0.86269702  0.57339674  1
  Ce3+  Ce10  1  0.64271074  0.73737580  0.93045309  1
  Ce3+  Ce11  1  0.49093484  0.11972702  0.57106674  1
  Ce3+  Ce12  1  0.51582284  0.36670987  0.05354180  1
  Pr3+  Pr13  1  0.88924127  -0.00799563  0.93209655  1
  Pr3+  Pr14  1  0.13750155  0.73430349  0.92246841  1
  Pr3+  Pr15  1  0.37538071  0.49008560  0.43457420  1
  Pr3+  Pr16  1  0.75058860  0.61122923  0.57776041  1
  Pr3+  Pr17  1  0.76592520  0.85897687  0.05622126  1
  Pr3+  Pr18  1  0.87521686  0.74080613  0.44194861  1
  Pr3+  Pr19  1  0.88879709  0.73232182  0.91794143  1
  Pr3+  Pr20  1  0.88708123  0.48545605  0.93857202  1
  Pr3+  Pr21  1  0.76649384  0.11261208  0.06687067  1
  Pr3+  Pr22  1  0.14282074  0.23869293  0.93537323  1
  Pr3+  Pr23  1  0.12667772  0.74143863  0.44527128  1
  Pr3+  Pr24  1  0.87889306  0.49004530  0.43898825  1
  Pr3+  Pr25  1  0.01877730  0.36397476  0.06609863  1
  Nd3+  Nd26  1  0.62762979  -0.00405830  0.45029586  1
  Nd3+  Nd27  1  0.12604667  0.49139261  0.44418827  1
  Nd3+  Nd28  1  0.37452486  0.23954114  0.43409809  1
  Nd3+  Nd29  1  0.14066140  0.48377216  0.93105813  1
  Nd3+  Nd30  1  0.62835910  0.23988305  0.44799197  1
  Nd3+  Nd31  1  0.01985518  0.11214805  0.05570869  1
  Nd3+  Nd32  1  0.63018737  0.74324379  0.44219284  1
  Nd3+  Nd33  1  0.37438033  0.74234293  0.43705510  1
  Nd3+  Nd34  1  0.13006402  0.24247478  0.43688129  1
  Nd3+  Nd35  1  0.26484366  0.61630737  0.05549142  1
  Nd3+  Nd36  1  0.63122233  0.48900839  0.43844169  1
  Nd3+  Nd37  1  0.51725649  0.86176331  0.05004259  1
  Nd3+  Nd38  1  0.39090862  0.49049320  0.93283665  1
  Nd3+  Nd39  1  -0.00117049  0.86342082  0.55955016  1
  Nd3+  Nd40  1  0.37603270  -0.00844893  0.44425835  1
  Nd3+  Nd41  1  0.25582209  0.37189857  0.57398679  1
  Nd3+  Nd42  1  0.50141558  0.61750930  0.55195129  1
  Nd3+  Nd43  1  0.12556544  -0.00626791  0.44792849  1
  Nd3+  Nd44  1  0.27688357  0.11070101  0.06917234  1
  Sm3+  Sm45  1  0.87653538  -0.00246228  0.44679791  1
  Sm3+  Sm46  1  0.39168785  0.23984329  0.93252973  1
  Sm3+  Sm47  1  0.14689068  -0.01354633  0.94568764  1
  Sm3+  Sm48  1  0.01345728  0.85806114  0.04839540  1
  Sm3+  Sm49  1  0.75336538  0.36875212  0.55933727  1
  Sm3+  Sm50  1  0.75068278  0.11920790  0.56420752  1
  Sm3+  Sm51  1  0.26289737  0.36107415  0.06346088  1
  Sm3+  Sm52  1  0.00903837  0.61371479  0.05465132  1
  Sm3+  Sm53  1  0.51289852  0.11119103  0.05063415  1
  Sm3+  Sm54  1  0.25448277  0.61715945  0.56896282  1
  Sm3+  Sm55  1  0.64380255  0.24130850  0.94722397  1
  Sm3+  Sm56  1  0.64438207  -0.00916387  0.92971783  1
  Sm3+  Sm57  1  0.24913198  0.11114054  0.56582933  1
  Sm3+  Sm58  1  0.50045520  0.86689805  0.55920642  1
  Sm3+  Sm59  1  0.00177723  0.36764447  0.55797641  1
  Sm3+  Sm60  1  0.88866685  0.24483574  0.94085105  1
  Sm3+  Sm61  1  0.75238226  0.86598666  0.56032351  1
  Sm3+  Sm62  1  0.51707615  0.61395079  0.05349169  1
  Sm3+  Sm63  1  0.64519310  0.48930419  0.94559209  1
  Bi2+  Bi64  1  0.01977362  0.10368380  0.29272856  1
  Bi2+  Bi65  1  -0.04494258  0.17956807  0.82291338  1
  Bi2+  Bi66  1  0.10781953  0.37012984  0.28308845  1
  Bi2+  Bi67  1  -0.03511738  0.30288501  0.73383648  1
  Bi2+  Bi68  1  0.03919078  0.63211322  0.23694747  1
  Bi2+  Bi69  1  0.01591307  0.63875276  0.78726110  1
  Bi2+  Bi70  1  -0.02214754  0.92668290  0.24283632  1
  Bi2+  Bi71  1  -0.09780229  0.90242848  0.80785368  1
  Bi2+  Bi72  1  0.28306738  0.14402941  0.28569003  1
  Bi2+  Bi73  1  0.22194507  0.21273269  0.81064972  1
  Bi2+  Bi74  1  0.30639312  0.38925128  0.29054573  1
  Bi2+  Bi75  1  0.26212085  0.40862059  0.79630923  1
  Bi2+  Bi76  1  0.19277840  0.62841410  0.31275916  1
  Bi2+  Bi77  1  0.26097360  0.62697876  0.77911566  1
  Bi2+  Bi78  1  0.24480293  0.88636477  0.31938625  1
  Bi2+  Bi79  1  0.24547039  0.89257328  0.77701128  1
  Bi2+  Bi80  1  0.47175606  0.15785867  0.32527831  1
  Bi2+  Bi81  1  0.50864791  0.15030189  0.79625254  1
  Bi2+  Bi82  1  0.49854903  0.34458876  0.29645843  1
  Bi2+  Bi83  1  0.44763352  0.34703771  0.81249677  1
  Bi2+  Bi84  1  0.45203740  0.61643674  0.26494441  1
  Bi2+  Bi85  1  0.52334027  0.60838736  0.78761286  1
  Bi2+  Bi86  1  0.54903113  0.92773524  0.26691413  1
  Bi2+  Bi87  1  0.51002671  0.87664031  0.78288051  1
  Bi2+  Bi88  1  0.74213701  0.10063017  0.29101884  1
  Bi2+  Bi89  1  0.77205055  0.13327520  0.79522931  1
  Bi2+  Bi90  1  0.72866337  0.37314132  0.29936808  1
  Bi2+  Bi91  1  0.73985619  0.36872100  0.80877076  1
  Bi2+  Bi92  1  0.74205033  0.62108934  0.32159220  1
  Bi2+  Bi93  1  0.76412343  0.61294999  0.79254443  1
  Bi2+  Bi94  1  0.72740835  0.85574573  0.30153124  1
  Bi2+  Bi95  1  0.70326129  0.84875736  0.76112309  1
  Bi2+  Bi96  1  0.16511868  0.00957371  0.22948449  1
  Bi2+  Bi97  1  0.05387182  0.02046835  0.78787172  1
  Bi2+  Bi98  1  0.14384923  0.25253262  0.19890995  1
  Bi2+  Bi99  1  0.14108148  0.20350485  0.70803679  1
  Bi2+  Bi100  1  0.19232817  0.51586404  0.20835462  1
  Bi2+  Bi101  1  0.13428941  0.39783618  0.70325829  1
  Bi2+  Bi102  1  0.13609692  0.79239176  0.19845038  1
  Bi2+  Bi103  1  0.13494538  0.80173571  0.70461477  1
  Bi2+  Bi104  1  0.39101662  -0.02512655  0.20299552  1
  Bi2+  Bi105  1  0.38631566  0.00755745  0.69287095  1
  Bi2+  Bi106  1  0.40908088  0.22952991  0.20496438  1
  Bi2+  Bi107  1  0.34659168  0.26225794  0.72044968  1
  Bi2+  Bi108  1  0.38095200  0.50266257  0.18150584  1
  Bi2+  Bi109  1  0.38187690  0.49256254  0.70224242  1
  Bi2+  Bi110  1  0.31598317  0.75231847  0.23877464  1
  Bi2+  Bi111  1  0.39078826  0.74159968  0.71037621  1
  Bi2+  Bi112  1  0.65285480  -0.07758732  0.16994294  1
  Bi2+  Bi113  1  0.64743392  0.02945846  0.72484924  1
  Bi2+  Bi114  1  0.59582986  0.19502786  0.23884611  1
  Bi2+  Bi115  1  0.57737765  0.30050640  0.72662986  1
  Bi2+  Bi116  1  0.57269533  0.48756247  0.20991612  1
  Bi2+  Bi117  1  0.60792865  0.49157846  0.70659677  1
  Bi2+  Bi118  1  0.53489422  0.76357327  0.20155611  1
  Bi2+  Bi119  1  0.64613741  0.68239571  0.70417952  1
  Bi2+  Bi120  1  0.81508922  0.01308912  0.19873907  1
  Bi2+  Bi121  1  0.90139129  0.03110923  0.71632734  1
  Bi2+  Bi122  1  0.89220446  0.22277902  0.20025716  1
  Bi2+  Bi123  1  0.77346810  0.27264095  0.70589654  1
  Bi2+  Bi124  1  0.87209066  0.48876028  0.21516888  1
  Bi2+  Bi125  1  0.86100720  0.49190546  0.71417590  1
  Bi2+  Bi126  1  0.88523985  0.75137304  0.21096351  1
  Bi2+  Bi127  1  0.87499826  0.78563773  0.71178014  1
  S2-  S128  1  0.03064269  0.14405351  0.15280143  1
  S2-  S129  1  0.01671567  0.11126928  0.65849658  1
  S2-  S130  1  -0.07974961  0.36752029  0.15123556  1
  S2-  S131  1  -0.00733978  0.44675798  0.64600795  1
  S2-  S132  1  -0.06550830  0.60766301  0.14555128  1
  S2-  S133  1  0.07881881  0.65185991  0.68837339  1
  S2-  S134  1  -0.00578731  0.85470259  0.14642258  1
  S2-  S135  1  -0.00335282  0.86638692  0.65817280  1
  S2-  S136  1  0.27744832  0.24046404  0.13815245  1
  S2-  S137  1  0.35036989  0.14622499  0.64111075  1
  S2-  S138  1  0.14290663  0.39213286  0.13873784  1
  S2-  S139  1  0.24186214  0.50184283  0.64422020  1
  S2-  S140  1  0.25333548  0.71901068  0.13849471  1
  S2-  S141  1  0.26390640  0.73679176  0.64283637  1
  S2-  S142  1  0.25130720  0.98924772  0.14373494  1
  S2-  S143  1  0.24161417  0.96557070  0.65436935  1
  S2-  S144  1  0.44318609  0.09918337  0.13996214  1
  S2-  S145  1  0.53726464  0.09103594  0.66516686  1
  S2-  S146  1  0.49283965  0.36773005  0.14994526  1
  S2-  S147  1  0.40437212  0.36076856  0.63760460  1
  S2-  S148  1  0.58646848  0.62890687  0.14415392  1
  S2-  S149  1  0.45347248  0.61619394  0.64703662  1
  S2-  S150  1  0.42542057  0.85633188  0.13597522  1
  S2-  S151  1  0.47084740  0.86606835  0.65638534  1
  S2-  S152  1  0.75801631  0.22110771  0.14621625  1
  S2-  S153  1  0.76788485  0.10462561  0.66100416  1
  S2-  S154  1  0.73406805  0.45691575  0.16065526  1
  S2-  S155  1  0.74356572  0.46398968  0.64149586  1
  S2-  S156  1  0.76702006  0.62505401  0.22690912  1
  S2-  S157  1  0.86094261  0.63764296  0.65689515  1
  S2-  S158  1  0.76460359  0.77759691  0.14526884  1
  S2-  S159  1  0.74565002  0.85937301  0.65652465  1
  S2-  S160  1  0.12392171  0.01453665  0.35030866  1
  S2-  S161  1  0.18865590  -0.00765547  0.85035945  1
  S2-  S162  1  0.03973605  0.24240708  0.35093215  1
  S2-  S163  1  0.13457775  0.35417510  0.85822696  1
  S2-  S164  1  0.08662957  0.49512139  0.34693764  1
  S2-  S165  1  0.13362066  0.58223103  0.84699356  1
  S2-  S166  1  0.12049792  0.76945973  0.34627195  1
  S2-  S167  1  0.01559552  0.76903161  0.84457435  1
  S2-  S168  1  0.36233859  0.01701805  0.34659578  1
  S2-  S169  1  0.38017153  -0.11422539  0.84120718  1
  S2-  S170  1  0.25584215  0.25484387  0.36135410  1
  S2-  S171  1  0.36736752  0.13639213  0.85337666  1
  S2-  S172  1  0.34649754  0.53951006  0.34051683  1
  S2-  S173  1  0.38563728  0.58627834  0.84835189  1
  S2-  S174  1  0.36787630  0.78738487  0.34183615  1
  S2-  S175  1  0.24385411  0.75197576  0.84018777  1
  S2-  S176  1  0.64245811  -0.00836573  0.35204152  1
  S2-  S177  1  0.54578099  0.00504375  0.84759830  1
  S2-  S178  1  0.70569133  0.23673005  0.35927138  1
  S2-  S179  1  0.64776022  0.22914488  0.84945852  1
  S2-  S180  1  0.61824178  0.50081017  0.34059291  1
  S2-  S181  1  0.64603494  0.50469423  0.84605318  1
  S2-  S182  1  0.61894124  0.74881942  0.34359807  1
  S2-  S183  1  0.53716902  0.74232965  0.84888736  1
  S2-  S184  1  0.87764587  0.06529629  0.35656223  1
  S2-  S185  1  0.76962853  -0.00374098  0.85816224  1
  S2-  S186  1  0.86717849  0.29529360  0.29223540  1
  S2-  S187  1  0.87316959  0.35791287  0.86421845  1
  S2-  S188  1  0.84387715  0.49117416  0.34031692  1
  S2-  S189  1  0.89999962  0.58308290  0.85113168  1
  S2-  S190  1  0.85103251  0.76051086  0.34317918  1
  S2-  S191  1  0.75253568  0.74684751  0.85072226  1
  S2-  S192  1  0.00031913  0.12089282  0.45810541  1
  S2-  S193  1  0.01772173  0.11289357  0.95028710  1
  S2-  S194  1  0.00028195  0.36305297  0.45465159  1
  S2-  S195  1  0.01572322  0.36106971  0.96019156  1
  S2-  S196  1  0.00089600  0.61774385  0.44811170  1
  S2-  S197  1  0.01574284  0.61031174  0.95324903  1
  S2-  S198  1  -0.00217140  0.87018488  0.45324805  1
  S2-  S199  1  0.01655663  0.86937957  0.94691025  1
  S2-  S200  1  0.25166374  0.11497015  0.46096555  1
  S2-  S201  1  0.26508386  0.11566735  0.96008758  1
  S2-  S202  1  0.25126320  0.37018717  0.46192464  1
  S2-  S203  1  0.27153846  0.36313227  0.95584945  1
  S2-  S204  1  0.25270427  0.61691834  0.45864167  1
  S2-  S205  1  0.26471357  0.61145857  0.95175319  1
  S2-  S206  1  0.25132854  0.86791270  0.46171540  1
  S2-  S207  1  0.26323595  0.86064023  0.95440560  1
  S2-  S208  1  0.50068388  0.11737475  0.46206505  1
  S2-  S209  1  0.51952473  0.12018142  0.95007451  1
  S2-  S210  1  0.50202844  0.36486942  0.44808504  1
  S2-  S211  1  0.51684444  0.36429921  0.94816916  1
  S2-  S212  1  0.50304947  0.61772302  0.44603547  1
  S2-  S213  1  0.51814111  0.60891450  0.95117084  1
  S2-  S214  1  0.50330555  0.86727569  0.45375796  1
  S2-  S215  1  0.51931888  0.86774187  0.94759954  1
  S2-  S216  1  0.75556057  0.11946857  0.46165426  1
  S2-  S217  1  0.76684597  0.11988287  0.95918916  1
  S2-  S218  1  0.75544291  0.36329551  0.45663433  1
  S2-  S219  1  0.76206608  0.36149543  0.96785447  1
  S2-  S220  1  0.75014182  0.61555366  0.46051575  1
  S2-  S221  1  0.76282540  0.61111483  0.95000555  1
  S2-  S222  1  0.75311984  0.87161790  0.45606646  1
  S2-  S223  1  0.76600937  0.86553291  0.95232366  1
  S2-  S224  1  0.13816191  -0.01703870  0.04714556  1
  S2-  S225  1  0.12192310  -0.00842659  0.55187484  1
  S2-  S226  1  0.14324915  0.23600479  0.04101039  1
  S2-  S227  1  0.13013972  0.24513713  0.55173203  1
  S2-  S228  1  0.14079021  0.49408330  0.03829016  1
  S2-  S229  1  0.12375652  0.49470346  0.54760215  1
  S2-  S230  1  0.13437335  0.73622471  0.03739389  1
  S2-  S231  1  0.11818582  0.73368976  0.55146846  1
  S2-  S232  1  0.39308119  -0.01236062  0.03245675  1
  S2-  S233  1  0.37571599  -0.01162963  0.54855150  1
  S2-  S234  1  0.39454967  0.24098605  0.03629967  1
  S2-  S235  1  0.37058527  0.24313476  0.53733722  1
  S2-  S236  1  0.38788452  0.48925013  0.04056049  1
  S2-  S237  1  0.37614820  0.49569826  0.53996039  1
  S2-  S238  1  0.39502162  0.73270783  0.03548658  1
  S2-  S239  1  0.37986118  0.74312625  0.54205665  1
  S2-  S240  1  0.64070239  -0.00838783  0.03830346  1
  S2-  S241  1  0.62716163  -0.00852399  0.55526503  1
  S2-  S242  1  0.63465205  0.23619115  0.05031600  1
  S2-  S243  1  0.62636171  0.24419349  0.55527547  1
  S2-  S244  1  0.64174750  0.49025544  0.04880601  1
  S2-  S245  1  0.62319714  0.49012184  0.54393819  1
  S2-  S246  1  0.63984825  0.73595310  0.03866989  1
  S2-  S247  1  0.62757170  0.74294726  0.54945411  1
  S2-  S248  1  0.89207428  -0.01176299  0.04303231  1
  S2-  S249  1  0.87403691  -0.00729852  0.55202951  1
  S2-  S250  1  0.89448807  0.23445266  0.04351935  1
  S2-  S251  1  0.87458558  0.24655985  0.56316888  1
  S2-  S252  1  0.88781689  0.48964020  0.04591400  1
  S2-  S253  1  0.87871630  0.49310381  0.54463529  1
  S2-  S254  1  0.89168292  0.73697310  0.03691782  1
  S2-  S255  1  0.87417573  0.73936817  0.54871243  1
