# generated using pymatgen
data_La6Ce7Pr13Nd19Sm19(BiS2)64
_symmetry_space_group_name_H-M   'P 1'
_cell_length_a   16.05445838
_cell_length_b   16.01778310
_cell_length_c   27.45693839
_cell_angle_alpha   89.32944880
_cell_angle_beta   90.06935668
_cell_angle_gamma   90.18321399
_symmetry_Int_Tables_number   1
_chemical_formula_structural   La6Ce7Pr13Nd19Sm19(BiS2)64
_chemical_formula_sum   'La6 Ce7 Pr13 Nd19 Sm19 Bi64 S128'
_cell_volume   7060.21480215
_cell_formula_units_Z   1
loop_
 _symmetry_equiv_pos_site_id
 _symmetry_equiv_pos_as_xyz
  1  'x, y, z'
loop_
 _atom_type_symbol
 _atom_type_oxidation_number
  La3+  3.0
  Ce3+  3.0
  Pr3+  3.0
  Nd3+  3.0
  Sm3+  3.0
  Bi2+  2.0
  S2-  -2.0
loop_
 _atom_site_type_symbol
 _atom_site_label
 _atom_site_symmetry_multiplicity
 _atom_site_fract_x
 _atom_site_fract_y
 _atom_site_fract_z
 _atom_site_occupancy
  La3+  La0  1  0.37499441  0.27215828  0.94447632  1
  La3+  La1  1  0.50834584  0.38527470  0.07954605  1
  La3+  La2  1  0.37571633  0.51960951  0.38222957  1
  La3+  La3  1  -0.00722905  0.37862311  0.57971752  1
  La3+  La4  1  0.73740266  0.87349055  0.61730458  1
  La3+  La5  1  0.49134789  0.88229626  0.57603932  1
  Ce3+  Ce6  1  0.74912402  0.63691558  0.04968252  1
  Ce3+  Ce7  1  0.36259712  0.75726675  0.42824622  1
  Ce3+  Ce8  1  0.24809893  0.87637210  0.56197147  1
  Ce3+  Ce9  1  0.37872863  0.25492782  0.42309692  1
  Ce3+  Ce10  1  0.62178793  0.01881125  0.93855982  1
  Ce3+  Ce11  1  0.61742594  0.50397713  0.44328381  1
  Ce3+  Ce12  1  0.50140366  0.13274372  0.56114540  1
  Pr3+  Pr13  1  0.25158297  0.88495327  0.05937701  1
  Pr3+  Pr14  1  0.24831327  0.62626102  0.55547387  1
  Pr3+  Pr15  1  -0.00195759  0.62876488  0.56547381  1
  Pr3+  Pr16  1  0.12838739  0.76487841  0.92815489  1
  Pr3+  Pr17  1  0.75340585  0.13443046  0.06670864  1
  Pr3+  Pr18  1  0.00234451  0.88508693  0.05838532  1
  Pr3+  Pr19  1  0.12357394  0.50221188  0.43200262  1
  Pr3+  Pr20  1  0.87312627  0.00052356  0.43713416  1
  Pr3+  Pr21  1  0.87647751  0.51613770  0.93525338  1
  Pr3+  Pr22  1  0.87401893  0.01658400  0.93152853  1
  Pr3+  Pr23  1  0.62376364  0.26349834  0.93582271  1
  Pr3+  Pr24  1  0.25069788  0.12916360  0.07192053  1
  Pr3+  Pr25  1  0.24404160  0.63089511  0.08079619  1
  Nd3+  Nd26  1  0.25070903  0.13285023  0.56373722  1
  Nd3+  Nd27  1  0.50478257  0.13351452  0.07864979  1
  Nd3+  Nd28  1  0.75042795  0.12185373  0.56001692  1
  Nd3+  Nd29  1  0.62016052  0.51202820  0.93219952  1
  Nd3+  Nd30  1  0.87017645  0.25689798  0.43076018  1
  Nd3+  Nd31  1  0.50195691  0.88368519  0.06841231  1
  Nd3+  Nd32  1  0.12854136  0.26280661  0.93590433  1
  Nd3+  Nd33  1  0.12652081  0.01717517  0.93317780  1
  Nd3+  Nd34  1  0.12170864  0.00517075  0.44589163  1
  Nd3+  Nd35  1  0.12321176  0.26004653  0.44275696  1
  Nd3+  Nd36  1  0.24313284  0.38136820  0.07881182  1
  Nd3+  Nd37  1  0.61717938  0.75394246  0.44220071  1
  Nd3+  Nd38  1  0.87514121  0.50544867  0.43640025  1
  Nd3+  Nd39  1  0.74851760  0.37707647  0.56004286  1
  Nd3+  Nd40  1  0.62260241  -0.00181342  0.44389596  1
  Nd3+  Nd41  1  0.11633368  0.75578187  0.43220581  1
  Nd3+  Nd42  1  0.62624052  0.25307611  0.43135372  1
  Nd3+  Nd43  1  0.49460748  0.62930748  0.55547873  1
  Nd3+  Nd44  1  0.37140416  0.00987940  0.43698290  1
  Sm3+  Sm45  1  0.00422958  0.38746024  0.05288756  1
  Sm3+  Sm46  1  0.75064236  0.38764640  0.05616083  1
  Sm3+  Sm47  1  0.75074914  0.88587075  0.05493070  1
  Sm3+  Sm48  1  0.87492112  0.26510826  0.94301123  1
  Sm3+  Sm49  1  0.37639700  0.76578062  0.94464659  1
  Sm3+  Sm50  1  0.50383621  0.63646750  0.06357476  1
  Sm3+  Sm51  1  -0.00444038  0.12799939  0.55174166  1
  Sm3+  Sm52  1  0.49618131  0.37154452  0.55697921  1
  Sm3+  Sm53  1  0.37396633  0.51544009  0.95091565  1
  Sm3+  Sm54  1  0.37660221  0.02394410  0.93652163  1
  Sm3+  Sm55  1  0.13157044  0.51251867  0.93297829  1
  Sm3+  Sm56  1  0.25055676  0.37743833  0.55531958  1
  Sm3+  Sm57  1  -0.00641434  0.87831752  0.56605341  1
  Sm3+  Sm58  1  -0.00241891  0.13417375  0.06258427  1
  Sm3+  Sm59  1  0.61923916  0.77260467  0.93004358  1
  Sm3+  Sm60  1  0.87509932  0.76506073  0.94111692  1
  Sm3+  Sm61  1  0.00242702  0.63600351  0.05367383  1
  Sm3+  Sm62  1  0.87373727  0.75290827  0.44384426  1
  Sm3+  Sm63  1  0.74520030  0.63202942  0.55848258  1
  Bi2+  Bi64  1  -0.01608417  0.14379624  0.28421216  1
  Bi2+  Bi65  1  0.04716015  0.09299241  0.74936979  1
  Bi2+  Bi66  1  -0.03255021  0.33979732  0.31160152  1
  Bi2+  Bi67  1  0.05643236  0.37729490  0.77323738  1
  Bi2+  Bi68  1  -0.00945576  0.62055373  0.29153478  1
  Bi2+  Bi69  1  0.03236122  0.57228754  0.79597617  1
  Bi2+  Bi70  1  -0.03656452  0.88464555  0.29866515  1
  Bi2+  Bi71  1  0.01690830  0.82458033  0.78507860  1
  Bi2+  Bi72  1  0.20864995  0.16079791  0.29178312  1
  Bi2+  Bi73  1  0.20972905  0.03848812  0.80585389  1
  Bi2+  Bi74  1  0.24769722  0.42352083  0.26890712  1
  Bi2+  Bi75  1  0.29160627  0.30108913  0.80847773  1
  Bi2+  Bi76  1  0.22543235  0.68034608  0.27010659  1
  Bi2+  Bi77  1  0.36441148  0.55722325  0.80771991  1
  Bi2+  Bi78  1  0.19969462  0.91436941  0.28362731  1
  Bi2+  Bi79  1  0.21122706  0.78433262  0.76293786  1
  Bi2+  Bi80  1  0.51739295  0.11930333  0.28017580  1
  Bi2+  Bi81  1  0.44606634  0.08415576  0.78654589  1
  Bi2+  Bi82  1  0.50088072  0.37369091  0.28770469  1
  Bi2+  Bi83  1  0.51134008  0.29406291  0.78565964  1
  Bi2+  Bi84  1  0.60778561  0.62899497  0.28655654  1
  Bi2+  Bi85  1  0.54857526  0.50146992  0.78668609  1
  Bi2+  Bi86  1  0.38911052  0.96038431  0.31077251  1
  Bi2+  Bi87  1  0.49168223  0.82589376  0.80658075  1
  Bi2+  Bi88  1  0.78490340  0.13661475  0.27812641  1
  Bi2+  Bi89  1  0.74800903  0.13578359  0.79890605  1
  Bi2+  Bi90  1  0.77084939  0.39364994  0.29751755  1
  Bi2+  Bi91  1  0.77526606  0.36524222  0.80233396  1
  Bi2+  Bi92  1  0.79518386  0.58762971  0.31960039  1
  Bi2+  Bi93  1  0.77896214  0.62610501  0.74117319  1
  Bi2+  Bi94  1  0.69910883  0.89655214  0.29940885  1
  Bi2+  Bi95  1  0.75394471  0.84561693  0.81512039  1
  Bi2+  Bi96  1  0.10507635  0.04472303  0.20988230  1
  Bi2+  Bi97  1  0.10666139  -0.07816018  0.69638490  1
  Bi2+  Bi98  1  0.09172638  0.24196271  0.19882968  1
  Bi2+  Bi99  1  0.19967893  0.23313508  0.71340440  1
  Bi2+  Bi100  1  0.07464267  0.50181406  0.21413793  1
  Bi2+  Bi101  1  0.20506649  0.50512494  0.74808110  1
  Bi2+  Bi102  1  0.01269516  0.76758880  0.21006638  1
  Bi2+  Bi103  1  0.14194852  0.73752982  0.65488558  1
  Bi2+  Bi104  1  0.33860229  0.04462611  0.20710988  1
  Bi2+  Bi105  1  0.31163261  -0.05226386  0.72292048  1
  Bi2+  Bi106  1  0.35654947  0.23692660  0.22526829  1
  Bi2+  Bi107  1  0.40652604  0.17776460  0.68692680  1
  Bi2+  Bi108  1  0.38775611  0.61040470  0.18995952  1
  Bi2+  Bi109  1  0.39249809  0.41405183  0.72396985  1
  Bi2+  Bi110  1  0.38874427  0.78726617  0.26028804  1
  Bi2+  Bi111  1  0.34902445  0.69879046  0.69773192  1
  Bi2+  Bi112  1  0.60322163  -0.01171873  0.21100352  1
  Bi2+  Bi113  1  0.59809238  -0.00203084  0.71486223  1
  Bi2+  Bi114  1  0.62640212  0.24509631  0.21223059  1
  Bi2+  Bi115  1  0.66761879  0.26350338  0.72227098  1
  Bi2+  Bi116  1  0.65839472  0.50440525  0.20371620  1
  Bi2+  Bi117  1  0.66947596  0.46101463  0.69850990  1
  Bi2+  Bi118  1  0.63994894  0.74917148  0.19714269  1
  Bi2+  Bi119  1  0.60079122  0.69879318  0.71510225  1
  Bi2+  Bi120  1  0.84267880  0.00518444  0.19779478  1
  Bi2+  Bi121  1  0.87048678  0.00642158  0.70901433  1
  Bi2+  Bi122  1  0.88223396  0.27944890  0.21058059  1
  Bi2+  Bi123  1  0.93808810  0.24871643  0.71508426  1
  Bi2+  Bi124  1  0.87870332  0.48338796  0.21360523  1
  Bi2+  Bi125  1  0.86673742  0.47082622  0.70175921  1
  Bi2+  Bi126  1  0.82586419  0.75480522  0.25374301  1
  Bi2+  Bi127  1  0.97225766  0.67243876  0.70225462  1
  S2-  S128  1  -0.11632336  0.13109778  0.13925392  1
  S2-  S129  1  -0.02738832  0.11743116  0.64885414  1
  S2-  S130  1  0.08293100  0.38716807  0.13949338  1
  S2-  S131  1  0.07555177  0.32682108  0.66970970  1
  S2-  S132  1  0.05516095  0.63809345  0.14609932  1
  S2-  S133  1  -0.00155992  0.52153430  0.64531551  1
  S2-  S134  1  -0.02475121  0.91895746  0.15546566  1
  S2-  S135  1  -0.09362184  0.88260736  0.65076048  1
  S2-  S136  1  0.24552186  0.24617183  0.14795737  1
  S2-  S137  1  0.25389674  0.08599075  0.65982929  1
  S2-  S138  1  0.27097088  0.50190601  0.15220392  1
  S2-  S139  1  0.29947974  0.32638682  0.64664261  1
  S2-  S140  1  0.26384280  0.72612404  0.16763651  1
  S2-  S141  1  0.24509488  0.58141376  0.65497433  1
  S2-  S142  1  0.22488496  0.98522325  0.14005578  1
  S2-  S143  1  0.35221724  0.85355495  0.64092157  1
  S2-  S144  1  0.48632860  0.25914483  0.15369333  1
  S2-  S145  1  0.49304600  0.03895843  0.64537438  1
  S2-  S146  1  0.51633683  0.52459693  0.14398924  1
  S2-  S147  1  0.51928416  0.25893381  0.63289444  1
  S2-  S148  1  0.50672876  0.75493679  0.14035592  1
  S2-  S149  1  0.49021358  0.62922955  0.65651803  1
  S2-  S150  1  0.47787245  0.99362018  0.14593842  1
  S2-  S151  1  0.57799743  0.84944707  0.66352894  1
  S2-  S152  1  0.64834708  0.12432017  0.14804348  1
  S2-  S153  1  0.73470034  0.05424195  0.65176570  1
  S2-  S154  1  0.67597083  0.37314683  0.14376841  1
  S2-  S155  1  0.84758260  0.33223714  0.63869773  1
  S2-  S156  1  0.74296694  0.63283525  0.14604363  1
  S2-  S157  1  0.74184286  0.69691365  0.64940018  1
  S2-  S158  1  0.72659439  0.89432724  0.15192370  1
  S2-  S159  1  0.74492339  0.88842568  0.72519249  1
  S2-  S160  1  0.08893663  -0.02271499  0.35050368  1
  S2-  S161  1  0.12590334  -0.10102717  0.85638437  1
  S2-  S162  1  0.12954908  0.28557458  0.34389026  1
  S2-  S163  1  0.11952603  0.14289184  0.86095748  1
  S2-  S164  1  0.21088789  0.52676996  0.33952992  1
  S2-  S165  1  0.14151072  0.38439534  0.86134685  1
  S2-  S166  1  0.21106633  0.77214702  0.34797903  1
  S2-  S167  1  0.14140599  0.63367580  0.85897322  1
  S2-  S168  1  0.34189136  0.11953108  0.35876352  1
  S2-  S169  1  0.39133531  -0.05208791  0.84670667  1
  S2-  S170  1  0.35206232  0.35721965  0.34237449  1
  S2-  S171  1  0.36482454  0.16412847  0.86242891  1
  S2-  S172  1  0.39173172  0.50764005  0.26909732  1
  S2-  S173  1  0.37099118  0.41200906  0.87050990  1
  S2-  S174  1  0.39750013  0.68578265  0.34104558  1
  S2-  S175  1  0.38690414  0.72363463  0.84924527  1
  S2-  S176  1  0.60849985  0.01933479  0.34470482  1
  S2-  S177  1  0.61294973  -0.08843226  0.86119952  1
  S2-  S178  1  0.52372531  0.25167548  0.35069047  1
  S2-  S179  1  0.62555473  0.13798643  0.86262233  1
  S2-  S180  1  0.55193052  0.49747913  0.35312437  1
  S2-  S181  1  0.61748936  0.39006061  0.86031631  1
  S2-  S182  1  0.60853759  0.77657391  0.34284826  1
  S2-  S183  1  0.62430637  0.71877441  0.83415388  1
  S2-  S184  1  0.83806223  -0.00648784  0.33879992  1
  S2-  S185  1  0.84138284  -0.00624255  0.83371845  1
  S2-  S186  1  0.75145526  0.24647884  0.35599775  1
  S2-  S187  1  0.86852586  0.23850460  0.84673216  1
  S2-  S188  1  0.99226819  0.49178868  0.36178342  1
  S2-  S189  1  0.87153530  0.49039551  0.83679558  1
  S2-  S190  1  0.98021675  0.75749866  0.36439061  1
  S2-  S191  1  0.89672386  0.75296258  0.84437910  1
  S2-  S192  1  -0.00367348  0.13217103  0.44659055  1
  S2-  S193  1  -0.00540342  0.14085176  0.95915967  1
  S2-  S194  1  -0.00699753  0.37612878  0.46281817  1
  S2-  S195  1  -0.00098528  0.38965657  0.95064537  1
  S2-  S196  1  -0.00229892  0.62775348  0.46030344  1
  S2-  S197  1  -0.00026632  0.64069470  0.95111934  1
  S2-  S198  1  -0.00379086  0.87921341  0.46217352  1
  S2-  S199  1  -0.00283191  0.88824919  0.95237505  1
  S2-  S200  1  0.24061983  0.13187958  0.45828668  1
  S2-  S201  1  0.25001452  0.13769793  0.96443030  1
  S2-  S202  1  0.25012853  0.38109744  0.45271458  1
  S2-  S203  1  0.24711655  0.39180572  0.97050141  1
  S2-  S204  1  0.24619714  0.62872291  0.44985274  1
  S2-  S205  1  0.25435958  0.63969908  0.96128590  1
  S2-  S206  1  0.24498761  0.88356897  0.45484522  1
  S2-  S207  1  0.25544774  0.89063393  0.95452311  1
  S2-  S208  1  0.50221411  0.12593879  0.45490533  1
  S2-  S209  1  0.49932915  0.14021588  0.96521447  1
  S2-  S210  1  0.49978869  0.37736393  0.45581599  1
  S2-  S211  1  0.50270326  0.39372673  0.96735533  1
  S2-  S212  1  0.49120884  0.62720663  0.45143280  1
  S2-  S213  1  0.50153637  0.63844809  0.95460285  1
  S2-  S214  1  0.49177126  0.87878511  0.45128818  1
  S2-  S215  1  0.49553602  0.88892955  0.96123187  1
  S2-  S216  1  0.74877635  0.12352898  0.45377203  1
  S2-  S217  1  0.75591542  0.14071438  0.95940123  1
  S2-  S218  1  0.74858874  0.38374320  0.45448959  1
  S2-  S219  1  0.75346784  0.39032656  0.95364462  1
  S2-  S220  1  0.74647479  0.63065448  0.45408518  1
  S2-  S221  1  0.74747487  0.64044871  0.94316639  1
  S2-  S222  1  0.74905072  0.87257217  0.44517692  1
  S2-  S223  1  0.75226927  0.88672632  0.95214391  1
  S2-  S224  1  0.11918300  0.01415129  0.03953713  1
  S2-  S225  1  0.12039255  0.00413546  0.55182246  1
  S2-  S226  1  0.11858867  0.25513248  0.04261955  1
  S2-  S227  1  0.12114230  0.25317199  0.54916640  1
  S2-  S228  1  0.12306727  0.51470535  0.03887415  1
  S2-  S229  1  0.12436412  0.49826496  0.54300159  1
  S2-  S230  1  0.12632894  0.76045518  0.04232538  1
  S2-  S231  1  0.12023690  0.75623203  0.54019378  1
  S2-  S232  1  0.37666085  0.01027202  0.04252409  1
  S2-  S233  1  0.36907600  0.00662354  0.54161697  1
  S2-  S234  1  0.37567525  0.26092158  0.05076657  1
  S2-  S235  1  0.37262696  0.25282088  0.53484696  1
  S2-  S236  1  0.37665008  0.51320641  0.05048286  1
  S2-  S237  1  0.37632185  0.49709164  0.55481127  1
  S2-  S238  1  0.37295378  0.75686502  0.04767180  1
  S2-  S239  1  0.37143843  0.75198767  0.53694376  1
  S2-  S240  1  0.62818260  0.00692325  0.04445949  1
  S2-  S241  1  0.62753311  -0.00485713  0.54760765  1
  S2-  S242  1  0.63060577  0.26099164  0.04250334  1
  S2-  S243  1  0.63199353  0.25226107  0.53770408  1
  S2-  S244  1  0.62980619  0.51288068  0.03750390  1
  S2-  S245  1  0.62202043  0.50216683  0.55072265  1
  S2-  S246  1  0.62805505  0.76278597  0.03682360  1
  S2-  S247  1  0.62071616  0.75464305  0.54707905  1
  S2-  S248  1  0.87569148  0.00724564  0.03896018  1
  S2-  S249  1  0.87515818  0.00209925  0.54308550  1
  S2-  S250  1  0.87768455  0.26829803  0.04705640  1
  S2-  S251  1  0.87234659  0.24749019  0.53591875  1
  S2-  S252  1  0.87844483  0.51113914  0.04449001  1
  S2-  S253  1  0.86627166  0.50744152  0.54350979  1
  S2-  S254  1  0.87619693  0.76063715  0.04674187  1
  S2-  S255  1  0.87152227  0.75266045  0.54682615  1
