# generated using pymatgen
data_La6Ce7Pr13Nd19Sm19(BiS2)64
_symmetry_space_group_name_H-M   'P 1'
_cell_length_a   16.11903658
_cell_length_b   16.10836600
_cell_length_c   27.31011120
_cell_angle_alpha   90.17669209
_cell_angle_beta   90.00712234
_cell_angle_gamma   89.96529548
_symmetry_Int_Tables_number   1
_chemical_formula_structural   La6Ce7Pr13Nd19Sm19(BiS2)64
_chemical_formula_sum   'La6 Ce7 Pr13 Nd19 Sm19 Bi64 S128'
_cell_volume   7091.07191650
_cell_formula_units_Z   1
loop_
 _symmetry_equiv_pos_site_id
 _symmetry_equiv_pos_as_xyz
  1  'x, y, z'
loop_
 _atom_type_symbol
 _atom_type_oxidation_number
  La3+  3.0
  Ce3+  3.0
  Pr3+  3.0
  Nd3+  3.0
  Sm3+  3.0
  Bi2+  2.0
  S2-  -2.0
loop_
 _atom_site_type_symbol
 _atom_site_label
 _atom_site_symmetry_multiplicity
 _atom_site_fract_x
 _atom_site_fract_y
 _atom_site_fract_z
 _atom_site_occupancy
  La3+  La0  1  0.74000584  0.11174323  0.10580649  1
  La3+  La1  1  0.24524869  0.86332132  0.07240680  1
  La3+  La2  1  0.50385888  0.62230501  0.61094790  1
  La3+  La3  1  0.12652146  0.23365676  0.92208235  1
  La3+  La4  1  0.61332291  -0.01323504  0.91756479  1
  La3+  La5  1  0.62752808  0.25169413  0.39635378  1
  Ce3+  Ce6  1  0.75649155  0.63086377  0.56655054  1
  Ce3+  Ce7  1  -0.00858004  0.86881039  0.04926441  1
  Ce3+  Ce8  1  0.62041541  0.23975016  0.94363803  1
  Ce3+  Ce9  1  0.86452158  0.74105402  0.93445299  1
  Ce3+  Ce10  1  0.76479593  0.13273922  0.56926295  1
  Ce3+  Ce11  1  0.13345105  0.75487133  0.44857388  1
  Ce3+  Ce12  1  0.49935189  0.11341823  0.05702379  1
  Pr3+  Pr13  1  0.50318036  0.88350315  0.58171279  1
  Pr3+  Pr14  1  0.13307533  0.50803969  0.43729893  1
  Pr3+  Pr15  1  0.24205042  0.61516094  0.07543931  1
  Pr3+  Pr16  1  0.11989698  -0.01078491  0.93575253  1
  Pr3+  Pr17  1  0.12116141  0.48848499  0.93842788  1
  Pr3+  Pr18  1  0.36256008  0.73624838  0.93395989  1
  Pr3+  Pr19  1  0.38689375  0.50562810  0.43894175  1
  Pr3+  Pr20  1  0.86234718  -0.00269678  0.92461041  1
  Pr3+  Pr21  1  0.23785282  0.36518044  0.07205104  1
  Pr3+  Pr22  1  0.49587516  0.36548513  0.05847600  1
  Pr3+  Pr23  1  0.86886529  0.49048289  0.93670237  1
  Pr3+  Pr24  1  0.49888472  0.86388560  0.05722342  1
  Pr3+  Pr25  1  0.74342139  0.36947404  0.06578471  1
  Nd3+  Nd26  1  0.63255629  0.50700279  0.44085909  1
  Nd3+  Nd27  1  0.74784744  0.88542990  0.58407688  1
  Nd3+  Nd28  1  0.63308746  0.00017881  0.43976484  1
  Nd3+  Nd29  1  0.00185680  0.62855686  0.56489441  1
  Nd3+  Nd30  1  0.00471291  0.87994611  0.56852797  1
  Nd3+  Nd31  1  0.13130758  0.25195125  0.43389285  1
  Nd3+  Nd32  1  0.51045574  0.13039091  0.56565098  1
  Nd3+  Nd33  1  0.01123854  0.12511964  0.57913948  1
  Nd3+  Nd34  1  -0.00747379  0.11579693  0.06066832  1
  Nd3+  Nd35  1  0.75577377  0.37914201  0.55371628  1
  Nd3+  Nd36  1  -0.00588407  0.61779427  0.05365354  1
  Nd3+  Nd37  1  0.87812173  0.50600385  0.43739247  1
  Nd3+  Nd38  1  0.38484062  0.75764261  0.44649953  1
  Nd3+  Nd39  1  0.88552666  0.24805490  0.43407732  1
  Nd3+  Nd40  1  0.25438283  0.13558160  0.56797124  1
  Nd3+  Nd41  1  0.25834980  0.62676766  0.56610282  1
  Nd3+  Nd42  1  0.74333535  0.61511199  0.06067234  1
  Nd3+  Nd43  1  0.88053446  0.00537680  0.44899218  1
  Nd3+  Nd44  1  0.13186217  0.00534186  0.44542195  1
  Sm3+  Sm45  1  0.50919368  0.38154678  0.55792477  1
  Sm3+  Sm46  1  0.36698754  0.48988379  0.94649719  1
  Sm3+  Sm47  1  0.26209549  0.87619086  0.56819656  1
  Sm3+  Sm48  1  0.38635081  0.25379757  0.44514924  1
  Sm3+  Sm49  1  -0.00462311  0.36170699  0.04954477  1
  Sm3+  Sm50  1  0.74289448  0.86947933  0.04931409  1
  Sm3+  Sm51  1  0.86578038  0.23809189  0.94121040  1
  Sm3+  Sm52  1  0.36611031  0.24054307  0.95177257  1
  Sm3+  Sm53  1  0.12392906  0.73827440  0.93908871  1
  Sm3+  Sm54  1  0.60793773  0.73454539  0.91787720  1
  Sm3+  Sm55  1  0.37148114  -0.01152265  0.94089931  1
  Sm3+  Sm56  1  0.24018387  0.10850319  0.06951613  1
  Sm3+  Sm57  1  0.61915006  0.49060214  0.93300360  1
  Sm3+  Sm58  1  0.88061577  0.75745854  0.44851833  1
  Sm3+  Sm59  1  0.25700018  0.38222732  0.55081124  1
  Sm3+  Sm60  1  0.38311069  0.00503004  0.45046595  1
  Sm3+  Sm61  1  0.63139530  0.75997124  0.45152311  1
  Sm3+  Sm62  1  0.00738980  0.37996701  0.55227450  1
  Sm3+  Sm63  1  0.49613412  0.61802132  0.05625197  1
  Bi2+  Bi64  1  0.03543342  0.10689737  0.29853468  1
  Bi2+  Bi65  1  -0.01528495  0.13870714  0.79792887  1
  Bi2+  Bi66  1  -0.04868107  0.38892662  0.23991528  1
  Bi2+  Bi67  1  -0.00414139  0.40764174  0.78010506  1
  Bi2+  Bi68  1  -0.04314221  0.65496166  0.29145628  1
  Bi2+  Bi69  1  0.03787041  0.63871698  0.78900147  1
  Bi2+  Bi70  1  0.01614168  0.83947532  0.24737259  1
  Bi2+  Bi71  1  0.07412082  0.83024947  0.76294189  1
  Bi2+  Bi72  1  0.23799449  0.14339498  0.29268380  1
  Bi2+  Bi73  1  0.26156266  0.11253332  0.79523415  1
  Bi2+  Bi74  1  0.22712499  0.33974548  0.30090643  1
  Bi2+  Bi75  1  0.28698253  0.36678999  0.79286397  1
  Bi2+  Bi76  1  0.22166524  0.59901449  0.30927892  1
  Bi2+  Bi77  1  0.23981654  0.61411481  0.79158520  1
  Bi2+  Bi78  1  0.25822680  0.86531133  0.31236161  1
  Bi2+  Bi79  1  0.24866094  0.89234787  0.80218119  1
  Bi2+  Bi80  1  0.52752757  0.05066352  0.26919874  1
  Bi2+  Bi81  1  0.46423113  0.12899628  0.78804292  1
  Bi2+  Bi82  1  0.49211220  0.39957896  0.30590104  1
  Bi2+  Bi83  1  0.47905333  0.33378078  0.78265796  1
  Bi2+  Bi84  1  0.55715887  0.67737072  0.26503492  1
  Bi2+  Bi85  1  0.49354643  0.59335809  0.79350987  1
  Bi2+  Bi86  1  0.48937805  0.86943514  0.30846109  1
  Bi2+  Bi87  1  0.49226648  0.85822656  0.78924354  1
  Bi2+  Bi88  1  0.78650531  0.09434805  0.31978947  1
  Bi2+  Bi89  1  0.72032147  0.16900599  0.77536305  1
  Bi2+  Bi90  1  0.75753432  0.41392725  0.29664685  1
  Bi2+  Bi91  1  0.69610443  0.39228947  0.80296009  1
  Bi2+  Bi92  1  0.75221444  0.68269040  0.28499690  1
  Bi2+  Bi93  1  0.76433466  0.57926041  0.78209082  1
  Bi2+  Bi94  1  0.75048664  0.87751053  0.29311997  1
  Bi2+  Bi95  1  0.79388456  0.89794120  0.79786027  1
  Bi2+  Bi96  1  0.12583820  0.00136306  0.20490987  1
  Bi2+  Bi97  1  0.15289477  -0.00480352  0.71585098  1
  Bi2+  Bi98  1  0.16565816  0.26089497  0.20004927  1
  Bi2+  Bi99  1  0.17961796  0.26056616  0.71786790  1
  Bi2+  Bi100  1  0.11044387  0.48485455  0.20490668  1
  Bi2+  Bi101  1  0.11534554  0.48347774  0.69767856  1
  Bi2+  Bi102  1  0.14566790  0.69845722  0.22293806  1
  Bi2+  Bi103  1  0.10026249  0.67585276  0.67686244  1
  Bi2+  Bi104  1  0.36358130  0.07340739  0.21511210  1
  Bi2+  Bi105  1  0.34878503  -0.00220298  0.70969405  1
  Bi2+  Bi106  1  0.36033988  0.27250798  0.21427052  1
  Bi2+  Bi107  1  0.36443787  0.20323219  0.69276579  1
  Bi2+  Bi108  1  0.33141479  0.47261146  0.23920021  1
  Bi2+  Bi109  1  0.35809722  0.47750826  0.71080878  1
  Bi2+  Bi110  1  0.39563438  0.73332007  0.20819371  1
  Bi2+  Bi111  1  0.26628011  0.76051197  0.71191752  1
  Bi2+  Bi112  1  0.60395064  -0.10142092  0.20852878  1
  Bi2+  Bi113  1  0.61498763  -0.00046302  0.71711521  1
  Bi2+  Bi114  1  0.61521233  0.24658597  0.20049894  1
  Bi2+  Bi115  1  0.56570111  0.21794079  0.70178516  1
  Bi2+  Bi116  1  0.60039274  0.52866886  0.19438717  1
  Bi2+  Bi117  1  0.63008186  0.47751629  0.71227895  1
  Bi2+  Bi118  1  0.65920239  0.71928669  0.16507128  1
  Bi2+  Bi119  1  0.66037237  0.74011470  0.72622480  1
  Bi2+  Bi120  1  0.86997692  -0.04619979  0.20751117  1
  Bi2+  Bi121  1  0.87681236  0.01333493  0.70196289  1
  Bi2+  Bi122  1  0.87795139  0.21678671  0.21910480  1
  Bi2+  Bi123  1  0.83592523  0.28629389  0.72014320  1
  Bi2+  Bi124  1  0.87885154  0.55861064  0.19876971  1
  Bi2+  Bi125  1  0.88607349  0.48160150  0.69580026  1
  Bi2+  Bi126  1  0.85218152  0.75389180  0.18891154  1
  Bi2+  Bi127  1  0.89007502  0.72654187  0.72704225  1
  S2-  S128  1  -0.09776043  0.09685106  0.14724241  1
  S2-  S129  1  -0.10950111  0.16291964  0.64816350  1
  S2-  S130  1  0.02871046  0.35571460  0.14565457  1
  S2-  S131  1  0.01065175  0.37463214  0.64995706  1
  S2-  S132  1  0.04747821  0.61590482  0.14778772  1
  S2-  S133  1  -0.11641683  0.61842863  0.64034940  1
  S2-  S134  1  0.03370658  0.88645410  0.14385872  1
  S2-  S135  1  0.01768381  0.97562035  0.65139433  1
  S2-  S136  1  0.11328095  0.13083034  0.13849448  1
  S2-  S137  1  0.14479682  0.15121582  0.64573503  1
  S2-  S138  1  0.24802422  0.48726475  0.14605561  1
  S2-  S139  1  0.24273009  0.38653144  0.64836139  1
  S2-  S140  1  0.24993485  0.74189465  0.14707183  1
  S2-  S141  1  0.34037928  0.61406818  0.65350693  1
  S2-  S142  1  0.25711134  0.98630874  0.14653359  1
  S2-  S143  1  0.36341790  0.85910910  0.64775070  1
  S2-  S144  1  0.57196807  0.11182115  0.14481892  1
  S2-  S145  1  0.50449011  0.02936509  0.64788908  1
  S2-  S146  1  0.54604347  0.38472189  0.15385071  1
  S2-  S147  1  0.49788164  0.45401124  0.64761299  1
  S2-  S148  1  0.45519827  0.60700687  0.15217052  1
  S2-  S149  1  0.50588517  0.69498654  0.71347638  1
  S2-  S150  1  0.45509919  0.85980049  0.15588393  1
  S2-  S151  1  0.61941004  0.85443418  0.65895342  1
  S2-  S152  1  0.73807170  0.12560090  0.22738209  1
  S2-  S153  1  0.73488585  0.03398985  0.64955960  1
  S2-  S154  1  0.76111964  0.27778237  0.15109390  1
  S2-  S155  1  0.74897781  0.38182931  0.65420086  1
  S2-  S156  1  0.74941462  0.50138411  0.13878578  1
  S2-  S157  1  0.66853124  0.61940234  0.65196330  1
  S2-  S158  1  0.74082873  0.94450904  0.13944484  1
  S2-  S159  1  0.84347092  0.85049503  0.66968089  1
  S2-  S160  1  0.15123195  -0.00364678  0.34701449  1
  S2-  S161  1  0.12188673  0.09130254  0.85510587  1
  S2-  S162  1  0.01493925  0.22846367  0.36174659  1
  S2-  S163  1  0.05822301  0.28111806  0.82919964  1
  S2-  S164  1  0.12322839  0.47300977  0.33895136  1
  S2-  S165  1  0.11776044  0.50549339  0.83890729  1
  S2-  S166  1  0.14734077  0.75214286  0.35182756  1
  S2-  S167  1  0.23115793  0.73685032  0.86236885  1
  S2-  S168  1  0.37612491  -0.02246724  0.35306258  1
  S2-  S169  1  0.46458847  -0.00761417  0.85438416  1
  S2-  S170  1  0.45295149  0.26247152  0.35578089  1
  S2-  S171  1  0.28503546  0.24879003  0.86557861  1
  S2-  S172  1  0.37631779  0.52680407  0.33922498  1
  S2-  S173  1  0.36336361  0.52765554  0.85075414  1
  S2-  S174  1  0.36652944  0.75967067  0.34564992  1
  S2-  S175  1  0.46195795  0.73652005  0.85046169  1
  S2-  S176  1  0.61912508  0.09181761  0.35332745  1
  S2-  S177  1  0.72010148  0.02701786  0.83812665  1
  S2-  S178  1  0.62481094  0.30142311  0.29490248  1
  S2-  S179  1  0.61299020  0.25591397  0.84650015  1
  S2-  S180  1  0.63394646  0.49362246  0.34068196  1
  S2-  S181  1  0.62540331  0.59811701  0.85543629  1
  S2-  S182  1  0.63420476  0.86379142  0.37135984  1
  S2-  S183  1  0.63135614  0.84160200  0.83863929  1
  S2-  S184  1  0.92000790  0.00954404  0.35094932  1
  S2-  S185  1  0.92971601  -0.02238974  0.83015259  1
  S2-  S186  1  0.79487023  0.26354050  0.34880365  1
  S2-  S187  1  0.85962805  0.20481763  0.84380192  1
  S2-  S188  1  0.88237505  0.51425236  0.33908685  1
  S2-  S189  1  0.85343780  0.46725343  0.83815282  1
  S2-  S190  1  0.86933546  0.77368256  0.35096471  1
  S2-  S191  1  0.84789273  0.74179014  0.83720742  1
  S2-  S192  1  0.00948161  0.12458870  0.46826095  1
  S2-  S193  1  -0.00988998  0.11577846  0.95305313  1
  S2-  S194  1  0.00650370  0.38361854  0.44816038  1
  S2-  S195  1  -0.00656959  0.36265912  0.94536358  1
  S2-  S196  1  0.00402797  0.63150592  0.45572133  1
  S2-  S197  1  -0.00389178  0.61791124  0.94639755  1
  S2-  S198  1  0.00719644  0.87956428  0.46031894  1
  S2-  S199  1  -0.00272506  0.86072420  0.94191951  1
  S2-  S200  1  0.25911693  0.13166532  0.45650392  1
  S2-  S201  1  0.25091288  0.10959639  0.96223050  1
  S2-  S202  1  0.25910423  0.37740295  0.44660937  1
  S2-  S203  1  0.24603435  0.36883115  0.96352989  1
  S2-  S204  1  0.25977779  0.63025116  0.45796060  1
  S2-  S205  1  0.24260644  0.61073329  0.96302765  1
  S2-  S206  1  0.25845633  0.88061888  0.46360396  1
  S2-  S207  1  0.24590497  0.86918848  0.95918007  1
  S2-  S208  1  0.50486297  0.12874181  0.46038343  1
  S2-  S209  1  0.49043713  0.11931137  0.95205659  1
  S2-  S210  1  0.51237438  0.37795144  0.45456395  1
  S2-  S211  1  0.49127284  0.36654329  0.95016175  1
  S2-  S212  1  0.51136320  0.63540946  0.44109460  1
  S2-  S213  1  0.49286182  0.60988938  0.95399658  1
  S2-  S214  1  0.50254107  0.88243032  0.46863986  1
  S2-  S215  1  0.49181581  0.86091930  0.95231531  1
  S2-  S216  1  0.75602508  0.13049045  0.45865479  1
  S2-  S217  1  0.74049674  0.11880879  0.94790628  1
  S2-  S218  1  0.75428845  0.37912178  0.44928428  1
  S2-  S219  1  0.74368835  0.36698756  0.95327899  1
  S2-  S220  1  0.75583367  0.63508511  0.45415037  1
  S2-  S221  1  0.74398324  0.61426251  0.95352787  1
  S2-  S222  1  0.76057951  0.87891354  0.46872324  1
  S2-  S223  1  0.74325927  0.86489482  0.94596426  1
  S2-  S224  1  0.11811452  -0.01016513  0.04008141  1
  S2-  S225  1  0.14054785  0.00030008  0.55108548  1
  S2-  S226  1  0.12078741  0.24180105  0.03612768  1
  S2-  S227  1  0.13285892  0.26074127  0.53964953  1
  S2-  S228  1  0.11523553  0.48956702  0.04386994  1
  S2-  S229  1  0.13101219  0.50593192  0.54490014  1
  S2-  S230  1  0.11815038  0.74126672  0.04181676  1
  S2-  S231  1  0.13357278  0.75556637  0.55420862  1
  S2-  S232  1  0.37331219  -0.00787517  0.04491940  1
  S2-  S233  1  0.37469738  0.00968569  0.55279301  1
  S2-  S234  1  0.36603541  0.23829640  0.05666441  1
  S2-  S235  1  0.38241977  0.25803355  0.55014090  1
  S2-  S236  1  0.37262004  0.49120225  0.04921076  1
  S2-  S237  1  0.38262614  0.50314312  0.54389826  1
  S2-  S238  1  0.37277705  0.73795835  0.04248605  1
  S2-  S239  1  0.38638989  0.74560182  0.55053730  1
  S2-  S240  1  0.61882363  -0.01099736  0.03515289  1
  S2-  S241  1  0.63127459  0.00714967  0.54629625  1
  S2-  S242  1  0.62203235  0.24065708  0.04722025  1
  S2-  S243  1  0.63124389  0.25605208  0.55871542  1
  S2-  S244  1  0.61689562  0.49315311  0.03725015  1
  S2-  S245  1  0.62981012  0.50545689  0.54582320  1
  S2-  S246  1  0.62130499  0.73881408  0.03387147  1
  S2-  S247  1  0.62599706  0.75011748  0.55251581  1
  S2-  S248  1  0.86806936  -0.01152388  0.03445126  1
  S2-  S249  1  0.88170026  0.00181165  0.55306944  1
  S2-  S250  1  0.87003956  0.24275669  0.04463872  1
  S2-  S251  1  0.88561334  0.25995138  0.54182583  1
  S2-  S252  1  0.87529101  0.49015970  0.04191818  1
  S2-  S253  1  0.88209999  0.50113027  0.54181177  1
  S2-  S254  1  0.86662285  0.74131185  0.04264385  1
  S2-  S255  1  0.88134324  0.75884030  0.55155067  1
