# generated using pymatgen
data_La6Ce7Pr13Nd19Sm19(BiS2)64
_symmetry_space_group_name_H-M   'P 1'
_cell_length_a   16.07488872
_cell_length_b   16.07778317
_cell_length_c   27.45393369
_cell_angle_alpha   89.89373475
_cell_angle_beta   90.01170959
_cell_angle_gamma   90.02602378
_symmetry_Int_Tables_number   1
_chemical_formula_structural   La6Ce7Pr13Nd19Sm19(BiS2)64
_chemical_formula_sum   'La6 Ce7 Pr13 Nd19 Sm19 Bi64 S128'
_cell_volume   7095.41696768
_cell_formula_units_Z   1
loop_
 _symmetry_equiv_pos_site_id
 _symmetry_equiv_pos_as_xyz
  1  'x, y, z'
loop_
 _atom_type_symbol
 _atom_type_oxidation_number
  La3+  3.0
  Ce3+  3.0
  Pr3+  3.0
  Nd3+  3.0
  Sm3+  3.0
  Bi2+  2.0
  S2-  -2.0
loop_
 _atom_site_type_symbol
 _atom_site_label
 _atom_site_symmetry_multiplicity
 _atom_site_fract_x
 _atom_site_fract_y
 _atom_site_fract_z
 _atom_site_occupancy
  La3+  La0  1  0.13385532  -0.00679195  0.93206060  1
  La3+  La1  1  0.24239107  0.64277627  0.62088492  1
  La3+  La2  1  0.63060680  -0.00726652  0.93317857  1
  La3+  La3  1  0.49291882  0.62456350  0.58717300  1
  La3+  La4  1  0.23921705  0.89061402  0.11991279  1
  La3+  La5  1  0.25972243  0.61900705  0.08467409  1
  Ce3+  Ce6  1  0.63156065  0.74729073  0.93529281  1
  Ce3+  Ce7  1  0.13296647  0.74224930  0.94903566  1
  Ce3+  Ce8  1  0.74013559  0.63327760  0.56658430  1
  Ce3+  Ce9  1  0.61669569  0.75520308  0.44098957  1
  Ce3+  Ce10  1  0.88378672  0.74554476  0.94441610  1
  Ce3+  Ce11  1  0.86595070  0.25726554  0.44520379  1
  Ce3+  Ce12  1  0.61600504  0.00554898  0.43378261  1
  Pr3+  Pr13  1  0.62931931  0.24204248  0.93004449  1
  Pr3+  Pr14  1  0.24372427  0.88580428  0.56803986  1
  Pr3+  Pr15  1  0.35824285  0.00898095  0.42893019  1
  Pr3+  Pr16  1  0.00920233  0.86896701  0.06136409  1
  Pr3+  Pr17  1  0.75251562  0.87253347  0.06951997  1
  Pr3+  Pr18  1  -0.00768801  0.88830360  0.57061245  1
  Pr3+  Pr19  1  0.12122400  0.50294256  0.91606330  1
  Pr3+  Pr20  1  0.38594896  0.49619854  0.92291431  1
  Pr3+  Pr21  1  0.38130721  -0.00748745  0.94173911  1
  Pr3+  Pr22  1  0.11521446  0.25845546  0.44324707  1
  Pr3+  Pr23  1  0.50930390  0.37163037  0.06174305  1
  Pr3+  Pr24  1  0.25548238  0.37515911  0.04224188  1
  Pr3+  Pr25  1  0.87796662  0.24799366  0.93334225  1
  Nd3+  Nd26  1  0.00968869  0.11924488  0.05290046  1
  Nd3+  Nd27  1  0.24303098  0.38553853  0.56915178  1
  Nd3+  Nd28  1  0.01091299  0.37284394  0.05354017  1
  Nd3+  Nd29  1  -0.00545341  0.63428660  0.56947381  1
  Nd3+  Nd30  1  0.75259483  0.61936165  0.05510256  1
  Nd3+  Nd31  1  -0.00748711  0.38255737  0.56385773  1
  Nd3+  Nd32  1  0.63078448  0.49843759  0.92400830  1
  Nd3+  Nd33  1  0.61654229  0.25676822  0.43587292  1
  Nd3+  Nd34  1  0.73764238  0.13108069  0.55900316  1
  Nd3+  Nd35  1  0.36407008  0.75443149  0.44640720  1
  Nd3+  Nd36  1  0.74091103  0.88497510  0.55527902  1
  Nd3+  Nd37  1  0.75526559  0.11823879  0.06319627  1
  Nd3+  Nd38  1  0.11198600  0.00345037  0.43634437  1
  Nd3+  Nd39  1  0.25605352  0.12154016  0.05489000  1
  Nd3+  Nd40  1  0.75329191  0.36532179  0.06435684  1
  Nd3+  Nd41  1  0.00780698  0.61927067  0.06752100  1
  Nd3+  Nd42  1  0.88110136  -0.00682625  0.93737602  1
  Nd3+  Nd43  1  0.38013993  0.24580999  0.93111065  1
  Nd3+  Nd44  1  0.49996650  0.87567109  0.06868021  1
  Sm3+  Sm45  1  -0.00728682  0.13173108  0.56281571  1
  Sm3+  Sm46  1  0.36585278  0.50990571  0.44842754  1
  Sm3+  Sm47  1  0.37967839  0.74386382  0.94661444  1
  Sm3+  Sm48  1  0.86888162  0.75574173  0.44694351  1
  Sm3+  Sm49  1  0.86790343  0.50959962  0.44789472  1
  Sm3+  Sm50  1  0.36333210  0.25950727  0.44452593  1
  Sm3+  Sm51  1  0.11960602  0.50964525  0.44761372  1
  Sm3+  Sm52  1  0.24356632  0.13127605  0.56440099  1
  Sm3+  Sm53  1  0.11595169  0.75527688  0.44881040  1
  Sm3+  Sm54  1  0.50516546  0.62089037  0.05500268  1
  Sm3+  Sm55  1  0.49156737  0.13074820  0.54995181  1
  Sm3+  Sm56  1  0.50335943  0.12571699  0.06103330  1
  Sm3+  Sm57  1  0.61707704  0.50899262  0.44078010  1
  Sm3+  Sm58  1  0.74156649  0.38206593  0.55257893  1
  Sm3+  Sm59  1  0.88086711  0.49542834  0.94425269  1
  Sm3+  Sm60  1  0.48960769  0.88012829  0.55231094  1
  Sm3+  Sm61  1  0.12928375  0.24684181  0.93233147  1
  Sm3+  Sm62  1  0.49281812  0.38306841  0.55545813  1
  Sm3+  Sm63  1  0.86949262  0.00684929  0.43493203  1
  Bi2+  Bi64  1  0.03051839  0.20112572  0.28332650  1
  Bi2+  Bi65  1  -0.04918494  0.12854623  0.75294583  1
  Bi2+  Bi66  1  0.01468900  0.40075519  0.25086770  1
  Bi2+  Bi67  1  -0.12207318  0.37200468  0.81511549  1
  Bi2+  Bi68  1  -0.03018755  0.62005217  0.29995867  1
  Bi2+  Bi69  1  -0.06389581  0.63359647  0.78677044  1
  Bi2+  Bi70  1  0.02031404  0.85668010  0.29987322  1
  Bi2+  Bi71  1  -0.01550485  0.86125589  0.81262283  1
  Bi2+  Bi72  1  0.29497308  0.13823309  0.30406960  1
  Bi2+  Bi73  1  0.25972811  0.10760958  0.78134844  1
  Bi2+  Bi74  1  0.27291574  0.36437937  0.29827273  1
  Bi2+  Bi75  1  0.24460136  0.31710156  0.78395923  1
  Bi2+  Bi76  1  0.23700041  0.63348688  0.32145499  1
  Bi2+  Bi77  1  0.25501021  0.67959321  0.82439992  1
  Bi2+  Bi78  1  0.29227118  0.87868901  0.31615902  1
  Bi2+  Bi79  1  0.25479169  0.91176880  0.79049146  1
  Bi2+  Bi80  1  0.55773328  0.16544973  0.28304805  1
  Bi2+  Bi81  1  0.49974994  0.10338897  0.79073278  1
  Bi2+  Bi82  1  0.53108165  0.41602541  0.26435534  1
  Bi2+  Bi83  1  0.43566806  0.30613724  0.74195542  1
  Bi2+  Bi84  1  0.56008501  0.70454126  0.26271273  1
  Bi2+  Bi85  1  0.48955237  0.60766620  0.80406947  1
  Bi2+  Bi86  1  0.55641811  0.90334331  0.28928605  1
  Bi2+  Bi87  1  0.53118898  0.91058419  0.77719552  1
  Bi2+  Bi88  1  0.77675023  0.15401495  0.30774429  1
  Bi2+  Bi89  1  0.73683704  0.14922569  0.77930554  1
  Bi2+  Bi90  1  0.81411499  0.41824261  0.25518980  1
  Bi2+  Bi91  1  0.68406755  0.33541154  0.81697707  1
  Bi2+  Bi92  1  0.72539285  0.57950639  0.29715282  1
  Bi2+  Bi93  1  0.74253820  0.52850399  0.80046840  1
  Bi2+  Bi94  1  0.77062076  0.85492365  0.27795508  1
  Bi2+  Bi95  1  0.75343416  0.86551973  0.78713435  1
  Bi2+  Bi96  1  0.11114816  0.03217527  0.20945624  1
  Bi2+  Bi97  1  0.11644485  0.03573339  0.71162395  1
  Bi2+  Bi98  1  0.12746416  0.25911275  0.18694733  1
  Bi2+  Bi99  1  0.09027450  0.23266255  0.69935242  1
  Bi2+  Bi100  1  0.19204578  0.47633494  0.21540430  1
  Bi2+  Bi101  1  0.11840854  0.49858679  0.72863872  1
  Bi2+  Bi102  1  0.05088894  0.69916992  0.20591823  1
  Bi2+  Bi103  1  0.09934974  0.76786891  0.71618003  1
  Bi2+  Bi104  1  0.39457239  0.00899453  0.20605638  1
  Bi2+  Bi105  1  0.38498150  0.07538012  0.69244831  1
  Bi2+  Bi106  1  0.40316944  0.25407542  0.22945712  1
  Bi2+  Bi107  1  0.28335206  0.24841658  0.67328857  1
  Bi2+  Bi108  1  0.38124548  0.52264219  0.22976551  1
  Bi2+  Bi109  1  0.37950869  0.49721930  0.71605326  1
  Bi2+  Bi110  1  0.38052794  0.72334561  0.21345052  1
  Bi2+  Bi111  1  0.38230104  0.82449991  0.72172720  1
  Bi2+  Bi112  1  0.65927849  0.04264741  0.20680480  1
  Bi2+  Bi113  1  0.62101632  -0.01815472  0.68372377  1
  Bi2+  Bi114  1  0.62114394  0.27839625  0.19643500  1
  Bi2+  Bi115  1  0.62808453  0.27027468  0.71219037  1
  Bi2+  Bi116  1  0.62357957  0.55323694  0.19868831  1
  Bi2+  Bi117  1  0.62540969  0.49214479  0.70940883  1
  Bi2+  Bi118  1  0.64174064  0.84328884  0.18871449  1
  Bi2+  Bi119  1  0.68816713  0.69635578  0.73864228  1
  Bi2+  Bi120  1  0.89643984  0.00433636  0.27424103  1
  Bi2+  Bi121  1  0.86087019  -0.05642019  0.69539010  1
  Bi2+  Bi122  1  0.86768585  0.24096393  0.21662193  1
  Bi2+  Bi123  1  0.82820250  0.25406539  0.69907106  1
  Bi2+  Bi124  1  0.90884909  0.55947325  0.19130485  1
  Bi2+  Bi125  1  0.88090060  0.45115757  0.70882651  1
  Bi2+  Bi126  1  0.86345283  0.75411769  0.19734395  1
  Bi2+  Bi127  1  0.85218444  0.64141533  0.68591489  1
  S2-  S128  1  0.01818079  0.12343794  0.15199207  1
  S2-  S129  1  -0.01389193  0.02732223  0.63977606  1
  S2-  S130  1  -0.01089051  0.34784120  0.15042989  1
  S2-  S131  1  0.02788868  0.39085160  0.66103844  1
  S2-  S132  1  0.11261564  0.56964897  0.14214724  1
  S2-  S133  1  0.07534729  0.62469441  0.65639780  1
  S2-  S134  1  0.06646164  0.90503775  0.15318000  1
  S2-  S135  1  -0.02911756  0.81799491  0.66420817  1
  S2-  S136  1  0.25999067  0.06979393  0.14950977  1
  S2-  S137  1  0.24193883  0.01817974  0.63844821  1
  S2-  S138  1  0.24183378  0.35542824  0.14225107  1
  S2-  S139  1  0.24694025  0.47350766  0.65649050  1
  S2-  S140  1  0.24038319  0.72980191  0.16453975  1
  S2-  S141  1  0.21284467  0.63943069  0.73609094  1
  S2-  S142  1  0.24433980  0.91425090  0.22824332  1
  S2-  S143  1  0.23518604  0.80701333  0.65882143  1
  S2-  S144  1  0.51751286  0.03015259  0.14473513  1
  S2-  S145  1  0.53049909  0.11935814  0.64472301  1
  S2-  S146  1  0.48423997  0.24753240  0.13530498  1
  S2-  S147  1  0.49640113  0.45667575  0.64375836  1
  S2-  S148  1  0.41798067  0.59917056  0.14037068  1
  S2-  S149  1  0.39818446  0.64730995  0.67142571  1
  S2-  S150  1  0.40731860  0.86275842  0.15395025  1
  S2-  S151  1  0.48701490  0.86940907  0.65013785  1
  S2-  S152  1  0.76298062  0.23812573  0.13658158  1
  S2-  S153  1  0.75466146  0.06199097  0.64872343  1
  S2-  S154  1  0.63278756  0.41471637  0.13322714  1
  S2-  S155  1  0.73350285  0.39070747  0.64967108  1
  S2-  S156  1  0.73456661  0.65785961  0.15060013  1
  S2-  S157  1  0.63634205  0.63458436  0.64696048  1
  S2-  S158  1  0.77228053  1.00143190  0.13968440  1
  S2-  S159  1  0.73101153  0.85638179  0.65269900  1
  S2-  S160  1  0.21697115  0.02370167  0.35762404  1
  S2-  S161  1  0.09960795  -0.03128742  0.83454476  1
  S2-  S162  1  0.16554609  0.25011574  0.34764455  1
  S2-  S163  1  0.16142332  0.20367188  0.84082131  1
  S2-  S164  1  0.10944908  0.54595253  0.35130548  1
  S2-  S165  1  0.13771284  0.43787204  0.81732069  1
  S2-  S166  1  0.14806539  0.79045308  0.35256245  1
  S2-  S167  1  0.09107456  0.73179047  0.85373218  1
  S2-  S168  1  0.41322440  0.00919738  0.33089078  1
  S2-  S169  1  0.39590101  -0.02083766  0.84170726  1
  S2-  S170  1  0.39179129  0.26884572  0.34918804  1
  S2-  S171  1  0.43727970  0.24063892  0.83806382  1
  S2-  S172  1  0.33126655  0.51114119  0.35193678  1
  S2-  S173  1  0.33094225  0.53524119  0.82576896  1
  S2-  S174  1  0.37764869  0.74076957  0.34680287  1
  S2-  S175  1  0.41361705  0.74094668  0.84813574  1
  S2-  S176  1  0.65144937  0.02450730  0.34024585  1
  S2-  S177  1  0.63373824  -0.13176195  0.85998641  1
  S2-  S178  1  0.65515989  0.26875561  0.33964378  1
  S2-  S179  1  0.63662970  0.11212098  0.85756497  1
  S2-  S180  1  0.59045652  0.51247372  0.34452547  1
  S2-  S181  1  0.51323658  0.46726724  0.85062078  1
  S2-  S182  1  0.64758116  0.77790506  0.34630927  1
  S2-  S183  1  0.63496929  0.63937847  0.85781726  1
  S2-  S184  1  0.98793401  -0.00202937  0.36319716  1
  S2-  S185  1  0.86162501  -0.02621393  0.83906096  1
  S2-  S186  1  0.90856401  0.24666476  0.35243961  1
  S2-  S187  1  0.93364725  0.21655870  0.84044622  1
  S2-  S188  1  0.86354685  0.50468429  0.35085362  1
  S2-  S189  1  0.96473671  0.51987547  0.86004172  1
  S2-  S190  1  0.91166318  0.75819200  0.35188657  1
  S2-  S191  1  0.85510383  0.74827206  0.84738402  1
  S2-  S192  1  -0.00916115  0.13321565  0.45982058  1
  S2-  S193  1  0.00806893  0.11994019  0.94739157  1
  S2-  S194  1  -0.00793280  0.38647448  0.45696844  1
  S2-  S195  1  0.00826514  0.37039480  0.94793200  1
  S2-  S196  1  -0.00787821  0.63123277  0.46146134  1
  S2-  S197  1  0.00386565  0.62037114  0.96282421  1
  S2-  S198  1  -0.00992056  0.87763988  0.46316607  1
  S2-  S199  1  0.00729028  0.87053984  0.95490509  1
  S2-  S200  1  0.24163976  0.13709785  0.46125813  1
  S2-  S201  1  0.25582013  0.12258819  0.94773211  1
  S2-  S202  1  0.24217596  0.38380996  0.46050094  1
  S2-  S203  1  0.25283510  0.37233306  0.93620410  1
  S2-  S204  1  0.24028253  0.63169225  0.45709740  1
  S2-  S205  1  0.25574980  0.61713146  0.94653693  1
  S2-  S206  1  0.23948956  0.88002729  0.46024217  1
  S2-  S207  1  0.25705682  0.86667304  0.94253386  1
  S2-  S208  1  0.48974773  0.13454633  0.44565188  1
  S2-  S209  1  0.50161903  0.12125348  0.95562547  1
  S2-  S210  1  0.49147834  0.38355930  0.45130011  1
  S2-  S211  1  0.50637308  0.36605426  0.95465200  1
  S2-  S212  1  0.49205709  0.62962106  0.45403322  1
  S2-  S213  1  0.50409772  0.62176315  0.95366397  1
  S2-  S214  1  0.49016013  0.88206813  0.44729502  1
  S2-  S215  1  0.50209347  0.86764016  0.96052327  1
  S2-  S216  1  0.74308244  0.13021377  0.45242029  1
  S2-  S217  1  0.76091472  0.11960661  0.95544784  1
  S2-  S218  1  0.74173546  0.38484593  0.44873288  1
  S2-  S219  1  0.75531105  0.37249743  0.95401499  1
  S2-  S220  1  0.74320345  0.63160999  0.45612187  1
  S2-  S221  1  0.76152601  0.61926490  0.95139667  1
  S2-  S222  1  0.74733622  0.88229065  0.44867383  1
  S2-  S223  1  0.76040890  0.86959153  0.96229104  1
  S2-  S224  1  0.13491649  -0.00549868  0.04147952  1
  S2-  S225  1  0.11655715  0.01264676  0.54134512  1
  S2-  S226  1  0.13157048  0.24588220  0.03685739  1
  S2-  S227  1  0.11743695  0.25578861  0.55073788  1
  S2-  S228  1  0.13156928  0.49737235  0.03168710  1
  S2-  S229  1  0.11612438  0.50583979  0.55038718  1
  S2-  S230  1  0.13470472  0.74489580  0.05322372  1
  S2-  S231  1  0.11617809  0.75855207  0.55205358  1
  S2-  S232  1  0.37735280  -0.00272153  0.04617121  1
  S2-  S233  1  0.37078949  0.00906078  0.53817335  1
  S2-  S234  1  0.37678716  0.24626118  0.03570414  1
  S2-  S235  1  0.37047624  0.25814158  0.54823289  1
  S2-  S236  1  0.38319337  0.49528219  0.03584877  1
  S2-  S237  1  0.36792851  0.50620952  0.54960849  1
  S2-  S238  1  0.38092095  0.74247279  0.04741456  1
  S2-  S239  1  0.36811321  0.75414791  0.55233144  1
  S2-  S240  1  0.62748477  -0.00435591  0.04127774  1
  S2-  S241  1  0.61401372  0.00591240  0.53930661  1
  S2-  S242  1  0.63135415  0.24215464  0.03597394  1
  S2-  S243  1  0.61601994  0.25857124  0.54338386  1
  S2-  S244  1  0.63084450  0.50110715  0.03105765  1
  S2-  S245  1  0.61916686  0.50457443  0.54333178  1
  S2-  S246  1  0.62718376  0.74655295  0.04563637  1
  S2-  S247  1  0.61475635  0.75879231  0.54506000  1
  S2-  S248  1  0.88640689  -0.00546560  0.04236101  1
  S2-  S249  1  0.86576466  0.01058909  0.53819418  1
  S2-  S250  1  0.88771425  0.24500554  0.03936179  1
  S2-  S251  1  0.86634572  0.25548349  0.55170899  1
  S2-  S252  1  0.87855753  0.49297790  0.04912365  1
  S2-  S253  1  0.86657573  0.50641699  0.55221583  1
  S2-  S254  1  0.88098692  0.74408261  0.05229105  1
  S2-  S255  1  0.86590931  0.75744804  0.55009723  1
