# generated using pymatgen
data_La6Ce7Pr13Nd19Sm19(BiS2)64
_symmetry_space_group_name_H-M   'P 1'
_cell_length_a   16.05680228
_cell_length_b   15.98772875
_cell_length_c   27.37460088
_cell_angle_alpha   90.31160501
_cell_angle_beta   90.12872086
_cell_angle_gamma   90.03859190
_symmetry_Int_Tables_number   1
_chemical_formula_structural   La6Ce7Pr13Nd19Sm19(BiS2)64
_chemical_formula_sum   'La6 Ce7 Pr13 Nd19 Sm19 Bi64 S128'
_cell_volume   7027.25973697
_cell_formula_units_Z   1
loop_
 _symmetry_equiv_pos_site_id
 _symmetry_equiv_pos_as_xyz
  1  'x, y, z'
loop_
 _atom_type_symbol
 _atom_type_oxidation_number
  La3+  3.0
  Ce3+  3.0
  Pr3+  3.0
  Nd3+  3.0
  Sm3+  3.0
  Bi2+  2.0
  S2-  -2.0
loop_
 _atom_site_type_symbol
 _atom_site_label
 _atom_site_symmetry_multiplicity
 _atom_site_fract_x
 _atom_site_fract_y
 _atom_site_fract_z
 _atom_site_occupancy
  La3+  La0  1  0.36996007  -0.00372046  0.92556310  1
  La3+  La1  1  0.14283439  0.24482723  0.90478865  1
  La3+  La2  1  0.75794397  0.92147754  0.57717712  1
  La3+  La3  1  0.75471995  0.66494699  0.57462936  1
  La3+  La4  1  0.86626981  0.76486201  0.88195592  1
  La3+  La5  1  0.75030720  0.11883945  0.11596989  1
  Ce3+  Ce6  1  0.13881583  0.49085395  0.93706680  1
  Ce3+  Ce7  1  0.00015986  0.17892851  0.55660942  1
  Ce3+  Ce8  1  0.50367876  0.11957459  0.06371676  1
  Ce3+  Ce9  1  0.87177532  0.54136380  0.42897639  1
  Ce3+  Ce10  1  0.88464215  -0.00354361  0.94548335  1
  Ce3+  Ce11  1  0.62258316  0.54866423  0.44262557  1
  Ce3+  Ce12  1  0.51072807  0.61994913  0.06007007  1
  Pr3+  Pr13  1  0.24616279  0.67499945  0.56897975  1
  Pr3+  Pr14  1  0.88485388  0.49507855  0.92994633  1
  Pr3+  Pr15  1  0.00950946  0.37205366  0.06313851  1
  Pr3+  Pr16  1  0.12508527  0.54095053  0.43179343  1
  Pr3+  Pr17  1  0.13835434  0.74574172  0.92555280  1
  Pr3+  Pr18  1  0.24658086  0.92434023  0.56133498  1
  Pr3+  Pr19  1  0.75249385  0.17179677  0.56353736  1
  Pr3+  Pr20  1  0.49982967  0.17089804  0.57148264  1
  Pr3+  Pr21  1  0.49800860  0.42277339  0.57014056  1
  Pr3+  Pr22  1  0.63672724  -0.00569686  0.94081813  1
  Pr3+  Pr23  1  0.24584118  0.42167612  0.57373144  1
  Pr3+  Pr24  1  0.25863087  0.86948572  0.07194158  1
  Pr3+  Pr25  1  0.86734333  0.79177444  0.42862942  1
  Nd3+  Nd26  1  0.25334247  0.37468007  0.07849380  1
  Nd3+  Nd27  1  0.50945212  0.87518501  0.05559769  1
  Nd3+  Nd28  1  0.88657122  0.24798939  0.93314594  1
  Nd3+  Nd29  1  0.61739568  0.29816459  0.43197095  1
  Nd3+  Nd30  1  0.76172115  0.86896602  0.07158742  1
  Nd3+  Nd31  1  0.25621133  0.62194554  0.06989148  1
  Nd3+  Nd32  1  0.00378881  0.12497911  0.06089128  1
  Nd3+  Nd33  1  0.24679259  0.17191733  0.56698294  1
  Nd3+  Nd34  1  0.12805301  0.05182522  0.42677120  1
  Nd3+  Nd35  1  0.37661210  0.29939588  0.43678965  1
  Nd3+  Nd36  1  0.76372831  0.62379362  0.06234279  1
  Nd3+  Nd37  1  0.51678934  0.36695384  0.06762412  1
  Nd3+  Nd38  1  -0.00149517  0.67242988  0.55419559  1
  Nd3+  Nd39  1  0.86658200  0.29122863  0.42205008  1
  Nd3+  Nd40  1  0.01061574  0.62263963  0.04809662  1
  Nd3+  Nd41  1  0.88109240  0.03997908  0.42513756  1
  Nd3+  Nd42  1  0.63382446  0.24272807  0.94196154  1
  Nd3+  Nd43  1  0.13349456  -0.00484685  0.95186479  1
  Nd3+  Nd44  1  0.49604745  0.67640635  0.57091270  1
  Sm3+  Sm45  1  0.63563909  0.74516582  0.94500859  1
  Sm3+  Sm46  1  0.62457007  0.79619673  0.45194593  1
  Sm3+  Sm47  1  0.74991895  0.41629016  0.55917771  1
  Sm3+  Sm48  1  0.38346117  0.24720549  0.94686514  1
  Sm3+  Sm49  1  0.00095452  0.92545804  0.54898230  1
  Sm3+  Sm50  1  0.49785886  0.92258289  0.56654232  1
  Sm3+  Sm51  1  0.00780375  0.86905949  0.05477804  1
  Sm3+  Sm52  1  0.37249735  0.54667678  0.44172387  1
  Sm3+  Sm53  1  0.62528393  0.04211723  0.44657600  1
  Sm3+  Sm54  1  0.37435536  0.79033590  0.43768144  1
  Sm3+  Sm55  1  0.76815002  0.36706361  0.06288346  1
  Sm3+  Sm56  1  0.38065458  0.74319644  0.94552183  1
  Sm3+  Sm57  1  0.26093794  0.12320264  0.06425800  1
  Sm3+  Sm58  1  -0.00274500  0.42280816  0.55491476  1
  Sm3+  Sm59  1  0.37544933  0.04484205  0.44370207  1
  Sm3+  Sm60  1  0.63638846  0.49590648  0.94734760  1
  Sm3+  Sm61  1  0.38341740  0.49188300  0.95132888  1
  Sm3+  Sm62  1  0.12716946  0.29661904  0.43321300  1
  Sm3+  Sm63  1  0.12547386  0.78866033  0.43247057  1
  Bi2+  Bi64  1  0.00690399  0.07823601  0.25728219  1
  Bi2+  Bi65  1  -0.05782998  0.16007812  0.81026561  1
  Bi2+  Bi66  1  0.00585053  0.36600594  0.28565783  1
  Bi2+  Bi67  1  -0.01413423  0.41388500  0.78218868  1
  Bi2+  Bi68  1  -0.01050832  0.61384747  0.29285018  1
  Bi2+  Bi69  1  0.02102638  0.61019483  0.78130231  1
  Bi2+  Bi70  1  0.07474550  0.86784835  0.29004670  1
  Bi2+  Bi71  1  0.07686096  0.89077401  0.77957780  1
  Bi2+  Bi72  1  0.24216949  0.09239702  0.29526882  1
  Bi2+  Bi73  1  0.27065566  0.09981154  0.79148719  1
  Bi2+  Bi74  1  0.24981524  0.35760101  0.29028026  1
  Bi2+  Bi75  1  0.24848224  0.42885497  0.78165136  1
  Bi2+  Bi76  1  0.25367810  0.64902493  0.29195951  1
  Bi2+  Bi77  1  0.20777163  0.62338277  0.81054138  1
  Bi2+  Bi78  1  0.26929174  0.86511072  0.29827518  1
  Bi2+  Bi79  1  0.29107057  0.88700016  0.78926614  1
  Bi2+  Bi80  1  0.43738025  0.15020878  0.27810411  1
  Bi2+  Bi81  1  0.52884313  0.16763311  0.77833860  1
  Bi2+  Bi82  1  0.48281713  0.39069914  0.30024177  1
  Bi2+  Bi83  1  0.43810916  0.32863459  0.81775034  1
  Bi2+  Bi84  1  0.51944976  0.62052241  0.26179929  1
  Bi2+  Bi85  1  0.47819176  0.61169087  0.80013648  1
  Bi2+  Bi86  1  0.46608619  0.80264448  0.31221256  1
  Bi2+  Bi87  1  0.49193283  0.78876408  0.74734416  1
  Bi2+  Bi88  1  0.74620287  0.11537555  0.31747770  1
  Bi2+  Bi89  1  0.74571355  0.09940724  0.80092960  1
  Bi2+  Bi90  1  0.73777482  0.41304832  0.29167739  1
  Bi2+  Bi91  1  0.74240148  0.36624835  0.78852902  1
  Bi2+  Bi92  1  0.73962643  0.61389682  0.27168180  1
  Bi2+  Bi93  1  0.74444123  0.61543697  0.78827132  1
  Bi2+  Bi94  1  0.69736862  0.87391864  0.30358196  1
  Bi2+  Bi95  1  0.68170895  0.86078069  0.77408294  1
  Bi2+  Bi96  1  0.16182104  -0.01353131  0.20617043  1
  Bi2+  Bi97  1  0.11940518  -0.01254852  0.68784853  1
  Bi2+  Bi98  1  0.11112837  0.23816864  0.22211663  1
  Bi2+  Bi99  1  0.10564402  0.24474183  0.70407676  1
  Bi2+  Bi100  1  0.13198026  0.48901376  0.21167549  1
  Bi2+  Bi101  1  0.10972093  0.46701383  0.69796346  1
  Bi2+  Bi102  1  0.08578890  0.73187984  0.20417768  1
  Bi2+  Bi103  1  0.15343793  0.74129870  0.71568723  1
  Bi2+  Bi104  1  0.35255639  -0.04708090  0.18608662  1
  Bi2+  Bi105  1  0.37593788  -0.07125002  0.68952747  1
  Bi2+  Bi106  1  0.30894316  0.23689972  0.20441854  1
  Bi2+  Bi107  1  0.37918899  0.25358160  0.71521831  1
  Bi2+  Bi108  1  0.35465144  0.50976089  0.23646905  1
  Bi2+  Bi109  1  0.38539881  0.45657140  0.70113985  1
  Bi2+  Bi110  1  0.35738881  0.75594406  0.21245617  1
  Bi2+  Bi111  1  0.33491471  0.65369311  0.72210200  1
  Bi2+  Bi112  1  0.51484205  -0.02891098  0.25217381  1
  Bi2+  Bi113  1  0.63981738  0.01166336  0.70515260  1
  Bi2+  Bi114  1  0.60172410  0.24652460  0.21079890  1
  Bi2+  Bi115  1  0.64106298  0.21100111  0.68969465  1
  Bi2+  Bi116  1  0.63083987  0.49257995  0.20239195  1
  Bi2+  Bi117  1  0.56903974  0.44582382  0.75621490  1
  Bi2+  Bi118  1  0.62639320  0.77142781  0.20155472  1
  Bi2+  Bi119  1  0.61040589  0.62877607  0.70906669  1
  Bi2+  Bi120  1  0.88580286  -0.06440666  0.22128809  1
  Bi2+  Bi121  1  0.90517330  -0.00985793  0.76032917  1
  Bi2+  Bi122  1  0.86678101  0.27162211  0.20811057  1
  Bi2+  Bi123  1  0.83534264  0.23065356  0.72279364  1
  Bi2+  Bi124  1  0.88972874  0.52985213  0.20634165  1
  Bi2+  Bi125  1  0.87024578  0.49357553  0.70135431  1
  Bi2+  Bi126  1  0.87460925  0.73509602  0.22312558  1
  Bi2+  Bi127  1  0.90714247  0.76007943  0.68937003  1
  S2-  S128  1  -0.07683566  0.14934794  0.14846656  1
  S2-  S129  1  0.03483153  0.12590731  0.65011412  1
  S2-  S130  1  -0.10854672  0.39518677  0.13982365  1
  S2-  S131  1  0.00862359  0.34072152  0.64225608  1
  S2-  S132  1  0.02973535  0.59430009  0.14710340  1
  S2-  S133  1  -0.04070265  0.60761197  0.64474804  1
  S2-  S134  1  -0.00056226  0.85997955  0.15285819  1
  S2-  S135  1  -0.02070794  0.90127988  0.64581170  1
  S2-  S136  1  0.37291368  0.11175356  0.13891383  1
  S2-  S137  1  0.25373163  0.04355866  0.64142507  1
  S2-  S138  1  0.11634986  0.36477569  0.14781689  1
  S2-  S139  1  0.24145496  0.28573675  0.64602284  1
  S2-  S140  1  0.26759494  0.50992259  0.14834638  1
  S2-  S141  1  0.22181353  0.55373686  0.64400841  1
  S2-  S142  1  0.23262715  0.74428586  0.14361222  1
  S2-  S143  1  0.24172128  0.80934328  0.64035006  1
  S2-  S144  1  0.58171961  0.12068776  0.15101966  1
  S2-  S145  1  0.48988107  0.03672574  0.64581667  1
  S2-  S146  1  0.50892625  0.38002966  0.16739460  1
  S2-  S147  1  0.50276113  0.29791495  0.64522961  1
  S2-  S148  1  0.53819567  0.63406004  0.15538279  1
  S2-  S149  1  0.49624533  0.55388878  0.64375600  1
  S2-  S150  1  0.52605939  0.88537141  0.15578005  1
  S2-  S151  1  0.48126984  0.80941591  0.64303599  1
  S2-  S152  1  0.74586958  0.14546793  0.22528733  1
  S2-  S153  1  0.76810302  0.05397074  0.64485709  1
  S2-  S154  1  0.72280446  0.29346112  0.14858915  1
  S2-  S155  1  0.76142490  0.29941500  0.63669179  1
  S2-  S156  1  0.75877106  0.73290882  0.14310886  1
  S2-  S157  1  0.74707513  0.52425496  0.64245828  1
  S2-  S158  1  0.76377572  0.95707630  0.15897633  1
  S2-  S159  1  0.76216230  0.79021628  0.64914181  1
  S2-  S160  1  0.02945850  0.00226643  0.34676102  1
  S2-  S161  1  0.20091510  -0.00473619  0.86116077  1
  S2-  S162  1  0.15137507  0.18143924  0.35725105  1
  S2-  S163  1  0.11348600  0.18618834  0.80446957  1
  S2-  S164  1  0.12862876  0.41446730  0.35528356  1
  S2-  S165  1  0.12935767  0.39814115  0.85243721  1
  S2-  S166  1  0.12471320  0.66722712  0.35774808  1
  S2-  S167  1  0.03334922  0.76183241  0.84317132  1
  S2-  S168  1  0.38423311  0.02781411  0.34588358  1
  S2-  S169  1  0.40361421  0.00935413  0.82653736  1
  S2-  S170  1  0.49105456  0.25787729  0.35909574  1
  S2-  S171  1  0.30501670  0.22652723  0.85953419  1
  S2-  S172  1  0.36142965  0.43011788  0.36431897  1
  S2-  S173  1  0.38005708  0.49246030  0.85358564  1
  S2-  S174  1  0.37709700  0.66651325  0.36631064  1
  S2-  S175  1  0.28616224  0.75912824  0.86349062  1
  S2-  S176  1  0.61154951  0.00741757  0.34867344  1
  S2-  S177  1  0.63619488  -0.02130092  0.83926112  1
  S2-  S178  1  0.71847106  0.27488977  0.35017824  1
  S2-  S179  1  0.65282446  0.24109702  0.84193268  1
  S2-  S180  1  0.60687822  0.46765749  0.35638898  1
  S2-  S181  1  0.65811825  0.49050126  0.85028561  1
  S2-  S182  1  0.61979848  0.74795029  0.35693044  1
  S2-  S183  1  0.68813086  0.74753505  0.85262395  1
  S2-  S184  1  0.82973983  -0.08773667  0.35424741  1
  S2-  S185  1  0.87647087  -0.06060398  0.85323434  1
  S2-  S186  1  0.88936593  0.16266080  0.35066815  1
  S2-  S187  1  0.87735886  0.36522364  0.85715709  1
  S2-  S188  1  0.88197404  0.42315416  0.35148784  1
  S2-  S189  1  0.87746322  0.59604559  0.84683164  1
  S2-  S190  1  0.86235700  0.66197152  0.35495498  1
  S2-  S191  1  0.83493188  0.76621203  0.77437905  1
  S2-  S192  1  0.00217635  0.17262115  0.45185638  1
  S2-  S193  1  0.01469643  0.12506251  0.95158926  1
  S2-  S194  1  -0.00101161  0.41631828  0.45284354  1
  S2-  S195  1  0.01695001  0.36432409  0.95556650  1
  S2-  S196  1  -0.00187984  0.66915686  0.45203015  1
  S2-  S197  1  0.01672331  0.61632686  0.94468259  1
  S2-  S198  1  0.00300303  0.91059823  0.44792286  1
  S2-  S199  1  0.00990923  0.87090295  0.95137272  1
  S2-  S200  1  0.25763941  0.17148483  0.45845791  1
  S2-  S201  1  0.25475544  0.12585177  0.96161603  1
  S2-  S202  1  0.24962276  0.42097228  0.46399981  1
  S2-  S203  1  0.26115824  0.36796064  0.96151419  1
  S2-  S204  1  0.24755046  0.67143376  0.46194067  1
  S2-  S205  1  0.26292153  0.61677200  0.96172426  1
  S2-  S206  1  0.24867138  0.91702249  0.44708056  1
  S2-  S207  1  0.25866975  0.86977381  0.96475529  1
  S2-  S208  1  0.49966035  0.16312828  0.46240202  1
  S2-  S209  1  0.50424689  0.11905455  0.95036172  1
  S2-  S210  1  0.49783957  0.42545145  0.46348705  1
  S2-  S211  1  0.51110161  0.37106266  0.95930543  1
  S2-  S212  1  0.49949588  0.67217001  0.46489261  1
  S2-  S213  1  0.50867645  0.61992149  0.95327725  1
  S2-  S214  1  0.49699227  0.91738686  0.45779137  1
  S2-  S215  1  0.50504103  0.86777000  0.94688343  1
  S2-  S216  1  0.74678317  0.16263863  0.45511803  1
  S2-  S217  1  0.76138009  0.12156947  0.94308668  1
  S2-  S218  1  0.74507809  0.42047845  0.45515855  1
  S2-  S219  1  0.75513671  0.37012369  0.95775879  1
  S2-  S220  1  0.74635925  0.67062313  0.46242825  1
  S2-  S221  1  0.75609929  0.62118533  0.95720949  1
  S2-  S222  1  0.74602075  0.91928914  0.46424101  1
  S2-  S223  1  0.76041097  0.86716978  0.95737440  1
  S2-  S224  1  0.13325654  -0.00176364  0.05727799  1
  S2-  S225  1  0.12316111  0.04825712  0.53426718  1
  S2-  S226  1  0.13734037  0.24079311  0.05425630  1
  S2-  S227  1  0.12500719  0.29854984  0.53806483  1
  S2-  S228  1  0.13662850  0.49672418  0.04238489  1
  S2-  S229  1  0.11928713  0.54538938  0.54002226  1
  S2-  S230  1  0.13278922  0.74835525  0.03795536  1
  S2-  S231  1  0.12040677  0.79717884  0.53700828  1
  S2-  S232  1  0.38036020  -0.00721112  0.03748085  1
  S2-  S233  1  0.37439183  0.04625892  0.54410443  1
  S2-  S234  1  0.38140856  0.25371132  0.04982310  1
  S2-  S235  1  0.37267644  0.29609863  0.54460432  1
  S2-  S236  1  0.38923458  0.49234857  0.05387996  1
  S2-  S237  1  0.36961965  0.54911297  0.54616434  1
  S2-  S238  1  0.38674160  0.74604727  0.04943399  1
  S2-  S239  1  0.37205991  0.79902332  0.53951982  1
  S2-  S240  1  0.63649841  -0.00303557  0.04669396  1
  S2-  S241  1  0.62416719  0.04342628  0.54862988  1
  S2-  S242  1  0.63518766  0.24078993  0.04523982  1
  S2-  S243  1  0.62333866  0.29626360  0.53963862  1
  S2-  S244  1  0.63992156  0.49448613  0.05241339  1
  S2-  S245  1  0.62359686  0.54696235  0.54548437  1
  S2-  S246  1  0.63170130  0.74749340  0.04635136  1
  S2-  S247  1  0.62552746  0.79748115  0.55340433  1
  S2-  S248  1  0.88504702  -0.00493779  0.04959998  1
  S2-  S249  1  0.88124683  0.04764687  0.53682375  1
  S2-  S250  1  0.88434007  0.24675998  0.03765072  1
  S2-  S251  1  0.87556252  0.29829461  0.53352447  1
  S2-  S252  1  0.88330415  0.49963082  0.03721006  1
  S2-  S253  1  0.87493151  0.54167184  0.53617992  1
  S2-  S254  1  0.88801580  0.74669542  0.04746125  1
  S2-  S255  1  0.87824864  0.79713963  0.53939490  1
