# generated using pymatgen
data_La6Ce7Pr13Nd19Sm19(BiS2)64
_symmetry_space_group_name_H-M   'P 1'
_cell_length_a   16.10575870
_cell_length_b   16.04145495
_cell_length_c   27.38923541
_cell_angle_alpha   89.79060814
_cell_angle_beta   89.73907118
_cell_angle_gamma   89.90685165
_symmetry_Int_Tables_number   1
_chemical_formula_structural   La6Ce7Pr13Nd19Sm19(BiS2)64
_chemical_formula_sum   'La6 Ce7 Pr13 Nd19 Sm19 Bi64 S128'
_cell_volume   7076.14765816
_cell_formula_units_Z   1
loop_
 _symmetry_equiv_pos_site_id
 _symmetry_equiv_pos_as_xyz
  1  'x, y, z'
loop_
 _atom_type_symbol
 _atom_type_oxidation_number
  La3+  3.0
  Ce3+  3.0
  Pr3+  3.0
  Nd3+  3.0
  Sm3+  3.0
  Bi2+  2.0
  S2-  -2.0
loop_
 _atom_site_type_symbol
 _atom_site_label
 _atom_site_symmetry_multiplicity
 _atom_site_fract_x
 _atom_site_fract_y
 _atom_site_fract_z
 _atom_site_occupancy
  La3+  La0  1  0.15284126  0.01671214  0.88442015  1
  La3+  La1  1  0.00583872  0.85927286  0.60756547  1
  La3+  La2  1  0.26331736  0.63008872  0.07900190  1
  La3+  La3  1  -0.00162366  0.63141056  0.09558000  1
  La3+  La4  1  0.63892733  0.51830066  0.91263225  1
  La3+  La5  1  0.23787683  0.14498510  0.10937603  1
  Ce3+  Ce6  1  -0.00069693  0.10480159  0.55371850  1
  Ce3+  Ce7  1  0.12372743  0.48882905  0.43800457  1
  Ce3+  Ce8  1  0.88007804  0.26375198  0.94044965  1
  Ce3+  Ce9  1  0.12112910  0.73950963  0.43479768  1
  Ce3+  Ce10  1  0.37246315  0.48737428  0.44188861  1
  Ce3+  Ce11  1  0.87295177  0.23952778  0.44416071  1
  Ce3+  Ce12  1  0.62502972  -0.01426603  0.43768792  1
  Pr3+  Pr13  1  0.38172855  0.26556137  0.92648164  1
  Pr3+  Pr14  1  0.12940852  0.26297104  0.93696017  1
  Pr3+  Pr15  1  0.37842899  0.23603038  0.42315818  1
  Pr3+  Pr16  1  0.74488338  0.61027501  0.56238212  1
  Pr3+  Pr17  1  0.62454698  0.49235159  0.42689434  1
  Pr3+  Pr18  1  0.74223036  0.35934524  0.56141097  1
  Pr3+  Pr19  1  0.38129461  0.01758610  0.93904293  1
  Pr3+  Pr20  1  0.11375830  -0.01418907  0.42011610  1
  Pr3+  Pr21  1  0.38052872  0.51876993  0.92775258  1
  Pr3+  Pr22  1  0.00659186  0.38261247  0.06624342  1
  Pr3+  Pr23  1  0.24642181  0.61552943  0.55924257  1
  Pr3+  Pr24  1  0.01104234  0.88817011  0.07191187  1
  Pr3+  Pr25  1  0.75106260  0.13295209  0.06572122  1
  Nd3+  Nd26  1  0.74654719  0.11037815  0.54947090  1
  Nd3+  Nd27  1  0.37781713  0.76242206  0.94587864  1
  Nd3+  Nd28  1  0.00014571  0.61682570  0.55817213  1
  Nd3+  Nd29  1  0.25622002  0.89151451  0.06492808  1
  Nd3+  Nd30  1  0.50611190  0.63285117  0.06138277  1
  Nd3+  Nd31  1  0.00560880  0.13570076  0.05944982  1
  Nd3+  Nd32  1  0.75313497  0.38595603  0.06547504  1
  Nd3+  Nd33  1  0.63601797  0.00973486  0.92720797  1
  Nd3+  Nd34  1  0.50237865  0.14059910  0.06629625  1
  Nd3+  Nd35  1  0.50714848  0.89045573  0.05777389  1
  Nd3+  Nd36  1  0.00082137  0.35996189  0.55857315  1
  Nd3+  Nd37  1  0.12898677  0.76084548  0.94742615  1
  Nd3+  Nd38  1  0.74948292  0.62871435  0.07572752  1
  Nd3+  Nd39  1  0.25374578  0.87248136  0.55459924  1
  Nd3+  Nd40  1  0.49294533  0.35186113  0.56006054  1
  Nd3+  Nd41  1  0.38558496  -0.02552451  0.41426130  1
  Nd3+  Nd42  1  0.50253979  0.38429208  0.05029189  1
  Nd3+  Nd43  1  0.74946056  0.86312251  0.56352671  1
  Nd3+  Nd44  1  0.75471700  0.88595980  0.05683655  1
  Sm3+  Sm45  1  0.62173417  0.24359797  0.42717374  1
  Sm3+  Sm46  1  0.24716464  0.35829205  0.55056428  1
  Sm3+  Sm47  1  0.49816760  0.60809722  0.55800888  1
  Sm3+  Sm48  1  0.88046850  0.51813026  0.94927844  1
  Sm3+  Sm49  1  0.25830398  0.37972790  0.05173382  1
  Sm3+  Sm50  1  0.12160575  0.23745513  0.43513795  1
  Sm3+  Sm51  1  0.63392974  0.26102999  0.94283235  1
  Sm3+  Sm52  1  0.62384844  0.73489331  0.44307202  1
  Sm3+  Sm53  1  0.24765943  0.10878765  0.53965691  1
  Sm3+  Sm54  1  0.37237260  0.74018340  0.44842646  1
  Sm3+  Sm55  1  0.87428876  0.48813407  0.44805133  1
  Sm3+  Sm56  1  0.63280211  0.76475836  0.93944092  1
  Sm3+  Sm57  1  0.89088285  0.01071421  0.94486706  1
  Sm3+  Sm58  1  0.49044430  0.10600578  0.55420444  1
  Sm3+  Sm59  1  0.49804681  0.86511253  0.56299487  1
  Sm3+  Sm60  1  0.12780630  0.51820107  0.94961578  1
  Sm3+  Sm61  1  0.86947768  -0.01559442  0.43365581  1
  Sm3+  Sm62  1  0.88340789  0.75933675  0.95435323  1
  Sm3+  Sm63  1  0.87427717  0.73740046  0.44067838  1
  Bi2+  Bi64  1  -0.02991457  0.14486203  0.28781444  1
  Bi2+  Bi65  1  0.00602648  0.13500140  0.78814812  1
  Bi2+  Bi66  1  -0.05541608  0.40350728  0.29183295  1
  Bi2+  Bi67  1  0.05630734  0.42198006  0.82103058  1
  Bi2+  Bi68  1  0.01202377  0.65002933  0.30032452  1
  Bi2+  Bi69  1  0.04079127  0.61582308  0.78835620  1
  Bi2+  Bi70  1  -0.09007580  0.89884334  0.27059108  1
  Bi2+  Bi71  1  -0.02220792  0.85927027  0.80775038  1
  Bi2+  Bi72  1  0.23321032  0.15743015  0.31215818  1
  Bi2+  Bi73  1  0.28442206  0.20648226  0.78444192  1
  Bi2+  Bi74  1  0.23490237  0.38717235  0.23747127  1
  Bi2+  Bi75  1  0.24187231  0.40475616  0.78477994  1
  Bi2+  Bi76  1  0.26144016  0.58391994  0.28778351  1
  Bi2+  Bi77  1  0.25613047  0.60857789  0.80208841  1
  Bi2+  Bi78  1  0.26363808  0.86646542  0.30505646  1
  Bi2+  Bi79  1  0.27301518  0.83044122  0.79998427  1
  Bi2+  Bi80  1  0.53684305  0.10873368  0.27452588  1
  Bi2+  Bi81  1  0.57129719  0.08626573  0.73857451  1
  Bi2+  Bi82  1  0.49154784  0.36859582  0.31037726  1
  Bi2+  Bi83  1  0.50308598  0.32119910  0.80066633  1
  Bi2+  Bi84  1  0.50344346  0.62832487  0.28935790  1
  Bi2+  Bi85  1  0.51216682  0.63851865  0.78903721  1
  Bi2+  Bi86  1  0.57420185  0.84257650  0.29683871  1
  Bi2+  Bi87  1  0.50017415  0.91533107  0.78222383  1
  Bi2+  Bi88  1  0.72665216  0.10210943  0.29591282  1
  Bi2+  Bi89  1  0.73196866  0.07364026  0.80484246  1
  Bi2+  Bi90  1  0.75569167  0.31025399  0.27654677  1
  Bi2+  Bi91  1  0.76124902  0.36856342  0.79817327  1
  Bi2+  Bi92  1  0.75427464  0.61314075  0.29088961  1
  Bi2+  Bi93  1  0.77696385  0.63987105  0.79848874  1
  Bi2+  Bi94  1  0.74485640  0.91101822  0.33032423  1
  Bi2+  Bi95  1  0.74940268  0.88374185  0.78409500  1
  Bi2+  Bi96  1  0.09215169  0.02916549  0.22285170  1
  Bi2+  Bi97  1  0.13887855  0.00280411  0.68708026  1
  Bi2+  Bi98  1  0.00337769  0.29493381  0.20432104  1
  Bi2+  Bi99  1  0.16384246  0.25361114  0.69790918  1
  Bi2+  Bi100  1  0.13583897  0.54230627  0.20780474  1
  Bi2+  Bi101  1  0.09525957  0.47283479  0.70671974  1
  Bi2+  Bi102  1  0.13998537  0.80061316  0.21005637  1
  Bi2+  Bi103  1  0.13493446  0.73031174  0.70889210  1
  Bi2+  Bi104  1  0.36406184  0.00131958  0.21504501  1
  Bi2+  Bi105  1  0.38609256  0.05867019  0.69307184  1
  Bi2+  Bi106  1  0.39264523  0.26617588  0.20836047  1
  Bi2+  Bi107  1  0.40438134  0.30055767  0.70510755  1
  Bi2+  Bi108  1  0.40698370  0.48239736  0.21529815  1
  Bi2+  Bi109  1  0.36659601  0.58495648  0.70813655  1
  Bi2+  Bi110  1  0.44255980  0.77120247  0.22165002  1
  Bi2+  Bi111  1  0.40133170  0.77756896  0.72321315  1
  Bi2+  Bi112  1  0.62334055  -0.02873755  0.20426453  1
  Bi2+  Bi113  1  0.60560781  -0.08743776  0.68150536  1
  Bi2+  Bi114  1  0.62802949  0.24059931  0.20280057  1
  Bi2+  Bi115  1  0.70616799  0.24334880  0.71288073  1
  Bi2+  Bi116  1  0.61517201  0.49878799  0.22622392  1
  Bi2+  Bi117  1  0.62604991  0.49337782  0.69890188  1
  Bi2+  Bi118  1  0.59882968  0.67880128  0.17863096  1
  Bi2+  Bi119  1  0.65481388  0.73487117  0.71319759  1
  Bi2+  Bi120  1  0.84663443  0.06693736  0.20846791  1
  Bi2+  Bi121  1  0.83416309  0.01620293  0.71306740  1
  Bi2+  Bi122  1  0.82171931  0.25855775  0.16821009  1
  Bi2+  Bi123  1  0.89823613  0.26956700  0.73660332  1
  Bi2+  Bi124  1  0.85742050  0.51510333  0.21293760  1
  Bi2+  Bi125  1  0.90795285  0.48023802  0.74829832  1
  Bi2+  Bi126  1  0.76007637  0.76975114  0.22238828  1
  Bi2+  Bi127  1  0.85939807  0.73370758  0.70920172  1
  S2-  S128  1  0.06720169  0.15532802  0.15219675  1
  S2-  S129  1  -0.00953829  0.03767179  0.64239500  1
  S2-  S130  1  0.00278741  0.47480720  0.15148007  1
  S2-  S131  1  0.02651306  0.33060723  0.65467585  1
  S2-  S132  1  0.02984358  0.68492984  0.19541031  1
  S2-  S133  1  -0.00320345  0.69140265  0.64734025  1
  S2-  S134  1  0.00386607  0.90193007  0.17322093  1
  S2-  S135  1  0.03149147  0.86968259  0.71690300  1
  S2-  S136  1  0.23197261  0.11891089  0.21519969  1
  S2-  S137  1  0.24505825  0.12027079  0.63824027  1
  S2-  S138  1  0.25459052  0.31753163  0.14404908  1
  S2-  S139  1  0.26930175  0.35382594  0.64674742  1
  S2-  S140  1  0.23401031  0.68371866  0.17612245  1
  S2-  S141  1  0.21137023  0.59218076  0.65611686  1
  S2-  S142  1  0.24788312  0.92173346  0.16387820  1
  S2-  S143  1  0.18193871  0.84841560  0.64306741  1
  S2-  S144  1  0.40087451  0.12568535  0.14833440  1
  S2-  S145  1  0.48161940  0.18548322  0.64048354  1
  S2-  S146  1  0.50255091  0.31390626  0.14265964  1
  S2-  S147  1  0.52194539  0.40338779  0.65311974  1
  S2-  S148  1  0.40674350  0.58331230  0.13838003  1
  S2-  S149  1  0.51813027  0.61364375  0.65441415  1
  S2-  S150  1  0.47672954  0.90091230  0.15620436  1
  S2-  S151  1  0.39471127  0.94095316  0.62787706  1
  S2-  S152  1  0.62621655  0.10347553  0.13696351  1
  S2-  S153  1  0.74505919  0.11039584  0.64820138  1
  S2-  S154  1  0.72805898  0.47964282  0.14913312  1
  S2-  S155  1  0.74178699  0.39509581  0.65881705  1
  S2-  S156  1  0.84718521  0.65667755  0.15613504  1
  S2-  S157  1  0.75048317  0.61264422  0.66216910  1
  S2-  S158  1  0.75810865  0.90494417  0.15537946  1
  S2-  S159  1  0.84008734  0.86760281  0.64813043  1
  S2-  S160  1  0.15015385  -0.00591757  0.32027871  1
  S2-  S161  1  0.14200009  0.03058848  0.77809707  1
  S2-  S162  1  0.09698987  0.24007178  0.33833789  1
  S2-  S163  1  0.13150348  0.19060780  0.84511782  1
  S2-  S164  1  0.12812030  0.52434620  0.34149871  1
  S2-  S165  1  0.13039849  0.63041896  0.87455490  1
  S2-  S166  1  0.12460967  0.76138342  0.33604510  1
  S2-  S167  1  0.12646024  0.84502952  0.85671687  1
  S2-  S168  1  0.34696901  0.01967889  0.31958263  1
  S2-  S169  1  0.32018566  -0.03966627  0.84985646  1
  S2-  S170  1  0.32104825  0.29280413  0.33116361  1
  S2-  S171  1  0.42206448  0.17802271  0.83998591  1
  S2-  S172  1  0.39165802  0.51309416  0.34614140  1
  S2-  S173  1  0.37401449  0.39698484  0.85431990  1
  S2-  S174  1  0.38369517  0.80628611  0.35840777  1
  S2-  S175  1  0.38415027  0.66085659  0.86408572  1
  S2-  S176  1  0.53515215  -0.01949488  0.35607639  1
  S2-  S177  1  0.62018977  -0.11487748  0.85692393  1
  S2-  S178  1  0.50915352  0.21575995  0.35087251  1
  S2-  S179  1  0.64668750  0.26754143  0.84519865  1
  S2-  S180  1  0.64316578  0.37129284  0.35402815  1
  S2-  S181  1  0.56601050  0.48494150  0.81639266  1
  S2-  S182  1  0.63038771  0.63393732  0.36171286  1
  S2-  S183  1  0.63808958  0.67103626  0.85743659  1
  S2-  S184  1  0.95672563  -0.00526835  0.34845647  1
  S2-  S185  1  0.97370074  0.00767616  0.85826565  1
  S2-  S186  1  0.87547472  0.25696557  0.34776076  1
  S2-  S187  1  0.89158779  0.24773570  0.84363913  1
  S2-  S188  1  0.85299039  0.50203517  0.35164635  1
  S2-  S189  1  0.79630465  0.50804089  0.86340830  1
  S2-  S190  1  0.89553009  0.73269232  0.34180919  1
  S2-  S191  1  0.88802530  0.73246074  0.85698599  1
  S2-  S192  1  -0.00342381  0.11428597  0.44867123  1
  S2-  S193  1  0.00530183  0.13890660  0.95596293  1
  S2-  S194  1  -0.00048580  0.36413588  0.45147584  1
  S2-  S195  1  0.00345378  0.39132124  0.95887101  1
  S2-  S196  1  -0.00330975  0.61235755  0.45203724  1
  S2-  S197  1  0.00248079  0.63561476  0.97333716  1
  S2-  S198  1  -0.00740216  0.86092984  0.44439490  1
  S2-  S199  1  0.00268460  0.88290316  0.96632593  1
  S2-  S200  1  0.24620702  0.11171604  0.43551399  1
  S2-  S201  1  0.25542780  0.13757005  0.94020448  1
  S2-  S202  1  0.24560456  0.36175640  0.44619107  1
  S2-  S203  1  0.24867914  0.39323909  0.94929224  1
  S2-  S204  1  0.24904944  0.61635172  0.45191567  1
  S2-  S205  1  0.25623277  0.63783238  0.96975872  1
  S2-  S206  1  0.24524181  0.86515774  0.44772087  1
  S2-  S207  1  0.25361285  0.88611961  0.96056321  1
  S2-  S208  1  0.50484485  0.11357574  0.45230786  1
  S2-  S209  1  0.51489329  0.13474922  0.95266525  1
  S2-  S210  1  0.49845297  0.36479663  0.45291060  1
  S2-  S211  1  0.51640200  0.38977186  0.94665534  1
  S2-  S212  1  0.49434274  0.61626802  0.45481554  1
  S2-  S213  1  0.51187478  0.63884201  0.95791977  1
  S2-  S214  1  0.50408133  0.85586638  0.46010316  1
  S2-  S215  1  0.50384917  0.88594314  0.95309507  1
  S2-  S216  1  0.74681998  0.11520817  0.44392586  1
  S2-  S217  1  0.75908401  0.13362847  0.95317668  1
  S2-  S218  1  0.75004510  0.36524685  0.45614118  1
  S2-  S219  1  0.75596824  0.38655817  0.95932833  1
  S2-  S220  1  0.75213718  0.61262393  0.45736260  1
  S2-  S221  1  0.75675977  0.63948187  0.96657679  1
  S2-  S222  1  0.74771611  0.85739186  0.45679935  1
  S2-  S223  1  0.76335799  0.88771954  0.95129065  1
  S2-  S224  1  0.13399172  0.01691715  0.06078372  1
  S2-  S225  1  0.12431997  -0.01319653  0.53384448  1
  S2-  S226  1  0.13184189  0.25942136  0.04394711  1
  S2-  S227  1  0.12426397  0.23493629  0.53971508  1
  S2-  S228  1  0.13553626  0.50728708  0.05341224  1
  S2-  S229  1  0.12362008  0.48608643  0.54533813  1
  S2-  S230  1  0.13187605  0.75809530  0.06004897  1
  S2-  S231  1  0.12205404  0.74219690  0.54121174  1
  S2-  S232  1  0.38110610  0.01218715  0.04482789  1
  S2-  S233  1  0.37339001  -0.00876595  0.52052339  1
  S2-  S234  1  0.37812188  0.25870152  0.03438794  1
  S2-  S235  1  0.36873124  0.23426757  0.53189225  1
  S2-  S236  1  0.37950545  0.50331917  0.03379789  1
  S2-  S237  1  0.37202868  0.48552778  0.54828281  1
  S2-  S238  1  0.38320184  0.76393798  0.05219677  1
  S2-  S239  1  0.37631526  0.73841857  0.55323584  1
  S2-  S240  1  0.63164331  0.00856630  0.03309446  1
  S2-  S241  1  0.62017349  -0.01274189  0.54516692  1
  S2-  S242  1  0.63198914  0.26130452  0.04500066  1
  S2-  S243  1  0.61997206  0.23379720  0.53856935  1
  S2-  S244  1  0.62616582  0.50848073  0.04491154  1
  S2-  S245  1  0.61925738  0.48592962  0.54006795  1
  S2-  S246  1  0.63073307  0.76188394  0.04726655  1
  S2-  S247  1  0.62021142  0.73794172  0.54855635  1
  S2-  S248  1  0.88052243  0.01144016  0.05072000  1
  S2-  S249  1  0.87008643  -0.01392345  0.53766946  1
  S2-  S250  1  0.87881745  0.25989870  0.04632718  1
  S2-  S251  1  0.87319092  0.23630026  0.55142056  1
  S2-  S252  1  0.87853316  0.50942150  0.05149247  1
  S2-  S253  1  0.87548860  0.48670867  0.55305788  1
  S2-  S254  1  0.88102299  0.76343227  0.05765368  1
  S2-  S255  1  0.87131930  0.73634562  0.54474698  1
