# generated using pymatgen
data_La6Ce7Pr13Nd19Sm19(BiS2)64
_symmetry_space_group_name_H-M   'P 1'
_cell_length_a   16.06674810
_cell_length_b   16.13029422
_cell_length_c   27.44706962
_cell_angle_alpha   89.91687928
_cell_angle_beta   90.00539105
_cell_angle_gamma   89.99113099
_symmetry_Int_Tables_number   1
_chemical_formula_structural   La6Ce7Pr13Nd19Sm19(BiS2)64
_chemical_formula_sum   'La6 Ce7 Pr13 Nd19 Sm19 Bi64 S128'
_cell_volume   7113.21267198
_cell_formula_units_Z   1
loop_
 _symmetry_equiv_pos_site_id
 _symmetry_equiv_pos_as_xyz
  1  'x, y, z'
loop_
 _atom_type_symbol
 _atom_type_oxidation_number
  La3+  3.0
  Ce3+  3.0
  Pr3+  3.0
  Nd3+  3.0
  Sm3+  3.0
  Bi2+  2.0
  S2-  -2.0
loop_
 _atom_site_type_symbol
 _atom_site_label
 _atom_site_symmetry_multiplicity
 _atom_site_fract_x
 _atom_site_fract_y
 _atom_site_fract_z
 _atom_site_occupancy
  La3+  La0  1  0.25992391  0.36248448  0.11404007  1
  La3+  La1  1  0.75675938  0.88594450  0.10708188  1
  La3+  La2  1  -0.01677121  0.62408610  0.57268548  1
  La3+  La3  1  0.36985527  0.76460579  0.93086096  1
  La3+  La4  1  0.00853959  0.12257853  0.61581263  1
  La3+  La5  1  0.24214208  0.87676311  0.06928608  1
  Ce3+  Ce6  1  0.35873030  0.49705861  0.43518153  1
  Ce3+  Ce7  1  0.49364727  0.12972102  0.05714914  1
  Ce3+  Ce8  1  0.23355020  0.87537422  0.56610205  1
  Ce3+  Ce9  1  0.24329618  0.62140349  0.06041760  1
  Ce3+  Ce10  1  0.11994016  0.25533865  0.94056253  1
  Ce3+  Ce11  1  0.10896532  0.49748903  0.44825687  1
  Ce3+  Ce12  1  0.85938515  0.01179544  0.92015494  1
  Pr3+  Pr13  1  0.49130951  0.38133963  0.05561000  1
  Pr3+  Pr14  1  0.86624673  0.25571425  0.93749564  1
  Pr3+  Pr15  1  0.11574747  -0.00014707  0.92631637  1
  Pr3+  Pr16  1  0.74445720  0.38261177  0.06671078  1
  Pr3+  Pr17  1  0.73720982  0.12388027  0.56499602  1
  Pr3+  Pr18  1  0.85894450  0.50180941  0.43524468  1
  Pr3+  Pr19  1  0.60962054  0.00062758  0.43444922  1
  Pr3+  Pr20  1  0.11984621  0.75240307  0.94202392  1
  Pr3+  Pr21  1  0.36378146  0.50894779  0.92782212  1
  Pr3+  Pr22  1  0.86012793  0.50634051  0.93139274  1
  Pr3+  Pr23  1  -0.02327254  0.36839052  0.56901134  1
  Pr3+  Pr24  1  0.86147181  0.74920892  0.43920236  1
  Pr3+  Pr25  1  0.48341310  0.37456349  0.56501898  1
  Nd3+  Nd26  1  0.73587008  0.87471387  0.55966934  1
  Nd3+  Nd27  1  -0.00043844  0.38069072  0.06322074  1
  Nd3+  Nd28  1  0.49753806  0.87838286  0.06504365  1
  Nd3+  Nd29  1  0.35219926  0.24535575  0.43313036  1
  Nd3+  Nd30  1  -0.01778748  0.87304899  0.57145792  1
  Nd3+  Nd31  1  0.86134761  -0.00003524  0.44362758  1
  Nd3+  Nd32  1  0.61351858  0.50633192  0.92615345  1
  Nd3+  Nd33  1  0.73528217  0.62339382  0.56540699  1
  Nd3+  Nd34  1  0.86492598  0.75725639  0.93730342  1
  Nd3+  Nd35  1  0.62227264  0.00486158  0.94275359  1
  Nd3+  Nd36  1  0.74268437  0.62747832  0.06472013  1
  Nd3+  Nd37  1  0.49230453  0.62764830  0.05422334  1
  Nd3+  Nd38  1  0.60683306  0.25228941  0.43511873  1
  Nd3+  Nd39  1  0.35833503  -0.00135457  0.44740624  1
  Nd3+  Nd40  1  0.36483488  0.25626835  0.94151665  1
  Nd3+  Nd41  1  0.10570368  0.24896487  0.43890124  1
  Nd3+  Nd42  1  0.23697839  0.12055075  0.06302988  1
  Nd3+  Nd43  1  0.48749037  0.87233069  0.55878321  1
  Nd3+  Nd44  1  -0.00814978  0.12768153  0.05289269  1
  Sm3+  Sm45  1  0.35912591  0.75094164  0.44583191  1
  Sm3+  Sm46  1  0.61038361  0.75014744  0.43686980  1
  Sm3+  Sm47  1  0.36752022  0.00537779  0.94551443  1
  Sm3+  Sm48  1  0.62120284  0.75826071  0.94826026  1
  Sm3+  Sm49  1  0.74600889  0.12806465  0.06024384  1
  Sm3+  Sm50  1  0.23433696  0.62358560  0.55388384  1
  Sm3+  Sm51  1  0.61803956  0.25661238  0.94787396  1
  Sm3+  Sm52  1  -0.00867315  0.62894686  0.05166453  1
  Sm3+  Sm53  1  0.10970542  0.50132533  0.93171072  1
  Sm3+  Sm54  1  0.23728002  0.12538450  0.56190244  1
  Sm3+  Sm55  1  0.11017961  0.75065008  0.44183987  1
  Sm3+  Sm56  1  0.73007127  0.37312411  0.55972917  1
  Sm3+  Sm57  1  0.48496026  0.62455048  0.54868175  1
  Sm3+  Sm58  1  0.10744561  -0.00095082  0.44883954  1
  Sm3+  Sm59  1  0.49091184  0.12446996  0.56096435  1
  Sm3+  Sm60  1  0.23707722  0.37151931  0.56152333  1
  Sm3+  Sm61  1  0.86324141  0.24985663  0.43912618  1
  Sm3+  Sm62  1  -0.01298811  0.88075409  0.05032025  1
  Sm3+  Sm63  1  0.60879012  0.49867561  0.43742649  1
  Bi2+  Bi64  1  -0.01311706  0.16668965  0.27533277  1
  Bi2+  Bi65  1  0.02900923  0.12075223  0.81969576  1
  Bi2+  Bi66  1  0.02459057  0.37700418  0.29926762  1
  Bi2+  Bi67  1  -0.00277427  0.37246756  0.77888837  1
  Bi2+  Bi68  1  -0.04283877  0.60899464  0.30919294  1
  Bi2+  Bi69  1  0.04064852  0.60530364  0.80045426  1
  Bi2+  Bi70  1  -0.02804154  0.88851615  0.28829767  1
  Bi2+  Bi71  1  -0.02867089  0.82800671  0.78709060  1
  Bi2+  Bi72  1  0.24626716  0.10311186  0.29893356  1
  Bi2+  Bi73  1  0.27363300  0.19076150  0.76212378  1
  Bi2+  Bi74  1  0.27967095  0.37798052  0.31484210  1
  Bi2+  Bi75  1  0.28279637  0.38635850  0.78727959  1
  Bi2+  Bi76  1  0.22579320  0.59362184  0.24407708  1
  Bi2+  Bi77  1  0.29064333  0.63169119  0.74885530  1
  Bi2+  Bi78  1  0.22937579  0.86504207  0.31434916  1
  Bi2+  Bi79  1  0.25691134  0.84425006  0.80680521  1
  Bi2+  Bi80  1  0.44718557  0.06489480  0.25425400  1
  Bi2+  Bi81  1  0.53393088  0.09220051  0.78538599  1
  Bi2+  Bi82  1  0.52605847  0.38461648  0.31209077  1
  Bi2+  Bi83  1  0.47979499  0.35894050  0.78838507  1
  Bi2+  Bi84  1  0.39755457  0.68503169  0.25993978  1
  Bi2+  Bi85  1  0.54563679  0.59364263  0.77636040  1
  Bi2+  Bi86  1  0.50045609  0.87731545  0.30523127  1
  Bi2+  Bi87  1  0.50876045  0.86874849  0.79147581  1
  Bi2+  Bi88  1  0.79388670  0.12954529  0.28674135  1
  Bi2+  Bi89  1  0.72875724  0.13765196  0.79524037  1
  Bi2+  Bi90  1  0.76764002  0.32972377  0.29869755  1
  Bi2+  Bi91  1  0.73431763  0.37727996  0.78758206  1
  Bi2+  Bi92  1  0.79658240  0.60366903  0.25065066  1
  Bi2+  Bi93  1  0.74009444  0.66481418  0.78541994  1
  Bi2+  Bi94  1  0.74009177  0.86836555  0.30310904  1
  Bi2+  Bi95  1  0.70536211  0.86438212  0.78750156  1
  Bi2+  Bi96  1  0.13756127  -0.02438088  0.23292873  1
  Bi2+  Bi97  1  0.14133228  -0.00864583  0.71947520  1
  Bi2+  Bi98  1  0.12317205  0.23112128  0.20363471  1
  Bi2+  Bi99  1  0.20042428  0.32565352  0.68854932  1
  Bi2+  Bi100  1  0.04939770  0.51338928  0.21863908  1
  Bi2+  Bi101  1  0.11856816  0.49392981  0.71780111  1
  Bi2+  Bi102  1  0.11415137  0.77152729  0.23174120  1
  Bi2+  Bi103  1  0.14542756  0.74700995  0.70744354  1
  Bi2+  Bi104  1  0.34788168  -0.08085770  0.20197936  1
  Bi2+  Bi105  1  0.36597940  0.01234476  0.74893743  1
  Bi2+  Bi106  1  0.39554675  0.23869241  0.21365982  1
  Bi2+  Bi107  1  0.42245136  0.16218427  0.68516128  1
  Bi2+  Bi108  1  0.41280345  0.52025690  0.20288599  1
  Bi2+  Bi109  1  0.40561935  0.47906975  0.70967289  1
  Bi2+  Bi110  1  0.28192638  0.74321793  0.17150301  1
  Bi2+  Bi111  1  0.43972903  0.75207906  0.70714798  1
  Bi2+  Bi112  1  0.64686881  0.09124912  0.21317831  1
  Bi2+  Bi113  1  0.62548633  -0.02243442  0.70589428  1
  Bi2+  Bi114  1  0.65509446  0.28420074  0.20041593  1
  Bi2+  Bi115  1  0.59506551  0.24860042  0.71149505  1
  Bi2+  Bi116  1  0.65136189  0.47543934  0.23694309  1
  Bi2+  Bi117  1  0.66682629  0.49638928  0.70296186  1
  Bi2+  Bi118  1  0.60788982  0.74441992  0.20299339  1
  Bi2+  Bi119  1  0.62808483  0.69039856  0.68574991  1
  Bi2+  Bi120  1  0.91411180  0.01633599  0.20722867  1
  Bi2+  Bi121  1  0.87182990  0.00020172  0.71389399  1
  Bi2+  Bi122  1  0.85281199  0.27046895  0.19802669  1
  Bi2+  Bi123  1  0.87507993  0.27202219  0.70859224  1
  Bi2+  Bi124  1  0.87106631  0.46145793  0.17902252  1
  Bi2+  Bi125  1  0.86422128  0.48851488  0.72192746  1
  Bi2+  Bi126  1  0.91386431  0.74696483  0.21199684  1
  Bi2+  Bi127  1  0.86735786  0.74262438  0.70525516  1
  S2-  S128  1  0.01977804  0.12152785  0.15025629  1
  S2-  S129  1  -0.00023610  0.11568659  0.72788835  1
  S2-  S130  1  0.09017929  0.36893410  0.14778422  1
  S2-  S131  1  0.02226717  0.28577594  0.65485824  1
  S2-  S132  1  -0.01181044  0.62721324  0.14974629  1
  S2-  S133  1  0.00807808  0.74768591  0.64553702  1
  S2-  S134  1  -0.07513896  0.88302591  0.14164415  1
  S2-  S135  1  0.00130942  0.95902121  0.65865687  1
  S2-  S136  1  0.26853818  0.19497030  0.15061049  1
  S2-  S137  1  0.17696337  0.10307871  0.65273098  1
  S2-  S138  1  0.25954612  0.34558056  0.22338924  1
  S2-  S139  1  0.35390586  0.37397962  0.63564487  1
  S2-  S140  1  0.25962655  0.53188189  0.14441387  1
  S2-  S141  1  0.21435880  0.61998466  0.65076763  1
  S2-  S142  1  0.22468106  0.99315808  0.14260441  1
  S2-  S143  1  0.23491370  0.87566522  0.66450398  1
  S2-  S144  1  0.49317024  0.11485228  0.15405138  1
  S2-  S145  1  0.60400061  0.11878598  0.63746745  1
  S2-  S146  1  0.43451636  0.37102332  0.15018836  1
  S2-  S147  1  0.61008108  0.36974931  0.63739008  1
  S2-  S148  1  0.51992913  0.61237225  0.15256019  1
  S2-  S149  1  0.47417792  0.61020824  0.64496344  1
  S2-  S150  1  0.50534305  0.85261761  0.16308928  1
  S2-  S151  1  0.50505320  0.89178035  0.65573357  1
  S2-  S152  1  0.76816772  0.05206064  0.14651597  1
  S2-  S153  1  0.83624092  0.12663587  0.64962651  1
  S2-  S154  1  0.71927387  0.50298027  0.13735182  1
  S2-  S155  1  0.83861105  0.37965420  0.63761765  1
  S2-  S156  1  0.74740138  0.72370845  0.14811544  1
  S2-  S157  1  0.84867911  0.61067023  0.64261076  1
  S2-  S158  1  0.70249626  0.88527783  0.21195508  1
  S2-  S159  1  0.79470129  0.87802154  0.65304836  1
  S2-  S160  1  0.13155488  0.00416554  0.35164879  1
  S2-  S161  1  0.16782655  0.00897467  0.82865986  1
  S2-  S162  1  0.21693315  0.23539738  0.36059112  1
  S2-  S163  1  0.09631445  0.26926329  0.84366839  1
  S2-  S164  1  0.13904403  0.46814256  0.35366898  1
  S2-  S165  1  0.17539737  0.55098913  0.84480430  1
  S2-  S166  1  0.12224274  0.74553655  0.34475839  1
  S2-  S167  1  0.11552943  0.78371980  0.84313171  1
  S2-  S168  1  0.37563836  0.03553779  0.35189824  1
  S2-  S169  1  0.38173357  -0.08546403  0.86412033  1
  S2-  S170  1  0.41665677  0.27461076  0.34121563  1
  S2-  S171  1  0.37312078  0.25045532  0.84213294  1
  S2-  S172  1  0.39639390  0.50058825  0.34016248  1
  S2-  S173  1  0.48699598  0.50293324  0.85402255  1
  S2-  S174  1  0.37044445  0.77493908  0.34986005  1
  S2-  S175  1  0.34029246  0.70728836  0.83706646  1
  S2-  S176  1  0.61696253  -0.01854985  0.33505567  1
  S2-  S177  1  0.71543992  0.00187358  0.85701741  1
  S2-  S178  1  0.62890476  0.24878560  0.33722238  1
  S2-  S179  1  0.64804595  0.26170643  0.85241020  1
  S2-  S180  1  0.64481854  0.50900389  0.34305220  1
  S2-  S181  1  0.73708937  0.49882503  0.85598405  1
  S2-  S182  1  0.60959520  0.76309961  0.33887258  1
  S2-  S183  1  0.60710253  0.75620324  0.84986725  1
  S2-  S184  1  0.86057128  -0.01675337  0.34357422  1
  S2-  S185  1  0.94897975  -0.03804538  0.83916479  1
  S2-  S186  1  0.98197419  0.25288805  0.36455706  1
  S2-  S187  1  0.86578380  0.16300819  0.85236662  1
  S2-  S188  1  0.88312688  0.45608349  0.33987082  1
  S2-  S189  1  0.97864080  0.48194671  0.85855928  1
  S2-  S190  1  0.83874538  0.73150065  0.34146106  1
  S2-  S191  1  0.88258142  0.70222942  0.84265454  1
  S2-  S192  1  -0.01547535  0.11988866  0.45313464  1
  S2-  S193  1  -0.00521544  0.12843159  0.94899072  1
  S2-  S194  1  -0.01764330  0.37739491  0.46157608  1
  S2-  S195  1  -0.00809058  0.37493083  0.95805640  1
  S2-  S196  1  -0.01268146  0.62575534  0.45849203  1
  S2-  S197  1  -0.00840073  0.63126592  0.94951640  1
  S2-  S198  1  -0.01347876  0.87315430  0.45507234  1
  S2-  S199  1  -0.00827800  0.87739451  0.94884443  1
  S2-  S200  1  0.23222260  0.11881514  0.46013002  1
  S2-  S201  1  0.24361602  0.12587334  0.95148541  1
  S2-  S202  1  0.23541518  0.37420414  0.45956790  1
  S2-  S203  1  0.24155338  0.38196082  0.93885915  1
  S2-  S204  1  0.23550293  0.62687351  0.44928948  1
  S2-  S205  1  0.24419607  0.63123856  0.95527295  1
  S2-  S206  1  0.23438777  0.87379736  0.45884440  1
  S2-  S207  1  0.24095417  0.88320956  0.95960881  1
  S2-  S208  1  0.48495474  0.12516900  0.45466741  1
  S2-  S209  1  0.49362218  0.12978202  0.94980308  1
  S2-  S210  1  0.48482970  0.37551100  0.45562181  1
  S2-  S211  1  0.49189282  0.37610465  0.95080359  1
  S2-  S212  1  0.48600269  0.62701667  0.44459638  1
  S2-  S213  1  0.49244401  0.63631175  0.94995211  1
  S2-  S214  1  0.48569495  0.87314633  0.45352436  1
  S2-  S215  1  0.49914259  0.88373289  0.96000598  1
  S2-  S216  1  0.73633167  0.12675634  0.44956132  1
  S2-  S217  1  0.73987510  0.13465322  0.95868320  1
  S2-  S218  1  0.73421995  0.37458670  0.45086528  1
  S2-  S219  1  0.74109960  0.37686236  0.95979468  1
  S2-  S220  1  0.73090836  0.62515587  0.45391318  1
  S2-  S221  1  0.73942108  0.63371671  0.95592955  1
  S2-  S222  1  0.73348465  0.87334828  0.45234689  1
  S2-  S223  1  0.74318922  0.87866074  0.95128837  1
  S2-  S224  1  0.11169195  0.00051275  0.03687494  1
  S2-  S225  1  0.10907151  -0.00037403  0.55132367  1
  S2-  S226  1  0.12109096  0.25137850  0.04476194  1
  S2-  S227  1  0.11439777  0.24692018  0.54622754  1
  S2-  S228  1  0.11353372  0.50729838  0.03865872  1
  S2-  S229  1  0.11080537  0.49551445  0.55464297  1
  S2-  S230  1  0.11346100  0.75466264  0.04952684  1
  S2-  S231  1  0.11334462  0.74992832  0.54490245  1
  S2-  S232  1  0.37181121  0.00312783  0.04804927  1
  S2-  S233  1  0.36373117  0.00103118  0.55399420  1
  S2-  S234  1  0.36527548  0.25322212  0.04543701  1
  S2-  S235  1  0.36234181  0.24276153  0.54096492  1
  S2-  S236  1  0.36881544  0.50308203  0.03606749  1
  S2-  S237  1  0.35890302  0.50399772  0.54066815  1
  S2-  S238  1  0.37065003  0.75496595  0.04339058  1
  S2-  S239  1  0.35930791  0.74811766  0.55020249  1
  S2-  S240  1  0.62277032  0.00284569  0.05049693  1
  S2-  S241  1  0.61085631  -0.00344570  0.54048786  1
  S2-  S242  1  0.62061095  0.25409512  0.05266728  1
  S2-  S243  1  0.60927961  0.24797347  0.53893075  1
  S2-  S244  1  0.61515836  0.50389867  0.03422923  1
  S2-  S245  1  0.60935091  0.50477641  0.54214188  1
  S2-  S246  1  0.61847513  0.75474936  0.05042192  1
  S2-  S247  1  0.61125807  0.74784186  0.54302838  1
  S2-  S248  1  0.86688988  0.00575062  0.03740250  1
  S2-  S249  1  0.86073976  -0.00406811  0.54653523  1
  S2-  S250  1  0.86849983  0.25552593  0.04798575  1
  S2-  S251  1  0.85320155  0.25016331  0.53967310  1
  S2-  S252  1  0.87108632  0.50385217  0.03933696  1
  S2-  S253  1  0.85624910  0.50063622  0.53987994  1
  S2-  S254  1  0.86804833  0.75399766  0.04272591  1
  S2-  S255  1  0.85807996  0.74979783  0.54410311  1
