# generated using pymatgen
data_La6Ce7Pr13Nd19Sm19(BiS2)64
_symmetry_space_group_name_H-M   'P 1'
_cell_length_a   16.12550138
_cell_length_b   16.13365760
_cell_length_c   27.28458518
_cell_angle_alpha   89.98832544
_cell_angle_beta   89.86599236
_cell_angle_gamma   90.01013363
_symmetry_Int_Tables_number   1
_chemical_formula_structural   La6Ce7Pr13Nd19Sm19(BiS2)64
_chemical_formula_sum   'La6 Ce7 Pr13 Nd19 Sm19 Bi64 S128'
_cell_volume   7098.42853351
_cell_formula_units_Z   1
loop_
 _symmetry_equiv_pos_site_id
 _symmetry_equiv_pos_as_xyz
  1  'x, y, z'
loop_
 _atom_type_symbol
 _atom_type_oxidation_number
  La3+  3.0
  Ce3+  3.0
  Pr3+  3.0
  Nd3+  3.0
  Sm3+  3.0
  Bi2+  2.0
  S2-  -2.0
loop_
 _atom_site_type_symbol
 _atom_site_label
 _atom_site_symmetry_multiplicity
 _atom_site_fract_x
 _atom_site_fract_y
 _atom_site_fract_z
 _atom_site_occupancy
  La3+  La0  1  0.00494326  0.63514308  0.60262729  1
  La3+  La1  1  -0.00735292  0.13575616  0.08956790  1
  La3+  La2  1  -0.01475465  0.86790748  0.09663073  1
  La3+  La3  1  0.11175264  0.23884992  0.90805881  1
  La3+  La4  1  0.37758746  0.51195800  0.91547187  1
  La3+  La5  1  0.24308762  0.87464931  0.55347819  1
  Ce3+  Ce6  1  0.00040824  0.12708999  0.55504262  1
  Ce3+  Ce7  1  0.36974259  0.25542873  0.44633980  1
  Ce3+  Ce8  1  0.37200273  0.50329028  0.44129718  1
  Ce3+  Ce9  1  0.87559373  0.75198639  0.93968027  1
  Ce3+  Ce10  1  0.49143416  0.37630149  0.05724257  1
  Ce3+  Ce11  1  0.24378665  0.87819757  0.06235769  1
  Ce3+  Ce12  1  0.01088092  0.37759809  0.06258534  1
  Pr3+  Pr13  1  0.75127187  0.38206893  0.56480893  1
  Pr3+  Pr14  1  0.12969462  0.01542250  0.41778743  1
  Pr3+  Pr15  1  0.00640802  0.62469329  0.07145845  1
  Pr3+  Pr16  1  0.11019169  0.50991661  0.91604352  1
  Pr3+  Pr17  1  0.36751467  0.25310223  0.93406582  1
  Pr3+  Pr18  1  0.24552278  0.12641983  0.56618898  1
  Pr3+  Pr19  1  0.75140278  0.12771213  0.55939718  1
  Pr3+  Pr20  1  0.74788763  0.62703863  0.05622201  1
  Pr3+  Pr21  1  0.49516071  0.62832491  0.56324173  1
  Pr3+  Pr22  1  0.86859792  0.25688994  0.42908750  1
  Pr3+  Pr23  1  0.49867725  0.12902315  0.55808523  1
  Pr3+  Pr24  1  0.62750576  0.25481352  0.43931176  1
  Pr3+  Pr25  1  0.24195703  0.12845836  0.06414340  1
  Nd3+  Nd26  1  0.74366717  0.12855127  0.07256942  1
  Nd3+  Nd27  1  -0.00008461  0.37892387  0.56204135  1
  Nd3+  Nd28  1  0.24430530  0.37668873  0.04236433  1
  Nd3+  Nd29  1  0.49860277  0.87769046  0.55450876  1
  Nd3+  Nd30  1  0.86734958  0.75060163  0.42576009  1
  Nd3+  Nd31  1  0.62183609  0.75252927  0.43563049  1
  Nd3+  Nd32  1  0.62358051  0.00398245  0.44057244  1
  Nd3+  Nd33  1  0.74562760  0.87658336  0.06139072  1
  Nd3+  Nd34  1  0.75223751  0.63347113  0.56218116  1
  Nd3+  Nd35  1  0.12168811  0.50292409  0.43910204  1
  Nd3+  Nd36  1  0.62257094  0.75337085  0.94477870  1
  Nd3+  Nd37  1  0.87509487  0.00442224  0.95189050  1
  Nd3+  Nd38  1  0.37247280  0.00617010  0.43920625  1
  Nd3+  Nd39  1  0.36975906  0.75806330  0.93980263  1
  Nd3+  Nd40  1  0.74692823  0.37858258  0.06277480  1
  Nd3+  Nd41  1  0.12611843  0.75102718  0.42732645  1
  Nd3+  Nd42  1  0.24295467  0.38022442  0.56906036  1
  Nd3+  Nd43  1  0.62205820  0.50133220  0.94278688  1
  Nd3+  Nd44  1  0.62452441  0.00519002  0.94260220  1
  Sm3+  Sm45  1  0.49599760  0.87877315  0.05635827  1
  Sm3+  Sm46  1  0.49872207  0.37881990  0.55615205  1
  Sm3+  Sm47  1  0.25277422  0.62662546  0.55972046  1
  Sm3+  Sm48  1  0.87714847  0.50051653  0.95115196  1
  Sm3+  Sm49  1  0.87591214  0.50640114  0.44759818  1
  Sm3+  Sm50  1  0.62408070  0.50551086  0.44738604  1
  Sm3+  Sm51  1  0.36892784  0.00430932  0.94737124  1
  Sm3+  Sm52  1  0.37373482  0.75367910  0.43586261  1
  Sm3+  Sm53  1  0.87887096  0.00365616  0.44151241  1
  Sm3+  Sm54  1  0.25097437  0.62325780  0.05757628  1
  Sm3+  Sm55  1  -0.00100174  0.87156303  0.54755462  1
  Sm3+  Sm56  1  0.49009691  0.62739741  0.06220429  1
  Sm3+  Sm57  1  0.49445927  0.12839526  0.05175175  1
  Sm3+  Sm58  1  0.74986786  0.87591351  0.54761434  1
  Sm3+  Sm59  1  0.62421067  0.25248972  0.94772162  1
  Sm3+  Sm60  1  0.12081749  0.75192649  0.94535681  1
  Sm3+  Sm61  1  0.11715312  0.00556194  0.95570543  1
  Sm3+  Sm62  1  0.12223952  0.26136749  0.43277172  1
  Sm3+  Sm63  1  0.87209550  0.25192083  0.94524989  1
  Bi2+  Bi64  1  0.00942657  0.11430636  0.29155466  1
  Bi2+  Bi65  1  -0.00524310  0.09207257  0.79198546  1
  Bi2+  Bi66  1  0.01225965  0.37663509  0.28891473  1
  Bi2+  Bi67  1  -0.01275143  0.39072951  0.79119437  1
  Bi2+  Bi68  1  -0.01345582  0.61266727  0.29921114  1
  Bi2+  Bi69  1  -0.01244246  0.64769389  0.80176607  1
  Bi2+  Bi70  1  -0.03378308  0.89179202  0.28607149  1
  Bi2+  Bi71  1  0.00368635  0.90074016  0.75741149  1
  Bi2+  Bi72  1  0.27402657  0.13524707  0.29167598  1
  Bi2+  Bi73  1  0.26024500  0.10887469  0.80220966  1
  Bi2+  Bi74  1  0.27137350  0.37244300  0.29489990  1
  Bi2+  Bi75  1  0.27781356  0.35736956  0.78504728  1
  Bi2+  Bi76  1  0.21353400  0.60213972  0.29397886  1
  Bi2+  Bi77  1  0.25169175  0.69621306  0.78502088  1
  Bi2+  Bi78  1  0.31179345  0.85696059  0.28427524  1
  Bi2+  Bi79  1  0.26978560  0.89125081  0.78634994  1
  Bi2+  Bi80  1  0.52941521  0.11500951  0.28659408  1
  Bi2+  Bi81  1  0.53736555  0.09848793  0.77313746  1
  Bi2+  Bi82  1  0.52892901  0.38018311  0.24267625  1
  Bi2+  Bi83  1  0.54801700  0.37662582  0.78937503  1
  Bi2+  Bi84  1  0.51443691  0.64578422  0.29061478  1
  Bi2+  Bi85  1  0.51575852  0.63147632  0.78596099  1
  Bi2+  Bi86  1  0.50315024  0.83851946  0.31528385  1
  Bi2+  Bi87  1  0.54548933  0.84281292  0.78713791  1
  Bi2+  Bi88  1  0.73556133  0.14942412  0.28834119  1
  Bi2+  Bi89  1  0.73969776  0.09972881  0.80894629  1
  Bi2+  Bi90  1  0.75478099  0.41423785  0.29465821  1
  Bi2+  Bi91  1  0.74046727  0.39069854  0.80411247  1
  Bi2+  Bi92  1  0.72779326  0.60785374  0.29261416  1
  Bi2+  Bi93  1  0.71834124  0.60970714  0.78614882  1
  Bi2+  Bi94  1  0.68894948  0.87080123  0.27982140  1
  Bi2+  Bi95  1  0.76282689  0.90165386  0.77552145  1
  Bi2+  Bi96  1  0.17507273  -0.00779572  0.21492354  1
  Bi2+  Bi97  1  0.11376801  0.02296141  0.68979089  1
  Bi2+  Bi98  1  0.14381815  0.25763471  0.19113816  1
  Bi2+  Bi99  1  0.12351871  0.25815994  0.69731066  1
  Bi2+  Bi100  1  0.10512994  0.49896154  0.21408654  1
  Bi2+  Bi101  1  0.14966551  0.50274239  0.70784540  1
  Bi2+  Bi102  1  0.12354929  0.74423686  0.20174297  1
  Bi2+  Bi103  1  0.13447756  0.77904147  0.70546964  1
  Bi2+  Bi104  1  0.44099478  -0.02923067  0.22914816  1
  Bi2+  Bi105  1  0.39536224  -0.00489385  0.72107133  1
  Bi2+  Bi106  1  0.39678066  0.24694448  0.20974082  1
  Bi2+  Bi107  1  0.46794671  0.25591211  0.71123251  1
  Bi2+  Bi108  1  0.36307318  0.51726952  0.23806596  1
  Bi2+  Bi109  1  0.41080569  0.51696101  0.71880562  1
  Bi2+  Bi110  1  0.39093310  0.71708562  0.20693257  1
  Bi2+  Bi111  1  0.38287899  0.77010874  0.71231368  1
  Bi2+  Bi112  1  0.62210501  0.02820362  0.19007879  1
  Bi2+  Bi113  1  0.61884301  -0.05410517  0.69901830  1
  Bi2+  Bi114  1  0.63733111  0.23169109  0.19899226  1
  Bi2+  Bi115  1  0.66005914  0.22474436  0.71713876  1
  Bi2+  Bi116  1  0.60982547  0.54741901  0.20319578  1
  Bi2+  Bi117  1  0.63723878  0.48210031  0.70459549  1
  Bi2+  Bi118  1  0.60242962  0.75022347  0.20284740  1
  Bi2+  Bi119  1  0.64754333  0.73700196  0.70583456  1
  Bi2+  Bi120  1  0.80629116  0.00181596  0.22222872  1
  Bi2+  Bi121  1  0.86503592  0.03158693  0.71123662  1
  Bi2+  Bi122  1  0.86713002  0.26774553  0.21338269  1
  Bi2+  Bi123  1  0.86714845  0.24979756  0.76322600  1
  Bi2+  Bi124  1  0.90560522  0.49378391  0.22056332  1
  Bi2+  Bi125  1  0.83514269  0.50300291  0.71633893  1
  Bi2+  Bi126  1  0.82577283  0.73505457  0.21039285  1
  Bi2+  Bi127  1  0.86223764  0.77781657  0.70805420  1
  S2-  S128  1  0.06006545  0.10163002  0.18749345  1
  S2-  S129  1  0.00834992  0.15526285  0.65184145  1
  S2-  S130  1  -0.00949870  0.29016543  0.14718981  1
  S2-  S131  1  0.04146253  0.38952965  0.65861558  1
  S2-  S132  1  -0.02873313  0.71811975  0.15573556  1
  S2-  S133  1  0.00965917  0.58089322  0.70609129  1
  S2-  S134  1  0.04399307  0.89976100  0.19175224  1
  S2-  S135  1  -0.00312741  0.80226543  0.63775109  1
  S2-  S136  1  0.26677150  0.14433622  0.16370431  1
  S2-  S137  1  0.23250898  0.13612037  0.66685297  1
  S2-  S138  1  0.17691705  0.38596570  0.13558285  1
  S2-  S139  1  0.25453552  0.37014433  0.66930512  1
  S2-  S140  1  0.14764323  0.62007133  0.13935447  1
  S2-  S141  1  0.17177021  0.63447534  0.64479519  1
  S2-  S142  1  0.23849109  0.85626765  0.15939156  1
  S2-  S143  1  0.21817226  0.89975874  0.65149957  1
  S2-  S144  1  0.49534201  0.13934983  0.14849488  1
  S2-  S145  1  0.45453694  0.11525859  0.65383326  1
  S2-  S146  1  0.43492726  0.37734823  0.14940195  1
  S2-  S147  1  0.49337069  0.40838483  0.65199232  1
  S2-  S148  1  0.37238512  0.60837736  0.13241936  1
  S2-  S149  1  0.39130091  0.63052299  0.64469488  1
  S2-  S150  1  0.48021664  0.84997319  0.15227432  1
  S2-  S151  1  0.46888439  0.87728214  0.65158435  1
  S2-  S152  1  0.84683910  0.12957371  0.15265042  1
  S2-  S153  1  0.73553375  0.10649975  0.65815429  1
  S2-  S154  1  0.74489044  0.35241069  0.16065352  1
  S2-  S155  1  0.78170915  0.37160281  0.66226992  1
  S2-  S156  1  0.75572652  0.61259770  0.15525330  1
  S2-  S157  1  0.84074216  0.64084761  0.64628943  1
  S2-  S158  1  0.82453265  0.87231607  0.15012637  1
  S2-  S159  1  0.74245867  0.85287292  0.64379202  1
  S2-  S160  1  0.10018687  -0.04519650  0.32327271  1
  S2-  S161  1  0.12243265  0.06813132  0.86408581  1
  S2-  S162  1  0.14022131  0.15670373  0.35355003  1
  S2-  S163  1  0.15506466  0.24075803  0.80405432  1
  S2-  S164  1  0.13773903  0.39015722  0.36216186  1
  S2-  S165  1  0.13269626  0.44751454  0.81703287  1
  S2-  S166  1  0.10794194  0.72258148  0.32765665  1
  S2-  S167  1  0.12072422  0.66614357  0.85918111  1
  S2-  S168  1  0.30965032  0.00767986  0.34739816  1
  S2-  S169  1  0.36254895  -0.00617272  0.85049846  1
  S2-  S170  1  0.36226891  0.24994320  0.34825815  1
  S2-  S171  1  0.36552004  0.23254112  0.83462225  1
  S2-  S172  1  0.37302955  0.48367784  0.34465877  1
  S2-  S173  1  0.33273819  0.49536909  0.81611118  1
  S2-  S174  1  0.31069098  0.72294165  0.34708489  1
  S2-  S175  1  0.38483371  0.69184978  0.85017668  1
  S2-  S176  1  0.63911593  0.02567559  0.34330684  1
  S2-  S177  1  0.60951191  -0.01231400  0.84516823  1
  S2-  S178  1  0.73198384  0.27316442  0.35921713  1
  S2-  S179  1  0.67442855  0.24828051  0.85514805  1
  S2-  S180  1  0.63316523  0.48900472  0.35042617  1
  S2-  S181  1  0.53251305  0.50308621  0.85873736  1
  S2-  S182  1  0.71832515  0.74613698  0.35421837  1
  S2-  S183  1  0.63525326  0.73542780  0.84723583  1
  S2-  S184  1  0.89049902  0.01803578  0.34436508  1
  S2-  S185  1  0.87322093  0.01847374  0.85292791  1
  S2-  S186  1  0.94996423  0.24188378  0.33889439  1
  S2-  S187  1  0.95358589  0.25258780  0.85785137  1
  S2-  S188  1  0.89102722  0.47889391  0.35072823  1
  S2-  S189  1  0.94430476  0.51100409  0.86103523  1
  S2-  S190  1  0.91123823  0.75372870  0.32871913  1
  S2-  S191  1  0.88504935  0.75229703  0.84271859  1
  S2-  S192  1  -0.00252854  0.13095870  0.45084234  1
  S2-  S193  1  -0.00557502  0.12899779  0.96378084  1
  S2-  S194  1  -0.00519518  0.37844022  0.45621488  1
  S2-  S195  1  -0.00192303  0.37484427  0.95616392  1
  S2-  S196  1  -0.00191570  0.62819804  0.44160299  1
  S2-  S197  1  -0.00451323  0.63019394  0.96335395  1
  S2-  S198  1  0.00031164  0.87735876  0.44343856  1
  S2-  S199  1  0.00060909  0.87879151  0.94885154  1
  S2-  S200  1  0.24926605  0.13102002  0.45909699  1
  S2-  S201  1  0.24611033  0.12690002  0.95693277  1
  S2-  S202  1  0.24875560  0.37895860  0.46172621  1
  S2-  S203  1  0.23929692  0.37638239  0.93532778  1
  S2-  S204  1  0.24808041  0.62668165  0.45391095  1
  S2-  S205  1  0.24844330  0.63082311  0.95336365  1
  S2-  S206  1  0.24862462  0.87726999  0.44583197  1
  S2-  S207  1  0.24268957  0.88049328  0.95384815  1
  S2-  S208  1  0.49978801  0.13017383  0.45054166  1
  S2-  S209  1  0.49734232  0.12809987  0.94696383  1
  S2-  S210  1  0.50167212  0.37867421  0.45144866  1
  S2-  S211  1  0.49828497  0.37159294  0.95089296  1
  S2-  S212  1  0.49752973  0.62950665  0.45290488  1
  S2-  S213  1  0.49836869  0.63259316  0.95861007  1
  S2-  S214  1  0.49710635  0.87873669  0.44907837  1
  S2-  S215  1  0.49689482  0.88065738  0.95128640  1
  S2-  S216  1  0.75141843  0.12455639  0.45332760  1
  S2-  S217  1  0.74785384  0.12889783  0.96424434  1
  S2-  S218  1  0.74921324  0.38594549  0.45950808  1
  S2-  S219  1  0.74889690  0.37877790  0.95661790  1
  S2-  S220  1  0.74764949  0.62517614  0.45601042  1
  S2-  S221  1  0.74877940  0.62367949  0.94965098  1
  S2-  S222  1  0.74981668  0.88295234  0.44500502  1
  S2-  S223  1  0.74753512  0.87865213  0.95440444  1
  S2-  S224  1  0.11305061  0.00046794  0.06049793  1
  S2-  S225  1  0.11977614  0.00136816  0.53781323  1
  S2-  S226  1  0.12175588  0.24824090  0.04163379  1
  S2-  S227  1  0.12431638  0.25460308  0.54359549  1
  S2-  S228  1  0.12623860  0.50513038  0.03100677  1
  S2-  S229  1  0.12148269  0.50647805  0.54543477  1
  S2-  S230  1  0.11949093  0.75867352  0.04763938  1
  S2-  S231  1  0.12094190  0.74723783  0.53588660  1
  S2-  S232  1  0.37265336  0.00268886  0.05255401  1
  S2-  S233  1  0.37227433  0.00247991  0.54595070  1
  S2-  S234  1  0.36917370  0.24943517  0.04215516  1
  S2-  S235  1  0.37222164  0.25667633  0.55338781  1
  S2-  S236  1  0.37173259  0.49932825  0.02831761  1
  S2-  S237  1  0.37262239  0.49899379  0.54693304  1
  S2-  S238  1  0.37156133  0.75689054  0.04447307  1
  S2-  S239  1  0.37280584  0.75361253  0.54073115  1
  S2-  S240  1  0.62012315  0.00379821  0.04884145  1
  S2-  S241  1  0.62440257  0.00127677  0.54642797  1
  S2-  S242  1  0.61975377  0.25261721  0.05164466  1
  S2-  S243  1  0.62470976  0.25575757  0.54852551  1
  S2-  S244  1  0.61738822  0.50327414  0.04936774  1
  S2-  S245  1  0.62364905  0.50625587  0.55224366  1
  S2-  S246  1  0.61796560  0.75144710  0.05089612  1
  S2-  S247  1  0.62261230  0.75251669  0.54279345  1
  S2-  S248  1  0.87248369  0.00129423  0.05538824  1
  S2-  S249  1  0.87502510  -0.00226168  0.54754547  1
  S2-  S250  1  0.86841162  0.25562326  0.04779552  1
  S2-  S251  1  0.87376459  0.25465385  0.54553801  1
  S2-  S252  1  0.87610705  0.50034376  0.05540899  1
  S2-  S253  1  0.88040458  0.50824947  0.55175511  1
  S2-  S254  1  0.87083741  0.75246267  0.04520283  1
  S2-  S255  1  0.87199163  0.75484837  0.53404256  1
