# generated using pymatgen
data_La6Ce7Pr13Nd19Sm19(BiS2)64
_symmetry_space_group_name_H-M   'P 1'
_cell_length_a   16.06118292
_cell_length_b   16.04517005
_cell_length_c   27.50483393
_cell_angle_alpha   90.11712432
_cell_angle_beta   90.10594309
_cell_angle_gamma   90.14344369
_symmetry_Int_Tables_number   1
_chemical_formula_structural   La6Ce7Pr13Nd19Sm19(BiS2)64
_chemical_formula_sum   'La6 Ce7 Pr13 Nd19 Sm19 Bi64 S128'
_cell_volume   7088.06782503
_cell_formula_units_Z   1
loop_
 _symmetry_equiv_pos_site_id
 _symmetry_equiv_pos_as_xyz
  1  'x, y, z'
loop_
 _atom_type_symbol
 _atom_type_oxidation_number
  La3+  3.0
  Ce3+  3.0
  Pr3+  3.0
  Nd3+  3.0
  Sm3+  3.0
  Bi2+  2.0
  S2-  -2.0
loop_
 _atom_site_type_symbol
 _atom_site_label
 _atom_site_symmetry_multiplicity
 _atom_site_fract_x
 _atom_site_fract_y
 _atom_site_fract_z
 _atom_site_occupancy
  La3+  La0  1  0.13691286  0.74137701  0.39149229  1
  La3+  La1  1  0.87616057  -0.00377178  0.93265235  1
  La3+  La2  1  0.37941991  -0.00941934  0.93487528  1
  La3+  La3  1  0.60463220  0.00382535  0.88255450  1
  La3+  La4  1  0.89144108  0.49616824  0.92759347  1
  La3+  La5  1  0.89617890  0.00811017  0.42954845  1
  Ce3+  Ce6  1  0.64530186  0.74929342  0.93206798  1
  Ce3+  Ce7  1  0.64293044  0.49638109  0.44227485  1
  Ce3+  Ce8  1  0.25940812  0.11866653  0.06087042  1
  Ce3+  Ce9  1  0.00878074  0.86671147  0.07276003  1
  Ce3+  Ce10  1  0.64381881  0.49415895  0.92689345  1
  Ce3+  Ce11  1  0.77047856  0.37310402  0.55843044  1
  Ce3+  Ce12  1  0.39030003  0.74834356  0.42850708  1
  Pr3+  Pr13  1  0.50948104  0.11547559  0.06460613  1
  Pr3+  Pr14  1  0.76056344  0.37325360  0.05479018  1
  Pr3+  Pr15  1  0.39313863  -0.00075161  0.43023559  1
  Pr3+  Pr16  1  0.26345363  0.37657979  0.07861555  1
  Pr3+  Pr17  1  0.76091317  0.12291049  0.06402620  1
  Pr3+  Pr18  1  0.02688019  0.12691894  0.57111302  1
  Pr3+  Pr19  1  0.39716230  0.24495684  0.43334085  1
  Pr3+  Pr20  1  0.77719808  0.86378841  0.57669694  1
  Pr3+  Pr21  1  0.38700602  0.74476316  0.93055381  1
  Pr3+  Pr22  1  0.15022365  0.49538159  0.41777208  1
  Pr3+  Pr23  1  0.27669461  0.36981799  0.56248785  1
  Pr3+  Pr24  1  0.51719085  0.38204526  0.57309343  1
  Pr3+  Pr25  1  0.51041147  0.37048516  0.06752213  1
  Nd3+  Nd26  1  0.12741797  -0.00798249  0.93901573  1
  Nd3+  Nd27  1  0.89515631  0.50080733  0.43531011  1
  Nd3+  Nd28  1  0.51652437  0.62530850  0.55474555  1
  Nd3+  Nd29  1  0.00950597  0.11950357  0.06254344  1
  Nd3+  Nd30  1  0.88676426  0.24265448  0.93495817  1
  Nd3+  Nd31  1  0.01594525  0.87297375  0.54900540  1
  Nd3+  Nd32  1  0.14602951  0.24826748  0.43417541  1
  Nd3+  Nd33  1  0.77477986  0.11972958  0.58029332  1
  Nd3+  Nd34  1  0.76085718  0.61979577  0.06087746  1
  Nd3+  Nd35  1  0.27730253  0.11653158  0.56917323  1
  Nd3+  Nd36  1  0.89445252  0.74349317  0.94002937  1
  Nd3+  Nd37  1  0.39513024  0.49178298  0.43081901  1
  Nd3+  Nd38  1  0.02343131  0.37698190  0.55688526  1
  Nd3+  Nd39  1  0.38419944  0.49123121  0.93501532  1
  Nd3+  Nd40  1  0.64310132  0.75217039  0.43556789  1
  Nd3+  Nd41  1  0.00667084  0.60606290  0.08316890  1
  Nd3+  Nd42  1  0.88329867  0.75772987  0.42007063  1
  Nd3+  Nd43  1  0.26743761  0.87034550  0.54849743  1
  Nd3+  Nd44  1  0.51115841  0.62211448  0.05596009  1
  Sm3+  Sm45  1  0.64466037  0.24622853  0.45547730  1
  Sm3+  Sm46  1  0.26582204  0.62159719  0.54876889  1
  Sm3+  Sm47  1  0.51596113  0.87111033  0.55593836  1
  Sm3+  Sm48  1  0.13802292  0.24572245  0.94929469  1
  Sm3+  Sm49  1  0.64861088  -0.00091621  0.45565803  1
  Sm3+  Sm50  1  0.13081370  0.74088608  0.95537608  1
  Sm3+  Sm51  1  0.38673990  0.24007384  0.94606243  1
  Sm3+  Sm52  1  0.51914503  0.12239610  0.56552475  1
  Sm3+  Sm53  1  0.26148164  0.86852135  0.06239232  1
  Sm3+  Sm54  1  0.01331913  0.37194892  0.05782758  1
  Sm3+  Sm55  1  0.77347048  0.62429733  0.55495041  1
  Sm3+  Sm56  1  0.26909518  0.62086051  0.06627127  1
  Sm3+  Sm57  1  0.14127201  -0.00111742  0.43816198  1
  Sm3+  Sm58  1  0.89374679  0.24668526  0.44552060  1
  Sm3+  Sm59  1  0.51242690  0.87126586  0.05332184  1
  Sm3+  Sm60  1  0.63195709  0.24713763  0.93803030  1
  Sm3+  Sm61  1  0.02022817  0.62431706  0.54524088  1
  Sm3+  Sm62  1  0.76122377  0.87053761  0.05713694  1
  Sm3+  Sm63  1  0.13908477  0.49553861  0.93916357  1
  Bi2+  Bi64  1  -0.02570495  0.12810582  0.28908705  1
  Bi2+  Bi65  1  -0.01490892  0.12010624  0.79662751  1
  Bi2+  Bi66  1  0.01421592  0.32333027  0.27754334  1
  Bi2+  Bi67  1  -0.09674370  0.41330577  0.80051086  1
  Bi2+  Bi68  1  -0.00658296  0.60845842  0.26910898  1
  Bi2+  Bi69  1  -0.01231729  0.65792855  0.78706538  1
  Bi2+  Bi70  1  -0.03259917  0.86947049  0.27819700  1
  Bi2+  Bi71  1  -0.05721856  0.84840840  0.80867070  1
  Bi2+  Bi72  1  0.24975333  0.18398494  0.31916791  1
  Bi2+  Bi73  1  0.20372737  0.11097000  0.80517863  1
  Bi2+  Bi74  1  0.28747490  0.36948921  0.29762641  1
  Bi2+  Bi75  1  0.28113191  0.38264900  0.78659300  1
  Bi2+  Bi76  1  0.26566870  0.63067696  0.27631045  1
  Bi2+  Bi77  1  0.25126162  0.63896216  0.79105586  1
  Bi2+  Bi78  1  0.38516745  0.93971392  0.30175371  1
  Bi2+  Bi79  1  0.20246046  0.91758130  0.81858097  1
  Bi2+  Bi80  1  0.48507532  0.23051229  0.29780659  1
  Bi2+  Bi81  1  0.46790425  0.18643243  0.79287632  1
  Bi2+  Bi82  1  0.55438033  0.44898546  0.25341202  1
  Bi2+  Bi83  1  0.48748786  0.44073846  0.78920004  1
  Bi2+  Bi84  1  0.48933349  0.62879142  0.28667180  1
  Bi2+  Bi85  1  0.44282820  0.62669128  0.81484382  1
  Bi2+  Bi86  1  0.52711554  0.80819173  0.32523180  1
  Bi2+  Bi87  1  0.46149641  0.81674442  0.78302688  1
  Bi2+  Bi88  1  0.73168334  0.12008885  0.29910506  1
  Bi2+  Bi89  1  0.73230728  0.11958674  0.77930772  1
  Bi2+  Bi90  1  0.82625964  0.37197414  0.29031725  1
  Bi2+  Bi91  1  0.71647190  0.37958178  0.78618114  1
  Bi2+  Bi92  1  0.73947116  0.58879333  0.28881047  1
  Bi2+  Bi93  1  0.71704093  0.64952199  0.73991180  1
  Bi2+  Bi94  1  0.72100887  0.86002451  0.29413452  1
  Bi2+  Bi95  1  0.73271351  0.85336490  0.78455897  1
  Bi2+  Bi96  1  0.19733209  0.00342946  0.29512738  1
  Bi2+  Bi97  1  0.08350876  -0.01822850  0.73470032  1
  Bi2+  Bi98  1  0.13419308  0.17379883  0.22328625  1
  Bi2+  Bi99  1  0.10686480  0.27936927  0.75922866  1
  Bi2+  Bi100  1  0.12125170  0.44808533  0.20691657  1
  Bi2+  Bi101  1  0.10587832  0.50762362  0.76621118  1
  Bi2+  Bi102  1  0.14593662  0.78366893  0.21138739  1
  Bi2+  Bi103  1  0.13766437  0.78440692  0.74220203  1
  Bi2+  Bi104  1  0.41980545  0.04562381  0.20111812  1
  Bi2+  Bi105  1  0.28283694  0.05910612  0.70541200  1
  Bi2+  Bi106  1  0.35803473  0.24004138  0.19296853  1
  Bi2+  Bi107  1  0.26080498  0.27769273  0.68844092  1
  Bi2+  Bi108  1  0.37464308  0.52468925  0.20594092  1
  Bi2+  Bi109  1  0.33694074  0.52867430  0.69307256  1
  Bi2+  Bi110  1  0.41650721  0.78617631  0.20046961  1
  Bi2+  Bi111  1  0.33052177  0.80201680  0.69900559  1
  Bi2+  Bi112  1  0.57443787  -0.01917821  0.26425221  1
  Bi2+  Bi113  1  0.57214067  0.00254153  0.68301958  1
  Bi2+  Bi114  1  0.65713308  0.28193419  0.25353756  1
  Bi2+  Bi115  1  0.54077838  0.29936937  0.71350378  1
  Bi2+  Bi116  1  0.62780978  0.51106383  0.14995232  1
  Bi2+  Bi117  1  0.62422810  0.48657861  0.70519425  1
  Bi2+  Bi118  1  0.61306363  0.68971936  0.19880264  1
  Bi2+  Bi119  1  0.53516647  0.69231809  0.70858008  1
  Bi2+  Bi120  1  0.86815860  -0.01192237  0.19083531  1
  Bi2+  Bi121  1  0.85272472  -0.01677447  0.69937822  1
  Bi2+  Bi122  1  0.87734260  0.21904047  0.19682265  1
  Bi2+  Bi123  1  0.88874562  0.26857845  0.70450167  1
  Bi2+  Bi124  1  0.81125833  0.47230367  0.19102677  1
  Bi2+  Bi125  1  0.92117482  0.48151938  0.69382939  1
  Bi2+  Bi126  1  0.80213200  0.73038387  0.21557577  1
  Bi2+  Bi127  1  0.89222106  0.72588434  0.69619452  1
  S2-  S128  1  0.00504044  0.10307370  0.16048812  1
  S2-  S129  1  -0.09071421  0.12312284  0.64676359  1
  S2-  S130  1  -0.00349814  0.44863428  0.14449965  1
  S2-  S131  1  0.01018144  0.33735219  0.65345029  1
  S2-  S132  1  0.07045149  0.65347893  0.17673735  1
  S2-  S133  1  -0.01091906  0.60985084  0.64273768  1
  S2-  S134  1  0.01229705  0.87835675  0.17217632  1
  S2-  S135  1  -0.07064608  0.87166993  0.63705664  1
  S2-  S136  1  0.27051922  0.08758095  0.15671093  1
  S2-  S137  1  0.16221323  0.13917234  0.64243304  1
  S2-  S138  1  0.18797919  0.31084725  0.16575784  1
  S2-  S139  1  0.21924862  0.43918820  0.64930958  1
  S2-  S140  1  0.23675672  0.51903554  0.14309444  1
  S2-  S141  1  0.27950894  0.65633704  0.64539982  1
  S2-  S142  1  0.27260218  0.84529977  0.15942516  1
  S2-  S143  1  0.25582853  0.91789804  0.64376488  1
  S2-  S144  1  0.51010759  0.18122996  0.15812056  1
  S2-  S145  1  0.42277325  0.08929875  0.64393238  1
  S2-  S146  1  0.40272458  0.37643148  0.14773370  1
  S2-  S147  1  0.40772539  0.33106941  0.64581778  1
  S2-  S148  1  0.40267374  0.64744945  0.13420700  1
  S2-  S149  1  0.49378604  0.53512758  0.63867228  1
  S2-  S150  1  0.49705228  0.90133704  0.15034719  1
  S2-  S151  1  0.49541861  0.84287233  0.65118130  1
  S2-  S152  1  0.75795674  0.09851816  0.16538062  1
  S2-  S153  1  0.68218725  0.12305818  0.66852721  1
  S2-  S154  1  0.76955213  0.31083098  0.14839532  1
  S2-  S155  1  0.78548009  0.37621969  0.65523825  1
  S2-  S156  1  0.86051832  0.61960988  0.14384432  1
  S2-  S157  1  0.75615636  0.70408618  0.64012425  1
  S2-  S158  1  0.76522191  0.87455859  0.15633730  1
  S2-  S159  1  0.71808274  0.90508411  0.67263045  1
  S2-  S160  1  0.04502233  0.02958806  0.35861558  1
  S2-  S161  1  0.00742341  -0.01617451  0.86410237  1
  S2-  S162  1  0.13451382  0.35486726  0.35366402  1
  S2-  S163  1  0.09222552  0.23349957  0.85535685  1
  S2-  S164  1  0.11649523  0.59098393  0.33024979  1
  S2-  S165  1  0.03042818  0.49261939  0.85977855  1
  S2-  S166  1  0.13060092  0.84840420  0.30991938  1
  S2-  S167  1  0.03603095  0.74283284  0.87195388  1
  S2-  S168  1  0.41634994  0.12093276  0.35858001  1
  S2-  S169  1  0.43923754  0.06174664  0.84925368  1
  S2-  S170  1  0.42927584  0.36174424  0.35806375  1
  S2-  S171  1  0.36890230  0.27922740  0.85143496  1
  S2-  S172  1  0.29418147  0.51009620  0.35012213  1
  S2-  S173  1  0.25845547  0.49403004  0.86435545  1
  S2-  S174  1  0.30215624  0.74025353  0.34405473  1
  S2-  S175  1  0.35704397  0.86344458  0.85797397  1
  S2-  S176  1  0.65283176  0.00740986  0.35815436  1
  S2-  S177  1  0.60051998  0.00493972  0.77398205  1
  S2-  S178  1  0.63767161  0.23632574  0.35778955  1
  S2-  S179  1  0.63357816  0.17067673  0.84820284  1
  S2-  S180  1  0.64032341  0.48945143  0.34553075  1
  S2-  S181  1  0.59995996  0.37473365  0.86111188  1
  S2-  S182  1  0.74363223  0.72619345  0.35518948  1
  S2-  S183  1  0.60312824  0.82940914  0.84793057  1
  S2-  S184  1  0.86514011  -0.09791422  0.35011643  1
  S2-  S185  1  0.77191615  -0.00872831  0.84625560  1
  S2-  S186  1  0.85642793  0.15013445  0.36655338  1
  S2-  S187  1  0.85721026  0.20111130  0.83895243  1
  S2-  S188  1  0.89402232  0.51448516  0.33661243  1
  S2-  S189  1  0.77064669  0.50635416  0.85042445  1
  S2-  S190  1  0.97272262  0.72882122  0.33483142  1
  S2-  S191  1  0.80181809  0.75580178  0.85279108  1
  S2-  S192  1  0.02165503  0.13070771  0.46289342  1
  S2-  S193  1  0.01132641  0.12181453  0.95888940  1
  S2-  S194  1  0.01406745  0.37236070  0.45074281  1
  S2-  S195  1  0.01353199  0.36657784  0.95600523  1
  S2-  S196  1  0.02046206  0.62333644  0.44430318  1
  S2-  S197  1  0.01430377  0.61461000  0.96808795  1
  S2-  S198  1  0.02318214  0.86847830  0.44611081  1
  S2-  S199  1  0.01044865  0.87053560  0.96832611  1
  S2-  S200  1  0.26542042  0.11998480  0.45719980  1
  S2-  S201  1  0.25596966  0.11807964  0.95374888  1
  S2-  S202  1  0.27127868  0.36943356  0.45498856  1
  S2-  S203  1  0.26160206  0.36551631  0.96278176  1
  S2-  S204  1  0.26390549  0.62781032  0.44790383  1
  S2-  S205  1  0.26081978  0.62418855  0.95989245  1
  S2-  S206  1  0.26291341  0.87486408  0.44302995  1
  S2-  S207  1  0.24982904  0.86650651  0.95994198  1
  S2-  S208  1  0.52420278  0.12053987  0.46306599  1
  S2-  S209  1  0.51175543  0.11910390  0.95798130  1
  S2-  S210  1  0.52427433  0.37168500  0.46583740  1
  S2-  S211  1  0.50395407  0.36813198  0.96158435  1
  S2-  S212  1  0.51759373  0.62298776  0.44797154  1
  S2-  S213  1  0.51389886  0.61927494  0.94877879  1
  S2-  S214  1  0.51893929  0.87650985  0.45202513  1
  S2-  S215  1  0.51526113  0.87438882  0.95113458  1
  S2-  S216  1  0.76507614  0.12606293  0.47224834  1
  S2-  S217  1  0.75875501  0.12674894  0.95750787  1
  S2-  S218  1  0.77081469  0.37125730  0.45157403  1
  S2-  S219  1  0.76337231  0.36533618  0.94961381  1
  S2-  S220  1  0.76804701  0.62121324  0.45311178  1
  S2-  S221  1  0.76342824  0.62139992  0.95623399  1
  S2-  S222  1  0.76556264  0.87498564  0.46150192  1
  S2-  S223  1  0.76549222  0.86638700  0.95632762  1
  S2-  S224  1  0.13471476  -0.00808310  0.05021343  1
  S2-  S225  1  0.14311303  -0.00330642  0.54109248  1
  S2-  S226  1  0.13457967  0.24563806  0.05193684  1
  S2-  S227  1  0.14685080  0.25293759  0.54046543  1
  S2-  S228  1  0.13645255  0.49463893  0.04311025  1
  S2-  S229  1  0.14359085  0.50031018  0.53423579  1
  S2-  S230  1  0.13731074  0.74087274  0.05782952  1
  S2-  S231  1  0.14168125  0.74718628  0.55010222  1
  S2-  S232  1  0.38338085  -0.00874178  0.04410647  1
  S2-  S233  1  0.39518863  -0.00707747  0.53686984  1
  S2-  S234  1  0.38362114  0.24237829  0.04875099  1
  S2-  S235  1  0.39695896  0.24002596  0.54041189  1
  S2-  S236  1  0.38824067  0.49730401  0.03982306  1
  S2-  S237  1  0.39054809  0.50150773  0.53593169  1
  S2-  S238  1  0.38569991  0.75223703  0.03578985  1
  S2-  S239  1  0.39266056  0.74726678  0.53674473  1
  S2-  S240  1  0.63756900  -0.00726445  0.05602488  1
  S2-  S241  1  0.64224972  -0.00638101  0.55751663  1
  S2-  S242  1  0.63298023  0.24543557  0.04611788  1
  S2-  S243  1  0.64013785  0.24989411  0.55981431  1
  S2-  S244  1  0.63448499  0.49610061  0.03454057  1
  S2-  S245  1  0.64790179  0.50305080  0.54821286  1
  S2-  S246  1  0.63644981  0.74669869  0.04436869  1
  S2-  S247  1  0.64081548  0.74921052  0.54165807  1
  S2-  S248  1  0.88508928  -0.00532014  0.04757975  1
  S2-  S249  1  0.89441548  0.00008375  0.54140101  1
  S2-  S250  1  0.88992315  0.24745508  0.04352301  1
  S2-  S251  1  0.89530002  0.25093886  0.54726587  1
  S2-  S252  1  0.88570553  0.49273066  0.03808250  1
  S2-  S253  1  0.89399045  0.49903590  0.54132131  1
  S2-  S254  1  0.88688800  0.74533939  0.04816696  1
  S2-  S255  1  0.89527264  0.74423031  0.53287073  1
