# generated using pymatgen
data_La6Ce7Pr13Nd19Sm19(BiS2)64
_symmetry_space_group_name_H-M   'P 1'
_cell_length_a   16.00716175
_cell_length_b   16.07573693
_cell_length_c   27.32888600
_cell_angle_alpha   90.11061992
_cell_angle_beta   89.79219832
_cell_angle_gamma   90.02873749
_symmetry_Int_Tables_number   1
_chemical_formula_structural   La6Ce7Pr13Nd19Sm19(BiS2)64
_chemical_formula_sum   'La6 Ce7 Pr13 Nd19 Sm19 Bi64 S128'
_cell_volume   7032.39787678
_cell_formula_units_Z   1
loop_
 _symmetry_equiv_pos_site_id
 _symmetry_equiv_pos_as_xyz
  1  'x, y, z'
loop_
 _atom_type_symbol
 _atom_type_oxidation_number
  La3+  3.0
  Ce3+  3.0
  Pr3+  3.0
  Nd3+  3.0
  Sm3+  3.0
  Bi2+  2.0
  S2-  -2.0
loop_
 _atom_site_type_symbol
 _atom_site_label
 _atom_site_symmetry_multiplicity
 _atom_site_fract_x
 _atom_site_fract_y
 _atom_site_fract_z
 _atom_site_occupancy
  La3+  La0  1  0.27047554  0.87294677  0.06829001  1
  La3+  La1  1  0.61673735  -0.00472609  0.41287367  1
  La3+  La2  1  0.14664915  0.74336184  0.92797932  1
  La3+  La3  1  0.89258990  0.00188286  0.92398253  1
  La3+  La4  1  0.61494448  0.49687756  0.39813883  1
  La3+  La5  1  0.65308301  0.49632261  0.92228012  1
  Ce3+  Ce6  1  0.86255593  0.24301859  0.44121146  1
  Ce3+  Ce7  1  0.49173599  0.37209512  0.55713912  1
  Ce3+  Ce8  1  0.89666734  0.24642349  0.93908985  1
  Ce3+  Ce9  1  -0.01096075  0.37304430  0.55211571  1
  Ce3+  Ce10  1  0.76937873  0.37233074  0.06223679  1
  Ce3+  Ce11  1  0.39593293  0.74593700  0.93998377  1
  Ce3+  Ce12  1  0.23725215  0.62135682  0.55589696  1
  Pr3+  Pr13  1  0.01599638  0.62595974  0.06657126  1
  Pr3+  Pr14  1  0.15718486  0.24772355  0.92736985  1
  Pr3+  Pr15  1  0.39331239  -0.00090477  0.93100929  1
  Pr3+  Pr16  1  0.74181005  0.87663033  0.57932451  1
  Pr3+  Pr17  1  0.48879912  0.11925241  0.55813283  1
  Pr3+  Pr18  1  0.77400453  0.88317896  0.08146280  1
  Pr3+  Pr19  1  0.26616432  0.37452377  0.07674263  1
  Pr3+  Pr20  1  0.15070656  0.49867895  0.94166676  1
  Pr3+  Pr21  1  0.52321702  0.37429987  0.06500698  1
  Pr3+  Pr22  1  0.52036393  0.11934245  0.06726068  1
  Pr3+  Pr23  1  0.36170683  -0.00635760  0.43667134  1
  Pr3+  Pr24  1  0.73649342  0.11923194  0.56071092  1
  Pr3+  Pr25  1  0.26712789  0.12170233  0.06802494  1
  Nd3+  Nd26  1  0.86440352  0.49514958  0.42652207  1
  Nd3+  Nd27  1  0.86383990  0.74990368  0.43545310  1
  Nd3+  Nd28  1  0.88053861  0.74731750  0.93494918  1
  Nd3+  Nd29  1  0.36737739  0.74735089  0.44433401  1
  Nd3+  Nd30  1  -0.00845533  0.12113613  0.55697495  1
  Nd3+  Nd31  1  0.27085311  0.62543407  0.07586811  1
  Nd3+  Nd32  1  0.52501431  0.62407462  0.06330306  1
  Nd3+  Nd33  1  0.61683967  0.74852353  0.42979338  1
  Nd3+  Nd34  1  0.77034527  0.61787237  0.08233429  1
  Nd3+  Nd35  1  0.11265468  0.49692111  0.42723574  1
  Nd3+  Nd36  1  0.36698402  0.49654005  0.43819708  1
  Nd3+  Nd37  1  0.23629888  0.37538579  0.56253470  1
  Nd3+  Nd38  1  0.02273127  0.12113627  0.05215932  1
  Nd3+  Nd39  1  0.36062642  0.24624992  0.43706930  1
  Nd3+  Nd40  1  0.01587936  0.87110927  0.05576790  1
  Nd3+  Nd41  1  0.02197993  0.37141822  0.05283390  1
  Nd3+  Nd42  1  0.23765524  0.12119383  0.56433290  1
  Nd3+  Nd43  1  0.14251490  -0.01027427  0.92379992  1
  Nd3+  Nd44  1  0.73757018  0.37391272  0.55192943  1
  Sm3+  Sm45  1  0.24269733  0.87113093  0.57176786  1
  Sm3+  Sm46  1  0.11733738  -0.00755334  0.43780309  1
  Sm3+  Sm47  1  0.52326506  0.87535411  0.05427753  1
  Sm3+  Sm48  1  -0.00686302  0.87147294  0.56926472  1
  Sm3+  Sm49  1  0.77135434  0.12312765  0.05797295  1
  Sm3+  Sm50  1  0.73903163  0.62272872  0.55246173  1
  Sm3+  Sm51  1  -0.01227811  0.62155926  0.55401057  1
  Sm3+  Sm52  1  0.39760562  0.49932106  0.95195071  1
  Sm3+  Sm53  1  0.86269168  -0.00550946  0.44147663  1
  Sm3+  Sm54  1  0.49311056  0.62028604  0.55581167  1
  Sm3+  Sm55  1  0.11467360  0.74801536  0.44272522  1
  Sm3+  Sm56  1  0.64837890  0.00014425  0.93112611  1
  Sm3+  Sm57  1  0.11642785  0.24371201  0.43453454  1
  Sm3+  Sm58  1  0.64922909  0.74768251  0.95310038  1
  Sm3+  Sm59  1  0.64215135  0.24557204  0.93807880  1
  Sm3+  Sm60  1  0.89313106  0.49904021  0.94469284  1
  Sm3+  Sm61  1  0.60533382  0.24649243  0.41888002  1
  Sm3+  Sm62  1  0.49196399  0.86956085  0.56736485  1
  Sm3+  Sm63  1  0.39337426  0.24856153  0.94879386  1
  Bi2+  Bi64  1  0.02874449  0.16135391  0.31400421  1
  Bi2+  Bi65  1  -0.00257799  0.12205854  0.78264417  1
  Bi2+  Bi66  1  -0.00076043  0.35473877  0.29379865  1
  Bi2+  Bi67  1  -0.03797039  0.37882451  0.75250190  1
  Bi2+  Bi68  1  0.00757881  0.63985414  0.28973927  1
  Bi2+  Bi69  1  -0.02808511  0.58605301  0.74657090  1
  Bi2+  Bi70  1  -0.00355522  0.96846618  0.30076466  1
  Bi2+  Bi71  1  0.01947217  0.85734057  0.78508847  1
  Bi2+  Bi72  1  0.22151018  0.10627647  0.29437334  1
  Bi2+  Bi73  1  0.25508793  0.15916209  0.79271203  1
  Bi2+  Bi74  1  0.19871344  0.38596766  0.30014744  1
  Bi2+  Bi75  1  0.24027930  0.40373685  0.79339984  1
  Bi2+  Bi76  1  0.19966978  0.58038630  0.30934667  1
  Bi2+  Bi77  1  0.18871207  0.63756841  0.79314551  1
  Bi2+  Bi78  1  0.17587941  0.85664941  0.28890383  1
  Bi2+  Bi79  1  0.27347662  0.90391529  0.78377719  1
  Bi2+  Bi80  1  0.49375985  0.13061289  0.28526649  1
  Bi2+  Bi81  1  0.47077551  0.11774074  0.80556264  1
  Bi2+  Bi82  1  0.51286158  0.36380392  0.28089886  1
  Bi2+  Bi83  1  0.51385109  0.42012549  0.79595815  1
  Bi2+  Bi84  1  0.46238142  0.62504370  0.29019807  1
  Bi2+  Bi85  1  0.45233928  0.72364007  0.80853996  1
  Bi2+  Bi86  1  0.47701006  0.87580290  0.28494939  1
  Bi2+  Bi87  1  0.48944616  0.92041153  0.81593416  1
  Bi2+  Bi88  1  0.76126363  0.15290144  0.27948832  1
  Bi2+  Bi89  1  0.74681876  0.09941080  0.79362986  1
  Bi2+  Bi90  1  0.77230087  0.41736874  0.24312880  1
  Bi2+  Bi91  1  0.77596516  0.37543808  0.79454657  1
  Bi2+  Bi92  1  0.74498069  0.63544181  0.27973808  1
  Bi2+  Bi93  1  0.71942248  0.61767642  0.79237764  1
  Bi2+  Bi94  1  0.74514717  0.88292708  0.28493298  1
  Bi2+  Bi95  1  0.69499039  0.85046433  0.78607703  1
  Bi2+  Bi96  1  0.12156526  -0.00695102  0.20883077  1
  Bi2+  Bi97  1  0.15330022  -0.00633201  0.70986250  1
  Bi2+  Bi98  1  0.10432044  0.26090005  0.20605203  1
  Bi2+  Bi99  1  0.12654944  0.22907746  0.68433760  1
  Bi2+  Bi100  1  0.12852425  0.59726452  0.19690129  1
  Bi2+  Bi101  1  0.13979239  0.46579630  0.69857932  1
  Bi2+  Bi102  1  0.11247687  0.79819915  0.17606522  1
  Bi2+  Bi103  1  0.14321555  0.71775565  0.69439906  1
  Bi2+  Bi104  1  0.38070273  -0.01164923  0.21371596  1
  Bi2+  Bi105  1  0.42325313  0.00020326  0.71373651  1
  Bi2+  Bi106  1  0.31687118  0.24262136  0.23642252  1
  Bi2+  Bi107  1  0.46142776  0.26690954  0.73190974  1
  Bi2+  Bi108  1  0.34651122  0.43778287  0.22625998  1
  Bi2+  Bi109  1  0.36677542  0.54713780  0.76232261  1
  Bi2+  Bi110  1  0.30074201  0.71705679  0.24618938  1
  Bi2+  Bi111  1  0.33533679  0.75711964  0.71461935  1
  Bi2+  Bi112  1  0.62036326  0.00096047  0.18964910  1
  Bi2+  Bi113  1  0.62076353  -0.00390914  0.70811600  1
  Bi2+  Bi114  1  0.65594328  0.26402622  0.20772815  1
  Bi2+  Bi115  1  0.65968097  0.25809492  0.72948915  1
  Bi2+  Bi116  1  0.59236170  0.51042041  0.18879383  1
  Bi2+  Bi117  1  0.59983628  0.50224612  0.68076822  1
  Bi2+  Bi118  1  0.56385687  0.75566732  0.20427594  1
  Bi2+  Bi119  1  0.57820856  0.73894653  0.71903111  1
  Bi2+  Bi120  1  0.90145036  0.06720812  0.21629744  1
  Bi2+  Bi121  1  0.88994568  -0.01336179  0.70304117  1
  Bi2+  Bi122  1  0.84710709  0.25601064  0.18906219  1
  Bi2+  Bi123  1  0.85171167  0.21966364  0.71893957  1
  Bi2+  Bi124  1  0.95201483  0.50524980  0.20942511  1
  Bi2+  Bi125  1  0.82841771  0.49394157  0.69102131  1
  Bi2+  Bi126  1  0.93204679  0.77672439  0.21542765  1
  Bi2+  Bi127  1  0.86250634  0.75435932  0.75357166  1
  S2-  S128  1  0.03557105  0.12043416  0.15205545  1
  S2-  S129  1  0.01594505  0.09497160  0.65469779  1
  S2-  S130  1  0.04389908  0.38510866  0.15099686  1
  S2-  S131  1  0.01866943  0.35772781  0.64795316  1
  S2-  S132  1  -0.09237322  0.63989007  0.14814732  1
  S2-  S133  1  0.00291021  0.64220456  0.65140659  1
  S2-  S134  1  -0.07763393  0.88100957  0.14206632  1
  S2-  S135  1  0.11913849  0.87647487  0.64250885  1
  S2-  S136  1  0.26676698  -0.00036885  0.14297924  1
  S2-  S137  1  0.25261341  0.11448448  0.66404100  1
  S2-  S138  1  0.25163150  0.24201215  0.14480885  1
  S2-  S139  1  0.24346421  0.33749185  0.66062044  1
  S2-  S140  1  0.26050656  0.50153083  0.14932951  1
  S2-  S141  1  0.23561392  0.57586952  0.64981226  1
  S2-  S142  1  0.27971378  0.75494226  0.14585382  1
  S2-  S143  1  0.37043893  0.87518908  0.64205625  1
  S2-  S144  1  0.48435778  0.11329706  0.16670910  1
  S2-  S145  1  0.51805235  0.11770969  0.65765510  1
  S2-  S146  1  0.48510758  0.37689382  0.16360620  1
  S2-  S147  1  0.48421914  0.39108136  0.65509432  1
  S2-  S148  1  0.47563856  0.62263400  0.15971115  1
  S2-  S149  1  0.49545721  0.62080166  0.65516179  1
  S2-  S150  1  0.48464271  0.88577307  0.15005337  1
  S2-  S151  1  0.60441409  0.85262655  0.64521537  1
  S2-  S152  1  0.75933452  0.04081824  0.14373967  1
  S2-  S153  1  0.75405816  0.02903227  0.64692374  1
  S2-  S154  1  0.74775825  0.46609702  0.14312480  1
  S2-  S155  1  0.71851465  0.37193358  0.65175625  1
  S2-  S156  1  0.69035213  0.65239357  0.17648128  1
  S2-  S157  1  0.73312353  0.61846603  0.65187497  1
  S2-  S158  1  0.70224871  0.85871449  0.17984439  1
  S2-  S159  1  0.88094410  0.85684003  0.64569186  1
  S2-  S160  1  0.23200252  -0.02230272  0.36356292  1
  S2-  S161  1  0.01408544  0.00134939  0.84746373  1
  S2-  S162  1  0.23601375  0.24187597  0.36298801  1
  S2-  S163  1  0.10493355  0.22507428  0.82832809  1
  S2-  S164  1  -0.00945058  0.49505562  0.35418601  1
  S2-  S165  1  0.12234635  0.49430731  0.84182239  1
  S2-  S166  1  0.06682464  0.77117963  0.34999775  1
  S2-  S167  1  0.14994648  0.85918549  0.85165957  1
  S2-  S168  1  0.45885428  0.00234183  0.35067012  1
  S2-  S169  1  0.27110699  0.03323125  0.85580868  1
  S2-  S170  1  0.45572633  0.24687299  0.35052673  1
  S2-  S171  1  0.30430815  0.26468913  0.86314474  1
  S2-  S172  1  0.44673661  0.49417136  0.34844749  1
  S2-  S173  1  0.36703151  0.47690757  0.85581135  1
  S2-  S174  1  0.38308707  0.75884492  0.34555674  1
  S2-  S175  1  0.29330733  0.70731516  0.86413176  1
  S2-  S176  1  0.63067192  0.12914091  0.34563160  1
  S2-  S177  1  0.62281730  0.12920648  0.86143774  1
  S2-  S178  1  0.63618958  0.35180234  0.34105201  1
  S2-  S179  1  0.63773319  0.35207817  0.85838777  1
  S2-  S180  1  0.60731700  0.64726832  0.34181763  1
  S2-  S181  1  0.58232433  0.56532824  0.83512281  1
  S2-  S182  1  0.61586469  0.85696119  0.34826613  1
  S2-  S183  1  0.73410451  0.73823197  0.86753584  1
  S2-  S184  1  0.78988368  -0.01473971  0.35226987  1
  S2-  S185  1  0.76488163  -0.03551677  0.85573492  1
  S2-  S186  1  0.87070044  0.24762420  0.34353523  1
  S2-  S187  1  0.87616569  0.16801547  0.85396067  1
  S2-  S188  1  0.77256960  0.51078235  0.33939709  1
  S2-  S189  1  0.80887683  0.51422945  0.85918909  1
  S2-  S190  1  0.82146773  0.75203120  0.33714061  1
  S2-  S191  1  0.96041828  0.73779308  0.84353473  1
  S2-  S192  1  -0.00750166  0.11731202  0.45062911  1
  S2-  S193  1  0.02757302  0.12633602  0.94833885  1
  S2-  S194  1  -0.00848851  0.36562668  0.44860633  1
  S2-  S195  1  0.02053931  0.37418769  0.94577472  1
  S2-  S196  1  -0.01021661  0.62503992  0.45050393  1
  S2-  S197  1  0.01663931  0.62013536  0.95423980  1
  S2-  S198  1  -0.00922974  0.87365589  0.45749137  1
  S2-  S199  1  0.01220338  0.86750081  0.95201550  1
  S2-  S200  1  0.23611267  0.11897820  0.46005436  1
  S2-  S201  1  0.27277434  0.12319210  0.96199793  1
  S2-  S202  1  0.23646436  0.37714491  0.45507912  1
  S2-  S203  1  0.27348996  0.37658422  0.96704809  1
  S2-  S204  1  0.23837286  0.62202492  0.44885327  1
  S2-  S205  1  0.27345023  0.61908177  0.96854105  1
  S2-  S206  1  0.23782979  0.86575921  0.46466601  1
  S2-  S207  1  0.27462587  0.87156615  0.95701105  1
  S2-  S208  1  0.48831020  0.12283630  0.45341325  1
  S2-  S209  1  0.51524031  0.12419428  0.96028175  1
  S2-  S210  1  0.49095336  0.37213299  0.45227053  1
  S2-  S211  1  0.51670185  0.37165267  0.95798728  1
  S2-  S212  1  0.49166717  0.62137412  0.45170339  1
  S2-  S213  1  0.52318143  0.62281085  0.95574410  1
  S2-  S214  1  0.48976214  0.87038729  0.45883718  1
  S2-  S215  1  0.52500555  0.87301852  0.94952062  1
  S2-  S216  1  0.73906622  0.12025683  0.45517296  1
  S2-  S217  1  0.76667625  0.12581927  0.95678697  1
  S2-  S218  1  0.73929964  0.37003650  0.44750836  1
  S2-  S219  1  0.77306849  0.36802125  0.95726852  1
  S2-  S220  1  0.74157311  0.62156248  0.44857681  1
  S2-  S221  1  0.76842781  0.61876139  0.96857121  1
  S2-  S222  1  0.74164112  0.87157701  0.45962302  1
  S2-  S223  1  0.76542350  0.87554954  0.96566056  1
  S2-  S224  1  0.14151164  -0.00595133  0.03891889  1
  S2-  S225  1  0.11558299  -0.00401139  0.54222550  1
  S2-  S226  1  0.14448418  0.24894647  0.03830628  1
  S2-  S227  1  0.11551602  0.24689028  0.54009490  1
  S2-  S228  1  0.14093602  0.50117160  0.04748994  1
  S2-  S229  1  0.11135131  0.49855140  0.53767015  1
  S2-  S230  1  0.14159155  0.74632173  0.04133071  1
  S2-  S231  1  0.11251822  0.74511120  0.54541633  1
  S2-  S232  1  0.39896400  -0.00354854  0.04033030  1
  S2-  S233  1  0.36157866  -0.00338215  0.54551840  1
  S2-  S234  1  0.39715247  0.24840906  0.05189520  1
  S2-  S235  1  0.36071861  0.24820690  0.54700884  1
  S2-  S236  1  0.39831989  0.49942293  0.05393010  1
  S2-  S237  1  0.36494435  0.49732383  0.54474194  1
  S2-  S238  1  0.40277158  0.74859061  0.04481868  1
  S2-  S239  1  0.36595816  0.74170911  0.54921914  1
  S2-  S240  1  0.64474529  -0.00053326  0.04072075  1
  S2-  S241  1  0.61231278  -0.00595185  0.54548965  1
  S2-  S242  1  0.64567575  0.24523402  0.04876616  1
  S2-  S243  1  0.61473791  0.24635313  0.54597335  1
  S2-  S244  1  0.64462010  0.49773959  0.04096514  1
  S2-  S245  1  0.61568805  0.49914342  0.54442004  1
  S2-  S246  1  0.64855715  0.75177921  0.05661915  1
  S2-  S247  1  0.61512309  0.74236865  0.54048102  1
  S2-  S248  1  0.89511065  0.00346966  0.03751710  1
  S2-  S249  1  0.87055174  -0.00412217  0.54381717  1
  S2-  S250  1  0.89612789  0.24621913  0.04598389  1
  S2-  S251  1  0.86382477  0.24533040  0.54949773  1
  S2-  S252  1  0.89637700  0.49508959  0.04747095  1
  S2-  S253  1  0.86442868  0.49812120  0.53828282  1
  S2-  S254  1  0.88837453  0.74737500  0.04312671  1
  S2-  S255  1  0.86599686  0.74459336  0.54243334  1
