# generated using pymatgen
data_La6Ce7Pr13Nd19Sm19(BiS2)64
_symmetry_space_group_name_H-M   'P 1'
_cell_length_a   16.00138549
_cell_length_b   16.04830880
_cell_length_c   27.28686163
_cell_angle_alpha   90.10049146
_cell_angle_beta   90.09266977
_cell_angle_gamma   90.01658069
_symmetry_Int_Tables_number   1
_chemical_formula_structural   La6Ce7Pr13Nd19Sm19(BiS2)64
_chemical_formula_sum   'La6 Ce7 Pr13 Nd19 Sm19 Bi64 S128'
_cell_volume   7007.11418249
_cell_formula_units_Z   1
loop_
 _symmetry_equiv_pos_site_id
 _symmetry_equiv_pos_as_xyz
  1  'x, y, z'
loop_
 _atom_type_symbol
 _atom_type_oxidation_number
  La3+  3.0
  Ce3+  3.0
  Pr3+  3.0
  Nd3+  3.0
  Sm3+  3.0
  Bi2+  2.0
  S2-  -2.0
loop_
 _atom_site_type_symbol
 _atom_site_label
 _atom_site_symmetry_multiplicity
 _atom_site_fract_x
 _atom_site_fract_y
 _atom_site_fract_z
 _atom_site_occupancy
  La3+  La0  1  0.88858973  0.74450343  0.89660377  1
  La3+  La1  1  0.11705022  0.74636562  0.43501697  1
  La3+  La2  1  0.84137681  0.73091090  0.38531984  1
  La3+  La3  1  0.88264970  0.24164490  0.90223917  1
  La3+  La4  1  0.38648816  0.49965813  0.39881062  1
  La3+  La5  1  -0.00704543  0.87595267  0.10587843  1
  Ce3+  Ce6  1  0.62354929  0.24629661  0.44245194  1
  Ce3+  Ce7  1  0.76570686  0.11459527  0.05786872  1
  Ce3+  Ce8  1  0.86852987  0.49511651  0.44915256  1
  Ce3+  Ce9  1  0.63639379  0.74086134  0.93315577  1
  Ce3+  Ce10  1  0.61804206  0.73975076  0.44714654  1
  Ce3+  Ce11  1  -0.00155243  0.61945505  0.55954886  1
  Ce3+  Ce12  1  0.51118964  0.61605974  0.05360847  1
  Pr3+  Pr13  1  0.87913020  0.48854661  0.92213524  1
  Pr3+  Pr14  1  0.00390385  0.13754590  0.59080538  1
  Pr3+  Pr15  1  0.51064839  0.36471572  0.08122837  1
  Pr3+  Pr16  1  0.74798025  0.61968874  0.57859661  1
  Pr3+  Pr17  1  0.26190123  0.36727176  0.07102732  1
  Pr3+  Pr18  1  0.50766670  0.86319949  0.07147409  1
  Pr3+  Pr19  1  -0.00082786  0.87214334  0.57328382  1
  Pr3+  Pr20  1  0.13550411  0.73706173  0.92439331  1
  Pr3+  Pr21  1  0.51309038  0.11659067  0.07313237  1
  Pr3+  Pr22  1  0.25483645  0.86403487  0.06099627  1
  Pr3+  Pr23  1  0.12275950  -0.00257983  0.45451313  1
  Pr3+  Pr24  1  0.49642162  0.11957505  0.57158568  1
  Pr3+  Pr25  1  0.74568451  0.11704242  0.57186188  1
  Nd3+  Nd26  1  0.63221718  0.23859550  0.93729770  1
  Nd3+  Nd27  1  0.38401826  0.74124301  0.93013313  1
  Nd3+  Nd28  1  0.87491184  -0.00582795  0.44146437  1
  Nd3+  Nd29  1  0.37128305  -0.00469646  0.44364605  1
  Nd3+  Nd30  1  0.49880806  0.62153391  0.57003507  1
  Nd3+  Nd31  1  0.13265353  0.48611129  0.93382712  1
  Nd3+  Nd32  1  0.76041915  0.36763477  0.06483675  1
  Nd3+  Nd33  1  0.25807543  0.11524889  0.04979937  1
  Nd3+  Nd34  1  0.13150947  0.24239595  0.93247169  1
  Nd3+  Nd35  1  0.38361131  0.24628202  0.42704152  1
  Nd3+  Nd36  1  0.38810027  -0.00949835  0.94100107  1
  Nd3+  Nd37  1  0.74958855  0.35928542  0.58734199  1
  Nd3+  Nd38  1  0.38507491  0.48416495  0.93770664  1
  Nd3+  Nd39  1  0.76442620  0.86321638  0.05242373  1
  Nd3+  Nd40  1  0.12612363  0.48674594  0.42628159  1
  Nd3+  Nd41  1  0.49598571  0.86896201  0.55651420  1
  Nd3+  Nd42  1  0.49936912  0.36939107  0.56615801  1
  Nd3+  Nd43  1  0.36724813  0.74354360  0.43023252  1
  Nd3+  Nd44  1  0.13070766  -0.01233686  0.93299878  1
  Sm3+  Sm45  1  0.00146312  0.37291773  0.55724483  1
  Sm3+  Sm46  1  0.63664962  0.48719096  0.94147575  1
  Sm3+  Sm47  1  0.38762773  0.24211165  0.94080989  1
  Sm3+  Sm48  1  0.25439814  0.37228704  0.55236963  1
  Sm3+  Sm49  1  0.76575146  0.61784248  0.05150874  1
  Sm3+  Sm50  1  0.62425235  -0.00694628  0.44297308  1
  Sm3+  Sm51  1  0.01190519  0.37232671  0.06085819  1
  Sm3+  Sm52  1  0.24797160  0.12311533  0.56347434  1
  Sm3+  Sm53  1  0.00855936  0.11468061  0.05172738  1
  Sm3+  Sm54  1  0.12452313  0.24517945  0.44238295  1
  Sm3+  Sm55  1  0.87310208  0.23885288  0.44538997  1
  Sm3+  Sm56  1  0.25071969  0.85824379  0.57157219  1
  Sm3+  Sm57  1  0.63434790  -0.00866684  0.94654585  1
  Sm3+  Sm58  1  0.88441768  -0.01015717  0.92650674  1
  Sm3+  Sm59  1  0.01036301  0.61665888  0.05215274  1
  Sm3+  Sm60  1  0.24735451  0.61605999  0.55270021  1
  Sm3+  Sm61  1  0.75391098  0.86857852  0.55698104  1
  Sm3+  Sm62  1  0.62388105  0.49344755  0.44962774  1
  Sm3+  Sm63  1  0.26009671  0.61709478  0.05297822  1
  Bi2+  Bi64  1  0.00670117  0.11175629  0.29397185  1
  Bi2+  Bi65  1  0.00363743  0.11968841  0.77792507  1
  Bi2+  Bi66  1  -0.04432029  0.32455691  0.29829879  1
  Bi2+  Bi67  1  0.09899431  0.39398090  0.79994665  1
  Bi2+  Bi68  1  -0.00375970  0.51929484  0.28843125  1
  Bi2+  Bi69  1  0.02019130  0.62982395  0.77202037  1
  Bi2+  Bi70  1  0.00731032  0.89234364  0.30781496  1
  Bi2+  Bi71  1  -0.00685362  0.88948571  0.77579807  1
  Bi2+  Bi72  1  0.20369115  0.18542555  0.28317195  1
  Bi2+  Bi73  1  0.29255110  0.19321967  0.78112663  1
  Bi2+  Bi74  1  0.22518929  0.38951733  0.28010438  1
  Bi2+  Bi75  1  0.26775245  0.35060966  0.84969156  1
  Bi2+  Bi76  1  0.14343858  0.65549894  0.29905657  1
  Bi2+  Bi77  1  0.29594504  0.60898510  0.79369008  1
  Bi2+  Bi78  1  0.25614621  0.91207807  0.29922043  1
  Bi2+  Bi79  1  0.34451189  0.85202774  0.77844742  1
  Bi2+  Bi80  1  0.48965778  0.16510918  0.24720863  1
  Bi2+  Bi81  1  0.47146441  0.10539770  0.79794185  1
  Bi2+  Bi82  1  0.50852180  0.36004889  0.29376242  1
  Bi2+  Bi83  1  0.50001365  0.36454056  0.79273978  1
  Bi2+  Bi84  1  0.53906376  0.68598414  0.28391717  1
  Bi2+  Bi85  1  0.52716230  0.63428954  0.79394957  1
  Bi2+  Bi86  1  0.49409003  0.91755887  0.30016019  1
  Bi2+  Bi87  1  0.51252026  0.81714413  0.83149892  1
  Bi2+  Bi88  1  0.74014464  0.12970333  0.30525757  1
  Bi2+  Bi89  1  0.73042423  0.12531097  0.78315033  1
  Bi2+  Bi90  1  0.76582923  0.31598941  0.34301316  1
  Bi2+  Bi91  1  0.75351633  0.37982605  0.78320892  1
  Bi2+  Bi92  1  0.72720290  0.48867903  0.29315421  1
  Bi2+  Bi93  1  0.75418029  0.61665258  0.78140562  1
  Bi2+  Bi94  1  0.72833251  0.86683381  0.28536618  1
  Bi2+  Bi95  1  0.66105897  0.91848230  0.78012104  1
  Bi2+  Bi96  1  0.13174562  0.03685544  0.20348024  1
  Bi2+  Bi97  1  0.21680643  -0.00066039  0.75319973  1
  Bi2+  Bi98  1  0.06028591  0.24240888  0.20681180  1
  Bi2+  Bi99  1  0.15063915  0.26189487  0.71177693  1
  Bi2+  Bi100  1  0.12008595  0.49065805  0.19851737  1
  Bi2+  Bi101  1  0.18180525  0.50911786  0.71711973  1
  Bi2+  Bi102  1  0.13839335  0.75729549  0.20716759  1
  Bi2+  Bi103  1  0.15177336  0.75282722  0.70146152  1
  Bi2+  Bi104  1  0.37731273  -0.00434182  0.20356784  1
  Bi2+  Bi105  1  0.34965822  0.07426683  0.67914882  1
  Bi2+  Bi106  1  0.33188808  0.25301236  0.20354892  1
  Bi2+  Bi107  1  0.40023236  0.25866876  0.66549167  1
  Bi2+  Bi108  1  0.36521977  0.53531214  0.20860821  1
  Bi2+  Bi109  1  0.37075636  0.43808319  0.71267126  1
  Bi2+  Bi110  1  0.38736750  0.78878766  0.23657901  1
  Bi2+  Bi111  1  0.40214291  0.68791131  0.70616796  1
  Bi2+  Bi112  1  0.57290161  0.01212586  0.19011715  1
  Bi2+  Bi113  1  0.52386664  -0.01064015  0.70476413  1
  Bi2+  Bi114  1  0.67341996  0.28484637  0.23887710  1
  Bi2+  Bi115  1  0.57428586  0.22931708  0.71806465  1
  Bi2+  Bi116  1  0.62033174  0.52459763  0.20091334  1
  Bi2+  Bi117  1  0.56042032  0.49192892  0.71015220  1
  Bi2+  Bi118  1  0.58856136  0.81716631  0.20001087  1
  Bi2+  Bi119  1  0.59630277  0.76579905  0.71242330  1
  Bi2+  Bi120  1  0.85254225  0.08375594  0.21650974  1
  Bi2+  Bi121  1  0.80901054  0.02592752  0.70108295  1
  Bi2+  Bi122  1  0.86194063  0.28366874  0.19389345  1
  Bi2+  Bi123  1  0.90017097  0.25572179  0.72002990  1
  Bi2+  Bi124  1  0.86135278  0.48044723  0.20444425  1
  Bi2+  Bi125  1  0.93215990  0.50339495  0.70353416  1
  Bi2+  Bi126  1  0.86966138  0.72742856  0.18706646  1
  Bi2+  Bi127  1  0.84730531  0.78185821  0.72043325  1
  S2-  S128  1  -0.00741764  0.04811692  0.14389595  1
  S2-  S129  1  -0.03471255  0.04807072  0.67800204  1
  S2-  S130  1  -0.01373166  0.49846834  0.13293756  1
  S2-  S131  1  0.00028966  0.29982581  0.64686555  1
  S2-  S132  1  0.02803048  0.70538768  0.13853611  1
  S2-  S133  1  0.05765740  0.59403454  0.65115798  1
  S2-  S134  1  -0.01079609  0.84951303  0.21692259  1
  S2-  S135  1  -0.00218158  0.82402288  0.67253440  1
  S2-  S136  1  0.26675726  0.11205239  0.14969433  1
  S2-  S137  1  0.15687716  0.14002688  0.64731731  1
  S2-  S138  1  0.13251483  0.35168565  0.13890584  1
  S2-  S139  1  0.21253602  0.39034192  0.64804190  1
  S2-  S140  1  0.24640744  0.60735333  0.15357487  1
  S2-  S141  1  0.26679943  0.69564792  0.64044823  1
  S2-  S142  1  0.16006011  0.88944670  0.14651888  1
  S2-  S143  1  0.20834462  0.89277312  0.66595641  1
  S2-  S144  1  0.49058998  0.22656454  0.15073285  1
  S2-  S145  1  0.61428078  0.09908479  0.64742463  1
  S2-  S146  1  0.37560142  0.40485451  0.15140130  1
  S2-  S147  1  0.60309256  0.35749832  0.64848970  1
  S2-  S148  1  0.48711380  0.60972312  0.15116952  1
  S2-  S149  1  0.61246810  0.62401600  0.64860690  1
  S2-  S150  1  0.37571879  0.85303328  0.14058838  1
  S2-  S151  1  0.46768536  0.83662199  0.65266388  1
  S2-  S152  1  0.71900683  0.10388173  0.15237385  1
  S2-  S153  1  0.79157163  0.21909821  0.65212024  1
  S2-  S154  1  0.65040054  0.38317122  0.14632027  1
  S2-  S155  1  0.79529793  0.42779607  0.68177920  1
  S2-  S156  1  0.74774852  0.60690117  0.15120988  1
  S2-  S157  1  0.83073664  0.63867111  0.67259527  1
  S2-  S158  1  0.82103245  0.86932992  0.14622763  1
  S2-  S159  1  0.75036974  0.87826447  0.65628121  1
  S2-  S160  1  0.13408232  -0.00768571  0.35349837  1
  S2-  S161  1  0.11227032  -0.00810666  0.83125792  1
  S2-  S162  1  0.11934730  0.31518679  0.35234799  1
  S2-  S163  1  0.04439173  0.23179177  0.84422462  1
  S2-  S164  1  0.22777131  0.52123454  0.34539610  1
  S2-  S165  1  0.13190841  0.55764082  0.84213965  1
  S2-  S166  1  0.01084282  0.74107462  0.35222145  1
  S2-  S167  1  0.04277513  0.76008865  0.83451350  1
  S2-  S168  1  0.37536503  0.01810817  0.34507239  1
  S2-  S169  1  0.36502838  -0.00735039  0.84218998  1
  S2-  S170  1  0.36139889  0.35058703  0.34454093  1
  S2-  S171  1  0.50048049  0.24395719  0.86526065  1
  S2-  S172  1  0.42031212  0.65455553  0.34770756  1
  S2-  S173  1  0.42559259  0.51303793  0.84183143  1
  S2-  S174  1  0.23904819  0.77450331  0.35829281  1
  S2-  S175  1  0.27063620  0.74968256  0.85203280  1
  S2-  S176  1  0.64069261  -0.00389107  0.34411864  1
  S2-  S177  1  0.61944521  0.03604144  0.85185898  1
  S2-  S178  1  0.52445326  0.22842434  0.36213386  1
  S2-  S179  1  0.72228342  0.25215500  0.85006563  1
  S2-  S180  1  0.55768214  0.48309696  0.35650957  1
  S2-  S181  1  0.68935356  0.48908292  0.84637310  1
  S2-  S182  1  0.66493897  0.74247407  0.35286911  1
  S2-  S183  1  0.72534421  0.73190389  0.84651072  1
  S2-  S184  1  0.85569595  -0.09717845  0.35286946  1
  S2-  S185  1  0.87432876  0.09768272  0.84196525  1
  S2-  S186  1  0.88695582  0.12108245  0.36885751  1
  S2-  S187  1  0.88836062  0.38089809  0.83756849  1
  S2-  S188  1  0.85180169  0.55643035  0.35726677  1
  S2-  S189  1  0.89147543  0.59508731  0.83651486  1
  S2-  S190  1  0.82132927  0.73183776  0.27738235  1
  S2-  S191  1  0.87543203  0.89439537  0.83900141  1
  S2-  S192  1  0.00300945  0.12605134  0.46963957  1
  S2-  S193  1  0.00652609  0.11565528  0.94834058  1
  S2-  S194  1  -0.00514129  0.36715822  0.45318403  1
  S2-  S195  1  0.00705488  0.36386095  0.95368191  1
  S2-  S196  1  0.00167366  0.60920517  0.45432841  1
  S2-  S197  1  0.00749938  0.61309517  0.94679047  1
  S2-  S198  1  -0.00138223  0.87513262  0.46471832  1
  S2-  S199  1  0.00866319  0.86570266  0.93994548  1
  S2-  S200  1  0.25130192  0.12617034  0.45454149  1
  S2-  S201  1  0.26068609  0.11680701  0.94377399  1
  S2-  S202  1  0.25347235  0.36854863  0.45099520  1
  S2-  S203  1  0.25933081  0.36243901  0.96270711  1
  S2-  S204  1  0.25133601  0.61325091  0.45178788  1
  S2-  S205  1  0.26316171  0.61000922  0.94891370  1
  S2-  S206  1  0.24925020  0.87211032  0.46466290  1
  S2-  S207  1  0.26103936  0.86968231  0.95248022  1
  S2-  S208  1  0.49930267  0.11362270  0.46301378  1
  S2-  S209  1  0.50891538  0.11364492  0.96445991  1
  S2-  S210  1  0.49632830  0.37352230  0.46107590  1
  S2-  S211  1  0.51137808  0.36753717  0.96333322  1
  S2-  S212  1  0.49666401  0.61395725  0.46344737  1
  S2-  S213  1  0.51091668  0.61388952  0.94751524  1
  S2-  S214  1  0.49629352  0.86939380  0.44950773  1
  S2-  S215  1  0.51036830  0.86627224  0.96076469  1
  S2-  S216  1  0.74412098  0.11767066  0.46299555  1
  S2-  S217  1  0.76043539  0.11432680  0.95307711  1
  S2-  S218  1  0.74767702  0.36853984  0.46706589  1
  S2-  S219  1  0.75874226  0.36321996  0.95777354  1
  S2-  S220  1  0.74550845  0.62039771  0.46357018  1
  S2-  S221  1  0.75902037  0.61526371  0.94965055  1
  S2-  S222  1  0.74592240  0.86621275  0.45477396  1
  S2-  S223  1  0.75735900  0.86833089  0.94681051  1
  S2-  S224  1  0.13124580  -0.00720782  0.03813049  1
  S2-  S225  1  0.12824082  -0.00555508  0.55906829  1
  S2-  S226  1  0.13162424  0.23747647  0.03859846  1
  S2-  S227  1  0.12864873  0.25185811  0.54444745  1
  S2-  S228  1  0.13893057  0.49278542  0.03941395  1
  S2-  S229  1  0.12614475  0.49190698  0.53797602  1
  S2-  S230  1  0.13948643  0.73514188  0.03299330  1
  S2-  S231  1  0.12359614  0.74451782  0.54591332  1
  S2-  S232  1  0.38642250  -0.00681135  0.04692110  1
  S2-  S233  1  0.36856174  -0.00703848  0.55069903  1
  S2-  S234  1  0.38374350  0.24058787  0.04443778  1
  S2-  S235  1  0.37291492  0.24374759  0.53980819  1
  S2-  S236  1  0.38569899  0.49318573  0.04313375  1
  S2-  S237  1  0.37445468  0.49779719  0.56274965  1
  S2-  S238  1  0.38461181  0.73839918  0.03729217  1
  S2-  S239  1  0.37421172  0.74191037  0.53929019  1
  S2-  S240  1  0.63485116  -0.01277260  0.05036116  1
  S2-  S241  1  0.62313229  -0.01231674  0.54685562  1
  S2-  S242  1  0.63810739  0.23933260  0.04640050  1
  S2-  S243  1  0.62227635  0.24266115  0.54730305  1
  S2-  S244  1  0.63698560  0.49431663  0.04375670  1
  S2-  S245  1  0.62549154  0.49270110  0.55202895  1
  S2-  S246  1  0.63619668  0.74062924  0.04478984  1
  S2-  S247  1  0.62500561  0.74925820  0.55123614  1
  S2-  S248  1  0.88717381  -0.01128261  0.03651611  1
  S2-  S249  1  0.87529618  -0.00264442  0.55208484  1
  S2-  S250  1  0.88913799  0.24360086  0.05731209  1
  S2-  S251  1  0.87644074  0.24702475  0.54657281  1
  S2-  S252  1  0.88060425  0.48921557  0.03413183  1
  S2-  S253  1  0.87222877  0.49056989  0.55613180  1
  S2-  S254  1  0.88703322  0.74027455  0.04480989  1
  S2-  S255  1  0.87434146  0.74483529  0.55928755  1
