# generated using pymatgen
data_La6Ce7Pr13Nd19Sm19(BiS2)64
_symmetry_space_group_name_H-M   'P 1'
_cell_length_a   16.06696746
_cell_length_b   16.09350687
_cell_length_c   27.50325288
_cell_angle_alpha   89.91721506
_cell_angle_beta   89.72374150
_cell_angle_gamma   89.96963076
_symmetry_Int_Tables_number   1
_chemical_formula_structural   La6Ce7Pr13Nd19Sm19(BiS2)64
_chemical_formula_sum   'La6 Ce7 Pr13 Nd19 Sm19 Bi64 S128'
_cell_volume   7111.53095508
_cell_formula_units_Z   1
loop_
 _symmetry_equiv_pos_site_id
 _symmetry_equiv_pos_as_xyz
  1  'x, y, z'
loop_
 _atom_type_symbol
 _atom_type_oxidation_number
  La3+  3.0
  Ce3+  3.0
  Pr3+  3.0
  Nd3+  3.0
  Sm3+  3.0
  Bi2+  2.0
  S2-  -2.0
loop_
 _atom_site_type_symbol
 _atom_site_label
 _atom_site_symmetry_multiplicity
 _atom_site_fract_x
 _atom_site_fract_y
 _atom_site_fract_z
 _atom_site_occupancy
  La3+  La0  1  0.49210851  0.38001315  0.57744506  1
  La3+  La1  1  0.50721778  0.37557587  0.11165765  1
  La3+  La2  1  0.88480279  0.49337679  0.38979919  1
  La3+  La3  1  0.49427941  0.62874105  0.07492877  1
  La3+  La4  1  0.00007486  0.37889674  0.56783946  1
  La3+  La5  1  0.51961916  0.12091117  0.61937121  1
  Ce3+  Ce6  1  0.24956914  0.87859574  0.56265966  1
  Ce3+  Ce7  1  0.50152044  0.62734336  0.56804539  1
  Ce3+  Ce8  1  0.88753448  0.00130684  0.42989567  1
  Ce3+  Ce9  1  0.12804400  0.00627560  0.45457281  1
  Ce3+  Ce10  1  0.12200930  0.50514930  0.43778999  1
  Ce3+  Ce11  1  0.62647650  0.00562365  0.44111626  1
  Ce3+  Ce12  1  0.74945733  0.12838338  0.55652761  1
  Pr3+  Pr13  1  0.62786423  0.75389066  0.44489469  1
  Pr3+  Pr14  1  0.62247958  0.50392263  0.94352327  1
  Pr3+  Pr15  1  0.62991415  0.50842916  0.43793532  1
  Pr3+  Pr16  1  0.12323270  0.75503497  0.44178703  1
  Pr3+  Pr17  1  0.12156552  0.75143935  0.92541210  1
  Pr3+  Pr18  1  0.62766823  0.25474290  0.44020563  1
  Pr3+  Pr19  1  0.75753423  0.63135399  0.56364999  1
  Pr3+  Pr20  1  0.12379590  0.25548887  0.93829250  1
  Pr3+  Pr21  1  0.49792410  0.13224550  0.06250625  1
  Pr3+  Pr22  1  -0.00555363  0.87459894  0.06154525  1
  Pr3+  Pr23  1  0.37786512  0.00075750  0.93718676  1
  Pr3+  Pr24  1  0.12652799  0.25487189  0.44493920  1
  Pr3+  Pr25  1  0.74543534  0.13330762  0.05384651  1
  Nd3+  Nd26  1  -0.00321020  0.88187246  0.56845336  1
  Nd3+  Nd27  1  0.87853896  0.75318152  0.43138535  1
  Nd3+  Nd28  1  0.62302550  0.26115585  0.93028060  1
  Nd3+  Nd29  1  0.24687729  0.63036191  0.06434652  1
  Nd3+  Nd30  1  0.24830251  0.12906278  0.05464538  1
  Nd3+  Nd31  1  0.24834153  0.37819217  0.06852745  1
  Nd3+  Nd32  1  0.50049844  0.88039473  0.56211121  1
  Nd3+  Nd33  1  0.87333512  0.25568606  0.93620136  1
  Nd3+  Nd34  1  0.74574761  0.87692303  0.05552803  1
  Nd3+  Nd35  1  0.75274417  0.88340821  0.55767785  1
  Nd3+  Nd36  1  0.75150497  0.38102478  0.07036566  1
  Nd3+  Nd37  1  0.49652390  0.87641242  0.06609394  1
  Nd3+  Nd38  1  -0.00170487  0.62919976  0.05324713  1
  Nd3+  Nd39  1  0.74582867  0.38101629  0.55796514  1
  Nd3+  Nd40  1  0.24993972  0.62912559  0.55398167  1
  Nd3+  Nd41  1  0.87394022  0.00269041  0.93956744  1
  Nd3+  Nd42  1  0.37999071  0.50711944  0.43226746  1
  Nd3+  Nd43  1  0.37455889  0.25791220  0.94024088  1
  Nd3+  Nd44  1  0.87403804  0.75241478  0.93165822  1
  Sm3+  Sm45  1  0.74736973  0.62774676  0.06239154  1
  Sm3+  Sm46  1  0.37895851  0.25314224  0.44144966  1
  Sm3+  Sm47  1  0.62619647  0.74794866  0.93162579  1
  Sm3+  Sm48  1  -0.00189646  0.62355728  0.56380424  1
  Sm3+  Sm49  1  -0.00278112  0.12897858  0.05409753  1
  Sm3+  Sm50  1  0.37458266  0.75137158  0.94140339  1
  Sm3+  Sm51  1  0.62228298  0.00345237  0.94321810  1
  Sm3+  Sm52  1  0.37734680  0.75499279  0.44413806  1
  Sm3+  Sm53  1  0.26048923  0.13043478  0.56550397  1
  Sm3+  Sm54  1  0.87812099  0.25448104  0.44453677  1
  Sm3+  Sm55  1  0.00015534  0.13326580  0.56854622  1
  Sm3+  Sm56  1  0.37597545  0.50435415  0.94849887  1
  Sm3+  Sm57  1  -0.00303148  0.37939240  0.06276682  1
  Sm3+  Sm58  1  0.25491441  0.37945239  0.55199031  1
  Sm3+  Sm59  1  0.87254590  0.50093464  0.93960877  1
  Sm3+  Sm60  1  0.12500896  0.50205400  0.94326192  1
  Sm3+  Sm61  1  0.37766641  0.00504510  0.44470778  1
  Sm3+  Sm62  1  0.12346174  0.00272962  0.94504663  1
  Sm3+  Sm63  1  0.24732224  0.87911858  0.05061164  1
  Bi2+  Bi64  1  -0.04463844  0.11012632  0.31853311  1
  Bi2+  Bi65  1  0.06138873  0.17793634  0.79493720  1
  Bi2+  Bi66  1  0.00211636  0.28825677  0.27081132  1
  Bi2+  Bi67  1  0.03157685  0.38629622  0.80670349  1
  Bi2+  Bi68  1  0.03384054  0.62357118  0.28776118  1
  Bi2+  Bi69  1  0.03354828  0.67421802  0.77616556  1
  Bi2+  Bi70  1  0.03746238  0.84240334  0.30903605  1
  Bi2+  Bi71  1  0.00260370  0.92834728  0.79549506  1
  Bi2+  Bi72  1  0.24886435  0.15079467  0.30610505  1
  Bi2+  Bi73  1  0.21326080  0.14107932  0.71770823  1
  Bi2+  Bi74  1  0.20821807  0.35469647  0.26584360  1
  Bi2+  Bi75  1  0.28367918  0.42795628  0.73943003  1
  Bi2+  Bi76  1  0.16335761  0.60536085  0.19698261  1
  Bi2+  Bi77  1  0.22255745  0.70428647  0.80849400  1
  Bi2+  Bi78  1  0.27589764  0.88773011  0.28622677  1
  Bi2+  Bi79  1  0.20060496  0.89664373  0.80223839  1
  Bi2+  Bi80  1  0.49402905  0.05308200  0.28533476  1
  Bi2+  Bi81  1  0.50559850  0.10087039  0.82249101  1
  Bi2+  Bi82  1  0.49814903  0.37005647  0.32682704  1
  Bi2+  Bi83  1  0.49138231  0.36963897  0.80747851  1
  Bi2+  Bi84  1  0.51953510  0.62413406  0.31225886  1
  Bi2+  Bi85  1  0.48183410  0.59395512  0.79638269  1
  Bi2+  Bi86  1  0.49914208  0.85484634  0.29312896  1
  Bi2+  Bi87  1  0.52124452  0.83859318  0.80543022  1
  Bi2+  Bi88  1  0.76804631  0.11163213  0.28333607  1
  Bi2+  Bi89  1  0.77904718  0.05965234  0.75364573  1
  Bi2+  Bi90  1  0.75913271  0.32314259  0.29136187  1
  Bi2+  Bi91  1  0.76804087  0.41059755  0.79416456  1
  Bi2+  Bi92  1  0.77520196  0.71297143  0.27583571  1
  Bi2+  Bi93  1  0.74289966  0.61899839  0.79641094  1
  Bi2+  Bi94  1  0.77007591  0.91234832  0.28189915  1
  Bi2+  Bi95  1  0.80973977  0.87919727  0.79464459  1
  Bi2+  Bi96  1  0.11707924  0.02874682  0.25894189  1
  Bi2+  Bi97  1  0.04848326  0.03676702  0.69862304  1
  Bi2+  Bi98  1  0.12377921  0.21924880  0.18908918  1
  Bi2+  Bi99  1  0.13267606  0.31529925  0.70307241  1
  Bi2+  Bi100  1  0.10306340  0.41964183  0.17711590  1
  Bi2+  Bi101  1  0.11397090  0.52436744  0.71907458  1
  Bi2+  Bi102  1  0.15030663  0.79880622  0.21281385  1
  Bi2+  Bi103  1  0.17332375  0.77554980  0.70313173  1
  Bi2+  Bi104  1  0.36303854  -0.00756966  0.20148739  1
  Bi2+  Bi105  1  0.37075568  -0.09096315  0.74456814  1
  Bi2+  Bi106  1  0.33711503  0.23823126  0.21368148  1
  Bi2+  Bi107  1  0.38963651  0.27184701  0.71333803  1
  Bi2+  Bi108  1  0.38679341  0.50570670  0.22062801  1
  Bi2+  Bi109  1  0.36983521  0.60168547  0.70242922  1
  Bi2+  Bi110  1  0.38093780  0.77038242  0.21022091  1
  Bi2+  Bi111  1  0.45243999  0.77197442  0.67594766  1
  Bi2+  Bi112  1  0.55417858  -0.01116184  0.18155834  1
  Bi2+  Bi113  1  0.64237834  -0.08550482  0.71919175  1
  Bi2+  Bi114  1  0.62294914  0.17766967  0.20768316  1
  Bi2+  Bi115  1  0.64553871  0.22578841  0.73281421  1
  Bi2+  Bi116  1  0.64739266  0.48406164  0.21727140  1
  Bi2+  Bi117  1  0.62631362  0.46284394  0.70430440  1
  Bi2+  Bi118  1  0.63820805  0.80865127  0.21255214  1
  Bi2+  Bi119  1  0.61577354  0.71508063  0.72921397  1
  Bi2+  Bi120  1  0.92912503  0.00221815  0.22367412  1
  Bi2+  Bi121  1  0.87276290  0.01768470  0.65198960  1
  Bi2+  Bi122  1  0.85883259  0.22818891  0.19918067  1
  Bi2+  Bi123  1  0.91143630  0.18854587  0.71886476  1
  Bi2+  Bi124  1  0.89236872  0.50641509  0.20257258  1
  Bi2+  Bi125  1  0.85152118  0.51480424  0.68733910  1
  Bi2+  Bi126  1  0.90487641  0.76714674  0.19965602  1
  Bi2+  Bi127  1  0.88416724  0.77105671  0.71208058  1
  S2-  S128  1  -0.01786261  0.12792892  0.15066067  1
  S2-  S129  1  -0.00189049  0.25532910  0.64226549  1
  S2-  S130  1  -0.11456563  0.37305589  0.13836293  1
  S2-  S131  1  0.00592438  0.49949468  0.64232975  1
  S2-  S132  1  -0.02293663  0.63544283  0.15115140  1
  S2-  S133  1  -0.11571006  0.65633151  0.63727672  1
  S2-  S134  1  0.01863127  0.88390255  0.15928351  1
  S2-  S135  1  0.02139662  0.82187973  0.66082023  1
  S2-  S136  1  0.26060684  0.11869287  0.15269956  1
  S2-  S137  1  0.34646290  0.13395807  0.64954106  1
  S2-  S138  1  0.34118833  0.38583987  0.15220918  1
  S2-  S139  1  0.32757718  0.37709978  0.63986584  1
  S2-  S140  1  0.32991164  0.62928989  0.15197560  1
  S2-  S141  1  0.21706626  0.62182606  0.65090835  1
  S2-  S142  1  0.27257987  0.86837630  0.14598170  1
  S2-  S143  1  0.26318854  0.89916128  0.65854644  1
  S2-  S144  1  0.48416945  0.21120517  0.15088971  1
  S2-  S145  1  0.51810442  0.12108186  0.72840156  1
  S2-  S146  1  0.50297104  0.38653176  0.23215789  1
  S2-  S147  1  0.53620971  0.28953834  0.66042230  1
  S2-  S148  1  0.52197693  0.53704007  0.16001909  1
  S2-  S149  1  0.49680982  0.51651560  0.64475310  1
  S2-  S150  1  0.50878218  0.76546706  0.14191485  1
  S2-  S151  1  0.51596944  0.95149140  0.65124300  1
  S2-  S152  1  0.74431563  0.11416963  0.15295454  1
  S2-  S153  1  0.69061292  0.13829232  0.64807192  1
  S2-  S154  1  0.66516686  0.35786826  0.15716920  1
  S2-  S155  1  0.76407746  0.37870156  0.65860041  1
  S2-  S156  1  0.75334813  0.57711613  0.15661956  1
  S2-  S157  1  0.69496559  0.58808163  0.65864672  1
  S2-  S158  1  0.77848014  0.84188768  0.14932058  1
  S2-  S159  1  0.75132360  0.83984223  0.65352572  1
  S2-  S160  1  0.07695845  -0.00377870  0.36320038  1
  S2-  S161  1  0.11802569  0.03052645  0.84979149  1
  S2-  S162  1  0.12965904  0.26216993  0.34577833  1
  S2-  S163  1  0.16089503  0.29350051  0.84349922  1
  S2-  S164  1  0.04920733  0.49568726  0.35001045  1
  S2-  S165  1  0.10780955  0.51547223  0.84735742  1
  S2-  S166  1  0.14056852  0.72235537  0.34340903  1
  S2-  S167  1  -0.00712327  0.76844060  0.85578740  1
  S2-  S168  1  0.34227206  0.01031415  0.34830837  1
  S2-  S169  1  0.35913514  -0.00540536  0.83835564  1
  S2-  S170  1  0.37229639  0.25260881  0.34311105  1
  S2-  S171  1  0.40160307  0.24387154  0.84209212  1
  S2-  S172  1  0.38139451  0.50896562  0.33200234  1
  S2-  S173  1  0.38179589  0.47967838  0.85078261  1
  S2-  S174  1  0.40264375  0.73739875  0.34880424  1
  S2-  S175  1  0.39161830  0.72867290  0.84495473  1
  S2-  S176  1  0.60688915  -0.03034960  0.34665344  1
  S2-  S177  1  0.60842501  -0.03358839  0.84891524  1
  S2-  S178  1  0.61587450  0.24835058  0.34018661  1
  S2-  S179  1  0.64035066  0.19079920  0.83644691  1
  S2-  S180  1  0.62296256  0.49252965  0.33773795  1
  S2-  S181  1  0.63994801  0.39644208  0.86080902  1
  S2-  S182  1  0.64385890  0.70881054  0.34865546  1
  S2-  S183  1  0.60561734  0.61502915  0.86404931  1
  S2-  S184  1  0.88249797  -0.11903119  0.35849259  1
  S2-  S185  1  0.87421516  0.03172941  0.84311423  1
  S2-  S186  1  0.88638076  0.32207190  0.35462930  1
  S2-  S187  1  0.87705402  0.30427301  0.84141100  1
  S2-  S188  1  0.82179785  0.47846200  0.28808897  1
  S2-  S189  1  0.86400965  0.53470055  0.84332208  1
  S2-  S190  1  0.88916655  0.65580588  0.34718441  1
  S2-  S191  1  0.75408600  0.75687287  0.85962763  1
  S2-  S192  1  0.00169858  0.13236888  0.46328031  1
  S2-  S193  1  -0.00097538  0.12849048  0.95006697  1
  S2-  S194  1  0.00021966  0.37850234  0.45854078  1
  S2-  S195  1  -0.00119141  0.38047972  0.95707021  1
  S2-  S196  1  0.00071289  0.62762604  0.45778536  1
  S2-  S197  1  -0.00070514  0.62404582  0.94943738  1
  S2-  S198  1  0.00447679  0.88041163  0.46241017  1
  S2-  S199  1  0.00032256  0.88075363  0.95559881  1
  S2-  S200  1  0.25470873  0.12977723  0.45870776  1
  S2-  S201  1  0.24904705  0.12687143  0.94935109  1
  S2-  S202  1  0.25429916  0.38075637  0.44748370  1
  S2-  S203  1  0.24890115  0.38112297  0.95848555  1
  S2-  S204  1  0.25315532  0.62971450  0.44798869  1
  S2-  S205  1  0.24771410  0.62868196  0.95508743  1
  S2-  S206  1  0.25280758  0.87884869  0.45476805  1
  S2-  S207  1  0.24734292  0.87620592  0.94715342  1
  S2-  S208  1  0.49919838  0.12826106  0.44346891  1
  S2-  S209  1  0.49990619  0.12956336  0.95497528  1
  S2-  S210  1  0.50046787  0.38046708  0.45263148  1
  S2-  S211  1  0.49480173  0.37938969  0.95446713  1
  S2-  S212  1  0.50015330  0.63066726  0.45860614  1
  S2-  S213  1  0.49383073  0.63124139  0.96307861  1
  S2-  S214  1  0.49914588  0.87916793  0.45525276  1
  S2-  S215  1  0.50164371  0.87330301  0.95729249  1
  S2-  S216  1  0.75630032  0.12807687  0.44746298  1
  S2-  S217  1  0.74752349  0.12841346  0.94833079  1
  S2-  S218  1  0.75556182  0.38212578  0.45026357  1
  S2-  S219  1  0.75464681  0.37779188  0.96126036  1
  S2-  S220  1  0.75585952  0.62898260  0.45399803  1
  S2-  S221  1  0.75354907  0.62647907  0.95851340  1
  S2-  S222  1  0.75105183  0.88131127  0.45255049  1
  S2-  S223  1  0.74628465  0.88181388  0.95224878  1
  S2-  S224  1  0.12117530  0.00307908  0.04929800  1
  S2-  S225  1  0.12644095  0.00959128  0.55926724  1
  S2-  S226  1  0.12068420  0.25421522  0.04567418  1
  S2-  S227  1  0.13499901  0.25231475  0.54975759  1
  S2-  S228  1  0.12309259  0.50369647  0.04762998  1
  S2-  S229  1  0.13039370  0.50207726  0.54257943  1
  S2-  S230  1  0.12442287  0.75439262  0.04120091  1
  S2-  S231  1  0.12222644  0.75341504  0.54832498  1
  S2-  S232  1  0.37381620  0.00211309  0.04457631  1
  S2-  S233  1  0.37573140  0.00257694  0.54736165  1
  S2-  S234  1  0.36901521  0.25383277  0.04560393  1
  S2-  S235  1  0.37663032  0.25389449  0.54258045  1
  S2-  S236  1  0.36978222  0.50318158  0.04978057  1
  S2-  S237  1  0.37402526  0.50724894  0.53824139  1
  S2-  S238  1  0.36880898  0.75662041  0.04364642  1
  S2-  S239  1  0.37453360  0.75341140  0.54818515  1
  S2-  S240  1  0.62185013  0.00234334  0.04660402  1
  S2-  S241  1  0.62418927  0.00620808  0.54637633  1
  S2-  S242  1  0.62123586  0.25791801  0.04342355  1
  S2-  S243  1  0.62278130  0.25357673  0.54548454  1
  S2-  S244  1  0.62569673  0.50303905  0.05036425  1
  S2-  S245  1  0.62433983  0.50427827  0.54320223  1
  S2-  S246  1  0.62658374  0.75177080  0.03958842  1
  S2-  S247  1  0.62697280  0.75553400  0.55118011  1
  S2-  S248  1  0.87272766  0.00464458  0.04614573  1
  S2-  S249  1  0.87895405  0.00740368  0.53773438  1
  S2-  S250  1  0.87688394  0.25151310  0.04159077  1
  S2-  S251  1  0.87073451  0.25299587  0.54695094  1
  S2-  S252  1  0.87518142  0.50664890  0.04328353  1
  S2-  S253  1  0.87265593  0.50034171  0.54706738  1
  S2-  S254  1  0.87088302  0.75089624  0.03991424  1
  S2-  S255  1  0.87837417  0.76117235  0.53826862  1
