# generated using pymatgen
data_La6Ce7Pr13Nd19Sm19(BiS2)64
_symmetry_space_group_name_H-M   'P 1'
_cell_length_a   16.06417440
_cell_length_b   16.07833126
_cell_length_c   27.32817383
_cell_angle_alpha   90.21266042
_cell_angle_beta   90.00151798
_cell_angle_gamma   90.00192506
_symmetry_Int_Tables_number   1
_chemical_formula_structural   La6Ce7Pr13Nd19Sm19(BiS2)64
_chemical_formula_sum   'La6 Ce7 Pr13 Nd19 Sm19 Bi64 S128'
_cell_volume   7058.41196462
_cell_formula_units_Z   1
loop_
 _symmetry_equiv_pos_site_id
 _symmetry_equiv_pos_as_xyz
  1  'x, y, z'
loop_
 _atom_type_symbol
 _atom_type_oxidation_number
  La3+  3.0
  Ce3+  3.0
  Pr3+  3.0
  Nd3+  3.0
  Sm3+  3.0
  Bi2+  2.0
  S2-  -2.0
loop_
 _atom_site_type_symbol
 _atom_site_label
 _atom_site_symmetry_multiplicity
 _atom_site_fract_x
 _atom_site_fract_y
 _atom_site_fract_z
 _atom_site_occupancy
  La3+  La0  1  0.11884095  0.27075745  0.41889633  1
  La3+  La1  1  0.13942685  0.73622703  0.89606735  1
  La3+  La2  1  0.53451115  0.12175583  0.11684396  1
  La3+  La3  1  0.74093914  0.14900147  0.59691120  1
  La3+  La4  1  0.11209878  0.00963225  0.41837508  1
  La3+  La5  1  0.38689334  0.51910943  0.41352430  1
  Ce3+  Ce6  1  0.88659520  0.49272770  0.94217626  1
  Ce3+  Ce7  1  0.37645790  0.77281448  0.43003416  1
  Ce3+  Ce8  1  0.13939123  -0.00831958  0.93078035  1
  Ce3+  Ce9  1  0.25326677  0.64532090  0.55191151  1
  Ce3+  Ce10  1  0.01646686  0.10750682  0.06546135  1
  Ce3+  Ce11  1  0.63193132  -0.00747623  0.93422267  1
  Ce3+  Ce12  1  0.00410370  0.64496155  0.56454810  1
  Pr3+  Pr13  1  0.24912353  0.14451324  0.54968659  1
  Pr3+  Pr14  1  0.63050962  0.25715161  0.43876135  1
  Pr3+  Pr15  1  0.00848088  0.14706402  0.57642967  1
  Pr3+  Pr16  1  0.75958098  0.87028004  0.05055025  1
  Pr3+  Pr17  1  0.12552993  0.51925730  0.43167263  1
  Pr3+  Pr18  1  0.49218311  0.15405514  0.56848297  1
  Pr3+  Pr19  1  0.87569833  0.51832386  0.44661615  1
  Pr3+  Pr20  1  0.62724865  0.77169774  0.43753325  1
  Pr3+  Pr21  1  0.74929850  0.39146361  0.56238793  1
  Pr3+  Pr22  1  0.37427685  0.01722065  0.42562631  1
  Pr3+  Pr23  1  0.87188923  0.02450428  0.45467600  1
  Pr3+  Pr24  1  0.51090853  0.86921312  0.05803890  1
  Pr3+  Pr25  1  0.50009005  0.65118633  0.56498610  1
  Nd3+  Nd26  1  0.87785834  0.26154872  0.44772811  1
  Nd3+  Nd27  1  0.00833083  0.89635708  0.57643875  1
  Nd3+  Nd28  1  0.76340039  0.61518533  0.06526944  1
  Nd3+  Nd29  1  0.26242412  0.11013535  0.07079332  1
  Nd3+  Nd30  1  0.89540770  -0.00864107  0.92036528  1
  Nd3+  Nd31  1  0.25676120  0.61819775  0.06157474  1
  Nd3+  Nd32  1  0.49589228  0.40386560  0.56020744  1
  Nd3+  Nd33  1  0.50185297  0.36970664  0.07889563  1
  Nd3+  Nd34  1  0.75243603  0.64684649  0.55908682  1
  Nd3+  Nd35  1  0.00456353  0.61917044  0.06315512  1
  Nd3+  Nd36  1  0.87608235  0.73106175  0.92093872  1
  Nd3+  Nd37  1  0.37588797  0.26563721  0.41007581  1
  Nd3+  Nd38  1  0.25260291  0.39420636  0.54775056  1
  Nd3+  Nd39  1  0.14473443  0.23922406  0.93260566  1
  Nd3+  Nd40  1  0.00854787  0.86642541  0.04639933  1
  Nd3+  Nd41  1  0.63270074  0.48773870  0.94390230  1
  Nd3+  Nd42  1  0.62609946  0.51469588  0.44042356  1
  Nd3+  Nd43  1  0.87746639  0.77162496  0.44560089  1
  Nd3+  Nd44  1  0.51695360  0.61677295  0.07368026  1
  Sm3+  Sm45  1  0.25853092  0.86591446  0.05603157  1
  Sm3+  Sm46  1  0.38443232  0.73815924  0.94574150  1
  Sm3+  Sm47  1  0.38425086  0.49195324  0.94904476  1
  Sm3+  Sm48  1  0.62983563  0.23904363  0.94308943  1
  Sm3+  Sm49  1  0.88848028  0.23771030  0.94181067  1
  Sm3+  Sm50  1  0.13625955  0.49397420  0.94108029  1
  Sm3+  Sm51  1  0.63209704  0.73953454  0.93467283  1
  Sm3+  Sm52  1  0.38350005  0.24126971  0.95242372  1
  Sm3+  Sm53  1  0.00589716  0.39336617  0.55924125  1
  Sm3+  Sm54  1  0.24948224  0.89802648  0.55797307  1
  Sm3+  Sm55  1  0.49725694  0.89489590  0.55935298  1
  Sm3+  Sm56  1  0.75304079  0.89537042  0.56743166  1
  Sm3+  Sm57  1  0.75803401  0.36118097  0.05541985  1
  Sm3+  Sm58  1  0.76096468  0.11667040  0.05225048  1
  Sm3+  Sm59  1  0.25068378  0.36501292  0.07113768  1
  Sm3+  Sm60  1  0.12292329  0.76975948  0.44368898  1
  Sm3+  Sm61  1  0.01479841  0.36178331  0.05489707  1
  Sm3+  Sm62  1  0.37853817  -0.01015612  0.93775675  1
  Sm3+  Sm63  1  0.62915423  0.02361605  0.45371907  1
  Bi2+  Bi64  1  0.01864227  0.12270235  0.29881934  1
  Bi2+  Bi65  1  -0.01503819  0.13035337  0.78593558  1
  Bi2+  Bi66  1  -0.05854207  0.34923466  0.26897806  1
  Bi2+  Bi67  1  -0.00568047  0.38526318  0.76991074  1
  Bi2+  Bi68  1  0.03925274  0.62569156  0.31021806  1
  Bi2+  Bi69  1  -0.01489751  0.62953347  0.78889691  1
  Bi2+  Bi70  1  -0.04128105  0.87601693  0.29430798  1
  Bi2+  Bi71  1  0.01308594  0.89055159  0.77451921  1
  Bi2+  Bi72  1  0.27930167  0.13606198  0.27552863  1
  Bi2+  Bi73  1  0.23337061  0.13209959  0.79850783  1
  Bi2+  Bi74  1  0.23134260  0.39432921  0.28455336  1
  Bi2+  Bi75  1  0.26571264  0.37155368  0.79559731  1
  Bi2+  Bi76  1  0.23153795  0.59207872  0.30834400  1
  Bi2+  Bi77  1  0.30866020  0.62525883  0.78017363  1
  Bi2+  Bi78  1  0.18283705  0.78914695  0.27723666  1
  Bi2+  Bi79  1  0.29245614  0.89713458  0.75173505  1
  Bi2+  Bi80  1  0.56957207  0.09009736  0.31537558  1
  Bi2+  Bi81  1  0.43031791  0.11241654  0.75006880  1
  Bi2+  Bi82  1  0.54172128  0.39347247  0.28743185  1
  Bi2+  Bi83  1  0.46159756  0.29239965  0.79512564  1
  Bi2+  Bi84  1  0.50007292  0.63884531  0.27846736  1
  Bi2+  Bi85  1  0.49165936  0.72669798  0.82778635  1
  Bi2+  Bi86  1  0.48048019  0.86858199  0.28621172  1
  Bi2+  Bi87  1  0.45463219  0.92470039  0.81533624  1
  Bi2+  Bi88  1  0.78432069  0.09408135  0.27890045  1
  Bi2+  Bi89  1  0.73437789  0.12643332  0.80424676  1
  Bi2+  Bi90  1  0.74992066  0.37420543  0.29377476  1
  Bi2+  Bi91  1  0.70257463  0.38955751  0.79472299  1
  Bi2+  Bi92  1  0.76932998  0.57407022  0.28662918  1
  Bi2+  Bi93  1  0.68740335  0.60955264  0.79431108  1
  Bi2+  Bi94  1  0.70966092  0.88013505  0.31153706  1
  Bi2+  Bi95  1  0.63353885  0.84687240  0.78840241  1
  Bi2+  Bi96  1  0.12635294  -0.00561906  0.19964945  1
  Bi2+  Bi97  1  0.17822287  0.03110515  0.70655607  1
  Bi2+  Bi98  1  0.09905859  0.26496675  0.21472152  1
  Bi2+  Bi99  1  0.12787203  0.29429481  0.69943904  1
  Bi2+  Bi100  1  0.12465342  0.55404434  0.20671307  1
  Bi2+  Bi101  1  0.14501973  0.51332612  0.75735290  1
  Bi2+  Bi102  1  0.03008505  0.73013190  0.21197182  1
  Bi2+  Bi103  1  0.11772045  0.74248025  0.69339861  1
  Bi2+  Bi104  1  0.38214072  -0.00633141  0.21506279  1
  Bi2+  Bi105  1  0.36008215  0.02193466  0.64886018  1
  Bi2+  Bi106  1  0.41223899  0.26134684  0.21708847  1
  Bi2+  Bi107  1  0.33792168  0.26874862  0.69285614  1
  Bi2+  Bi108  1  0.38571504  0.50860891  0.21561138  1
  Bi2+  Bi109  1  0.43607957  0.47708016  0.75875399  1
  Bi2+  Bi110  1  0.33981343  0.75305305  0.21470121  1
  Bi2+  Bi111  1  0.36227915  0.74972652  0.69400641  1
  Bi2+  Bi112  1  0.64944610  -0.09022073  0.20439127  1
  Bi2+  Bi113  1  0.51256177  -0.06052515  0.70330610  1
  Bi2+  Bi114  1  0.71893903  0.24173204  0.20743661  1
  Bi2+  Bi115  1  0.60172103  0.26680829  0.70656053  1
  Bi2+  Bi116  1  0.66611350  0.49473364  0.20165748  1
  Bi2+  Bi117  1  0.60914904  0.47303588  0.70115676  1
  Bi2+  Bi118  1  0.52482900  0.74899034  0.18204109  1
  Bi2+  Bi119  1  0.54417085  0.66882494  0.71949446  1
  Bi2+  Bi120  1  0.87852322  -0.02389809  0.20763967  1
  Bi2+  Bi121  1  0.83170682  -0.03865912  0.72228126  1
  Bi2+  Bi122  1  0.91624982  0.18399335  0.20046550  1
  Bi2+  Bi123  1  0.88085483  0.25400737  0.71010782  1
  Bi2+  Bi124  1  0.93224923  0.51911484  0.20935538  1
  Bi2+  Bi125  1  0.84209351  0.50427949  0.75149452  1
  Bi2+  Bi126  1  0.74315910  0.74251338  0.22975950  1
  Bi2+  Bi127  1  0.83877698  0.73178548  0.69510250  1
  S2-  S128  1  0.13521931  0.12693816  0.14334111  1
  S2-  S129  1  -0.03986760  0.12364905  0.67793723  1
  S2-  S130  1  0.11220854  0.36605373  0.13697297  1
  S2-  S131  1  -0.00994965  0.37246543  0.65655695  1
  S2-  S132  1  -0.11203017  0.62739678  0.13789806  1
  S2-  S133  1  -0.01219063  0.64104814  0.66261844  1
  S2-  S134  1  0.00080853  0.96286252  0.13173848  1
  S2-  S135  1  -0.04748466  0.86514051  0.67229448  1
  S2-  S136  1  0.36302460  0.12930524  0.15275624  1
  S2-  S137  1  0.15561047  0.16146413  0.63722379  1
  S2-  S138  1  0.33764525  0.37026569  0.15944363  1
  S2-  S139  1  0.23878050  0.39403846  0.64867762  1
  S2-  S140  1  0.27644891  0.61786478  0.16079427  1
  S2-  S141  1  0.23118084  0.64918873  0.65004613  1
  S2-  S142  1  0.24992527  0.92835646  0.14952614  1
  S2-  S143  1  0.15262100  0.89152865  0.64202189  1
  S2-  S144  1  0.51959776  0.10960322  0.22883636  1
  S2-  S145  1  0.58834958  0.13261191  0.65172040  1
  S2-  S146  1  0.54844519  0.28253368  0.16108681  1
  S2-  S147  1  0.47294538  0.29778227  0.63881220  1
  S2-  S148  1  0.50590056  0.49989897  0.15014146  1
  S2-  S149  1  0.48603605  0.52912062  0.63842591  1
  S2-  S150  1  0.50377927  0.95286312  0.14568832  1
  S2-  S151  1  0.50786705  0.78594888  0.63752873  1
  S2-  S152  1  0.70649360  0.10820194  0.14503788  1
  S2-  S153  1  0.75659361  0.09689968  0.70176177  1
  S2-  S154  1  0.76939403  0.38848079  0.15226795  1
  S2-  S155  1  0.74958521  0.30561522  0.64964574  1
  S2-  S156  1  0.65535083  0.64154797  0.14261125  1
  S2-  S157  1  0.73647697  0.62678914  0.65714172  1
  S2-  S158  1  0.79113680  0.85249871  0.14979269  1
  S2-  S159  1  0.73591531  0.85796757  0.66282086  1
  S2-  S160  1  0.17276784  0.03938902  0.31886475  1
  S2-  S161  1  0.03257631  0.00313321  0.85171362  1
  S2-  S162  1  0.23550695  0.24994452  0.34201655  1
  S2-  S163  1  0.08880066  0.21977101  0.83503176  1
  S2-  S164  1  0.11391834  0.41835156  0.34895006  1
  S2-  S165  1  0.11860112  0.57583398  0.85489421  1
  S2-  S166  1  0.09934002  0.84907333  0.35811887  1
  S2-  S167  1  0.13976413  0.79802246  0.79489820  1
  S2-  S168  1  0.36510151  -0.11225545  0.35507599  1
  S2-  S169  1  0.26402344  -0.00081947  0.86063420  1
  S2-  S170  1  0.40775284  0.12461948  0.34776281  1
  S2-  S171  1  0.29068857  0.24605497  0.86900974  1
  S2-  S172  1  0.38767447  0.39278058  0.33811057  1
  S2-  S173  1  0.34668789  0.49459084  0.85319934  1
  S2-  S174  1  0.37735848  0.66077065  0.35135638  1
  S2-  S175  1  0.30902996  0.73306631  0.85702303  1
  S2-  S176  1  0.71600553  0.09874776  0.37824601  1
  S2-  S177  1  0.61750134  0.00970409  0.83638839  1
  S2-  S178  1  0.57315059  0.26274846  0.34225543  1
  S2-  S179  1  0.62607017  0.25078448  0.84454928  1
  S2-  S180  1  0.54877229  0.52810442  0.35265087  1
  S2-  S181  1  0.59429107  0.49513810  0.84737518  1
  S2-  S182  1  0.59250200  0.75807700  0.33972921  1
  S2-  S183  1  0.72950122  0.74461855  0.85319311  1
  S2-  S184  1  0.95131539  0.01143089  0.36359535  1
  S2-  S185  1  0.82681976  -0.00796825  0.82659090  1
  S2-  S186  1  0.96482708  0.25125176  0.35970431  1
  S2-  S187  1  0.86858465  0.21477904  0.84424573  1
  S2-  S188  1  0.90649253  0.53916513  0.34918715  1
  S2-  S189  1  0.87599631  0.57420836  0.85828975  1
  S2-  S190  1  0.85143705  0.78642731  0.34784803  1
  S2-  S191  1  0.94215007  0.77615043  0.83078072  1
  S2-  S192  1  0.00235324  0.14151907  0.46556292  1
  S2-  S193  1  0.01290807  0.11978932  0.95507511  1
  S2-  S194  1  -0.00326721  0.39416659  0.45616356  1
  S2-  S195  1  0.01335132  0.36535159  0.94874489  1
  S2-  S196  1  0.00056824  0.64552279  0.45726669  1
  S2-  S197  1  0.01203441  0.61854001  0.95762287  1
  S2-  S198  1  -0.00320760  0.89237435  0.46777028  1
  S2-  S199  1  0.01628726  0.85528669  0.94285791  1
  S2-  S200  1  0.24360850  0.13755552  0.44500972  1
  S2-  S201  1  0.26257026  0.11543755  0.96400302  1
  S2-  S202  1  0.25541337  0.39673866  0.44380320  1
  S2-  S203  1  0.25837957  0.37319761  0.96432968  1
  S2-  S204  1  0.24656636  0.64722447  0.44787432  1
  S2-  S205  1  0.25773941  0.61623931  0.95747414  1
  S2-  S206  1  0.24359984  0.89433509  0.45503442  1
  S2-  S207  1  0.25569100  0.85575978  0.95371557  1
  S2-  S208  1  0.50284748  0.14033811  0.45938102  1
  S2-  S209  1  0.50142523  0.11734432  0.94105387  1
  S2-  S210  1  0.50509040  0.38760350  0.45283541  1
  S2-  S211  1  0.50594947  0.36485964  0.95695977  1
  S2-  S212  1  0.50604655  0.64610817  0.45766493  1
  S2-  S213  1  0.50951556  0.61454823  0.96140427  1
  S2-  S214  1  0.50717997  0.89905171  0.45474900  1
  S2-  S215  1  0.50756914  0.86483531  0.95078500  1
  S2-  S216  1  0.75330062  0.14718737  0.48544739  1
  S2-  S217  1  0.75928254  0.11856912  0.94796072  1
  S2-  S218  1  0.75261740  0.38940016  0.45374829  1
  S2-  S219  1  0.76051800  0.36156368  0.95021136  1
  S2-  S220  1  0.75039960  0.64403745  0.45165385  1
  S2-  S221  1  0.75382455  0.61200274  0.95881599  1
  S2-  S222  1  0.75102597  0.89611867  0.46147937  1
  S2-  S223  1  0.76058326  0.87052438  0.94509705  1
  S2-  S224  1  0.13800853  -0.01332345  0.03649887  1
  S2-  S225  1  0.12454840  0.01731072  0.54207304  1
  S2-  S226  1  0.13627778  0.23967505  0.03907551  1
  S2-  S227  1  0.12506922  0.27454632  0.53501612  1
  S2-  S228  1  0.13050793  0.49646753  0.04482898  1
  S2-  S229  1  0.12532668  0.51944042  0.54202201  1
  S2-  S230  1  0.13158066  0.74339386  0.06139387  1
  S2-  S231  1  0.12635345  0.76823388  0.54579318  1
  S2-  S232  1  0.38095885  -0.01394963  0.03996832  1
  S2-  S233  1  0.37625454  0.01668848  0.53473545  1
  S2-  S234  1  0.38112452  0.24769449  0.05266009  1
  S2-  S235  1  0.37100326  0.27083115  0.53330109  1
  S2-  S236  1  0.37912481  0.49354240  0.05089591  1
  S2-  S237  1  0.37367779  0.52333648  0.53268444  1
  S2-  S238  1  0.38475523  0.74033578  0.05123107  1
  S2-  S239  1  0.37219618  0.77419273  0.53864562  1
  S2-  S240  1  0.63393756  -0.00283282  0.04099061  1
  S2-  S241  1  0.62383568  0.01264167  0.55586092  1
  S2-  S242  1  0.63294020  0.23913722  0.04667795  1
  S2-  S243  1  0.62063907  0.27457079  0.54576980  1
  S2-  S244  1  0.63630826  0.48447612  0.04820510  1
  S2-  S245  1  0.62985802  0.52163844  0.54512164  1
  S2-  S246  1  0.63569941  0.74352531  0.03832532  1
  S2-  S247  1  0.63165514  0.77312305  0.54399684  1
  S2-  S248  1  0.88306355  -0.00523088  0.03085743  1
  S2-  S249  1  0.87614961  0.01937881  0.56398691  1
  S2-  S250  1  0.88783598  0.23998022  0.04762448  1
  S2-  S251  1  0.88256068  0.27071726  0.55261368  1
  S2-  S252  1  0.88689553  0.48237497  0.04568265  1
  S2-  S253  1  0.87737570  0.51684530  0.55406464  1
  S2-  S254  1  0.88261849  0.74391118  0.03358076  1
  S2-  S255  1  0.87761496  0.77123260  0.55236500  1
