# generated using pymatgen
data_La6Ce7Pr13Nd19Sm19(BiS2)64
_symmetry_space_group_name_H-M   'P 1'
_cell_length_a   15.97653800
_cell_length_b   16.05411723
_cell_length_c   27.34317699
_cell_angle_alpha   90.04076532
_cell_angle_beta   89.77536204
_cell_angle_gamma   90.03626860
_symmetry_Int_Tables_number   1
_chemical_formula_structural   La6Ce7Pr13Nd19Sm19(BiS2)64
_chemical_formula_sum   'La6 Ce7 Pr13 Nd19 Sm19 Bi64 S128'
_cell_volume   7013.17290552
_cell_formula_units_Z   1
loop_
 _symmetry_equiv_pos_site_id
 _symmetry_equiv_pos_as_xyz
  1  'x, y, z'
loop_
 _atom_type_symbol
 _atom_type_oxidation_number
  La3+  3.0
  Ce3+  3.0
  Pr3+  3.0
  Nd3+  3.0
  Sm3+  3.0
  Bi2+  2.0
  S2-  -2.0
loop_
 _atom_site_type_symbol
 _atom_site_label
 _atom_site_symmetry_multiplicity
 _atom_site_fract_x
 _atom_site_fract_y
 _atom_site_fract_z
 _atom_site_occupancy
  La3+  La0  1  0.33574955  0.74887083  0.88685242  1
  La3+  La1  1  0.00922053  0.91874468  0.12399465  1
  La3+  La2  1  0.75745277  0.91126625  0.57682784  1
  La3+  La3  1  0.85549362  0.00955111  0.90726113  1
  La3+  La4  1  0.72884820  0.37973677  0.06958341  1
  La3+  La5  1  0.35828184  0.00400450  0.93423164  1
  Ce3+  Ce6  1  0.75629661  0.64730355  0.56341078  1
  Ce3+  Ce7  1  0.25879176  0.65341018  0.55578042  1
  Ce3+  Ce8  1  0.60755897  0.75823471  0.93717950  1
  Ce3+  Ce9  1  0.22321865  0.12283490  0.07086134  1
  Ce3+  Ce10  1  0.23352182  0.63031838  0.05962857  1
  Ce3+  Ce11  1  0.63675778  0.28056182  0.43745155  1
  Ce3+  Ce12  1  0.61100574  0.00577256  0.94134777  1
  Pr3+  Pr13  1  0.87958567  0.53574757  0.40996676  1
  Pr3+  Pr14  1  0.73672262  0.12589352  0.07084143  1
  Pr3+  Pr15  1  0.88792987  0.27673010  0.41477038  1
  Pr3+  Pr16  1  0.47850276  0.12808278  0.07241387  1
  Pr3+  Pr17  1  0.10728652  0.00721249  0.93539536  1
  Pr3+  Pr18  1  0.13219698  0.02041558  0.43157583  1
  Pr3+  Pr19  1  -0.02542990  0.63852663  0.08040860  1
  Pr3+  Pr20  1  0.35826944  0.25189596  0.93623149  1
  Pr3+  Pr21  1  0.25598275  0.15304193  0.56305439  1
  Pr3+  Pr22  1  0.00662513  0.91082185  0.57531684  1
  Pr3+  Pr23  1  0.48461023  0.87877427  0.06559590  1
  Pr3+  Pr24  1  0.35812039  0.50365581  0.93486420  1
  Pr3+  Pr25  1  0.88499571  0.02760904  0.43332155  1
  Nd3+  Nd26  1  -0.02223122  0.38421748  0.09401380  1
  Nd3+  Nd27  1  0.25854675  0.90770794  0.57294094  1
  Nd3+  Nd28  1  0.64108634  0.02508077  0.43172286  1
  Nd3+  Nd29  1  0.88117356  0.77834073  0.45001970  1
  Nd3+  Nd30  1  0.85636925  0.75509637  0.94020090  1
  Nd3+  Nd31  1  0.72323811  0.63068092  0.06623810  1
  Nd3+  Nd32  1  0.10418393  0.25208083  0.94775812  1
  Nd3+  Nd33  1  0.74322684  0.88223078  0.06473397  1
  Nd3+  Nd34  1  0.38347921  0.53252293  0.42931733  1
  Nd3+  Nd35  1  0.10144251  0.75560869  0.94062521  1
  Nd3+  Nd36  1  0.10450668  0.50552454  0.94797597  1
  Nd3+  Nd37  1  0.63242648  0.77903031  0.45268637  1
  Nd3+  Nd38  1  0.38172880  0.78880053  0.43697963  1
  Nd3+  Nd39  1  0.85784962  0.25262053  0.94319887  1
  Nd3+  Nd40  1  0.38450292  0.27633502  0.43025519  1
  Nd3+  Nd41  1  0.12964475  0.77890110  0.44931937  1
  Nd3+  Nd42  1  0.25683726  0.40534554  0.54917779  1
  Nd3+  Nd43  1  0.62762938  0.52691568  0.43487554  1
  Nd3+  Nd44  1  0.00707412  0.65069933  0.56962323  1
  Sm3+  Sm45  1  0.61042501  0.25201956  0.94575940  1
  Sm3+  Sm46  1  0.60626496  0.50500817  0.93733990  1
  Sm3+  Sm47  1  0.22984796  0.87524885  0.05214923  1
  Sm3+  Sm48  1  0.75908656  0.15691342  0.55922161  1
  Sm3+  Sm49  1  0.00430968  0.15800917  0.56124109  1
  Sm3+  Sm50  1  0.85638941  0.50440462  0.94883030  1
  Sm3+  Sm51  1  0.12792371  0.52913315  0.43510091  1
  Sm3+  Sm52  1  0.48187426  0.37886359  0.06157658  1
  Sm3+  Sm53  1  0.75767865  0.39762536  0.55758204  1
  Sm3+  Sm54  1  0.50397242  0.39910992  0.56289222  1
  Sm3+  Sm55  1  -0.02173450  0.13806795  0.07534740  1
  Sm3+  Sm56  1  0.50539960  0.65417052  0.55990676  1
  Sm3+  Sm57  1  0.50738530  0.15390734  0.55935523  1
  Sm3+  Sm58  1  0.13067733  0.27808191  0.43633928  1
  Sm3+  Sm59  1  0.48080863  0.63148576  0.05320611  1
  Sm3+  Sm60  1  0.38691152  0.03493671  0.43399533  1
  Sm3+  Sm61  1  0.00528265  0.39870298  0.55509677  1
  Sm3+  Sm62  1  0.23183163  0.38009392  0.05640037  1
  Sm3+  Sm63  1  0.50626146  0.91141561  0.56575461  1
  Bi2+  Bi64  1  0.04898678  0.14485561  0.28314179  1
  Bi2+  Bi65  1  0.00888396  0.17783117  0.77991421  1
  Bi2+  Bi66  1  0.02244445  0.41013935  0.28601139  1
  Bi2+  Bi67  1  -0.04348744  0.37262395  0.77213377  1
  Bi2+  Bi68  1  0.07182600  0.65633030  0.27420587  1
  Bi2+  Bi69  1  0.00253400  0.57739271  0.79451217  1
  Bi2+  Bi70  1  -0.01002258  0.87816293  0.31652542  1
  Bi2+  Bi71  1  0.01800399  0.83672321  0.80673087  1
  Bi2+  Bi72  1  0.23800245  0.13557002  0.29408426  1
  Bi2+  Bi73  1  0.25397987  0.06959754  0.80436071  1
  Bi2+  Bi74  1  0.22071834  0.40633651  0.30920030  1
  Bi2+  Bi75  1  0.20763035  0.32497346  0.79874857  1
  Bi2+  Bi76  1  0.24950469  0.60115134  0.30993273  1
  Bi2+  Bi77  1  0.23454786  0.51759007  0.77052980  1
  Bi2+  Bi78  1  0.25034087  0.90174155  0.28328126  1
  Bi2+  Bi79  1  0.24513662  0.85554701  0.77337160  1
  Bi2+  Bi80  1  0.45584544  0.09490376  0.27315373  1
  Bi2+  Bi81  1  0.52010217  0.10957696  0.79589273  1
  Bi2+  Bi82  1  0.41353138  0.37999470  0.30474240  1
  Bi2+  Bi83  1  0.40087855  0.35491960  0.81799633  1
  Bi2+  Bi84  1  0.44676700  0.60107565  0.27641974  1
  Bi2+  Bi85  1  0.49655424  0.52919192  0.80266990  1
  Bi2+  Bi86  1  0.48745271  0.84784769  0.30783687  1
  Bi2+  Bi87  1  0.58067265  0.84597960  0.74457761  1
  Bi2+  Bi88  1  0.68244571  0.14464608  0.30292654  1
  Bi2+  Bi89  1  0.74820657  0.13123155  0.79165579  1
  Bi2+  Bi90  1  0.72158826  0.40370191  0.29574526  1
  Bi2+  Bi91  1  0.72805286  0.33253698  0.78902542  1
  Bi2+  Bi92  1  0.71118497  0.61988316  0.26157413  1
  Bi2+  Bi93  1  0.76232693  0.58640333  0.79161816  1
  Bi2+  Bi94  1  0.75735922  0.84123793  0.30806439  1
  Bi2+  Bi95  1  0.74881121  0.84669104  0.80275528  1
  Bi2+  Bi96  1  0.23347571  0.02577029  0.19527506  1
  Bi2+  Bi97  1  0.13022012  0.06339471  0.71672283  1
  Bi2+  Bi98  1  0.16044736  0.27746583  0.22372908  1
  Bi2+  Bi99  1  0.21897337  0.23450581  0.69284055  1
  Bi2+  Bi100  1  0.05270352  0.52193730  0.19196330  1
  Bi2+  Bi101  1  0.10066386  0.39432314  0.69139259  1
  Bi2+  Bi102  1  0.22402279  0.74097315  0.21843841  1
  Bi2+  Bi103  1  0.12275547  0.65839889  0.72101580  1
  Bi2+  Bi104  1  0.41268823  -0.07711495  0.19791294  1
  Bi2+  Bi105  1  0.39330165  -0.03577362  0.69464155  1
  Bi2+  Bi106  1  0.41848043  0.25986274  0.20990883  1
  Bi2+  Bi107  1  0.41538361  0.22157298  0.72660402  1
  Bi2+  Bi108  1  0.38039328  0.45253305  0.19481056  1
  Bi2+  Bi109  1  0.40072118  0.44934267  0.71149112  1
  Bi2+  Bi110  1  0.44282161  0.72640148  0.18115633  1
  Bi2+  Bi111  1  0.36990237  0.70580514  0.68985308  1
  Bi2+  Bi112  1  0.60248981  -0.00182472  0.21505933  1
  Bi2+  Bi113  1  0.63507220  0.03163640  0.71426371  1
  Bi2+  Bi114  1  0.61684713  0.25677626  0.21630094  1
  Bi2+  Bi115  1  0.61351617  0.24858914  0.70574201  1
  Bi2+  Bi116  1  0.58106037  0.49824963  0.21141833  1
  Bi2+  Bi117  1  0.60297411  0.44638836  0.69967486  1
  Bi2+  Bi118  1  0.62730521  0.78137797  0.22023905  1
  Bi2+  Bi119  1  0.61659008  0.65120978  0.72431480  1
  Bi2+  Bi120  1  0.83526220  -0.00071386  0.22857431  1
  Bi2+  Bi121  1  0.88741429  -0.02770097  0.70251195  1
  Bi2+  Bi122  1  0.87113972  0.24630817  0.21970202  1
  Bi2+  Bi123  1  0.87553492  0.23200437  0.70202114  1
  Bi2+  Bi124  1  0.86388870  0.50624291  0.22002802  1
  Bi2+  Bi125  1  0.80524184  0.45443466  0.70763717  1
  Bi2+  Bi126  1  0.87613755  0.74825313  0.21475911  1
  Bi2+  Bi127  1  0.88549266  0.72723837  0.70200948  1
  S2-  S128  1  0.09606649  0.07975148  0.13969546  1
  S2-  S129  1  0.00413335  0.05090464  0.64226596  1
  S2-  S130  1  0.00377328  0.26256295  0.16359999  1
  S2-  S131  1  0.00238433  0.28899761  0.63320264  1
  S2-  S132  1  0.00637085  0.74955503  0.15813463  1
  S2-  S133  1  -0.00527833  0.59731737  0.66483733  1
  S2-  S134  1  -0.00502836  0.95313976  0.23024843  1
  S2-  S135  1  -0.00459484  0.84030260  0.67299253  1
  S2-  S136  1  0.34499629  0.13870041  0.14221755  1
  S2-  S137  1  0.26521324  0.04115976  0.64224579  1
  S2-  S138  1  0.23582869  0.38298348  0.15452896  1
  S2-  S139  1  0.27098895  0.38842449  0.64688107  1
  S2-  S140  1  0.29802302  0.63086858  0.15101099  1
  S2-  S141  1  0.23733414  0.61027141  0.64872078  1
  S2-  S142  1  0.18557425  0.87429027  0.14812661  1
  S2-  S143  1  0.26063234  0.83570486  0.66724177  1
  S2-  S144  1  0.60804652  0.12740511  0.14633411  1
  S2-  S145  1  0.50334069  0.03909442  0.63798206  1
  S2-  S146  1  0.59313164  0.37649657  0.13954467  1
  S2-  S147  1  0.48992071  0.27328741  0.63321449  1
  S2-  S148  1  0.58012961  0.62602360  0.13510036  1
  S2-  S149  1  0.49535071  0.59486777  0.65180166  1
  S2-  S150  1  0.61527309  0.87909965  0.13822856  1
  S2-  S151  1  0.48650654  0.82991806  0.65488408  1
  S2-  S152  1  0.84553067  0.12525563  0.15616158  1
  S2-  S153  1  0.76536649  0.05106988  0.64154928  1
  S2-  S154  1  0.82837100  0.37694167  0.15468080  1
  S2-  S155  1  0.75959077  0.27987846  0.63260647  1
  S2-  S156  1  0.82639050  0.63039111  0.14764538  1
  S2-  S157  1  0.75408037  0.62798660  0.66012260  1
  S2-  S158  1  0.83345812  0.88557740  0.15659362  1
  S2-  S159  1  0.78165375  0.84459480  0.67341710  1
  S2-  S160  1  0.00737889  0.03087627  0.35706717  1
  S2-  S161  1  0.11366845  -0.03628442  0.83569294  1
  S2-  S162  1  0.03923851  0.26789568  0.35292870  1
  S2-  S163  1  0.13303551  0.19308474  0.85440766  1
  S2-  S164  1  0.02952667  0.55100137  0.35460239  1
  S2-  S165  1  0.11485538  0.49416725  0.84871475  1
  S2-  S166  1  0.14046946  0.86730060  0.36312109  1
  S2-  S167  1  0.16341237  0.74947764  0.84510402  1
  S2-  S168  1  0.36173723  -0.08154666  0.36313971  1
  S2-  S169  1  0.34591142  -0.08459643  0.84462919  1
  S2-  S170  1  0.37946794  0.15510910  0.35860801  1
  S2-  S171  1  0.37252600  0.13347597  0.85972133  1
  S2-  S172  1  0.50447105  0.51259668  0.35843055  1
  S2-  S173  1  0.33836616  0.58269331  0.84691242  1
  S2-  S174  1  0.38286571  0.71505362  0.34490738  1
  S2-  S175  1  0.37630905  0.74980021  0.78066781  1
  S2-  S176  1  0.56065680  0.01923708  0.34248798  1
  S2-  S177  1  0.69887656  -0.00680598  0.85530424  1
  S2-  S178  1  0.60428475  0.29109535  0.34177928  1
  S2-  S179  1  0.61747119  0.22932000  0.84753497  1
  S2-  S180  1  0.72909151  0.55064865  0.35320889  1
  S2-  S181  1  0.64917045  0.48116569  0.84279760  1
  S2-  S182  1  0.61103218  0.76837570  0.35453257  1
  S2-  S183  1  0.61364796  0.76330310  0.83914132  1
  S2-  S184  1  0.77596611  -0.01825545  0.35539399  1
  S2-  S185  1  0.90089205  -0.04804919  0.80697922  1
  S2-  S186  1  0.83393555  0.19650167  0.32145394  1
  S2-  S187  1  0.87683247  0.16538782  0.85598651  1
  S2-  S188  1  0.86748368  0.40240780  0.34248086  1
  S2-  S189  1  0.87528122  0.50584342  0.85052593  1
  S2-  S190  1  0.88922964  0.74142490  0.35299712  1
  S2-  S191  1  0.88055119  0.74192565  0.83876662  1
  S2-  S192  1  0.01117071  0.15393670  0.45687727  1
  S2-  S193  1  -0.01914382  0.12739540  0.96109652  1
  S2-  S194  1  0.00746370  0.40550902  0.45210246  1
  S2-  S195  1  -0.01929846  0.37940259  0.94947713  1
  S2-  S196  1  0.00524432  0.65156978  0.46233644  1
  S2-  S197  1  -0.02058658  0.62787946  0.95669731  1
  S2-  S198  1  0.00484656  0.90098609  0.46625517  1
  S2-  S199  1  -0.02250559  0.88283232  0.93786143  1
  S2-  S200  1  0.25190027  0.15279283  0.45419455  1
  S2-  S201  1  0.23171289  0.13034208  0.96320222  1
  S2-  S202  1  0.25663855  0.40433858  0.44406343  1
  S2-  S203  1  0.23104686  0.37839967  0.95142555  1
  S2-  S204  1  0.25479433  0.65320352  0.45062989  1
  S2-  S205  1  0.23183604  0.63075199  0.95365196  1
  S2-  S206  1  0.25544040  0.90357192  0.46660145  1
  S2-  S207  1  0.23222978  0.87354745  0.94889156  1
  S2-  S208  1  0.51305507  0.15422371  0.45426641  1
  S2-  S209  1  0.48723116  0.13075065  0.96207002  1
  S2-  S210  1  0.50433090  0.39968087  0.45870114  1
  S2-  S211  1  0.48616161  0.37761436  0.95500220  1
  S2-  S212  1  0.50451220  0.65592005  0.45694479  1
  S2-  S213  1  0.48251228  0.63163475  0.94800788  1
  S2-  S214  1  0.51070905  0.90714800  0.46025112  1
  S2-  S215  1  0.48472916  0.87987476  0.95168791  1
  S2-  S216  1  0.76005240  0.15558454  0.45051648  1
  S2-  S217  1  0.73546293  0.12904372  0.96046815  1
  S2-  S218  1  0.75914634  0.40751125  0.45379851  1
  S2-  S219  1  0.73136672  0.37979584  0.95622888  1
  S2-  S220  1  0.75723462  0.65089619  0.45911958  1
  S2-  S221  1  0.73034813  0.62689161  0.95291923  1
  S2-  S222  1  0.75742564  0.90060697  0.46678182  1
  S2-  S223  1  0.73763277  0.88197430  0.95703934  1
  S2-  S224  1  0.10404729  -0.00701453  0.03992844  1
  S2-  S225  1  0.13068561  0.03080467  0.54196916  1
  S2-  S226  1  0.10406317  0.26273638  0.05195510  1
  S2-  S227  1  0.13473166  0.27919309  0.53915280  1
  S2-  S228  1  0.10271840  0.50298827  0.05377387  1
  S2-  S229  1  0.12828610  0.52536987  0.54132278  1
  S2-  S230  1  0.10698833  0.74998549  0.04483814  1
  S2-  S231  1  0.13028902  0.77830944  0.55554128  1
  S2-  S232  1  0.35570540  -0.00112405  0.04508505  1
  S2-  S233  1  0.38268587  0.03102301  0.53791097  1
  S2-  S234  1  0.35710107  0.26017847  0.04337829  1
  S2-  S235  1  0.37759673  0.27753837  0.53512166  1
  S2-  S236  1  0.36018073  0.50225120  0.04297046  1
  S2-  S237  1  0.38503104  0.52662097  0.53985137  1
  S2-  S238  1  0.35899257  0.75525887  0.04896584  1
  S2-  S239  1  0.38349773  0.77967575  0.54559890  1
  S2-  S240  1  0.60891252  0.00553734  0.04396269  1
  S2-  S241  1  0.63342649  0.03314179  0.53985803  1
  S2-  S242  1  0.60568484  0.25149440  0.04628681  1
  S2-  S243  1  0.62968280  0.27922995  0.54021328  1
  S2-  S244  1  0.60314282  0.50309593  0.03885801  1
  S2-  S245  1  0.62899818  0.52187809  0.54660335  1
  S2-  S246  1  0.60748090  0.75578635  0.03982001  1
  S2-  S247  1  0.63071553  0.77808603  0.55864765  1
  S2-  S248  1  0.86994791  0.00553206  0.05669826  1
  S2-  S249  1  0.88286026  0.03385736  0.54025857  1
  S2-  S250  1  0.86042077  0.26046562  0.04815804  1
  S2-  S251  1  0.88209727  0.27851656  0.53025673  1
  S2-  S252  1  0.85933498  0.50354748  0.05066094  1
  S2-  S253  1  0.88207938  0.52056884  0.55490903  1
  S2-  S254  1  0.85097638  0.74906991  0.04364162  1
  S2-  S255  1  0.88209628  0.77611881  0.55651449  1
