# generated using pymatgen
data_La6Ce7Pr13Nd19Sm19(BiS2)64
_symmetry_space_group_name_H-M   'P 1'
_cell_length_a   16.08390214
_cell_length_b   15.97504260
_cell_length_c   27.40712776
_cell_angle_alpha   90.28816017
_cell_angle_beta   90.16786497
_cell_angle_gamma   90.01124417
_symmetry_Int_Tables_number   1
_chemical_formula_structural   La6Ce7Pr13Nd19Sm19(BiS2)64
_chemical_formula_sum   'La6 Ce7 Pr13 Nd19 Sm19 Bi64 S128'
_cell_volume   7041.89597183
_cell_formula_units_Z   1
loop_
 _symmetry_equiv_pos_site_id
 _symmetry_equiv_pos_as_xyz
  1  'x, y, z'
loop_
 _atom_type_symbol
 _atom_type_oxidation_number
  La3+  3.0
  Ce3+  3.0
  Pr3+  3.0
  Nd3+  3.0
  Sm3+  3.0
  Bi2+  2.0
  S2-  -2.0
loop_
 _atom_site_type_symbol
 _atom_site_label
 _atom_site_symmetry_multiplicity
 _atom_site_fract_x
 _atom_site_fract_y
 _atom_site_fract_z
 _atom_site_occupancy
  La3+  La0  1  0.88488215  0.50729344  0.43825568  1
  La3+  La1  1  0.52124247  0.89314845  0.59833305  1
  La3+  La2  1  0.24669042  0.37684830  0.07726441  1
  La3+  La3  1  0.50242936  0.10678545  0.09287622  1
  La3+  La4  1  0.86608958  0.49214816  0.91400956  1
  La3+  La5  1  0.13870284  0.22648019  0.38204250  1
  Ce3+  Ce6  1  0.13790263  -0.00090606  0.44535970  1
  Ce3+  Ce7  1  0.02227618  0.61361353  0.57875439  1
  Ce3+  Ce8  1  0.38451779  0.00073979  0.44120244  1
  Ce3+  Ce9  1  0.63587984  0.73663039  0.93301561  1
  Ce3+  Ce10  1  0.13951684  -0.00209016  0.92362720  1
  Ce3+  Ce11  1  0.01385558  0.37368116  0.55610858  1
  Ce3+  Ce12  1  0.89012958  0.25584373  0.43069927  1
  Pr3+  Pr13  1  0.38647545  0.75398516  0.45034798  1
  Pr3+  Pr14  1  0.62790904  0.48460973  0.93530939  1
  Pr3+  Pr15  1  0.37551577  0.48792533  0.93154307  1
  Pr3+  Pr16  1  0.13577321  0.49726537  0.43076115  1
  Pr3+  Pr17  1  0.26213244  0.88289458  0.57936589  1
  Pr3+  Pr18  1  0.37134688  0.73786971  0.91515401  1
  Pr3+  Pr19  1  0.51559852  0.12604966  0.55458048  1
  Pr3+  Pr20  1  0.77032559  0.62481284  0.58867214  1
  Pr3+  Pr21  1  0.38962160  0.24850877  0.42329861  1
  Pr3+  Pr22  1  0.37631811  0.24481695  0.94770675  1
  Pr3+  Pr23  1  0.01230995  0.87132770  0.56821493  1
  Pr3+  Pr24  1  0.63832659  -0.01016361  0.42473234  1
  Pr3+  Pr25  1  0.74979285  0.61655771  0.07113891  1
  Nd3+  Nd26  1  0.12521188  0.48716391  0.93193041  1
  Nd3+  Nd27  1  0.00243015  0.87072983  0.05030932  1
  Nd3+  Nd28  1  0.49980628  0.61966603  0.04925946  1
  Nd3+  Nd29  1  0.63855929  0.75372892  0.45029702  1
  Nd3+  Nd30  1  0.25332736  0.11652640  0.06108377  1
  Nd3+  Nd31  1  0.49980557  0.37272630  0.07078192  1
  Nd3+  Nd32  1  0.87583439  -0.00636550  0.93127348  1
  Nd3+  Nd33  1  0.64090376  0.50472544  0.45052529  1
  Nd3+  Nd34  1  0.25123493  0.62327706  0.05856819  1
  Nd3+  Nd35  1  -0.00253149  0.37118960  0.05995561  1
  Nd3+  Nd36  1  0.12575005  0.73659855  0.92544158  1
  Nd3+  Nd37  1  0.01203762  0.12740896  0.55985161  1
  Nd3+  Nd38  1  0.51320489  0.37455574  0.56107629  1
  Nd3+  Nd39  1  0.63065731  -0.00643975  0.93570085  1
  Nd3+  Nd40  1  0.26415577  0.12949567  0.56111859  1
  Nd3+  Nd41  1  0.51209472  0.63091241  0.56364381  1
  Nd3+  Nd42  1  0.63581269  0.25118409  0.42647653  1
  Nd3+  Nd43  1  0.00249369  0.11617438  0.04970820  1
  Nd3+  Nd44  1  0.62578249  0.24181563  0.94909592  1
  Sm3+  Sm45  1  0.25293719  0.86985316  0.04605145  1
  Sm3+  Sm46  1  0.75379860  0.12453361  0.07641026  1
  Sm3+  Sm47  1  0.75791408  0.37599817  0.56644774  1
  Sm3+  Sm48  1  0.00028706  0.61858757  0.05249035  1
  Sm3+  Sm49  1  0.88572227  0.75409249  0.44457420  1
  Sm3+  Sm50  1  0.74922213  0.36918208  0.06838328  1
  Sm3+  Sm51  1  0.50007141  0.86865653  0.05143802  1
  Sm3+  Sm52  1  0.13680213  0.74313684  0.44732864  1
  Sm3+  Sm53  1  0.12360208  0.25068389  0.94245979  1
  Sm3+  Sm54  1  0.87633278  0.74121801  0.94695894  1
  Sm3+  Sm55  1  0.26209506  0.37156198  0.54426793  1
  Sm3+  Sm56  1  0.87291797  0.24338758  0.93777012  1
  Sm3+  Sm57  1  0.89098237  -0.00384923  0.44323097  1
  Sm3+  Sm58  1  0.39015007  0.50012935  0.43885712  1
  Sm3+  Sm59  1  0.74990545  0.87279082  0.05694544  1
  Sm3+  Sm60  1  0.76149329  0.12527691  0.54521743  1
  Sm3+  Sm61  1  0.26593585  0.62300710  0.56115065  1
  Sm3+  Sm62  1  0.76216487  0.87941614  0.57007612  1
  Sm3+  Sm63  1  0.39341560  -0.01156044  0.92026475  1
  Bi2+  Bi64  1  -0.10818075  0.03743859  0.30552849  1
  Bi2+  Bi65  1  -0.00647459  0.09818265  0.79620901  1
  Bi2+  Bi66  1  -0.00866991  0.34271308  0.28810235  1
  Bi2+  Bi67  1  0.00083466  0.30068090  0.79169565  1
  Bi2+  Bi68  1  -0.01939673  0.60411442  0.30022646  1
  Bi2+  Bi69  1  -0.01040119  0.69035444  0.80470617  1
  Bi2+  Bi70  1  0.03463251  0.79943932  0.28714515  1
  Bi2+  Bi71  1  -0.05440196  0.89345691  0.79969899  1
  Bi2+  Bi72  1  0.24418269  -0.00181517  0.28193628  1
  Bi2+  Bi73  1  0.23081672  0.21079803  0.76170797  1
  Bi2+  Bi74  1  0.24533163  0.35489715  0.27523381  1
  Bi2+  Bi75  1  0.26203115  0.39884602  0.79796263  1
  Bi2+  Bi76  1  0.24306027  0.61056557  0.29408325  1
  Bi2+  Bi77  1  0.24920842  0.63135542  0.78503273  1
  Bi2+  Bi78  1  0.23828873  0.81080769  0.31285538  1
  Bi2+  Bi79  1  0.25582571  0.90458357  0.79032597  1
  Bi2+  Bi80  1  0.47411415  0.12978299  0.28802080  1
  Bi2+  Bi81  1  0.53717221  0.22446456  0.81131857  1
  Bi2+  Bi82  1  0.50467746  0.41104930  0.29251865  1
  Bi2+  Bi83  1  0.45875143  0.36884492  0.73682116  1
  Bi2+  Bi84  1  0.50576277  0.68194337  0.28395036  1
  Bi2+  Bi85  1  0.51245346  0.53035791  0.79137028  1
  Bi2+  Bi86  1  0.48492660  0.86507912  0.23661889  1
  Bi2+  Bi87  1  0.52183206  0.89767366  0.78502664  1
  Bi2+  Bi88  1  0.74471914  0.20292073  0.31476007  1
  Bi2+  Bi89  1  0.80390825  0.13643879  0.80984873  1
  Bi2+  Bi90  1  0.74642943  0.39596494  0.28899211  1
  Bi2+  Bi91  1  0.73646435  0.40634239  0.79441072  1
  Bi2+  Bi92  1  0.68879552  0.65297776  0.32846584  1
  Bi2+  Bi93  1  0.72938854  0.67478919  0.78628083  1
  Bi2+  Bi94  1  0.76106815  0.81936728  0.29346159  1
  Bi2+  Bi95  1  0.75960570  0.92212321  0.76328487  1
  Bi2+  Bi96  1  0.04641133  -0.02327278  0.24056675  1
  Bi2+  Bi97  1  0.14082325  0.07402016  0.70003291  1
  Bi2+  Bi98  1  0.10156336  0.21611585  0.17638168  1
  Bi2+  Bi99  1  0.09827607  0.32914986  0.68954930  1
  Bi2+  Bi100  1  0.09525791  0.52023465  0.20377330  1
  Bi2+  Bi101  1  0.11625863  0.50368464  0.74553689  1
  Bi2+  Bi102  1  0.17426935  0.72918405  0.21169776  1
  Bi2+  Bi103  1  0.06979369  0.79009847  0.71976089  1
  Bi2+  Bi104  1  0.33562973  -0.01171718  0.18498280  1
  Bi2+  Bi105  1  0.39602472  0.10863595  0.77692022  1
  Bi2+  Bi106  1  0.41528027  0.32276436  0.20704970  1
  Bi2+  Bi107  1  0.38144932  0.21255726  0.68083856  1
  Bi2+  Bi108  1  0.36605856  0.54232985  0.21264023  1
  Bi2+  Bi109  1  0.29044802  0.48871733  0.68920417  1
  Bi2+  Bi110  1  0.38172921  0.73141704  0.18085634  1
  Bi2+  Bi111  1  0.33587345  0.71359468  0.69390222  1
  Bi2+  Bi112  1  0.70912592  0.03468777  0.24732965  1
  Bi2+  Bi113  1  0.63372398  0.04216695  0.70835699  1
  Bi2+  Bi114  1  0.64961477  0.24114048  0.21127686  1
  Bi2+  Bi115  1  0.64194518  0.24560648  0.71734930  1
  Bi2+  Bi116  1  0.63258599  0.55135736  0.20778747  1
  Bi2+  Bi117  1  0.64162976  0.48810650  0.70278767  1
  Bi2+  Bi118  1  0.64256234  0.74560598  0.20452004  1
  Bi2+  Bi119  1  0.53482957  0.69216236  0.72630094  1
  Bi2+  Bi120  1  0.87185646  -0.04513967  0.18673407  1
  Bi2+  Bi121  1  0.87314845  0.08903156  0.70204830  1
  Bi2+  Bi122  1  0.86703454  0.19378411  0.22322163  1
  Bi2+  Bi123  1  0.83943739  0.28725082  0.72532111  1
  Bi2+  Bi124  1  0.83630096  0.53532463  0.23214821  1
  Bi2+  Bi125  1  0.90514093  0.52739101  0.71516225  1
  Bi2+  Bi126  1  0.89378398  0.72205957  0.21694068  1
  Bi2+  Bi127  1  0.89189505  0.85877168  0.68744892  1
  S2-  S128  1  -0.04433795  0.12717370  0.14536193  1
  S2-  S129  1  0.01837669  0.18574268  0.65432950  1
  S2-  S130  1  0.03055169  0.38153320  0.15846343  1
  S2-  S131  1  0.01497272  0.46344337  0.64005276  1
  S2-  S132  1  -0.00002567  0.62261686  0.15101853  1
  S2-  S133  1  -0.08476112  0.65602697  0.65277191  1
  S2-  S134  1  0.01229932  0.88624465  0.14852171  1
  S2-  S135  1  0.03887308  0.94523026  0.65896154  1
  S2-  S136  1  0.18813369  0.07840010  0.14967226  1
  S2-  S137  1  0.26750475  0.03174967  0.64458922  1
  S2-  S138  1  0.25397791  0.30344740  0.16964136  1
  S2-  S139  1  0.26360963  0.32848626  0.64064975  1
  S2-  S140  1  0.24061505  0.52417726  0.14108857  1
  S2-  S141  1  0.18346647  0.60435893  0.64541351  1
  S2-  S142  1  0.25373864  0.83617354  0.14276117  1
  S2-  S143  1  0.22214478  0.82857331  0.67663185  1
  S2-  S144  1  0.42246205  0.14083911  0.18577891  1
  S2-  S145  1  0.50583068  0.05668284  0.64671217  1
  S2-  S146  1  0.56723110  0.35993468  0.16229555  1
  S2-  S147  1  0.61928746  0.34826935  0.63747161  1
  S2-  S148  1  0.49609659  0.57506306  0.14547845  1
  S2-  S149  1  0.45487494  0.59397610  0.65428284  1
  S2-  S150  1  0.48488538  0.94186691  0.14077516  1
  S2-  S151  1  0.45276733  0.84261655  0.68865686  1
  S2-  S152  1  0.64554664  0.09729857  0.15359049  1
  S2-  S153  1  0.74177268  0.13616019  0.64191566  1
  S2-  S154  1  0.77797043  0.26189091  0.14419573  1
  S2-  S155  1  0.78619047  0.47556538  0.64871172  1
  S2-  S156  1  0.75728729  0.49107795  0.14228458  1
  S2-  S157  1  0.68485815  0.66086569  0.68136310  1
  S2-  S158  1  0.73226622  0.87226759  0.15373117  1
  S2-  S159  1  0.67153496  0.89840106  0.65323539  1
  S2-  S160  1  0.13747643  0.05046991  0.35302970  1
  S2-  S161  1  0.10165303  -0.04828823  0.82991803  1
  S2-  S162  1  0.12288918  0.23125478  0.27064130  1
  S2-  S163  1  0.12271625  0.35246105  0.86296807  1
  S2-  S164  1  0.12483383  0.39908690  0.34329288  1
  S2-  S165  1  0.12022844  0.60160076  0.85519602  1
  S2-  S166  1  0.12459513  0.63601978  0.36669420  1
  S2-  S167  1  0.22673235  0.77179036  0.84504165  1
  S2-  S168  1  0.39523094  0.02513258  0.34282625  1
  S2-  S169  1  0.27989170  0.03922909  0.85161162  1
  S2-  S170  1  0.29906595  0.24118911  0.33534986  1
  S2-  S171  1  0.37410486  0.34874649  0.86550224  1
  S2-  S172  1  0.38085585  0.47767742  0.34171706  1
  S2-  S173  1  0.38248612  0.59764199  0.84844823  1
  S2-  S174  1  0.38294185  0.73634151  0.35012563  1
  S2-  S175  1  0.39841452  0.85956864  0.84184713  1
  S2-  S176  1  0.61815248  0.06361055  0.33104784  1
  S2-  S177  1  0.52980497  0.01375749  0.85255971  1
  S2-  S178  1  0.51772020  0.26427787  0.34996015  1
  S2-  S179  1  0.62621347  0.34256046  0.86585211  1
  S2-  S180  1  0.63782745  0.48708376  0.35142518  1
  S2-  S181  1  0.71909945  0.54817894  0.85570081  1
  S2-  S182  1  0.64257511  0.84273789  0.36335530  1
  S2-  S183  1  0.60834440  0.76551836  0.83609075  1
  S2-  S184  1  0.87720289  -0.10906927  0.36497168  1
  S2-  S185  1  0.75228817  -0.00808431  0.86013168  1
  S2-  S186  1  0.97027017  0.20695118  0.34736594  1
  S2-  S187  1  0.86594408  0.33970072  0.85621010  1
  S2-  S188  1  0.87959764  0.39495263  0.35766289  1
  S2-  S189  1  0.92333295  0.53889141  0.81657477  1
  S2-  S190  1  0.85880035  0.64106900  0.36941369  1
  S2-  S191  1  0.83154323  0.74148359  0.85220247  1
  S2-  S192  1  0.01064785  0.12158366  0.45546164  1
  S2-  S193  1  0.00194568  0.12102179  0.94283214  1
  S2-  S194  1  0.01348146  0.37476807  0.45382461  1
  S2-  S195  1  -0.00709625  0.37013216  0.95565082  1
  S2-  S196  1  0.01064956  0.62963116  0.46891282  1
  S2-  S197  1  -0.00614707  0.61446282  0.94966638  1
  S2-  S198  1  0.01606079  0.87052801  0.46048928  1
  S2-  S199  1  0.00196153  0.86696785  0.94425786  1
  S2-  S200  1  0.26172238  0.12728656  0.45350065  1
  S2-  S201  1  0.24581042  0.12931475  0.95551797  1
  S2-  S202  1  0.26743411  0.37564713  0.44324240  1
  S2-  S203  1  0.24801357  0.36835328  0.96750211  1
  S2-  S204  1  0.26650621  0.62223569  0.45774962  1
  S2-  S205  1  0.25084972  0.61537125  0.95381528  1
  S2-  S206  1  0.25747089  0.87276213  0.46044250  1
  S2-  S207  1  0.25683938  0.87047216  0.94609628  1
  S2-  S208  1  0.51605686  0.12101713  0.44865150  1
  S2-  S209  1  0.50033744  0.11881387  0.95587695  1
  S2-  S210  1  0.51473067  0.37981189  0.45621413  1
  S2-  S211  1  0.50188710  0.36742678  0.96595244  1
  S2-  S212  1  0.51206902  0.62662165  0.45641186  1
  S2-  S213  1  0.50651035  0.61641985  0.94559987  1
  S2-  S214  1  0.50915065  0.87765658  0.45698691  1
  S2-  S215  1  0.50875277  0.86110644  0.94986347  1
  S2-  S216  1  0.76474591  0.12013615  0.44194296  1
  S2-  S217  1  0.75288997  0.12123568  0.96249263  1
  S2-  S218  1  0.75756306  0.37375771  0.45899580  1
  S2-  S219  1  0.75421693  0.36592647  0.96435715  1
  S2-  S220  1  0.75829753  0.63079695  0.47443161  1
  S2-  S221  1  0.75604567  0.61717386  0.96476903  1
  S2-  S222  1  0.76440101  0.87670482  0.46664491  1
  S2-  S223  1  0.75410322  0.86551417  0.95507880  1
  S2-  S224  1  0.12791550  -0.00836835  0.03348071  1
  S2-  S225  1  0.13611287  0.00136280  0.54816919  1
  S2-  S226  1  0.12449538  0.24449126  0.04691850  1
  S2-  S227  1  0.13839219  0.24876595  0.54557071  1
  S2-  S228  1  0.12104699  0.49742770  0.03944136  1
  S2-  S229  1  0.14497511  0.49660491  0.53794149  1
  S2-  S230  1  0.12552748  0.74393878  0.03739266  1
  S2-  S231  1  0.14203836  0.75005929  0.55147140  1
  S2-  S232  1  0.37567589  -0.00665451  0.03660748  1
  S2-  S233  1  0.38947818  -0.00214081  0.54529457  1
  S2-  S234  1  0.37860737  0.24133714  0.05628591  1
  S2-  S235  1  0.39069681  0.25089615  0.53629299  1
  S2-  S236  1  0.37620099  0.49460052  0.04192904  1
  S2-  S237  1  0.38811576  0.49746658  0.54415927  1
  S2-  S238  1  0.37641007  0.74445649  0.03490799  1
  S2-  S239  1  0.38615767  0.75564646  0.55715554  1
  S2-  S240  1  0.62649550  -0.00657990  0.04348190  1
  S2-  S241  1  0.64049904  0.00040237  0.53893714  1
  S2-  S242  1  0.62360756  0.24078929  0.05301416  1
  S2-  S243  1  0.64004620  0.24896416  0.53283965  1
  S2-  S244  1  0.62440741  0.49346770  0.04319223  1
  S2-  S245  1  0.63489374  0.50544070  0.55414055  1
  S2-  S246  1  0.62666592  0.74511363  0.04579257  1
  S2-  S247  1  0.63397115  0.75665440  0.55679330  1
  S2-  S248  1  0.87317109  -0.00471935  0.04010175  1
  S2-  S249  1  0.88708357  0.00112907  0.54872570  1
  S2-  S250  1  0.87858375  0.24242511  0.04058568  1
  S2-  S251  1  0.88333782  0.25157833  0.54475710  1
  S2-  S252  1  0.87798412  0.49583240  0.04606999  1
  S2-  S253  1  0.88423204  0.49685292  0.54417932  1
  S2-  S254  1  0.87511606  0.74585644  0.05189448  1
  S2-  S255  1  0.88291303  0.75533439  0.54927651  1
