# generated using pymatgen
data_La6Ce7Pr13Nd19Sm19(BiS2)64
_symmetry_space_group_name_H-M   'P 1'
_cell_length_a   16.05872502
_cell_length_b   15.99635810
_cell_length_c   27.46264934
_cell_angle_alpha   90.09536661
_cell_angle_beta   89.72806918
_cell_angle_gamma   90.07029395
_symmetry_Int_Tables_number   1
_chemical_formula_structural   La6Ce7Pr13Nd19Sm19(BiS2)64
_chemical_formula_sum   'La6 Ce7 Pr13 Nd19 Sm19 Bi64 S128'
_cell_volume   7054.54154794
_cell_formula_units_Z   1
loop_
 _symmetry_equiv_pos_site_id
 _symmetry_equiv_pos_as_xyz
  1  'x, y, z'
loop_
 _atom_type_symbol
 _atom_type_oxidation_number
  La3+  3.0
  Ce3+  3.0
  Pr3+  3.0
  Nd3+  3.0
  Sm3+  3.0
  Bi2+  2.0
  S2-  -2.0
loop_
 _atom_site_type_symbol
 _atom_site_label
 _atom_site_symmetry_multiplicity
 _atom_site_fract_x
 _atom_site_fract_y
 _atom_site_fract_z
 _atom_site_occupancy
  La3+  La0  1  0.48475472  0.64395032  0.07532401  1
  La3+  La1  1  -0.02476780  0.65544729  0.08610633  1
  La3+  La2  1  0.60134165  0.27594561  0.90722316  1
  La3+  La3  1  0.86612762  0.02028130  0.89859626  1
  La3+  La4  1  -0.00533891  0.62195704  0.56025889  1
  La3+  La5  1  0.75649695  0.84986575  0.61263133  1
  Ce3+  Ce6  1  0.62136087  0.49685961  0.44116212  1
  Ce3+  Ce7  1  0.36384143  0.27222428  0.94451901  1
  Ce3+  Ce8  1  0.86955813  0.24407549  0.43561969  1
  Ce3+  Ce9  1  0.12251040  -0.00339804  0.44256454  1
  Ce3+  Ce10  1  0.12232367  0.74122860  0.43967099  1
  Ce3+  Ce11  1  0.87011785  0.75225114  0.42929521  1
  Ce3+  Ce12  1  0.62106683  0.24667724  0.44143450  1
  Pr3+  Pr13  1  0.10815758  0.52554011  0.94976481  1
  Pr3+  Pr14  1  0.22898954  0.64688755  0.07581811  1
  Pr3+  Pr15  1  0.38530800  0.50366868  0.39316622  1
  Pr3+  Pr16  1  0.36758679  0.25186055  0.43176474  1
  Pr3+  Pr17  1  0.60105024  0.77160280  0.93342267  1
  Pr3+  Pr18  1  0.37028427  -0.00311058  0.42977501  1
  Pr3+  Pr19  1  0.23545364  0.90977722  0.07969360  1
  Pr3+  Pr20  1  0.12547911  0.48735236  0.41989424  1
  Pr3+  Pr21  1  0.62066623  -0.00449273  0.44663519  1
  Pr3+  Pr22  1  -0.00808126  0.37278351  0.56223550  1
  Pr3+  Pr23  1  0.10783990  0.26963702  0.94430914  1
  Pr3+  Pr24  1  0.48691650  0.39272906  0.06719043  1
  Pr3+  Pr25  1  0.61086657  0.52930269  0.93046896  1
  Nd3+  Nd26  1  0.73457861  0.65012780  0.06023892  1
  Nd3+  Nd27  1  0.73314815  0.89908596  0.04949501  1
  Nd3+  Nd28  1  0.24465486  0.37439458  0.56289267  1
  Nd3+  Nd29  1  0.48882622  0.12269822  0.56679541  1
  Nd3+  Nd30  1  0.61177679  0.01983052  0.92954134  1
  Nd3+  Nd31  1  -0.02622510  0.39427177  0.07021977  1
  Nd3+  Nd32  1  0.11291698  0.01488052  0.93261746  1
  Nd3+  Nd33  1  0.23406981  0.14442771  0.05460109  1
  Nd3+  Nd34  1  0.73609509  0.12098117  0.57399732  1
  Nd3+  Nd35  1  0.48535815  0.89497366  0.07883366  1
  Nd3+  Nd36  1  0.48987169  0.14605846  0.06654487  1
  Nd3+  Nd37  1  -0.00901963  0.11817292  0.56025715  1
  Nd3+  Nd38  1  0.73363790  0.39586847  0.05187359  1
  Nd3+  Nd39  1  0.49597492  0.62271002  0.56084623  1
  Nd3+  Nd40  1  0.87904901  0.50037771  0.40903492  1
  Nd3+  Nd41  1  0.86407254  0.52487444  0.93590255  1
  Nd3+  Nd42  1  0.49023952  0.87075060  0.56804648  1
  Nd3+  Nd43  1  0.36007013  0.52267667  0.94902577  1
  Nd3+  Nd44  1  0.36815931  0.01946154  0.93810551  1
  Sm3+  Sm45  1  -0.02120989  0.90468407  0.06444018  1
  Sm3+  Sm46  1  0.86133394  0.27598023  0.92968025  1
  Sm3+  Sm47  1  0.36029553  0.77376947  0.95275395  1
  Sm3+  Sm48  1  0.74547936  0.62228001  0.55232807  1
  Sm3+  Sm49  1  0.24801377  0.12025885  0.56041767  1
  Sm3+  Sm50  1  0.86851673  -0.00329215  0.43493992  1
  Sm3+  Sm51  1  0.49216971  0.37355349  0.55505097  1
  Sm3+  Sm52  1  0.24609439  0.61915451  0.54980426  1
  Sm3+  Sm53  1  -0.02046007  0.14117384  0.05557935  1
  Sm3+  Sm54  1  -0.00833183  0.87270711  0.55391571  1
  Sm3+  Sm55  1  0.62142179  0.74840652  0.44469633  1
  Sm3+  Sm56  1  0.74425467  0.36691428  0.55955655  1
  Sm3+  Sm57  1  0.22988863  0.39477985  0.06199878  1
  Sm3+  Sm58  1  0.11968746  0.25115582  0.44961161  1
  Sm3+  Sm59  1  0.24846773  0.87108715  0.55918584  1
  Sm3+  Sm60  1  0.73301618  0.14695615  0.04117893  1
  Sm3+  Sm61  1  0.10980877  0.77448868  0.95758578  1
  Sm3+  Sm62  1  0.37336345  0.74988905  0.43133963  1
  Sm3+  Sm63  1  0.86666529  0.76907876  0.93341062  1
  Bi2+  Bi64  1  0.00197448  0.11353745  0.30247582  1
  Bi2+  Bi65  1  0.06185782  0.15833318  0.78287508  1
  Bi2+  Bi66  1  0.00987943  0.36002853  0.29025830  1
  Bi2+  Bi67  1  0.00605084  0.41689439  0.79568644  1
  Bi2+  Bi68  1  -0.00357054  0.63687186  0.27799579  1
  Bi2+  Bi69  1  0.01638131  0.65290168  0.81124773  1
  Bi2+  Bi70  1  -0.02663768  0.86414652  0.24333488  1
  Bi2+  Bi71  1  0.09573012  0.89644156  0.78676429  1
  Bi2+  Bi72  1  0.32140374  0.11130838  0.31550524  1
  Bi2+  Bi73  1  0.27041846  0.12852511  0.79002891  1
  Bi2+  Bi74  1  0.25079234  0.36429227  0.28719986  1
  Bi2+  Bi75  1  0.22175086  0.31596315  0.75791119  1
  Bi2+  Bi76  1  0.23483772  0.67070601  0.29469003  1
  Bi2+  Bi77  1  0.25700220  0.58650208  0.78812028  1
  Bi2+  Bi78  1  0.24168219  0.92973287  0.30293621  1
  Bi2+  Bi79  1  0.27222526  0.94179310  0.82834577  1
  Bi2+  Bi80  1  0.59879381  0.14864502  0.27297218  1
  Bi2+  Bi81  1  0.48019063  0.13551352  0.78814921  1
  Bi2+  Bi82  1  0.56995987  0.38989855  0.27520945  1
  Bi2+  Bi83  1  0.46350395  0.39403885  0.78876608  1
  Bi2+  Bi84  1  0.47096784  0.58346995  0.26884423  1
  Bi2+  Bi85  1  0.53039276  0.58932480  0.79811797  1
  Bi2+  Bi86  1  0.52179950  0.89391280  0.29244181  1
  Bi2+  Bi87  1  0.52629700  0.87124982  0.79860463  1
  Bi2+  Bi88  1  0.80133705  0.18135225  0.26826700  1
  Bi2+  Bi89  1  0.77381201  0.10952681  0.77404798  1
  Bi2+  Bi90  1  0.77052872  0.40335922  0.27892394  1
  Bi2+  Bi91  1  0.74740179  0.40497738  0.78221928  1
  Bi2+  Bi92  1  0.74688983  0.60190714  0.28336077  1
  Bi2+  Bi93  1  0.75829655  0.57786431  0.73110071  1
  Bi2+  Bi94  1  0.73176035  0.90455440  0.30568225  1
  Bi2+  Bi95  1  0.73077347  0.82122192  0.81530257  1
  Bi2+  Bi96  1  0.11504096  -0.00509215  0.20249473  1
  Bi2+  Bi97  1  0.18107463  -0.07397264  0.68176841  1
  Bi2+  Bi98  1  0.15997289  0.17989928  0.24760575  1
  Bi2+  Bi99  1  0.15390963  0.11955573  0.68748812  1
  Bi2+  Bi100  1  0.15997545  0.50310913  0.19796027  1
  Bi2+  Bi101  1  0.11009343  0.48992221  0.68876743  1
  Bi2+  Bi102  1  0.19684976  0.81306844  0.21327956  1
  Bi2+  Bi103  1  0.19060295  0.73253805  0.71609650  1
  Bi2+  Bi104  1  0.37417728  0.02074825  0.21356741  1
  Bi2+  Bi105  1  0.36930653  -0.04186588  0.72304641  1
  Bi2+  Bi106  1  0.42178556  0.21031166  0.23081359  1
  Bi2+  Bi107  1  0.38152642  0.24242997  0.70585599  1
  Bi2+  Bi108  1  0.39184541  0.40203622  0.20519340  1
  Bi2+  Bi109  1  0.40141866  0.53679394  0.71518685  1
  Bi2+  Bi110  1  0.38406136  0.73827680  0.21074736  1
  Bi2+  Bi111  1  0.35693488  0.77429089  0.77854089  1
  Bi2+  Bi112  1  0.65286843  -0.00101281  0.19752955  1
  Bi2+  Bi113  1  0.63776433  -0.01380334  0.71451814  1
  Bi2+  Bi114  1  0.67403101  0.26963629  0.18522074  1
  Bi2+  Bi115  1  0.63264146  0.24910268  0.70496333  1
  Bi2+  Bi116  1  0.63678191  0.53184335  0.19866895  1
  Bi2+  Bi117  1  0.59262109  0.47438722  0.70090683  1
  Bi2+  Bi118  1  0.60154657  0.73364719  0.23898649  1
  Bi2+  Bi119  1  0.59703706  0.72105332  0.70717586  1
  Bi2+  Bi120  1  0.86651609  0.02163571  0.21368444  1
  Bi2+  Bi121  1  0.90580354  -0.01256186  0.71243472  1
  Bi2+  Bi122  1  0.97552452  0.23355774  0.20745473  1
  Bi2+  Bi123  1  0.89855967  0.26400015  0.75274912  1
  Bi2+  Bi124  1  0.88306294  0.49129385  0.20090880  1
  Bi2+  Bi125  1  0.85614587  0.42401876  0.68501870  1
  Bi2+  Bi126  1  0.81785392  0.76369597  0.20814914  1
  Bi2+  Bi127  1  0.99370989  0.73122079  0.71359359  1
  S2-  S128  1  -0.02210212  0.03564099  0.13496932  1
  S2-  S129  1  -0.02100724  0.10131503  0.65977770  1
  S2-  S130  1  0.02386413  0.39877679  0.16557242  1
  S2-  S131  1  0.00758430  0.35124736  0.66173086  1
  S2-  S132  1  0.05889670  0.62275893  0.17652273  1
  S2-  S133  1  -0.02518115  0.58740703  0.65831048  1
  S2-  S134  1  -0.04218129  0.80823825  0.14815498  1
  S2-  S135  1  -0.06909333  0.85269165  0.64516555  1
  S2-  S136  1  0.23590723  0.06395527  0.14183845  1
  S2-  S137  1  0.35761892  0.12448230  0.63686332  1
  S2-  S138  1  0.24840725  0.35951367  0.15717244  1
  S2-  S139  1  0.23765443  0.37652434  0.66345365  1
  S2-  S140  1  0.28110362  0.60470951  0.16873526  1
  S2-  S141  1  0.20553776  0.60208907  0.64541027  1
  S2-  S142  1  0.35169706  0.88150781  0.15387805  1
  S2-  S143  1  0.35524116  0.87443381  0.63682889  1
  S2-  S144  1  0.50560233  0.03043267  0.14332912  1
  S2-  S145  1  0.58833942  0.11766945  0.65183869  1
  S2-  S146  1  0.49980928  0.26769592  0.14236627  1
  S2-  S147  1  0.50362796  0.33992438  0.65132037  1
  S2-  S148  1  0.49615884  0.51032933  0.14447301  1
  S2-  S149  1  0.47010055  0.66955061  0.65596380  1
  S2-  S150  1  0.51929758  0.76219685  0.14879597  1
  S2-  S151  1  0.58848930  0.86736198  0.65172727  1
  S2-  S152  1  0.73184527  0.13164870  0.14008195  1
  S2-  S153  1  0.77515074  0.01715629  0.65169939  1
  S2-  S154  1  0.80129963  0.37531089  0.14322835  1
  S2-  S155  1  0.75206561  0.26336072  0.64069584  1
  S2-  S156  1  0.82688182  0.62917853  0.14492270  1
  S2-  S157  1  0.74268693  0.67783317  0.64503806  1
  S2-  S158  1  0.72144661  0.87469777  0.14858330  1
  S2-  S159  1  0.75659226  0.85423767  0.72425441  1
  S2-  S160  1  0.09368361  -0.01389340  0.34728351  1
  S2-  S161  1  0.02703957  0.02722587  0.84656831  1
  S2-  S162  1  0.12741598  0.31572076  0.35912406  1
  S2-  S163  1  0.11149475  0.29749730  0.84520546  1
  S2-  S164  1  0.01504120  0.51010321  0.33839009  1
  S2-  S165  1  0.12005461  0.52366653  0.84961608  1
  S2-  S166  1  0.09832793  0.73312344  0.34239005  1
  S2-  S167  1  0.11595379  0.77351028  0.85874635  1
  S2-  S168  1  0.38775755  -0.12498832  0.35670486  1
  S2-  S169  1  0.48439053  0.01204006  0.85994471  1
  S2-  S170  1  0.37845853  0.34478387  0.34643367  1
  S2-  S171  1  0.43784481  0.26671124  0.85706145  1
  S2-  S172  1  0.23529834  0.51355039  0.33841550  1
  S2-  S173  1  0.36976658  0.51133692  0.85028404  1
  S2-  S174  1  0.38499163  0.66328247  0.34539737  1
  S2-  S175  1  0.45084912  0.77014877  0.86852925  1
  S2-  S176  1  0.60919537  0.01829698  0.34613334  1
  S2-  S177  1  0.71354438  -0.00218072  0.84358771  1
  S2-  S178  1  0.61877010  0.27156743  0.34557755  1
  S2-  S179  1  0.63290678  0.20445714  0.81093810  1
  S2-  S180  1  0.55217831  0.51106774  0.35255176  1
  S2-  S181  1  0.60962097  0.42370806  0.84870846  1
  S2-  S182  1  0.62311938  0.77645985  0.34663163  1
  S2-  S183  1  0.64368654  0.66338558  0.85420515  1
  S2-  S184  1  0.85677891  0.12100069  0.36296962  1
  S2-  S185  1  0.87811853  -0.13866420  0.84870818  1
  S2-  S186  1  0.87420202  0.35004009  0.35575064  1
  S2-  S187  1  0.86966985  0.18014335  0.84668969  1
  S2-  S188  1  0.86909766  0.64821270  0.34792587  1
  S2-  S189  1  0.87895125  0.40645682  0.85840678  1
  S2-  S190  1  0.86530408  0.87998327  0.35683788  1
  S2-  S191  1  0.87824886  0.64246157  0.86131268  1
  S2-  S192  1  0.00028387  0.12284820  0.45599418  1
  S2-  S193  1  -0.01543904  0.14398039  0.95249997  1
  S2-  S194  1  -0.00600044  0.37501806  0.45666250  1
  S2-  S195  1  -0.01291552  0.39544066  0.96288788  1
  S2-  S196  1  -0.00366298  0.61788454  0.45268492  1
  S2-  S197  1  -0.01043143  0.65146130  0.96923719  1
  S2-  S198  1  -0.00075856  0.87128144  0.45250790  1
  S2-  S199  1  -0.01245490  0.89694870  0.95790651  1
  S2-  S200  1  0.24342394  0.12546345  0.45525297  1
  S2-  S201  1  0.23703504  0.14427775  0.94830871  1
  S2-  S202  1  0.24696911  0.37379910  0.45795260  1
  S2-  S203  1  0.23389008  0.39616505  0.95644859  1
  S2-  S204  1  0.25076601  0.61849203  0.44829652  1
  S2-  S205  1  0.23565382  0.64983757  0.96411774  1
  S2-  S206  1  0.24505483  0.86884228  0.45480906  1
  S2-  S207  1  0.23769810  0.89734730  0.96458765  1
  S2-  S208  1  0.49183036  0.12449874  0.45173800  1
  S2-  S209  1  0.48781743  0.14889623  0.95779646  1
  S2-  S210  1  0.49371135  0.37612319  0.45279575  1
  S2-  S211  1  0.48568127  0.39991745  0.95883677  1
  S2-  S212  1  0.49590459  0.62327853  0.45531901  1
  S2-  S213  1  0.48159193  0.64451751  0.96523696  1
  S2-  S214  1  0.49612568  0.86890668  0.45968733  1
  S2-  S215  1  0.48358303  0.89654267  0.96749151  1
  S2-  S216  1  0.74155660  0.12295132  0.46361093  1
  S2-  S217  1  0.73115226  0.15426461  0.93946449  1
  S2-  S218  1  0.74631319  0.37470648  0.45551203  1
  S2-  S219  1  0.73390360  0.39650880  0.94856128  1
  S2-  S220  1  0.74554879  0.62054022  0.44877766  1
  S2-  S221  1  0.73805182  0.64836018  0.95832431  1
  S2-  S222  1  0.74289354  0.87153403  0.45310819  1
  S2-  S223  1  0.73517010  0.89117789  0.94652785  1
  S2-  S224  1  0.10826819  0.02212243  0.03821256  1
  S2-  S225  1  0.12183430  -0.00442781  0.54847283  1
  S2-  S226  1  0.10507543  0.26766826  0.05191448  1
  S2-  S227  1  0.12129792  0.24437234  0.55339730  1
  S2-  S228  1  0.10543792  0.51927477  0.05608152  1
  S2-  S229  1  0.12042025  0.49501893  0.54015577  1
  S2-  S230  1  0.11218039  0.77991434  0.06077947  1
  S2-  S231  1  0.12201754  0.74910292  0.54827269  1
  S2-  S232  1  0.36293954  0.02398750  0.04299347  1
  S2-  S233  1  0.36769635  -0.00251065  0.53544591  1
  S2-  S234  1  0.35517831  0.27122296  0.04825489  1
  S2-  S235  1  0.36798161  0.25178447  0.53975701  1
  S2-  S236  1  0.35182840  0.51803723  0.05274810  1
  S2-  S237  1  0.37046250  0.49818776  0.55816711  1
  S2-  S238  1  0.35540125  0.76900734  0.05374127  1
  S2-  S239  1  0.36796986  0.74207602  0.53866085  1
  S2-  S240  1  0.61143404  0.02317751  0.03595802  1
  S2-  S241  1  0.61226349  -0.00233922  0.54976231  1
  S2-  S242  1  0.61308749  0.27143826  0.03771287  1
  S2-  S243  1  0.61336620  0.24912224  0.54432572  1
  S2-  S244  1  0.61408346  0.52237461  0.04155391  1
  S2-  S245  1  0.62169451  0.49493282  0.54892084  1
  S2-  S246  1  0.61033834  0.77112340  0.04147592  1
  S2-  S247  1  0.62150432  0.74745481  0.54710825  1
  S2-  S248  1  0.85566794  0.02330353  0.03614173  1
  S2-  S249  1  0.87154395  -0.00491837  0.54046900  1
  S2-  S250  1  0.86105222  0.26666500  0.03739916  1
  S2-  S251  1  0.87105642  0.24489309  0.54323751  1
  S2-  S252  1  0.86048756  0.52100076  0.04245814  1
  S2-  S253  1  0.86356046  0.49533082  0.54990828  1
  S2-  S254  1  0.85815060  0.77592106  0.04083753  1
  S2-  S255  1  0.86849998  0.74666375  0.54034904  1
