# generated using pymatgen
data_La6Ce7Pr13Nd19Sm19(BiS2)64
_symmetry_space_group_name_H-M   'P 1'
_cell_length_a   16.05085632
_cell_length_b   15.97707075
_cell_length_c   27.30327723
_cell_angle_alpha   90.09698291
_cell_angle_beta   89.90561205
_cell_angle_gamma   90.06793501
_symmetry_Int_Tables_number   1
_chemical_formula_structural   La6Ce7Pr13Nd19Sm19(BiS2)64
_chemical_formula_sum   'La6 Ce7 Pr13 Nd19 Sm19 Bi64 S128'
_cell_volume   7001.78271113
_cell_formula_units_Z   1
loop_
 _symmetry_equiv_pos_site_id
 _symmetry_equiv_pos_as_xyz
  1  'x, y, z'
loop_
 _atom_type_symbol
 _atom_type_oxidation_number
  La3+  3.0
  Ce3+  3.0
  Pr3+  3.0
  Nd3+  3.0
  Sm3+  3.0
  Bi2+  2.0
  S2-  -2.0
loop_
 _atom_site_type_symbol
 _atom_site_label
 _atom_site_symmetry_multiplicity
 _atom_site_fract_x
 _atom_site_fract_y
 _atom_site_fract_z
 _atom_site_occupancy
  La3+  La0  1  0.61516561  -0.00561845  0.93108877  1
  La3+  La1  1  0.87567842  -0.02488642  0.40830391  1
  La3+  La2  1  0.11782459  0.26584354  0.88532380  1
  La3+  La3  1  0.88106285  0.22879008  0.43666708  1
  La3+  La4  1  0.38080873  0.72097807  0.42814263  1
  La3+  La5  1  -0.00470289  0.34966885  0.59095691  1
  Ce3+  Ce6  1  0.49138620  0.62647383  0.06905214  1
  Ce3+  Ce7  1  0.24522234  0.87764938  0.06168223  1
  Ce3+  Ce8  1  -0.00660732  0.12990753  0.04893085  1
  Ce3+  Ce9  1  0.36857322  0.24693168  0.92354848  1
  Ce3+  Ce10  1  0.61612922  0.75059376  0.94684358  1
  Ce3+  Ce11  1  -0.00002154  0.09848105  0.56739582  1
  Ce3+  Ce12  1  0.37223342  0.75812432  0.93144808  1
  Pr3+  Pr13  1  0.75012650  0.85365401  0.56402025  1
  Pr3+  Pr14  1  0.38098037  -0.02934671  0.42072444  1
  Pr3+  Pr15  1  0.74945853  0.62848702  0.06590027  1
  Pr3+  Pr16  1  0.74019304  0.88568905  0.06888904  1
  Pr3+  Pr17  1  0.75239034  0.09670724  0.56043996  1
  Pr3+  Pr18  1  0.36866943  0.00435595  0.93817261  1
  Pr3+  Pr19  1  0.49223094  0.12887598  0.06839097  1
  Pr3+  Pr20  1  0.25667767  0.85109834  0.56151778  1
  Pr3+  Pr21  1  0.12058335  0.00395557  0.92997917  1
  Pr3+  Pr22  1  0.86789714  0.00159156  0.92744451  1
  Pr3+  Pr23  1  -0.00651970  0.63147912  0.05538364  1
  Pr3+  Pr24  1  0.87504889  0.72563776  0.43643258  1
  Pr3+  Pr25  1  0.75054307  0.34382225  0.57603516  1
  Nd3+  Nd26  1  0.75974969  0.60825286  0.58263410  1
  Nd3+  Nd27  1  0.00119884  0.60040154  0.56182339  1
  Nd3+  Nd28  1  0.49010591  0.59708867  0.58677201  1
  Nd3+  Nd29  1  0.62866291  0.22776922  0.43867541  1
  Nd3+  Nd30  1  0.85884957  0.24664635  0.92516673  1
  Nd3+  Nd31  1  0.87248319  0.49248675  0.92762182  1
  Nd3+  Nd32  1  0.00044253  0.85455837  0.56798321  1
  Nd3+  Nd33  1  0.48994504  0.37872460  0.07265389  1
  Nd3+  Nd34  1  0.37516882  0.22232160  0.43551404  1
  Nd3+  Nd35  1  0.12563066  -0.02388510  0.43884384  1
  Nd3+  Nd36  1  0.74407232  0.12949471  0.06214508  1
  Nd3+  Nd37  1  0.75423286  0.37431628  0.07358943  1
  Nd3+  Nd38  1  0.48622473  0.87423490  0.07780063  1
  Nd3+  Nd39  1  0.25580422  0.09546034  0.56848793  1
  Nd3+  Nd40  1  0.50003915  0.09855766  0.56099760  1
  Nd3+  Nd41  1  0.36897965  0.49924691  0.93747125  1
  Nd3+  Nd42  1  0.62104998  0.49933499  0.94928760  1
  Nd3+  Nd43  1  0.37793107  0.47605282  0.43580984  1
  Nd3+  Nd44  1  0.86558038  0.75379071  0.93258287  1
  Sm3+  Sm45  1  0.24234872  0.13161612  0.05395206  1
  Sm3+  Sm46  1  0.62512967  -0.02554632  0.43496295  1
  Sm3+  Sm47  1  0.25575756  0.34818316  0.56895439  1
  Sm3+  Sm48  1  0.62740231  0.47566487  0.45751066  1
  Sm3+  Sm49  1  0.24382457  0.62835506  0.04688176  1
  Sm3+  Sm50  1  0.12426016  0.72598151  0.44766345  1
  Sm3+  Sm51  1  0.12538973  0.47256271  0.45260388  1
  Sm3+  Sm52  1  -0.00692283  0.87995142  0.05504603  1
  Sm3+  Sm53  1  0.61710420  0.25189022  0.94510456  1
  Sm3+  Sm54  1  0.25426095  0.59970387  0.55810265  1
  Sm3+  Sm55  1  0.11889742  0.75629132  0.93514895  1
  Sm3+  Sm56  1  0.24163359  0.37655002  0.05233462  1
  Sm3+  Sm57  1  0.11824384  0.50111131  0.93963231  1
  Sm3+  Sm58  1  0.50146603  0.84993317  0.56391210  1
  Sm3+  Sm59  1  0.62777443  0.72237890  0.44635822  1
  Sm3+  Sm60  1  0.12574282  0.22661923  0.45344374  1
  Sm3+  Sm61  1  -0.00792784  0.37653156  0.05380391  1
  Sm3+  Sm62  1  0.50167715  0.34620210  0.56517541  1
  Sm3+  Sm63  1  0.87424154  0.47406666  0.44523376  1
  Bi2+  Bi64  1  0.00640871  0.11146188  0.28842194  1
  Bi2+  Bi65  1  -0.00282843  0.08167052  0.78135537  1
  Bi2+  Bi66  1  0.01378989  0.36444805  0.30083162  1
  Bi2+  Bi67  1  -0.00367102  0.43847545  0.78034406  1
  Bi2+  Bi68  1  0.03669972  0.61904828  0.30240133  1
  Bi2+  Bi69  1  0.09145194  0.69562545  0.80698282  1
  Bi2+  Bi70  1  0.06055837  0.86188891  0.27706614  1
  Bi2+  Bi71  1  -0.01564183  0.87202624  0.78903436  1
  Bi2+  Bi72  1  0.20393630  0.12687626  0.29990202  1
  Bi2+  Bi73  1  0.28444794  0.13174069  0.78723006  1
  Bi2+  Bi74  1  0.28318318  0.32985338  0.30447515  1
  Bi2+  Bi75  1  0.25196744  0.42452175  0.77410165  1
  Bi2+  Bi76  1  0.26496940  0.52932451  0.29378347  1
  Bi2+  Bi77  1  0.28655969  0.67827891  0.80508276  1
  Bi2+  Bi78  1  0.24638492  0.92553559  0.29172119  1
  Bi2+  Bi79  1  0.25348365  0.88718732  0.78409648  1
  Bi2+  Bi80  1  0.47364675  0.10168121  0.28405963  1
  Bi2+  Bi81  1  0.54282545  0.25446744  0.80301643  1
  Bi2+  Bi82  1  0.47918534  0.30965449  0.30819646  1
  Bi2+  Bi83  1  0.50670273  0.44383060  0.79716384  1
  Bi2+  Bi84  1  0.52187455  0.50641031  0.29758631  1
  Bi2+  Bi85  1  0.50489781  0.72328239  0.81896088  1
  Bi2+  Bi86  1  0.50352287  0.84765933  0.28602363  1
  Bi2+  Bi87  1  0.45058489  0.89084657  0.76174107  1
  Bi2+  Bi88  1  0.74562066  0.10066449  0.28477731  1
  Bi2+  Bi89  1  0.73624174  0.15667265  0.78305993  1
  Bi2+  Bi90  1  0.74392507  0.35258047  0.30150050  1
  Bi2+  Bi91  1  0.76537168  0.43768718  0.80754033  1
  Bi2+  Bi92  1  0.84430180  0.60342454  0.31721374  1
  Bi2+  Bi93  1  0.68552845  0.66486535  0.78427590  1
  Bi2+  Bi94  1  0.75333536  0.84586423  0.28777480  1
  Bi2+  Bi95  1  0.71741308  0.91764054  0.79142981  1
  Bi2+  Bi96  1  0.13127535  0.01579810  0.21044082  1
  Bi2+  Bi97  1  0.12703164  -0.01650135  0.71041945  1
  Bi2+  Bi98  1  0.13554976  0.31928341  0.21822311  1
  Bi2+  Bi99  1  0.13341213  0.27013049  0.70363261  1
  Bi2+  Bi100  1  0.13570544  0.51424281  0.20531734  1
  Bi2+  Bi101  1  0.16918576  0.61108772  0.71335034  1
  Bi2+  Bi102  1  0.14874661  0.71144377  0.22342017  1
  Bi2+  Bi103  1  0.08789990  0.78476770  0.68753004  1
  Bi2+  Bi104  1  0.37343843  -0.01461440  0.20965547  1
  Bi2+  Bi105  1  0.38000111  0.04607085  0.70122429  1
  Bi2+  Bi106  1  0.35042902  0.20559789  0.21494810  1
  Bi2+  Bi107  1  0.40282717  0.30064526  0.69461796  1
  Bi2+  Bi108  1  0.38943190  0.44327282  0.21495622  1
  Bi2+  Bi109  1  0.43926281  0.61178023  0.73085421  1
  Bi2+  Bi110  1  0.37543409  0.70910273  0.19788147  1
  Bi2+  Bi111  1  0.30853984  0.76238453  0.69367916  1
  Bi2+  Bi112  1  0.62659250  -0.07491793  0.20488455  1
  Bi2+  Bi113  1  0.62506750  0.08747580  0.68881574  1
  Bi2+  Bi114  1  0.60473190  0.27409451  0.21576474  1
  Bi2+  Bi115  1  0.64131504  0.35562366  0.72482656  1
  Bi2+  Bi116  1  0.67341816  0.45822704  0.20972540  1
  Bi2+  Bi117  1  0.62194335  0.54852922  0.69493922  1
  Bi2+  Bi118  1  0.66777167  0.64284463  0.26972943  1
  Bi2+  Bi119  1  0.61655434  0.81045088  0.71304540  1
  Bi2+  Bi120  1  0.89338695  -0.02499301  0.16985522  1
  Bi2+  Bi121  1  0.85761231  -0.02439248  0.71406918  1
  Bi2+  Bi122  1  0.87008635  0.24891026  0.20206293  1
  Bi2+  Bi123  1  0.86504315  0.25170305  0.71157961  1
  Bi2+  Bi124  1  0.87317819  0.45896550  0.23560342  1
  Bi2+  Bi125  1  0.81652887  0.55486126  0.72046471  1
  Bi2+  Bi126  1  0.87639530  0.70977053  0.19684589  1
  Bi2+  Bi127  1  0.88906079  0.77231770  0.70202602  1
  S2-  S128  1  -0.04015750  0.13439186  0.14638967  1
  S2-  S129  1  -0.00334567  0.20099233  0.65152673  1
  S2-  S130  1  -0.10112894  0.37902963  0.13798226  1
  S2-  S131  1  0.05392065  0.41273944  0.68565994  1
  S2-  S132  1  -0.04204709  0.59734524  0.15116529  1
  S2-  S133  1  -0.08709219  0.61469974  0.64693652  1
  S2-  S134  1  -0.01843435  0.82630546  0.14871072  1
  S2-  S135  1  -0.00462123  0.97816060  0.64171742  1
  S2-  S136  1  0.24915236  0.10890440  0.15279995  1
  S2-  S137  1  0.27668826  0.18642114  0.65662682  1
  S2-  S138  1  0.24905865  0.39220610  0.15115475  1
  S2-  S139  1  0.26149024  0.38954261  0.66697311  1
  S2-  S140  1  0.24512409  0.63484612  0.14537062  1
  S2-  S141  1  0.33612279  0.60532926  0.64378928  1
  S2-  S142  1  0.33002218  0.85440330  0.14602508  1
  S2-  S143  1  0.26145214  0.96559831  0.64032541  1
  S2-  S144  1  0.50471424  0.00808261  0.14568133  1
  S2-  S145  1  0.50977464  0.21841709  0.63956960  1
  S2-  S146  1  0.48351717  0.25235214  0.14612075  1
  S2-  S147  1  0.47981510  0.43963211  0.64779576  1
  S2-  S148  1  0.48270290  0.50870724  0.14396296  1
  S2-  S149  1  0.50491228  0.74679884  0.64485447  1
  S2-  S150  1  0.50702499  0.73928490  0.14815741  1
  S2-  S151  1  0.50177944  0.98186302  0.63882419  1
  S2-  S152  1  0.73384928  0.02318808  0.14362728  1
  S2-  S153  1  0.73865114  0.19930670  0.64668691  1
  S2-  S154  1  0.73530548  0.24259757  0.14456007  1
  S2-  S155  1  0.85116975  0.38331511  0.65735558  1
  S2-  S156  1  0.73187393  0.61113674  0.16687840  1
  S2-  S157  1  0.74454026  0.74868322  0.64745496  1
  S2-  S158  1  0.74358287  0.82177049  0.16571721  1
  S2-  S159  1  0.73277552  0.98253206  0.64139953  1
  S2-  S160  1  0.03195589  -0.02356282  0.35365407  1
  S2-  S161  1  0.13576687  0.10012567  0.84334947  1
  S2-  S162  1  0.08436634  0.22954768  0.35726961  1
  S2-  S163  1  0.04673313  0.27095719  0.78650429  1
  S2-  S164  1  0.11790837  0.48217424  0.35421656  1
  S2-  S165  1  0.12242039  0.44553181  0.84602518  1
  S2-  S166  1  0.12533803  0.74253079  0.35018130  1
  S2-  S167  1  0.12442495  0.86861656  0.85888566  1
  S2-  S168  1  0.51923307  -0.02539059  0.35089424  1
  S2-  S169  1  0.39495999  0.11278078  0.85629449  1
  S2-  S170  1  0.35343133  0.11157246  0.35755856  1
  S2-  S171  1  0.27571140  0.28461315  0.83606412  1
  S2-  S172  1  0.39025450  0.58732865  0.35764647  1
  S2-  S173  1  0.34831566  0.49985480  0.83748679  1
  S2-  S174  1  0.36626782  0.83319736  0.34907892  1
  S2-  S175  1  0.37496278  0.88469139  0.86098481  1
  S2-  S176  1  0.72342489  -0.02221765  0.35159179  1
  S2-  S177  1  0.63240486  0.05043665  0.83219528  1
  S2-  S178  1  0.65273808  0.20882958  0.34006637  1
  S2-  S179  1  0.69662685  0.27228761  0.85847135  1
  S2-  S180  1  0.65322302  0.46787016  0.35932281  1
  S2-  S181  1  0.62792989  0.53041059  0.85106018  1
  S2-  S182  1  0.59968768  0.73653552  0.34694843  1
  S2-  S183  1  0.61415314  0.84434303  0.86473215  1
  S2-  S184  1  0.86199262  -0.02229679  0.26076598  1
  S2-  S185  1  0.87520381  0.11866312  0.84868022  1
  S2-  S186  1  0.87588928  0.13111524  0.34981854  1
  S2-  S187  1  0.89542040  0.36306560  0.85354529  1
  S2-  S188  1  0.88259690  0.36486570  0.36796818  1
  S2-  S189  1  0.88236167  0.56355070  0.83381207  1
  S2-  S190  1  0.87261430  0.81766824  0.35083652  1
  S2-  S191  1  0.85180643  0.86718259  0.85657602  1
  S2-  S192  1  0.00427669  0.10156937  0.45994783  1
  S2-  S193  1  -0.00104833  0.13345299  0.94525035  1
  S2-  S194  1  0.00521100  0.35364618  0.46994514  1
  S2-  S195  1  0.00422856  0.37114610  0.95194098  1
  S2-  S196  1  0.00141303  0.59827964  0.45628891  1
  S2-  S197  1  -0.00476825  0.62885251  0.94731077  1
  S2-  S198  1  0.00310481  0.84855034  0.45971506  1
  S2-  S199  1  -0.00690743  0.87687694  0.95320325  1
  S2-  S200  1  0.24719847  0.10176025  0.46010414  1
  S2-  S201  1  0.24060983  0.13303235  0.95140336  1
  S2-  S202  1  0.25203610  0.35101666  0.45796852  1
  S2-  S203  1  0.24052669  0.37564401  0.94919505  1
  S2-  S204  1  0.24684962  0.59947075  0.45461642  1
  S2-  S205  1  0.24185028  0.62823133  0.94321652  1
  S2-  S206  1  0.24802908  0.84840766  0.45472622  1
  S2-  S207  1  0.24307102  0.87612051  0.95843898  1
  S2-  S208  1  0.50384614  0.10449445  0.45318030  1
  S2-  S209  1  0.49686674  0.12962481  0.95986305  1
  S2-  S210  1  0.50033349  0.35111515  0.45627122  1
  S2-  S211  1  0.49258306  0.37535498  0.95268802  1
  S2-  S212  1  0.50536719  0.59662380  0.46280231  1
  S2-  S213  1  0.49198853  0.62379765  0.95606925  1
  S2-  S214  1  0.50527622  0.84508301  0.45727760  1
  S2-  S215  1  0.49087838  0.87450859  0.96713040  1
  S2-  S216  1  0.74971247  0.10081055  0.45417183  1
  S2-  S217  1  0.73716159  0.12322905  0.95497162  1
  S2-  S218  1  0.74971942  0.35232939  0.46618135  1
  S2-  S219  1  0.74532608  0.37748509  0.96183544  1
  S2-  S220  1  0.75242569  0.59872175  0.46267935  1
  S2-  S221  1  0.74691165  0.62604633  0.95470107  1
  S2-  S222  1  0.74776479  0.84849619  0.45591620  1
  S2-  S223  1  0.74430808  0.87554607  0.96123911  1
  S2-  S224  1  0.11908536  0.00294480  0.04369525  1
  S2-  S225  1  0.12793827  -0.02572065  0.54330180  1
  S2-  S226  1  0.11765445  0.25571057  0.05758020  1
  S2-  S227  1  0.13191814  0.22736088  0.55590569  1
  S2-  S228  1  0.11754686  0.50246338  0.04470947  1
  S2-  S229  1  0.12976308  0.47565783  0.55773606  1
  S2-  S230  1  0.11938689  0.75470308  0.04197039  1
  S2-  S231  1  0.12876278  0.72444442  0.55260954  1
  S2-  S232  1  0.36404010  0.00617339  0.04551030  1
  S2-  S233  1  0.37973138  -0.02731600  0.53317188  1
  S2-  S234  1  0.36491358  0.25556965  0.04084339  1
  S2-  S235  1  0.37450098  0.22741345  0.54108014  1
  S2-  S236  1  0.36365400  0.50145180  0.04204576  1
  S2-  S237  1  0.37368170  0.47221035  0.54157113  1
  S2-  S238  1  0.36563260  0.74878928  0.03899630  1
  S2-  S239  1  0.37683646  0.72390052  0.53976242  1
  S2-  S240  1  0.61520973  0.00396649  0.04101250  1
  S2-  S241  1  0.62226526  -0.02745127  0.53761185  1
  S2-  S242  1  0.61836797  0.25887457  0.04661415  1
  S2-  S243  1  0.62538502  0.22577789  0.54196125  1
  S2-  S244  1  0.62542271  0.49863107  0.05349444  1
  S2-  S245  1  0.63078437  0.47829502  0.56040384  1
  S2-  S246  1  0.62207306  0.75118155  0.04999577  1
  S2-  S247  1  0.62625111  0.71894216  0.54794521  1
  S2-  S248  1  0.87077282  0.00304459  0.03683314  1
  S2-  S249  1  0.87764929  -0.02664212  0.54058155  1
  S2-  S250  1  0.86940830  0.25201383  0.03390218  1
  S2-  S251  1  0.87765783  0.22563737  0.54656569  1
  S2-  S252  1  0.87095990  0.50347413  0.03644493  1
  S2-  S253  1  0.87475248  0.47829310  0.54824525  1
  S2-  S254  1  0.86862008  0.75603628  0.04027143  1
  S2-  S255  1  0.87988163  0.72837805  0.54315133  1
