# generated using pymatgen
data_La6Ce7Pr13Nd19Sm19(BiS2)64
_symmetry_space_group_name_H-M   'P 1'
_cell_length_a   16.08958434
_cell_length_b   16.14115875
_cell_length_c   27.32871109
_cell_angle_alpha   89.96621667
_cell_angle_beta   90.23660909
_cell_angle_gamma   89.93570275
_symmetry_Int_Tables_number   1
_chemical_formula_structural   La6Ce7Pr13Nd19Sm19(BiS2)64
_chemical_formula_sum   'La6 Ce7 Pr13 Nd19 Sm19 Bi64 S128'
_cell_volume   7097.32396579
_cell_formula_units_Z   1
loop_
 _symmetry_equiv_pos_site_id
 _symmetry_equiv_pos_as_xyz
  1  'x, y, z'
loop_
 _atom_type_symbol
 _atom_type_oxidation_number
  La3+  3.0
  Ce3+  3.0
  Pr3+  3.0
  Nd3+  3.0
  Sm3+  3.0
  Bi2+  2.0
  S2-  -2.0
loop_
 _atom_site_type_symbol
 _atom_site_label
 _atom_site_symmetry_multiplicity
 _atom_site_fract_x
 _atom_site_fract_y
 _atom_site_fract_z
 _atom_site_occupancy
  La3+  La0  1  0.85909213  -0.00326660  0.42098481  1
  La3+  La1  1  0.24553096  0.86763079  0.61234037  1
  La3+  La2  1  0.34953570  0.25499002  0.91999998  1
  La3+  La3  1  0.74601491  0.10984107  0.57042363  1
  La3+  La4  1  0.85458158  0.25308061  0.90762292  1
  La3+  La5  1  0.88323243  0.25489014  0.38580770  1
  Ce3+  Ce6  1  -0.00478142  0.62352047  0.55942170  1
  Ce3+  Ce7  1  0.62085856  0.49440255  0.44982661  1
  Ce3+  Ce8  1  0.10681266  0.75251003  0.93054414  1
  Ce3+  Ce9  1  0.10658457  0.25000456  0.94578542  1
  Ce3+  Ce10  1  -0.01981968  0.37792303  0.06213685  1
  Ce3+  Ce11  1  0.10922674  0.00398656  0.94153290  1
  Ce3+  Ce12  1  -0.00586405  0.87231168  0.55628397  1
  Pr3+  Pr13  1  0.73319974  0.86970223  0.08843443  1
  Pr3+  Pr14  1  0.87053905  0.74629296  0.42927823  1
  Pr3+  Pr15  1  0.61188936  -0.00854204  0.43122890  1
  Pr3+  Pr16  1  0.49121855  0.61997988  0.56115669  1
  Pr3+  Pr17  1  0.24160810  0.62046205  0.56853863  1
  Pr3+  Pr18  1  0.11940457  -0.00266044  0.43830742  1
  Pr3+  Pr19  1  0.62713605  0.24334481  0.43699165  1
  Pr3+  Pr20  1  0.23476722  0.12636912  0.06553401  1
  Pr3+  Pr21  1  0.24386846  0.12205172  0.56788830  1
  Pr3+  Pr22  1  0.23313380  0.87414454  0.06259566  1
  Pr3+  Pr23  1  0.85328933  0.00105878  0.94427387  1
  Pr3+  Pr24  1  0.49533481  0.36976093  0.55823849  1
  Pr3+  Pr25  1  0.85205362  0.75474328  0.92989890  1
  Nd3+  Nd26  1  0.61109443  0.00151733  0.94557345  1
  Nd3+  Nd27  1  0.36628072  0.49347814  0.44437550  1
  Nd3+  Nd28  1  0.49353709  0.11843451  0.55521712  1
  Nd3+  Nd29  1  0.86926368  0.49335592  0.44092255  1
  Nd3+  Nd30  1  0.10271394  0.49851871  0.94085160  1
  Nd3+  Nd31  1  0.74751998  0.36613454  0.56186717  1
  Nd3+  Nd32  1  0.12530315  0.24413675  0.43360990  1
  Nd3+  Nd33  1  0.48630298  0.87501724  0.06444544  1
  Nd3+  Nd34  1  0.23283128  0.37682811  0.06093683  1
  Nd3+  Nd35  1  -0.00946339  0.36445636  0.56350182  1
  Nd3+  Nd36  1  0.73235932  0.37588101  0.05998116  1
  Nd3+  Nd37  1  0.60774190  0.75120832  0.93682761  1
  Nd3+  Nd38  1  0.23320529  0.62592939  0.05287414  1
  Nd3+  Nd39  1  0.11749511  0.49236582  0.44662779  1
  Nd3+  Nd40  1  0.74659669  0.62414630  0.56589398  1
  Nd3+  Nd41  1  0.61786744  0.74381750  0.43776610  1
  Nd3+  Nd42  1  0.74499402  0.86535114  0.56029501  1
  Nd3+  Nd43  1  -0.02003429  0.12475417  0.05933961  1
  Nd3+  Nd44  1  0.60784814  0.49915969  0.93367410  1
  Sm3+  Sm45  1  0.24203904  0.36719343  0.56724484  1
  Sm3+  Sm46  1  -0.01915979  0.87442678  0.05302141  1
  Sm3+  Sm47  1  0.12189650  0.74686257  0.44904169  1
  Sm3+  Sm48  1  0.48416118  0.37593025  0.05932002  1
  Sm3+  Sm49  1  0.36756703  0.24401759  0.43852829  1
  Sm3+  Sm50  1  0.48313509  0.12777822  0.05369068  1
  Sm3+  Sm51  1  0.48439800  0.62488609  0.05185493  1
  Sm3+  Sm52  1  0.36906018  -0.00640938  0.44113973  1
  Sm3+  Sm53  1  0.73238280  0.12659300  0.06601233  1
  Sm3+  Sm54  1  0.85098866  0.49816191  0.93280484  1
  Sm3+  Sm55  1  0.49080297  0.87088813  0.56259851  1
  Sm3+  Sm56  1  -0.00623380  0.11793144  0.54941544  1
  Sm3+  Sm57  1  0.35691847  0.75138487  0.94339450  1
  Sm3+  Sm58  1  -0.01988297  0.62744131  0.04847559  1
  Sm3+  Sm59  1  0.35800414  0.00085419  0.94378403  1
  Sm3+  Sm60  1  0.73285996  0.62650918  0.05779883  1
  Sm3+  Sm61  1  0.35813074  0.49928889  0.93844416  1
  Sm3+  Sm62  1  0.36556404  0.74394861  0.44732307  1
  Sm3+  Sm63  1  0.60944471  0.24993780  0.94066019  1
  Bi2+  Bi64  1  0.02573750  0.14842110  0.28028191  1
  Bi2+  Bi65  1  0.06257669  0.15344032  0.79452724  1
  Bi2+  Bi66  1  0.03932748  0.42368633  0.28801939  1
  Bi2+  Bi67  1  0.01973794  0.41399729  0.77240407  1
  Bi2+  Bi68  1  0.01106130  0.62715105  0.29106698  1
  Bi2+  Bi69  1  -0.04598699  0.59464664  0.78070273  1
  Bi2+  Bi70  1  0.00955241  0.83794526  0.28428486  1
  Bi2+  Bi71  1  0.00544796  0.83926257  0.75539653  1
  Bi2+  Bi72  1  0.32927446  0.10653394  0.31303500  1
  Bi2+  Bi73  1  0.26916326  0.10994591  0.80776491  1
  Bi2+  Bi74  1  0.29040897  0.38157512  0.30128639  1
  Bi2+  Bi75  1  0.24354358  0.41764354  0.78290985  1
  Bi2+  Bi76  1  0.28022140  0.64135016  0.29419073  1
  Bi2+  Bi77  1  0.37181114  0.59905593  0.80144531  1
  Bi2+  Bi78  1  0.27673293  0.84299881  0.28752555  1
  Bi2+  Bi79  1  0.23325240  0.86577821  0.80932371  1
  Bi2+  Bi80  1  0.51144020  0.16751524  0.29527826  1
  Bi2+  Bi81  1  0.51730078  0.15568829  0.75656650  1
  Bi2+  Bi82  1  0.47793381  0.35469312  0.26266062  1
  Bi2+  Bi83  1  0.51454572  0.45023795  0.80916615  1
  Bi2+  Bi84  1  0.52246242  0.54779451  0.28513535  1
  Bi2+  Bi85  1  0.55833159  0.64274092  0.81548914  1
  Bi2+  Bi86  1  0.49602791  0.86001095  0.29719771  1
  Bi2+  Bi87  1  0.51749324  0.87070528  0.77089558  1
  Bi2+  Bi88  1  0.75952705  0.12424160  0.27826770  1
  Bi2+  Bi89  1  0.75574919  0.11434162  0.79982479  1
  Bi2+  Bi90  1  0.74068593  0.39000228  0.29145386  1
  Bi2+  Bi91  1  0.76776343  0.38741273  0.79115224  1
  Bi2+  Bi92  1  0.81928950  0.63581532  0.30406228  1
  Bi2+  Bi93  1  0.75896574  0.63785375  0.79124635  1
  Bi2+  Bi94  1  0.74300015  0.87969527  0.28743500  1
  Bi2+  Bi95  1  0.78103660  0.88821816  0.80414279  1
  Bi2+  Bi96  1  0.19296460  0.00962045  0.24637868  1
  Bi2+  Bi97  1  0.11405897  0.02794846  0.71093020  1
  Bi2+  Bi98  1  0.19022387  0.27946254  0.22176825  1
  Bi2+  Bi99  1  0.14461506  0.28158895  0.72002834  1
  Bi2+  Bi100  1  0.17942264  0.49582883  0.21468101  1
  Bi2+  Bi101  1  0.23319532  0.51220328  0.68311476  1
  Bi2+  Bi102  1  0.14631959  0.74913804  0.21825654  1
  Bi2+  Bi103  1  0.13014842  0.65038278  0.73706708  1
  Bi2+  Bi104  1  0.35705640  -0.06865782  0.18295813  1
  Bi2+  Bi105  1  0.39589964  0.00112460  0.71549685  1
  Bi2+  Bi106  1  0.36740411  0.18630146  0.20871929  1
  Bi2+  Bi107  1  0.36977279  0.27688197  0.71667875  1
  Bi2+  Bi108  1  0.37391574  0.55641998  0.20367928  1
  Bi2+  Bi109  1  0.42159908  0.45999920  0.68804015  1
  Bi2+  Bi110  1  0.41147974  0.74908269  0.20296426  1
  Bi2+  Bi111  1  0.38475711  0.74229959  0.72302940  1
  Bi2+  Bi112  1  0.52628694  0.00712709  0.22233925  1
  Bi2+  Bi113  1  0.62448113  0.00244559  0.71590987  1
  Bi2+  Bi114  1  0.61535610  0.26386449  0.19360009  1
  Bi2+  Bi115  1  0.61307070  0.32545150  0.73842585  1
  Bi2+  Bi116  1  0.69392379  0.55101730  0.23064527  1
  Bi2+  Bi117  1  0.60859503  0.53365675  0.70467730  1
  Bi2+  Bi118  1  0.60958521  0.73928201  0.20569553  1
  Bi2+  Bi119  1  0.62155974  0.74091757  0.71277033  1
  Bi2+  Bi120  1  0.92664944  -0.02045717  0.21179318  1
  Bi2+  Bi121  1  0.87813045  0.02746463  0.69227781  1
  Bi2+  Bi122  1  0.87125472  0.25488185  0.17333674  1
  Bi2+  Bi123  1  0.89741187  0.25721744  0.69703915  1
  Bi2+  Bi124  1  0.89729634  0.51295598  0.20641228  1
  Bi2+  Bi125  1  0.80751120  0.53281580  0.69614275  1
  Bi2+  Bi126  1  0.88232057  0.73561978  0.20541321  1
  Bi2+  Bi127  1  0.88783421  0.72054729  0.69629010  1
  S2-  S128  1  -0.01488732  0.12473489  0.15895854  1
  S2-  S129  1  0.00366427  0.12962544  0.64965565  1
  S2-  S130  1  -0.01214285  0.38569276  0.16027865  1
  S2-  S131  1  0.02428505  0.37140074  0.66205964  1
  S2-  S132  1  -0.02647947  0.62568410  0.14692564  1
  S2-  S133  1  0.02487538  0.63045663  0.65568450  1
  S2-  S134  1  -0.02794710  0.85873029  0.14950385  1
  S2-  S135  1  -0.02059800  0.90045867  0.65330611  1
  S2-  S136  1  0.21608921  0.12806559  0.16464839  1
  S2-  S137  1  0.25575156  0.03273531  0.65461108  1
  S2-  S138  1  0.27066716  0.38223076  0.15703890  1
  S2-  S139  1  0.25708239  0.25338200  0.64040555  1
  S2-  S140  1  0.22391370  0.63351653  0.15098893  1
  S2-  S141  1  0.25325174  0.70301715  0.65759505  1
  S2-  S142  1  0.18865554  0.88418712  0.15890981  1
  S2-  S143  1  0.17342949  0.87479682  0.71229114  1
  S2-  S144  1  0.50878900  0.13214047  0.15041579  1
  S2-  S145  1  0.51624264  0.07877481  0.65120903  1
  S2-  S146  1  0.51167024  0.37432583  0.15558174  1
  S2-  S147  1  0.51106207  0.31257841  0.65230819  1
  S2-  S148  1  0.51032930  0.62055354  0.14811248  1
  S2-  S149  1  0.49143146  0.65152269  0.65948804  1
  S2-  S150  1  0.58472258  0.87729237  0.14688460  1
  S2-  S151  1  0.40944228  0.87047292  0.65007152  1
  S2-  S152  1  0.73916407  0.14107655  0.16454732  1
  S2-  S153  1  0.77327021  0.16298868  0.67151677  1
  S2-  S154  1  0.73825096  0.37056171  0.15916091  1
  S2-  S155  1  0.79951550  0.37067537  0.65717582  1
  S2-  S156  1  0.74374237  0.71740561  0.14065779  1
  S2-  S157  1  0.74270458  0.74642520  0.63802022  1
  S2-  S158  1  0.78101693  0.92775923  0.18650346  1
  S2-  S159  1  0.75160387  0.96962151  0.64020742  1
  S2-  S160  1  0.12264598  0.04024361  0.33909415  1
  S2-  S161  1  0.12065432  -0.00975636  0.84385480  1
  S2-  S162  1  0.04670303  0.26769539  0.34392917  1
  S2-  S163  1  0.18271020  0.23830186  0.85903133  1
  S2-  S164  1  0.15288786  0.47430681  0.35027012  1
  S2-  S165  1  0.11858609  0.48588643  0.84228290  1
  S2-  S166  1  0.09663198  0.73912280  0.35205024  1
  S2-  S167  1  0.13943888  0.73227169  0.83470033  1
  S2-  S168  1  0.47386997  -0.02024516  0.36287444  1
  S2-  S169  1  0.35381631  -0.01894048  0.84644524  1
  S2-  S170  1  0.25867335  0.24656407  0.36238778  1
  S2-  S171  1  0.40928535  0.18825313  0.83397232  1
  S2-  S172  1  0.38009809  0.51659873  0.34695082  1
  S2-  S173  1  0.36301643  0.39965689  0.85917638  1
  S2-  S174  1  0.38657525  0.74202039  0.34947935  1
  S2-  S175  1  0.35326104  0.76043710  0.84613946  1
  S2-  S176  1  0.70951318  0.00695380  0.34578263  1
  S2-  S177  1  0.65843794  -0.00088430  0.85016984  1
  S2-  S178  1  0.71424125  0.24669594  0.34841052  1
  S2-  S179  1  0.69702796  0.24656176  0.85610288  1
  S2-  S180  1  0.63210455  0.47550867  0.35404972  1
  S2-  S181  1  0.72474990  0.50501867  0.85871644  1
  S2-  S182  1  0.63527577  0.77233473  0.34022940  1
  S2-  S183  1  0.71855586  0.77254724  0.86156019  1
  S2-  S184  1  0.89506054  0.09442401  0.33732456  1
  S2-  S185  1  0.87053715  0.01333078  0.84367696  1
  S2-  S186  1  0.87861968  0.24854032  0.26864382  1
  S2-  S187  1  0.90547161  0.20579699  0.80837003  1
  S2-  S188  1  0.87511249  0.42181312  0.34995012  1
  S2-  S189  1  0.89675005  0.40092584  0.85353668  1
  S2-  S190  1  0.87078615  0.85878885  0.35022219  1
  S2-  S191  1  0.92772769  0.80308714  0.83580011  1
  S2-  S192  1  -0.00693358  0.12488357  0.44692457  1
  S2-  S193  1  -0.02133701  0.12935722  0.95151219  1
  S2-  S194  1  -0.00690833  0.36828357  0.45628423  1
  S2-  S195  1  -0.01915273  0.37230344  0.95709965  1
  S2-  S196  1  -0.00398839  0.62067028  0.45190935  1
  S2-  S197  1  -0.02213105  0.62470192  0.94292747  1
  S2-  S198  1  -0.00189714  0.87020895  0.45052552  1
  S2-  S199  1  -0.01600901  0.87868554  0.94974625  1
  S2-  S200  1  0.24889638  0.11712937  0.45946186  1
  S2-  S201  1  0.23707989  0.12426963  0.95921267  1
  S2-  S202  1  0.24494345  0.37040436  0.46313296  1
  S2-  S203  1  0.23032970  0.37946847  0.95654614  1
  S2-  S204  1  0.24207712  0.61952735  0.45832393  1
  S2-  S205  1  0.23390996  0.62357303  0.94695206  1
  S2-  S206  1  0.24616169  0.87008339  0.44322022  1
  S2-  S207  1  0.23479657  0.87523429  0.95500182  1
  S2-  S208  1  0.49219683  0.12516804  0.45098858  1
  S2-  S209  1  0.48348863  0.12626905  0.94978511  1
  S2-  S210  1  0.49299164  0.36735304  0.44993614  1
  S2-  S211  1  0.48682817  0.37256984  0.95505425  1
  S2-  S212  1  0.49189475  0.61939237  0.45408495  1
  S2-  S213  1  0.48143281  0.62455943  0.94797005  1
  S2-  S214  1  0.48995332  0.86220683  0.45952093  1
  S2-  S215  1  0.48247215  0.87603898  0.95440431  1
  S2-  S216  1  0.73824909  0.11431006  0.45780525  1
  S2-  S217  1  0.73406863  0.12940968  0.96007335  1
  S2-  S218  1  0.74703886  0.37087212  0.45712561  1
  S2-  S219  1  0.73285569  0.37244180  0.95578974  1
  S2-  S220  1  0.74558912  0.62127482  0.45630801  1
  S2-  S221  1  0.73199010  0.62555811  0.95613936  1
  S2-  S222  1  0.74006236  0.86603597  0.45405095  1
  S2-  S223  1  0.73013913  0.87769478  0.96655191  1
  S2-  S224  1  0.10629918  0.00019894  0.04897689  1
  S2-  S225  1  0.12183401  -0.00636450  0.54692787  1
  S2-  S226  1  0.10769604  0.25095402  0.05262054  1
  S2-  S227  1  0.11695366  0.24540349  0.54274927  1
  S2-  S228  1  0.10653226  0.50293460  0.04755576  1
  S2-  S229  1  0.11764840  0.49143591  0.55198565  1
  S2-  S230  1  0.10598435  0.74984744  0.04088959  1
  S2-  S231  1  0.12379718  0.75213106  0.55329163  1
  S2-  S232  1  0.36173259  0.00088093  0.04858675  1
  S2-  S233  1  0.36952704  -0.00643561  0.54440311  1
  S2-  S234  1  0.36061949  0.25317514  0.04864745  1
  S2-  S235  1  0.37189740  0.24578743  0.54206331  1
  S2-  S236  1  0.36054689  0.50040208  0.04419940  1
  S2-  S237  1  0.36577612  0.49219198  0.55016778  1
  S2-  S238  1  0.36137508  0.74947630  0.04837473  1
  S2-  S239  1  0.36549033  0.74704712  0.54995758  1
  S2-  S240  1  0.60856733  0.00605467  0.05081484  1
  S2-  S241  1  0.61329196  -0.01057892  0.54099993  1
  S2-  S242  1  0.60803865  0.25061177  0.04525305  1
  S2-  S243  1  0.62228804  0.24248283  0.54583508  1
  S2-  S244  1  0.60827980  0.50151611  0.04313920  1
  S2-  S245  1  0.62319149  0.49631096  0.55615859  1
  S2-  S246  1  0.60600739  0.74733336  0.04185068  1
  S2-  S247  1  0.61291251  0.74495946  0.54490117  1
  S2-  S248  1  0.85446645  -0.00072878  0.05268624  1
  S2-  S249  1  0.87292953  -0.00615380  0.53562725  1
  S2-  S250  1  0.85556800  0.25016757  0.05217172  1
  S2-  S251  1  0.86992813  0.24020391  0.55246207  1
  S2-  S252  1  0.85545699  0.50355057  0.04271367  1
  S2-  S253  1  0.86972472  0.49789722  0.54826572  1
  S2-  S254  1  0.85911013  0.75019938  0.03864927  1
  S2-  S255  1  0.87254682  0.74493744  0.53788815  1
