# generated using pymatgen
data_La6Ce7Pr13Nd19Sm19(BiS2)64
_symmetry_space_group_name_H-M   'P 1'
_cell_length_a   16.16056931
_cell_length_b   16.18793316
_cell_length_c   27.24662780
_cell_angle_alpha   89.98178512
_cell_angle_beta   89.94977896
_cell_angle_gamma   89.97654325
_symmetry_Int_Tables_number   1
_chemical_formula_structural   La6Ce7Pr13Nd19Sm19(BiS2)64
_chemical_formula_sum   'La6 Ce7 Pr13 Nd19 Sm19 Bi64 S128'
_cell_volume   7127.88349644
_cell_formula_units_Z   1
loop_
 _symmetry_equiv_pos_site_id
 _symmetry_equiv_pos_as_xyz
  1  'x, y, z'
loop_
 _atom_type_symbol
 _atom_type_oxidation_number
  La3+  3.0
  Ce3+  3.0
  Pr3+  3.0
  Nd3+  3.0
  Sm3+  3.0
  Bi2+  2.0
  S2-  -2.0
loop_
 _atom_site_type_symbol
 _atom_site_label
 _atom_site_symmetry_multiplicity
 _atom_site_fract_x
 _atom_site_fract_y
 _atom_site_fract_z
 _atom_site_occupancy
  La3+  La0  1  0.25333988  0.87341769  0.60246554  1
  La3+  La1  1  0.23835352  0.37534587  0.57556796  1
  La3+  La2  1  0.74190560  0.12719174  0.56856164  1
  La3+  La3  1  0.10953325  0.74502616  0.91168118  1
  La3+  La4  1  0.11365645  0.00769360  0.91395146  1
  La3+  La5  1  0.25288955  0.87477723  0.06122661  1
  Ce3+  Ce6  1  0.74972581  0.37429876  0.06430264  1
  Ce3+  Ce7  1  0.37048431  0.75281864  0.93428247  1
  Ce3+  Ce8  1  0.37826752  0.50158338  0.93237221  1
  Ce3+  Ce9  1  0.00433722  0.12124993  0.06894463  1
  Ce3+  Ce10  1  0.87349789  0.50134492  0.95142889  1
  Ce3+  Ce11  1  0.12312472  0.50284113  0.93764626  1
  Ce3+  Ce12  1  0.12065577  0.25408946  0.43950850  1
  Pr3+  Pr13  1  0.49702714  0.87580207  0.06512509  1
  Pr3+  Pr14  1  0.62700637  0.50136057  0.93863918  1
  Pr3+  Pr15  1  -0.01329518  0.12714031  0.56396359  1
  Pr3+  Pr16  1  0.24435039  0.62813021  0.56213313  1
  Pr3+  Pr17  1  0.74928348  0.62681964  0.06590697  1
  Pr3+  Pr18  1  0.87340701  0.24883183  0.95013548  1
  Pr3+  Pr19  1  0.24160217  0.13036626  0.56695005  1
  Pr3+  Pr20  1  0.49889198  0.12664176  0.05772908  1
  Pr3+  Pr21  1  0.12163768  0.00459944  0.43786026  1
  Pr3+  Pr22  1  0.62023619  0.75167504  0.43870378  1
  Pr3+  Pr23  1  0.86582114  0.25575352  0.42976256  1
  Pr3+  Pr24  1  0.75252233  0.12141890  0.07058147  1
  Pr3+  Pr25  1  0.49292201  0.62867164  0.55847874  1
  Nd3+  Nd26  1  0.49896494  0.37642299  0.05889149  1
  Nd3+  Nd27  1  0.62566234  0.75188685  0.94052209  1
  Nd3+  Nd28  1  0.12273684  0.75557354  0.44000988  1
  Nd3+  Nd29  1  0.37371211  0.24891722  0.93789821  1
  Nd3+  Nd30  1  -0.00176261  0.87972728  0.56018981  1
  Nd3+  Nd31  1  0.62714428  0.24755411  0.94167235  1
  Nd3+  Nd32  1  0.12298638  0.50265806  0.44109167  1
  Nd3+  Nd33  1  0.87044045  0.00523188  0.43616417  1
  Nd3+  Nd34  1  0.62519709  -0.00076152  0.94805452  1
  Nd3+  Nd35  1  0.74493383  0.37936291  0.55496144  1
  Nd3+  Nd36  1  0.49953567  0.62497751  0.05215484  1
  Nd3+  Nd37  1  -0.00724446  0.37740712  0.56031405  1
  Nd3+  Nd38  1  0.74494108  0.62900699  0.55557758  1
  Nd3+  Nd39  1  0.37023851  -0.00217684  0.93661103  1
  Nd3+  Nd40  1  0.01282070  0.87176827  0.07305295  1
  Nd3+  Nd41  1  0.37107819  0.25470854  0.43740444  1
  Nd3+  Nd42  1  0.12141765  0.25029305  0.94383554  1
  Nd3+  Nd43  1  0.00224348  0.37515719  0.06336650  1
  Nd3+  Nd44  1  -0.00251599  0.63165549  0.55664219  1
  Sm3+  Sm45  1  0.62039578  0.50485269  0.44429522  1
  Sm3+  Sm46  1  0.87778568  -0.00192478  0.94932977  1
  Sm3+  Sm47  1  0.75210644  0.87472266  0.06022286  1
  Sm3+  Sm48  1  0.62168830  0.25238076  0.44159652  1
  Sm3+  Sm49  1  0.62180158  0.00289996  0.44035165  1
  Sm3+  Sm50  1  0.36902409  0.75470553  0.44110302  1
  Sm3+  Sm51  1  0.24976925  0.62432295  0.05100946  1
  Sm3+  Sm52  1  0.25027829  0.37629967  0.04863000  1
  Sm3+  Sm53  1  0.49488250  0.37766182  0.55484132  1
  Sm3+  Sm54  1  0.87187350  0.75449001  0.44067967  1
  Sm3+  Sm55  1  0.49254923  0.87902086  0.55289808  1
  Sm3+  Sm56  1  0.74332847  0.87681712  0.55405045  1
  Sm3+  Sm57  1  0.24915097  0.12530661  0.05411421  1
  Sm3+  Sm58  1  0.87701867  0.75199058  0.95329373  1
  Sm3+  Sm59  1  0.00547561  0.62673536  0.06443103  1
  Sm3+  Sm60  1  0.36880680  0.00270828  0.43830471  1
  Sm3+  Sm61  1  0.36969327  0.50167421  0.44798806  1
  Sm3+  Sm62  1  0.49254708  0.12693984  0.55008692  1
  Sm3+  Sm63  1  0.87209704  0.50274355  0.44177027  1
  Bi2+  Bi64  1  0.01160872  0.11295869  0.29827480  1
  Bi2+  Bi65  1  -0.00958951  0.17925082  0.78437387  1
  Bi2+  Bi66  1  -0.00261374  0.35807480  0.30325502  1
  Bi2+  Bi67  1  0.04208167  0.37047590  0.78158090  1
  Bi2+  Bi68  1  0.04855947  0.60389070  0.28563695  1
  Bi2+  Bi69  1  -0.00143554  0.55873753  0.78049438  1
  Bi2+  Bi70  1  -0.00974851  0.86728701  0.30312129  1
  Bi2+  Bi71  1  -0.02760353  0.86382303  0.79164917  1
  Bi2+  Bi72  1  0.25473877  0.15070029  0.24371752  1
  Bi2+  Bi73  1  0.26843106  0.13178442  0.80593886  1
  Bi2+  Bi74  1  0.25235640  0.40132189  0.29345526  1
  Bi2+  Bi75  1  0.24245192  0.39621023  0.76805836  1
  Bi2+  Bi76  1  0.30332199  0.63436367  0.27778182  1
  Bi2+  Bi77  1  0.26127636  0.60917994  0.78808683  1
  Bi2+  Bi78  1  0.24988382  0.88344519  0.30418684  1
  Bi2+  Bi79  1  0.27594243  0.87501155  0.80346759  1
  Bi2+  Bi80  1  0.45447169  0.15396533  0.28429664  1
  Bi2+  Bi81  1  0.55344443  0.08324599  0.77803050  1
  Bi2+  Bi82  1  0.45231495  0.34998430  0.30264264  1
  Bi2+  Bi83  1  0.56679577  0.35100994  0.74850507  1
  Bi2+  Bi84  1  0.50163475  0.58979862  0.29085105  1
  Bi2+  Bi85  1  0.55261866  0.63075578  0.77873338  1
  Bi2+  Bi86  1  0.50888125  0.86346106  0.28326426  1
  Bi2+  Bi87  1  0.51835008  0.87174968  0.73169695  1
  Bi2+  Bi88  1  0.75166347  0.12222585  0.30687632  1
  Bi2+  Bi89  1  0.72914843  0.14638048  0.81868953  1
  Bi2+  Bi90  1  0.72801829  0.41505088  0.27769047  1
  Bi2+  Bi91  1  0.76047578  0.33950646  0.79661018  1
  Bi2+  Bi92  1  0.68868493  0.65280191  0.28906686  1
  Bi2+  Bi93  1  0.72861451  0.57302205  0.81801652  1
  Bi2+  Bi94  1  0.72827115  0.86325722  0.25745220  1
  Bi2+  Bi95  1  0.72396743  0.85941839  0.80168040  1
  Bi2+  Bi96  1  0.11231741  -0.00343891  0.19848765  1
  Bi2+  Bi97  1  0.11458643  0.00585703  0.71026128  1
  Bi2+  Bi98  1  0.13112563  0.30540914  0.21875432  1
  Bi2+  Bi99  1  0.14601792  0.25493871  0.70569235  1
  Bi2+  Bi100  1  0.16473702  0.51834190  0.20604264  1
  Bi2+  Bi101  1  0.15646935  0.52200098  0.69263628  1
  Bi2+  Bi102  1  0.12159562  0.73130544  0.20852597  1
  Bi2+  Bi103  1  0.10803787  0.75033075  0.70784241  1
  Bi2+  Bi104  1  0.39140212  0.00178398  0.20860964  1
  Bi2+  Bi105  1  0.39694878  0.02502865  0.70313690  1
  Bi2+  Bi106  1  0.37559605  0.28323065  0.19584048  1
  Bi2+  Bi107  1  0.42562399  0.21626455  0.73646381  1
  Bi2+  Bi108  1  0.38570421  0.49030115  0.20770148  1
  Bi2+  Bi109  1  0.39247243  0.47741272  0.71011616  1
  Bi2+  Bi110  1  0.42099716  0.74745273  0.21001055  1
  Bi2+  Bi111  1  0.38496376  0.71898880  0.71549554  1
  Bi2+  Bi112  1  0.59888463  0.00592130  0.23173545  1
  Bi2+  Bi113  1  0.66323620  -0.00359860  0.69079831  1
  Bi2+  Bi114  1  0.60427977  0.27242489  0.24747661  1
  Bi2+  Bi115  1  0.70030116  0.18436659  0.69779101  1
  Bi2+  Bi116  1  0.58313551  0.47670496  0.20554843  1
  Bi2+  Bi117  1  0.65789497  0.51167277  0.70783786  1
  Bi2+  Bi118  1  0.61465731  0.74622416  0.19240616  1
  Bi2+  Bi119  1  0.66866866  0.76032146  0.69773427  1
  Bi2+  Bi120  1  0.86605126  0.01369873  0.20170135  1
  Bi2+  Bi121  1  0.84829907  0.00888926  0.77505003  1
  Bi2+  Bi122  1  0.86894369  0.25969470  0.19905649  1
  Bi2+  Bi123  1  0.87876193  0.26983344  0.70509129  1
  Bi2+  Bi124  1  0.89633493  0.50088703  0.24575636  1
  Bi2+  Bi125  1  0.85201794  0.48141890  0.71862716  1
  Bi2+  Bi126  1  0.86734439  0.69379980  0.23772327  1
  Bi2+  Bi127  1  0.84436241  0.71529325  0.77162627  1
  S2-  S128  1  -0.00342402  0.12363796  0.16865640  1
  S2-  S129  1  0.06766000  0.12713575  0.65384986  1
  S2-  S130  1  -0.00077183  0.36220819  0.16216939  1
  S2-  S131  1  0.09249283  0.38749718  0.64176086  1
  S2-  S132  1  -0.00724558  0.67687282  0.15799460  1
  S2-  S133  1  0.02459249  0.62554093  0.65423630  1
  S2-  S134  1  -0.02829192  0.90461749  0.17181688  1
  S2-  S135  1  0.02796993  0.87862225  0.65829666  1
  S2-  S136  1  0.24332388  0.08818637  0.14984628  1
  S2-  S137  1  0.25146077  0.03067358  0.64929762  1
  S2-  S138  1  0.24761648  0.37125975  0.14570406  1
  S2-  S139  1  0.27132485  0.25066640  0.64194371  1
  S2-  S140  1  0.23596628  0.64041595  0.14877450  1
  S2-  S141  1  0.24918594  0.70873936  0.65021253  1
  S2-  S142  1  0.15769755  0.86838654  0.14602175  1
  S2-  S143  1  0.22509840  0.87014131  0.70899002  1
  S2-  S144  1  0.50919496  0.07933999  0.15428797  1
  S2-  S145  1  0.48753650  0.13210363  0.64769338  1
  S2-  S146  1  0.53290537  0.32849760  0.15246556  1
  S2-  S147  1  0.48842438  0.37999061  0.65280793  1
  S2-  S148  1  0.49292154  0.60179604  0.15004581  1
  S2-  S149  1  0.46257151  0.61618153  0.65752075  1
  S2-  S150  1  0.37972319  0.87363343  0.13981250  1
  S2-  S151  1  0.42296506  0.87253618  0.64241022  1
  S2-  S152  1  0.75962038  0.14705278  0.17053135  1
  S2-  S153  1  0.85653269  0.13320517  0.64241775  1
  S2-  S154  1  0.77050473  0.36895980  0.16129894  1
  S2-  S155  1  0.76636922  0.38435684  0.65275874  1
  S2-  S156  1  0.74491589  0.64161676  0.16527145  1
  S2-  S157  1  0.75534627  0.62926919  0.65383295  1
  S2-  S158  1  0.75608019  0.90787677  0.15579243  1
  S2-  S159  1  0.77018636  0.87938978  0.65059157  1
  S2-  S160  1  0.11556509  0.00029199  0.33530879  1
  S2-  S161  1  0.16003382  -0.00975928  0.81434731  1
  S2-  S162  1  0.09985798  0.22708890  0.34299315  1
  S2-  S163  1  0.12011358  0.17331173  0.85606505  1
  S2-  S164  1  0.11311691  0.47431765  0.34393108  1
  S2-  S165  1  0.11712117  0.59169208  0.85435387  1
  S2-  S166  1  0.11497049  0.78421673  0.34122344  1
  S2-  S167  1  0.12766524  0.78822682  0.81223045  1
  S2-  S168  1  0.35133588  -0.01159300  0.34064458  1
  S2-  S169  1  0.37717583  0.00435914  0.83779961  1
  S2-  S170  1  0.32845599  0.24153354  0.34188522  1
  S2-  S171  1  0.36841177  0.24625309  0.83871384  1
  S2-  S172  1  0.34765756  0.51247035  0.35198045  1
  S2-  S173  1  0.34522108  0.49083770  0.83673354  1
  S2-  S174  1  0.34047346  0.76417758  0.34453805  1
  S2-  S175  1  0.36087052  0.73010698  0.83675718  1
  S2-  S176  1  0.63702751  0.02994200  0.34443531  1
  S2-  S177  1  0.63386620  -0.00653528  0.84982898  1
  S2-  S178  1  0.68583571  0.25276757  0.35157460  1
  S2-  S179  1  0.61415480  0.27874224  0.84443006  1
  S2-  S180  1  0.62943381  0.50801523  0.34713938  1
  S2-  S181  1  0.56549665  0.50672476  0.84514312  1
  S2-  S182  1  0.63479088  0.79331522  0.34245664  1
  S2-  S183  1  0.59938871  0.76323633  0.84320494  1
  S2-  S184  1  0.88401546  -0.00149331  0.33620568  1
  S2-  S185  1  0.95500157  -0.00192947  0.86202619  1
  S2-  S186  1  0.88982497  0.22560903  0.33058538  1
  S2-  S187  1  0.88619556  0.25757431  0.85062833  1
  S2-  S188  1  0.86466641  0.45137792  0.34910691  1
  S2-  S189  1  0.87846469  0.50519221  0.85488327  1
  S2-  S190  1  0.89019974  0.75931071  0.34316766  1
  S2-  S191  1  0.93962180  0.74854197  0.86257935  1
  S2-  S192  1  -0.00791091  0.12888766  0.45289969  1
  S2-  S193  1  -0.00226573  0.12596206  0.96221133  1
  S2-  S194  1  -0.00564785  0.37961534  0.45377564  1
  S2-  S195  1  -0.00053975  0.37598451  0.95604971  1
  S2-  S196  1  -0.00490142  0.62877760  0.44904647  1
  S2-  S197  1  -0.00279518  0.62438167  0.96103343  1
  S2-  S198  1  -0.00566463  0.87793597  0.45231709  1
  S2-  S199  1  0.00093386  0.87431301  0.96235612  1
  S2-  S200  1  0.24847651  0.12842646  0.45249986  1
  S2-  S201  1  0.24857475  0.12411283  0.95082173  1
  S2-  S202  1  0.24664101  0.37838055  0.45802669  1
  S2-  S203  1  0.24806725  0.37419358  0.94381649  1
  S2-  S204  1  0.24723961  0.62884820  0.45369716  1
  S2-  S205  1  0.24984762  0.62558854  0.94801047  1
  S2-  S206  1  0.24752497  0.87880032  0.44888527  1
  S2-  S207  1  0.24085587  0.87530835  0.94460832  1
  S2-  S208  1  0.49733767  0.12789887  0.44492516  1
  S2-  S209  1  0.49933851  0.12388537  0.94946705  1
  S2-  S210  1  0.49856852  0.37960032  0.44933013  1
  S2-  S211  1  0.50048093  0.37243707  0.95192429  1
  S2-  S212  1  0.49314263  0.62740901  0.45070844  1
  S2-  S213  1  0.49964326  0.62880759  0.94720967  1
  S2-  S214  1  0.49462444  0.87955270  0.44750074  1
  S2-  S215  1  0.49901712  0.87583257  0.95505991  1
  S2-  S216  1  0.74385095  0.12715305  0.45764761  1
  S2-  S217  1  0.75158648  0.12046683  0.96187045  1
  S2-  S218  1  0.74278275  0.38223350  0.45084357  1
  S2-  S219  1  0.74825530  0.37474660  0.95646944  1
  S2-  S220  1  0.74880631  0.62728678  0.44883766  1
  S2-  S221  1  0.75097529  0.63010335  0.95827892  1
  S2-  S222  1  0.74651044  0.87812964  0.44865802  1
  S2-  S223  1  0.75306266  0.87529824  0.95509227  1
  S2-  S224  1  0.12688382  0.00272331  0.04335407  1
  S2-  S225  1  0.11949077  0.00286017  0.54462512  1
  S2-  S226  1  0.12739594  0.25073929  0.05041223  1
  S2-  S227  1  0.11317113  0.25140851  0.54315156  1
  S2-  S228  1  0.12554050  0.50014668  0.04608876  1
  S2-  S229  1  0.11876175  0.50609249  0.54431802  1
  S2-  S230  1  0.12623036  0.74460148  0.04204412  1
  S2-  S231  1  0.12267749  0.75687242  0.54614574  1
  S2-  S232  1  0.37461106  0.00482870  0.04206423  1
  S2-  S233  1  0.37189268  0.00349988  0.54231587  1
  S2-  S234  1  0.37258451  0.25110269  0.04485208  1
  S2-  S235  1  0.37664754  0.25502349  0.54161001  1
  S2-  S236  1  0.37406222  0.49936343  0.04176351  1
  S2-  S237  1  0.36818392  0.49953092  0.55203212  1
  S2-  S238  1  0.37519461  0.74531636  0.04085085  1
  S2-  S239  1  0.36924580  0.75474664  0.54407028  1
  S2-  S240  1  0.62622644  -0.00299720  0.05341583  1
  S2-  S241  1  0.61720158  0.00067663  0.54545014  1
  S2-  S242  1  0.62769638  0.24738756  0.04843600  1
  S2-  S243  1  0.61792868  0.25420593  0.54698457  1
  S2-  S244  1  0.62483490  0.50006437  0.04761656  1
  S2-  S245  1  0.61900321  0.50313296  0.54931270  1
  S2-  S246  1  0.62452430  0.75320815  0.04799279  1
  S2-  S247  1  0.61812181  0.75444057  0.54607016  1
  S2-  S248  1  0.87855523  -0.00413539  0.05325302  1
  S2-  S249  1  0.86669969  -0.00296697  0.54308581  1
  S2-  S250  1  0.87749633  0.24906842  0.05604665  1
  S2-  S251  1  0.86758984  0.25749440  0.53921919  1
  S2-  S252  1  0.87824126  0.50314636  0.05900409  1
  S2-  S253  1  0.87146182  0.50552781  0.54736436  1
  S2-  S254  1  0.87649397  0.75222635  0.05695595  1
  S2-  S255  1  0.86967194  0.75445553  0.54612142  1
