# generated using pymatgen
data_La6Ce7Pr13Nd19Sm19(BiS2)64
_symmetry_space_group_name_H-M   'P 1'
_cell_length_a   16.13161855
_cell_length_b   16.09427898
_cell_length_c   27.21641762
_cell_angle_alpha   89.90330723
_cell_angle_beta   90.09399781
_cell_angle_gamma   90.07039678
_symmetry_Int_Tables_number   1
_chemical_formula_structural   La6Ce7Pr13Nd19Sm19(BiS2)64
_chemical_formula_sum   'La6 Ce7 Pr13 Nd19 Sm19 Bi64 S128'
_cell_volume   7066.08570116
_cell_formula_units_Z   1
loop_
 _symmetry_equiv_pos_site_id
 _symmetry_equiv_pos_as_xyz
  1  'x, y, z'
loop_
 _atom_type_symbol
 _atom_type_oxidation_number
  La3+  3.0
  Ce3+  3.0
  Pr3+  3.0
  Nd3+  3.0
  Sm3+  3.0
  Bi2+  2.0
  S2-  -2.0
loop_
 _atom_site_type_symbol
 _atom_site_label
 _atom_site_symmetry_multiplicity
 _atom_site_fract_x
 _atom_site_fract_y
 _atom_site_fract_z
 _atom_site_occupancy
  La3+  La0  1  0.85372770  0.01162813  0.42389426  1
  La3+  La1  1  0.36267923  0.01274997  0.42533649  1
  La3+  La2  1  0.85462953  0.76139215  0.41277543  1
  La3+  La3  1  0.01698551  0.61159972  0.10939873  1
  La3+  La4  1  0.74534434  0.13826732  0.58692956  1
  La3+  La5  1  0.62309206  -0.01833488  0.90979650  1
  Ce3+  Ce6  1  0.10737113  0.75634676  0.44208172  1
  Ce3+  Ce7  1  0.24873375  0.86741804  0.05966856  1
  Ce3+  Ce8  1  0.75181414  0.36953177  0.05637654  1
  Ce3+  Ce9  1  0.36019676  0.51082079  0.44153361  1
  Ce3+  Ce10  1  0.38116533  0.49266979  0.93383372  1
  Ce3+  Ce11  1  0.48315965  0.88604831  0.55703845  1
  Ce3+  Ce12  1  -0.00088712  0.37187800  0.05605172  1
  Pr3+  Pr13  1  0.23320689  0.13101576  0.57151767  1
  Pr3+  Pr14  1  -0.01835326  0.62398792  0.57950460  1
  Pr3+  Pr15  1  0.73838519  0.88464670  0.56629114  1
  Pr3+  Pr16  1  0.10452451  0.51371783  0.43007602  1
  Pr3+  Pr17  1  0.50190588  0.61093728  0.08066262  1
  Pr3+  Pr18  1  0.87290004  0.49754283  0.93652380  1
  Pr3+  Pr19  1  0.12320374  0.49439452  0.93433723  1
  Pr3+  Pr20  1  0.25157490  0.61469446  0.05689443  1
  Pr3+  Pr21  1  -0.01514063  0.38241161  0.55411494  1
  Pr3+  Pr22  1  0.72934768  0.63374050  0.56979660  1
  Pr3+  Pr23  1  0.50378120  0.11389073  0.06381162  1
  Pr3+  Pr24  1  0.88098427  -0.01056571  0.92907420  1
  Pr3+  Pr25  1  0.60727921  0.50989847  0.43930205  1
  Nd3+  Nd26  1  0.75115828  0.11236446  0.04735048  1
  Nd3+  Nd27  1  0.60918751  0.25344394  0.44794499  1
  Nd3+  Nd28  1  0.37474166  0.00014896  0.93204079  1
  Nd3+  Nd29  1  0.75424278  0.61195992  0.07746863  1
  Nd3+  Nd30  1  -0.01852408  0.88021417  0.55735643  1
  Nd3+  Nd31  1  0.87304280  0.74229669  0.94519296  1
  Nd3+  Nd32  1  0.75234121  0.87103098  0.06485586  1
  Nd3+  Nd33  1  0.50040384  0.87040172  0.06498612  1
  Nd3+  Nd34  1  0.47945057  0.12562846  0.57764120  1
  Nd3+  Nd35  1  0.48292261  0.38012143  0.55881120  1
  Nd3+  Nd36  1  0.85501201  0.25586159  0.43315714  1
  Nd3+  Nd37  1  0.62458393  0.49585242  0.94533399  1
  Nd3+  Nd38  1  0.12510209  0.74093477  0.94424520  1
  Nd3+  Nd39  1  0.37955027  0.24875287  0.93255249  1
  Nd3+  Nd40  1  0.12630702  -0.00889723  0.93196949  1
  Nd3+  Nd41  1  0.48497433  0.63397811  0.56897111  1
  Nd3+  Nd42  1  0.85634324  0.51146992  0.44252258  1
  Nd3+  Nd43  1  0.00106415  0.11616534  0.05636149  1
  Nd3+  Nd44  1  0.11079098  0.25591861  0.44058209  1
  Sm3+  Sm45  1  0.23411515  0.63245737  0.55558422  1
  Sm3+  Sm46  1  0.25014795  0.36732837  0.05290829  1
  Sm3+  Sm47  1  0.87322818  0.24182744  0.93920727  1
  Sm3+  Sm48  1  0.73223871  0.38037495  0.55899731  1
  Sm3+  Sm49  1  0.36006651  0.75822870  0.44297014  1
  Sm3+  Sm50  1  0.23462438  0.88141287  0.55445705  1
  Sm3+  Sm51  1  0.10857699  0.00640330  0.44669307  1
  Sm3+  Sm52  1  -0.01428463  0.13170782  0.55578686  1
  Sm3+  Sm53  1  0.00031431  0.86460360  0.06078957  1
  Sm3+  Sm54  1  0.61056290  0.00979270  0.44406001  1
  Sm3+  Sm55  1  0.62443472  0.74397949  0.95058624  1
  Sm3+  Sm56  1  0.24946543  0.11699574  0.05248159  1
  Sm3+  Sm57  1  0.23410568  0.38582268  0.55081312  1
  Sm3+  Sm58  1  0.37750442  0.74302301  0.94892380  1
  Sm3+  Sm59  1  0.62490126  0.23961792  0.93742232  1
  Sm3+  Sm60  1  0.12322154  0.24435919  0.94256237  1
  Sm3+  Sm61  1  0.35963541  0.25420076  0.44377539  1
  Sm3+  Sm62  1  0.49833342  0.36441639  0.06585743  1
  Sm3+  Sm63  1  0.61208542  0.75901947  0.44345179  1
  Bi2+  Bi64  1  0.00536507  0.12439388  0.28886705  1
  Bi2+  Bi65  1  0.01735297  0.10947909  0.78737097  1
  Bi2+  Bi66  1  0.00253904  0.33378990  0.26681157  1
  Bi2+  Bi67  1  0.07773946  0.36609298  0.77534431  1
  Bi2+  Bi68  1  0.03250458  0.59903705  0.29992534  1
  Bi2+  Bi69  1  -0.01211826  0.64147689  0.81176384  1
  Bi2+  Bi70  1  0.02408846  0.93170570  0.27725700  1
  Bi2+  Bi71  1  0.08486011  0.88071095  0.77754077  1
  Bi2+  Bi72  1  0.22964395  0.17337207  0.28485898  1
  Bi2+  Bi73  1  0.22453159  0.12406199  0.79234050  1
  Bi2+  Bi74  1  0.29755821  0.35460185  0.25876374  1
  Bi2+  Bi75  1  0.27469399  0.41045135  0.79193772  1
  Bi2+  Bi76  1  0.28147888  0.61228175  0.30829427  1
  Bi2+  Bi77  1  0.28288931  0.61412641  0.79477496  1
  Bi2+  Bi78  1  0.30717461  0.91184811  0.30385660  1
  Bi2+  Bi79  1  0.25223568  0.93462313  0.82244871  1
  Bi2+  Bi80  1  0.48466329  0.13346378  0.29748596  1
  Bi2+  Bi81  1  0.49457387  0.11741578  0.79524258  1
  Bi2+  Bi82  1  0.48691323  0.32182826  0.26784608  1
  Bi2+  Bi83  1  0.47173864  0.36958609  0.76303992  1
  Bi2+  Bi84  1  0.53247215  0.59310211  0.29448519  1
  Bi2+  Bi85  1  0.47731962  0.59630195  0.81579913  1
  Bi2+  Bi86  1  0.49635513  0.86225462  0.29238822  1
  Bi2+  Bi87  1  0.43169122  0.85669891  0.77874525  1
  Bi2+  Bi88  1  0.74527847  0.13179927  0.28999075  1
  Bi2+  Bi89  1  0.75122691  0.14951444  0.79692773  1
  Bi2+  Bi90  1  0.73873496  0.35139165  0.29475608  1
  Bi2+  Bi91  1  0.76693860  0.39765941  0.72883645  1
  Bi2+  Bi92  1  0.77543098  0.60546290  0.30471633  1
  Bi2+  Bi93  1  0.74574245  0.63460533  0.80240409  1
  Bi2+  Bi94  1  0.73943728  0.88380880  0.29434204  1
  Bi2+  Bi95  1  0.73921557  0.87015851  0.79722767  1
  Bi2+  Bi96  1  0.18925362  -0.02373210  0.22085165  1
  Bi2+  Bi97  1  0.13523844  0.03398071  0.69646250  1
  Bi2+  Bi98  1  0.10047576  0.20877523  0.19696371  1
  Bi2+  Bi99  1  0.10412983  0.22525239  0.68714043  1
  Bi2+  Bi100  1  0.15449813  0.44985066  0.20726376  1
  Bi2+  Bi101  1  0.15627509  0.50051333  0.69977816  1
  Bi2+  Bi102  1  0.20242030  0.71869661  0.22216608  1
  Bi2+  Bi103  1  0.22070836  0.76422986  0.72678487  1
  Bi2+  Bi104  1  0.39841570  -0.04144847  0.20491243  1
  Bi2+  Bi105  1  0.33985365  -0.00593734  0.71152016  1
  Bi2+  Bi106  1  0.37149160  0.18590066  0.20138137  1
  Bi2+  Bi107  1  0.29951263  0.25923967  0.71510272  1
  Bi2+  Bi108  1  0.39247783  0.57915400  0.21245020  1
  Bi2+  Bi109  1  0.39843653  0.53587804  0.70854634  1
  Bi2+  Bi110  1  0.42818988  0.76287068  0.18331305  1
  Bi2+  Bi111  1  0.40667436  0.72959585  0.68755462  1
  Bi2+  Bi112  1  0.61250033  0.07624370  0.21517223  1
  Bi2+  Bi113  1  0.61289959  -0.02269036  0.69888592  1
  Bi2+  Bi114  1  0.63917518  0.28156533  0.19738041  1
  Bi2+  Bi115  1  0.62280344  0.26507174  0.71156936  1
  Bi2+  Bi116  1  0.61684129  0.48895559  0.20672897  1
  Bi2+  Bi117  1  0.60328161  0.50433605  0.71088772  1
  Bi2+  Bi118  1  0.60882409  0.74338290  0.22929816  1
  Bi2+  Bi119  1  0.57828970  0.71791095  0.74254555  1
  Bi2+  Bi120  1  0.86321153  -0.00534257  0.19130666  1
  Bi2+  Bi121  1  0.88498611  0.00882964  0.70830107  1
  Bi2+  Bi122  1  0.84001738  0.26644878  0.20905159  1
  Bi2+  Bi123  1  0.92106729  0.26423108  0.74000580  1
  Bi2+  Bi124  1  0.87121196  0.46491168  0.21509422  1
  Bi2+  Bi125  1  0.91558956  0.53059564  0.71506326  1
  Bi2+  Bi126  1  0.88382828  0.76166206  0.21311861  1
  Bi2+  Bi127  1  0.87693856  0.76635085  0.69816522  1
  S2-  S128  1  -0.01814212  0.10780345  0.15464113  1
  S2-  S129  1  -0.08887222  0.12653218  0.64247887  1
  S2-  S130  1  0.00755192  0.44540970  0.14544459  1
  S2-  S131  1  0.00419750  0.46651120  0.64116673  1
  S2-  S132  1  0.04075993  0.68128470  0.20789272  1
  S2-  S133  1  0.00449655  0.67289539  0.67871203  1
  S2-  S134  1  -0.02281128  0.87723204  0.15793893  1
  S2-  S135  1  -0.02476269  0.89266813  0.65702514  1
  S2-  S136  1  0.23041447  0.10609254  0.14973360  1
  S2-  S137  1  0.34649824  0.13554431  0.64744944  1
  S2-  S138  1  0.25794266  0.36296895  0.15144426  1
  S2-  S139  1  0.25260952  0.39120319  0.64790617  1
  S2-  S140  1  0.18955405  0.59335134  0.14992144  1
  S2-  S141  1  0.21417303  0.63109839  0.65291088  1
  S2-  S142  1  0.20681554  0.84458519  0.15332831  1
  S2-  S143  1  0.22832392  0.89327316  0.65268349  1
  S2-  S144  1  0.49096213  0.24020575  0.13631695  1
  S2-  S145  1  0.55163443  0.13493337  0.67061264  1
  S2-  S146  1  0.47865547  0.47180128  0.14534032  1
  S2-  S147  1  0.51076793  0.37060780  0.65674414  1
  S2-  S148  1  0.63175081  0.63283763  0.15105893  1
  S2-  S149  1  0.60018513  0.63468388  0.64467967  1
  S2-  S150  1  0.52891781  0.98805215  0.13794453  1
  S2-  S151  1  0.46878793  0.93570371  0.64876729  1
  S2-  S152  1  0.74589303  0.07752544  0.14484165  1
  S2-  S153  1  0.73978494  0.07791800  0.68541699  1
  S2-  S154  1  0.75548627  0.45357446  0.14274872  1
  S2-  S155  1  0.75641909  0.29518226  0.64251608  1
  S2-  S156  1  0.86192873  0.63308395  0.15716163  1
  S2-  S157  1  0.81221370  0.62969628  0.65993940  1
  S2-  S158  1  0.75993256  0.85800292  0.16590223  1
  S2-  S159  1  0.73233501  0.86009773  0.66737592  1
  S2-  S160  1  0.10892847  0.01208412  0.34885467  1
  S2-  S161  1  0.01631778  -0.02136630  0.85520438  1
  S2-  S162  1  0.10151010  0.25795992  0.34201478  1
  S2-  S163  1  0.11368310  0.23360957  0.84528187  1
  S2-  S164  1  0.16146651  0.49847821  0.33485346  1
  S2-  S165  1  0.07539612  0.51163873  0.83753710  1
  S2-  S166  1  0.11572573  0.72042857  0.34671266  1
  S2-  S167  1  0.10371228  0.74006975  0.84465864  1
  S2-  S168  1  0.50243852  0.00314529  0.36189361  1
  S2-  S169  1  0.47292721  -0.02722944  0.85224569  1
  S2-  S170  1  0.34714250  0.15863230  0.36266310  1
  S2-  S171  1  0.37133078  0.14541020  0.85321118  1
  S2-  S172  1  0.40976651  0.50953997  0.34904005  1
  S2-  S173  1  0.40448139  0.37692492  0.86087945  1
  S2-  S174  1  0.37265097  0.75990226  0.34465172  1
  S2-  S175  1  0.37646598  0.73620581  0.85067882  1
  S2-  S176  1  0.70727192  0.00252502  0.35857489  1
  S2-  S177  1  0.63608285  0.01581610  0.80089543  1
  S2-  S178  1  0.64329241  0.24057366  0.35046997  1
  S2-  S179  1  0.61028570  0.23028841  0.83895355  1
  S2-  S180  1  0.65981082  0.49318882  0.34451318  1
  S2-  S181  1  0.63151289  0.53599470  0.84789803  1
  S2-  S182  1  0.69900696  0.74829228  0.35723240  1
  S2-  S183  1  0.63015929  0.81556633  0.86059565  1
  S2-  S184  1  0.88297918  -0.09897276  0.34335481  1
  S2-  S185  1  0.81673757  0.00302444  0.83499353  1
  S2-  S186  1  0.87404149  0.14881447  0.35494879  1
  S2-  S187  1  0.85906405  0.25125119  0.84170345  1
  S2-  S188  1  0.89995266  0.50743148  0.34606419  1
  S2-  S189  1  0.85336516  0.52506770  0.83637282  1
  S2-  S190  1  0.90124482  0.70539426  0.31689028  1
  S2-  S191  1  0.85855377  0.75934216  0.84362506  1
  S2-  S192  1  -0.01176850  0.13202205  0.45337521  1
  S2-  S193  1  -0.00005479  0.12187362  0.95039770  1
  S2-  S194  1  -0.01668543  0.38120874  0.44728475  1
  S2-  S195  1  -0.00338487  0.36683597  0.94750017  1
  S2-  S196  1  -0.02098559  0.63598607  0.45591726  1
  S2-  S197  1  -0.00100295  0.61953667  0.94929044  1
  S2-  S198  1  -0.01501121  0.88184676  0.45168640  1
  S2-  S199  1  0.00202048  0.86340215  0.95589768  1
  S2-  S200  1  0.23036675  0.13167259  0.46194457  1
  S2-  S201  1  0.24397544  0.12003396  0.94942897  1
  S2-  S202  1  0.23650053  0.38132177  0.44567653  1
  S2-  S203  1  0.24699697  0.36790293  0.94808629  1
  S2-  S204  1  0.23624127  0.63423342  0.45123283  1
  S2-  S205  1  0.25251153  0.61695641  0.94942444  1
  S2-  S206  1  0.23522217  0.88276745  0.44937939  1
  S2-  S207  1  0.25156024  0.86620909  0.95367878  1
  S2-  S208  1  0.48463626  0.13425383  0.46592652  1
  S2-  S209  1  0.50461878  0.11781280  0.95507591  1
  S2-  S210  1  0.48335561  0.37922407  0.45169641  1
  S2-  S211  1  0.50815188  0.36583561  0.96092715  1
  S2-  S212  1  0.48597785  0.63751408  0.45880228  1
  S2-  S213  1  0.50088910  0.62028975  0.96297764  1
  S2-  S214  1  0.48565678  0.87824762  0.45352382  1
  S2-  S215  1  0.49636567  0.86557013  0.95956741  1
  S2-  S216  1  0.73370130  0.13461821  0.46295607  1
  S2-  S217  1  0.74929663  0.11653995  0.94229470  1
  S2-  S218  1  0.73406809  0.38144943  0.45467058  1
  S2-  S219  1  0.74832765  0.36684818  0.94760131  1
  S2-  S220  1  0.73386892  0.63389205  0.46058153  1
  S2-  S221  1  0.74704889  0.62076805  0.96160765  1
  S2-  S222  1  0.73383692  0.88056411  0.45934186  1
  S2-  S223  1  0.75238357  0.86871110  0.95649712  1
  S2-  S224  1  0.12388279  -0.00827104  0.04223426  1
  S2-  S225  1  0.10847411  0.00587508  0.55100576  1
  S2-  S226  1  0.12530961  0.24382671  0.04752247  1
  S2-  S227  1  0.11140185  0.25866468  0.54679516  1
  S2-  S228  1  0.12587752  0.49127649  0.04110851  1
  S2-  S229  1  0.11215384  0.51013670  0.53792149  1
  S2-  S230  1  0.11928142  0.73663244  0.05089991  1
  S2-  S231  1  0.10977149  0.75539912  0.55014433  1
  S2-  S232  1  0.37136653  -0.00629959  0.04277598  1
  S2-  S233  1  0.35473203  0.00572688  0.54032852  1
  S2-  S234  1  0.36897517  0.24142991  0.03870330  1
  S2-  S235  1  0.35582893  0.25994459  0.54705920  1
  S2-  S236  1  0.37377775  0.48848164  0.04123669  1
  S2-  S237  1  0.36063867  0.50970614  0.54887505  1
  S2-  S238  1  0.37650855  0.74088677  0.05314175  1
  S2-  S239  1  0.35825978  0.75721509  0.54816679  1
  S2-  S240  1  0.62925195  -0.01074797  0.03305874  1
  S2-  S241  1  0.61307002  0.01100636  0.55190388  1
  S2-  S242  1  0.63111037  0.24095114  0.04261277  1
  S2-  S243  1  0.60718383  0.25517744  0.55271528  1
  S2-  S244  1  0.62277654  0.48845454  0.04844364  1
  S2-  S245  1  0.60829940  0.50258926  0.54662861  1
  S2-  S246  1  0.62544719  0.74754615  0.05323677  1
  S2-  S247  1  0.60775917  0.76270420  0.54755336  1
  S2-  S248  1  0.88000123  -0.00965444  0.03955970  1
  S2-  S249  1  0.86201065  0.00837159  0.54214157  1
  S2-  S250  1  0.87539954  0.24168387  0.04552379  1
  S2-  S251  1  0.86375528  0.25791606  0.53870408  1
  S2-  S252  1  0.87845233  0.49549424  0.04262829  1
  S2-  S253  1  0.85405542  0.50371749  0.54911598  1
  S2-  S254  1  0.87618313  0.74497454  0.05075500  1
  S2-  S255  1  0.86123632  0.75390733  0.55328700  1
