# generated using pymatgen
data_La6Ce7Pr13Nd19Sm19(BiS2)64
_symmetry_space_group_name_H-M   'P 1'
_cell_length_a   16.10394954
_cell_length_b   16.08403832
_cell_length_c   27.20538933
_cell_angle_alpha   89.78866879
_cell_angle_beta   90.06500319
_cell_angle_gamma   89.96720785
_symmetry_Int_Tables_number   1
_chemical_formula_structural   La6Ce7Pr13Nd19Sm19(BiS2)64
_chemical_formula_sum   'La6 Ce7 Pr13 Nd19 Sm19 Bi64 S128'
_cell_volume   7046.59221474
_cell_formula_units_Z   1
loop_
 _symmetry_equiv_pos_site_id
 _symmetry_equiv_pos_as_xyz
  1  'x, y, z'
loop_
 _atom_type_symbol
 _atom_type_oxidation_number
  La3+  3.0
  Ce3+  3.0
  Pr3+  3.0
  Nd3+  3.0
  Sm3+  3.0
  Bi2+  2.0
  S2-  -2.0
loop_
 _atom_site_type_symbol
 _atom_site_label
 _atom_site_symmetry_multiplicity
 _atom_site_fract_x
 _atom_site_fract_y
 _atom_site_fract_z
 _atom_site_occupancy
  La3+  La0  1  0.64062788  0.76767228  0.42539041  1
  La3+  La1  1  0.49641720  0.37128864  0.06949769  1
  La3+  La2  1  0.87723679  0.73437257  0.91495324  1
  La3+  La3  1  0.62022486  0.73991780  0.89790191  1
  La3+  La4  1  0.75447940  0.63675461  0.07129462  1
  La3+  La5  1  0.74776144  0.39906887  0.12121398  1
  Ce3+  Ce6  1  0.62171410  0.25294923  0.93984849  1
  Ce3+  Ce7  1  0.24802258  0.36157745  0.07742240  1
  Ce3+  Ce8  1  0.38336572  0.00775586  0.45444775  1
  Ce3+  Ce9  1  0.76479244  0.12768936  0.55439932  1
  Ce3+  Ce10  1  0.63906302  0.00425364  0.43951945  1
  Ce3+  Ce11  1  0.37722424  0.74706479  0.93926648  1
  Ce3+  Ce12  1  0.37016632  0.25149135  0.93767381  1
  Pr3+  Pr13  1  0.24890813  0.87163725  0.05236005  1
  Pr3+  Pr14  1  0.00000964  0.62742578  0.06896343  1
  Pr3+  Pr15  1  -0.00464348  0.87416643  0.05217860  1
  Pr3+  Pr16  1  0.86940951  0.00072557  0.92515499  1
  Pr3+  Pr17  1  0.37408071  -0.00065066  0.92847149  1
  Pr3+  Pr18  1  0.12773877  0.25108130  0.93213581  1
  Pr3+  Pr19  1  0.24915867  0.11342681  0.06457045  1
  Pr3+  Pr20  1  0.27212049  0.13871207  0.58661603  1
  Pr3+  Pr21  1  0.89981666  0.76676133  0.42648701  1
  Pr3+  Pr22  1  0.51613165  0.12956911  0.56426512  1
  Pr3+  Pr23  1  0.62188251  0.00767182  0.92961475  1
  Pr3+  Pr24  1  0.76832686  0.87224622  0.56907713  1
  Pr3+  Pr25  1  0.26331543  0.87191373  0.57707259  1
  Nd3+  Nd26  1  0.87761528  0.24974658  0.92576594  1
  Nd3+  Nd27  1  0.51860469  0.87918461  0.56928228  1
  Nd3+  Nd28  1  0.89995324  0.00921385  0.43542397  1
  Nd3+  Nd29  1  0.76214149  0.38331601  0.55696713  1
  Nd3+  Nd30  1  0.37461871  0.49863970  0.94598673  1
  Nd3+  Nd31  1  0.74919738  0.12898518  0.06022558  1
  Nd3+  Nd32  1  -0.00556342  0.36957594  0.06221757  1
  Nd3+  Nd33  1  0.26383283  0.38712701  0.56763404  1
  Nd3+  Nd34  1  0.12444357  0.74529103  0.93210725  1
  Nd3+  Nd35  1  0.01256071  0.37874136  0.57005828  1
  Nd3+  Nd36  1  0.88804873  0.51022564  0.43442165  1
  Nd3+  Nd37  1  0.01427368  0.13260813  0.57284304  1
  Nd3+  Nd38  1  0.01284454  0.62891158  0.56200857  1
  Nd3+  Nd39  1  -0.00411381  0.12369638  0.05306478  1
  Nd3+  Nd40  1  0.26109923  0.62864440  0.55844313  1
  Nd3+  Nd41  1  0.12246765  -0.00168349  0.92866267  1
  Nd3+  Nd42  1  0.50617994  0.62494626  0.06293191  1
  Nd3+  Nd43  1  0.49979931  0.11994971  0.05859302  1
  Nd3+  Nd44  1  0.13528692  0.50371709  0.42786596  1
  Sm3+  Sm45  1  0.38889705  0.25873446  0.44574282  1
  Sm3+  Sm46  1  0.01020323  0.88172055  0.57645828  1
  Sm3+  Sm47  1  0.38477009  0.75889825  0.44457230  1
  Sm3+  Sm48  1  0.87106783  0.49848567  0.95120120  1
  Sm3+  Sm49  1  0.50351464  0.87090608  0.04867926  1
  Sm3+  Sm50  1  0.62675579  0.50097674  0.94472516  1
  Sm3+  Sm51  1  0.64166768  0.51832843  0.41469892  1
  Sm3+  Sm52  1  0.13781317  0.75954513  0.44715604  1
  Sm3+  Sm53  1  0.38821169  0.50909232  0.44032115  1
  Sm3+  Sm54  1  0.76427450  0.63273879  0.55037797  1
  Sm3+  Sm55  1  0.14058869  0.01029925  0.45226063  1
  Sm3+  Sm56  1  0.51739175  0.63148930  0.55315625  1
  Sm3+  Sm57  1  0.24968964  0.62261691  0.05834435  1
  Sm3+  Sm58  1  0.13914101  0.25884204  0.45181444  1
  Sm3+  Sm59  1  0.12449488  0.49595886  0.95080533  1
  Sm3+  Sm60  1  0.63665289  0.25859468  0.44268976  1
  Sm3+  Sm61  1  0.51634414  0.38542104  0.55311146  1
  Sm3+  Sm62  1  0.74856718  0.86970215  0.04187425  1
  Sm3+  Sm63  1  0.88975093  0.25839946  0.44323840  1
  Bi2+  Bi64  1  0.09307304  0.13222621  0.28687964  1
  Bi2+  Bi65  1  -0.01988995  0.10705454  0.80223233  1
  Bi2+  Bi66  1  -0.00274300  0.35770515  0.29179463  1
  Bi2+  Bi67  1  -0.02079570  0.37749831  0.78683979  1
  Bi2+  Bi68  1  0.00699295  0.63761606  0.29774587  1
  Bi2+  Bi69  1  0.01378536  0.58078301  0.79308764  1
  Bi2+  Bi70  1  0.00393143  0.90434759  0.29917537  1
  Bi2+  Bi71  1  0.04202289  0.84692987  0.78167216  1
  Bi2+  Bi72  1  0.28602096  0.10067377  0.29282110  1
  Bi2+  Bi73  1  0.20535110  0.18690289  0.77972569  1
  Bi2+  Bi74  1  0.19355191  0.40694683  0.30443413  1
  Bi2+  Bi75  1  0.25258459  0.44572792  0.78306098  1
  Bi2+  Bi76  1  0.20131596  0.60583867  0.29424538  1
  Bi2+  Bi77  1  0.21835896  0.63966745  0.81959217  1
  Bi2+  Bi78  1  0.26300561  0.86262267  0.30798779  1
  Bi2+  Bi79  1  0.24277800  0.82661329  0.79248415  1
  Bi2+  Bi80  1  0.53943115  0.05542964  0.25621579  1
  Bi2+  Bi81  1  0.43288825  0.19983150  0.80375446  1
  Bi2+  Bi82  1  0.48340193  0.32419682  0.30643624  1
  Bi2+  Bi83  1  0.56134366  0.34285863  0.81996125  1
  Bi2+  Bi84  1  0.47013022  0.61387943  0.30518671  1
  Bi2+  Bi85  1  0.51100246  0.52812870  0.78301642  1
  Bi2+  Bi86  1  0.45741613  0.87163167  0.24577037  1
  Bi2+  Bi87  1  0.49834926  0.88917465  0.79720322  1
  Bi2+  Bi88  1  0.81252741  0.09876460  0.28139560  1
  Bi2+  Bi89  1  0.74824598  0.15592397  0.75833392  1
  Bi2+  Bi90  1  0.75494090  0.33786994  0.31216351  1
  Bi2+  Bi91  1  0.76657885  0.34470846  0.80249145  1
  Bi2+  Bi92  1  0.74583247  0.61035295  0.28244677  1
  Bi2+  Bi93  1  0.76311962  0.53851016  0.78402023  1
  Bi2+  Bi94  1  0.73822190  0.89348900  0.28339646  1
  Bi2+  Bi95  1  0.76320440  0.89439748  0.78768404  1
  Bi2+  Bi96  1  0.16630905  -0.02315408  0.23066471  1
  Bi2+  Bi97  1  0.13475573  -0.03814568  0.71328360  1
  Bi2+  Bi98  1  0.11442292  0.29619365  0.20287767  1
  Bi2+  Bi99  1  0.14102934  0.32652410  0.71047982  1
  Bi2+  Bi100  1  0.15950981  0.49282972  0.18944215  1
  Bi2+  Bi101  1  0.12019011  0.50042428  0.65516057  1
  Bi2+  Bi102  1  0.10636055  0.75959412  0.22313004  1
  Bi2+  Bi103  1  0.14361212  0.71221011  0.71306623  1
  Bi2+  Bi104  1  0.37674629  0.02451113  0.19362785  1
  Bi2+  Bi105  1  0.36248384  0.04446954  0.72122627  1
  Bi2+  Bi106  1  0.31744278  0.27780293  0.22707009  1
  Bi2+  Bi107  1  0.38895499  0.35325435  0.72074970  1
  Bi2+  Bi108  1  0.34364496  0.47919651  0.23146478  1
  Bi2+  Bi109  1  0.30974050  0.54432290  0.68266162  1
  Bi2+  Bi110  1  0.30636694  0.74264476  0.22192298  1
  Bi2+  Bi111  1  0.38332217  0.67461265  0.76176782  1
  Bi2+  Bi112  1  0.70186438  0.01044798  0.19337847  1
  Bi2+  Bi113  1  0.57761444  0.01213277  0.70361499  1
  Bi2+  Bi114  1  0.62664403  0.21442450  0.21218148  1
  Bi2+  Bi115  1  0.63114027  0.30117289  0.71274939  1
  Bi2+  Bi116  1  0.58674330  0.48793269  0.21949972  1
  Bi2+  Bi117  1  0.63941689  0.51000139  0.69636969  1
  Bi2+  Bi118  1  0.60583923  0.72417179  0.18804435  1
  Bi2+  Bi119  1  0.62057681  0.76150504  0.69145853  1
  Bi2+  Bi120  1  0.89966668  -0.01876156  0.20265873  1
  Bi2+  Bi121  1  0.85892911  0.00583363  0.69739982  1
  Bi2+  Bi122  1  0.90103364  0.21515940  0.20565882  1
  Bi2+  Bi123  1  0.87908177  0.27583566  0.70607306  1
  Bi2+  Bi124  1  0.96998347  0.50919548  0.21245022  1
  Bi2+  Bi125  1  0.93385239  0.50130026  0.69937276  1
  Bi2+  Bi126  1  0.86172272  0.76973257  0.20437532  1
  Bi2+  Bi127  1  0.87702099  0.73613949  0.71277685  1
  S2-  S128  1  -0.00506700  0.10424434  0.15315999  1
  S2-  S129  1  0.00912883  0.01946602  0.64934376  1
  S2-  S130  1  -0.08349828  0.37035558  0.15216670  1
  S2-  S131  1  0.01261862  0.25628880  0.64581565  1
  S2-  S132  1  -0.10385678  0.63497711  0.15035792  1
  S2-  S133  1  0.00456394  0.71679357  0.64905884  1
  S2-  S134  1  -0.00147200  0.83020722  0.15015567  1
  S2-  S135  1  -0.11259215  0.87040784  0.64745665  1
  S2-  S136  1  0.23150813  0.21641242  0.14593235  1
  S2-  S137  1  0.21289734  0.10562190  0.68270871  1
  S2-  S138  1  0.37039872  0.38058720  0.14750449  1
  S2-  S139  1  0.28347726  0.28890937  0.64961654  1
  S2-  S140  1  0.20431668  0.67319883  0.14789523  1
  S2-  S141  1  0.27044940  0.71415746  0.64459219  1
  S2-  S142  1  0.24213142  0.97387131  0.13363218  1
  S2-  S143  1  0.28282132  0.91819848  0.67452456  1
  S2-  S144  1  0.49470468  0.14863263  0.15735136  1
  S2-  S145  1  0.46682844  0.13316018  0.66121932  1
  S2-  S146  1  0.58492561  0.35914986  0.15773046  1
  S2-  S147  1  0.51619694  0.39431395  0.65140444  1
  S2-  S148  1  0.48782386  0.61618271  0.16401280  1
  S2-  S149  1  0.53495082  0.63927090  0.65108987  1
  S2-  S150  1  0.51323168  0.84539225  0.14658461  1
  S2-  S151  1  0.49062320  0.87258818  0.66916501  1
  S2-  S152  1  0.75641724  0.22069536  0.14607586  1
  S2-  S153  1  0.77196278  0.13893553  0.65160795  1
  S2-  S154  1  0.74435925  0.41049879  0.23000037  1
  S2-  S155  1  0.75534469  0.39074013  0.65635813  1
  S2-  S156  1  0.69489764  0.56891333  0.16015325  1
  S2-  S157  1  0.76219616  0.69880461  0.64252007  1
  S2-  S158  1  0.74368197  0.79392825  0.13325190  1
  S2-  S159  1  0.68761699  0.92042170  0.65919766  1
  S2-  S160  1  0.04708719  0.02637974  0.36825697  1
  S2-  S161  1  0.14039248  0.05712319  0.83485698  1
  S2-  S162  1  0.12344738  0.26443252  0.35342286  1
  S2-  S163  1  0.01410926  0.25213640  0.85286832  1
  S2-  S164  1  0.00591181  0.48937490  0.35992129  1
  S2-  S165  1  0.11823055  0.47495041  0.85341455  1
  S2-  S166  1  0.05212245  0.77621768  0.36301289  1
  S2-  S167  1  0.02166116  0.72628166  0.85336031  1
  S2-  S168  1  0.35361303  -0.02066600  0.35931110  1
  S2-  S169  1  0.39044513  0.02811515  0.82821878  1
  S2-  S170  1  0.37868461  0.22770950  0.34943385  1
  S2-  S171  1  0.26122475  0.25937084  0.86004482  1
  S2-  S172  1  0.36848745  0.48541381  0.34396266  1
  S2-  S173  1  0.38659766  0.47360150  0.84729474  1
  S2-  S174  1  0.39171041  0.73552766  0.34699904  1
  S2-  S175  1  0.45243552  0.74294524  0.85123359  1
  S2-  S176  1  0.62874809  -0.09333055  0.35833896  1
  S2-  S177  1  0.62781286  -0.02613980  0.83014019  1
  S2-  S178  1  0.61551404  0.24017384  0.34573730  1
  S2-  S179  1  0.58832394  0.17435329  0.85415603  1
  S2-  S180  1  0.57330929  0.46832376  0.32676745  1
  S2-  S181  1  0.63397648  0.57931965  0.85468990  1
  S2-  S182  1  0.62596894  0.66579795  0.34135324  1
  S2-  S183  1  0.62665410  0.78258525  0.79337630  1
  S2-  S184  1  0.86612472  -0.09742838  0.35695119  1
  S2-  S185  1  0.91996152  -0.05025849  0.83024646  1
  S2-  S186  1  0.88475627  0.22820423  0.34600936  1
  S2-  S187  1  0.84118542  0.13165544  0.85171563  1
  S2-  S188  1  0.78061974  0.49069915  0.35397029  1
  S2-  S189  1  0.87754013  0.55969746  0.85850406  1
  S2-  S190  1  0.84953149  0.69297531  0.33340825  1
  S2-  S191  1  0.81651231  0.75205190  0.81657009  1
  S2-  S192  1  0.01586652  0.13892790  0.46564797  1
  S2-  S193  1  -0.00074627  0.12030081  0.94819874  1
  S2-  S194  1  0.01250410  0.37845716  0.46225777  1
  S2-  S195  1  -0.00279152  0.37694794  0.95590607  1
  S2-  S196  1  0.01724214  0.63082052  0.45548519  1
  S2-  S197  1  0.00334770  0.61700486  0.96181601  1
  S2-  S198  1  0.02051811  0.88741492  0.46919219  1
  S2-  S199  1  -0.00081437  0.87438104  0.94561587  1
  S2-  S200  1  0.26291873  0.13688598  0.46341561  1
  S2-  S201  1  0.24822035  0.11858830  0.95471665  1
  S2-  S202  1  0.26502933  0.38309634  0.45677498  1
  S2-  S203  1  0.24957421  0.37680524  0.96526940  1
  S2-  S204  1  0.26021409  0.63159046  0.45049271  1
  S2-  S205  1  0.24871949  0.62249458  0.95423403  1
  S2-  S206  1  0.25984362  0.88026386  0.46549217  1
  S2-  S207  1  0.24890817  0.87241206  0.94347630  1
  S2-  S208  1  0.51284599  0.13241433  0.45590893  1
  S2-  S209  1  0.49244965  0.12438041  0.95392007  1
  S2-  S210  1  0.51312569  0.38520424  0.44886845  1
  S2-  S211  1  0.49831236  0.37586206  0.95789955  1
  S2-  S212  1  0.51052911  0.63341599  0.44860637  1
  S2-  S213  1  0.50013038  0.62219326  0.95542133  1
  S2-  S214  1  0.50590139  0.88163979  0.46057475  1
  S2-  S215  1  0.50250444  0.87494979  0.94431899  1
  S2-  S216  1  0.76316112  0.13305843  0.44762453  1
  S2-  S217  1  0.74586971  0.12686556  0.95509801  1
  S2-  S218  1  0.76127759  0.37882778  0.45223517  1
  S2-  S219  1  0.74960352  0.37625425  0.94145616  1
  S2-  S220  1  0.76380995  0.63709183  0.44858422  1
  S2-  S221  1  0.74854432  0.62461409  0.95638080  1
  S2-  S222  1  0.76617339  0.88622843  0.46062595  1
  S2-  S223  1  0.74461615  0.87036374  0.93733619  1
  S2-  S224  1  0.12025249  -0.00288645  0.03576612  1
  S2-  S225  1  0.14674570  0.00786373  0.55581492  1
  S2-  S226  1  0.11997540  0.24646709  0.04139780  1
  S2-  S227  1  0.14387404  0.25729309  0.55368704  1
  S2-  S228  1  0.12385003  0.49783007  0.05516714  1
  S2-  S229  1  0.13765340  0.50407482  0.53596413  1
  S2-  S230  1  0.12382197  0.74864387  0.03890115  1
  S2-  S231  1  0.13452275  0.75624825  0.54946946  1
  S2-  S232  1  0.37926264  -0.00743480  0.03661663  1
  S2-  S233  1  0.38765267  0.00384593  0.55976337  1
  S2-  S234  1  0.37276565  0.24096083  0.04488533  1
  S2-  S235  1  0.39470453  0.26104128  0.54910295  1
  S2-  S236  1  0.37358290  0.50598349  0.05112304  1
  S2-  S237  1  0.39126059  0.50849125  0.54551722  1
  S2-  S238  1  0.37532184  0.74738819  0.04733054  1
  S2-  S239  1  0.39266481  0.75381706  0.54830983  1
  S2-  S240  1  0.62634723  -0.00388796  0.04094345  1
  S2-  S241  1  0.63855504  0.00422093  0.54547228  1
  S2-  S242  1  0.62020173  0.24512587  0.04469820  1
  S2-  S243  1  0.63768478  0.25839984  0.54846460  1
  S2-  S244  1  0.62743173  0.49672760  0.04938670  1
  S2-  S245  1  0.63975071  0.50922090  0.53723377  1
  S2-  S246  1  0.62225208  0.74978878  0.03516990  1
  S2-  S247  1  0.63702921  0.75504266  0.53839300  1
  S2-  S248  1  0.86867569  -0.00254188  0.03948407  1
  S2-  S249  1  0.88899046  0.00655320  0.54348679  1
  S2-  S250  1  0.87631746  0.24596268  0.03643896  1
  S2-  S251  1  0.88541996  0.25718111  0.54711899  1
  S2-  S252  1  0.86995075  0.49679474  0.05340278  1
  S2-  S253  1  0.88738641  0.50618359  0.54495639  1
  S2-  S254  1  0.87719735  0.75076471  0.03135022  1
  S2-  S255  1  0.89276143  0.75221251  0.53769840  1
