# generated using pymatgen
data_La6Ce7Pr13Nd19Sm19(BiS2)64
_symmetry_space_group_name_H-M   'P 1'
_cell_length_a   16.08332166
_cell_length_b   16.06976228
_cell_length_c   27.32636938
_cell_angle_alpha   90.18848360
_cell_angle_beta   89.97676191
_cell_angle_gamma   90.03048874
_symmetry_Int_Tables_number   1
_chemical_formula_structural   La6Ce7Pr13Nd19Sm19(BiS2)64
_chemical_formula_sum   'La6 Ce7 Pr13 Nd19 Sm19 Bi64 S128'
_cell_volume   7062.60125866
_cell_formula_units_Z   1
loop_
 _symmetry_equiv_pos_site_id
 _symmetry_equiv_pos_as_xyz
  1  'x, y, z'
loop_
 _atom_type_symbol
 _atom_type_oxidation_number
  La3+  3.0
  Ce3+  3.0
  Pr3+  3.0
  Nd3+  3.0
  Sm3+  3.0
  Bi2+  2.0
  S2-  -2.0
loop_
 _atom_site_type_symbol
 _atom_site_label
 _atom_site_symmetry_multiplicity
 _atom_site_fract_x
 _atom_site_fract_y
 _atom_site_fract_z
 _atom_site_occupancy
  La3+  La0  1  0.38443088  0.00513971  0.42102562  1
  La3+  La1  1  0.87519592  0.24469327  0.92675611  1
  La3+  La2  1  0.11496921  0.74946798  0.88559250  1
  La3+  La3  1  0.50114313  0.11356183  0.60255007  1
  La3+  La4  1  0.12533499  0.25051218  0.43424584  1
  La3+  La5  1  0.63957569  0.75022352  0.39115289  1
  Ce3+  Ce6  1  0.00503390  0.87405824  0.55877866  1
  Ce3+  Ce7  1  0.87281397  0.74226930  0.94161597  1
  Ce3+  Ce8  1  0.37311870  0.74938923  0.93917206  1
  Ce3+  Ce9  1  0.88159213  0.24705169  0.42980356  1
  Ce3+  Ce10  1  0.00236015  0.12414828  0.56720021  1
  Ce3+  Ce11  1  0.87475494  0.74726962  0.44292249  1
  Ce3+  Ce12  1  0.25983542  0.12498374  0.55385835  1
  Pr3+  Pr13  1  0.37520451  0.73932261  0.41596002  1
  Pr3+  Pr14  1  0.74877236  0.86582575  0.06927126  1
  Pr3+  Pr15  1  0.26511555  0.62845805  0.57312313  1
  Pr3+  Pr16  1  0.37389472  0.24469357  0.93927155  1
  Pr3+  Pr17  1  0.24504692  0.62276325  0.05472235  1
  Pr3+  Pr18  1  0.12853778  -0.00312783  0.43856389  1
  Pr3+  Pr19  1  0.13060190  0.49380939  0.91477974  1
  Pr3+  Pr20  1  0.62411279  -0.00668460  0.94624405  1
  Pr3+  Pr21  1  0.25704730  0.37374046  0.56511086  1
  Pr3+  Pr22  1  0.74961055  0.61368051  0.07150341  1
  Pr3+  Pr23  1  0.63237159  0.00630618  0.43163660  1
  Pr3+  Pr24  1  0.38078836  0.49950684  0.43986489  1
  Pr3+  Pr25  1  0.49339096  0.61580238  0.06844382  1
  Nd3+  Nd26  1  0.12956633  0.74807371  0.44314680  1
  Nd3+  Nd27  1  0.24578713  0.87602137  0.07594964  1
  Nd3+  Nd28  1  0.37605359  0.25049743  0.42941430  1
  Nd3+  Nd29  1  0.23941023  0.12988234  0.07746172  1
  Nd3+  Nd30  1  0.75440962  0.37377873  0.55273973  1
  Nd3+  Nd31  1  0.12598056  -0.00856394  0.94260672  1
  Nd3+  Nd32  1  0.37246428  -0.00643496  0.94994528  1
  Nd3+  Nd33  1  0.00292873  0.62407249  0.56654450  1
  Nd3+  Nd34  1  0.87660173  0.50194878  0.44143451  1
  Nd3+  Nd35  1  0.75013914  0.12200479  0.06134539  1
  Nd3+  Nd36  1  0.00638758  0.37634128  0.56154750  1
  Nd3+  Nd37  1  0.37355383  0.49705440  0.93520109  1
  Nd3+  Nd38  1  0.62519476  0.24592269  0.94087260  1
  Nd3+  Nd39  1  0.75674174  0.12912701  0.56868259  1
  Nd3+  Nd40  1  0.50603168  0.62655293  0.55595683  1
  Nd3+  Nd41  1  0.87364117  0.50129109  0.93174683  1
  Nd3+  Nd42  1  0.26191947  0.87717755  0.55136841  1
  Nd3+  Nd43  1  0.49234100  0.86509627  0.07980658  1
  Nd3+  Nd44  1  0.87385013  -0.00785262  0.94754563  1
  Sm3+  Sm45  1  0.87584816  -0.00204274  0.44693339  1
  Sm3+  Sm46  1  0.61922015  0.74433540  0.94705295  1
  Sm3+  Sm47  1  0.23674140  0.37137943  0.06770621  1
  Sm3+  Sm48  1  0.61936014  0.49958350  0.93551790  1
  Sm3+  Sm49  1  0.12718750  0.24630421  0.93225653  1
  Sm3+  Sm50  1  0.74984190  0.37368295  0.05253691  1
  Sm3+  Sm51  1  0.50756871  0.87845795  0.54192592  1
  Sm3+  Sm52  1  0.49777437  0.12200146  0.06309021  1
  Sm3+  Sm53  1  0.62894307  0.24513517  0.43684477  1
  Sm3+  Sm54  1  0.00480996  0.86927474  0.06353924  1
  Sm3+  Sm55  1  0.75006085  0.87688711  0.55847619  1
  Sm3+  Sm56  1  0.50589342  0.36674862  0.55876068  1
  Sm3+  Sm57  1  0.00119543  0.37334902  0.05276438  1
  Sm3+  Sm58  1  0.13041383  0.50325823  0.44489356  1
  Sm3+  Sm59  1  0.00268207  0.62266561  0.04864923  1
  Sm3+  Sm60  1  0.49491021  0.36879226  0.05691881  1
  Sm3+  Sm61  1  -0.00097019  0.12439537  0.05637988  1
  Sm3+  Sm62  1  0.75001381  0.62563114  0.56052298  1
  Sm3+  Sm63  1  0.62871732  0.50064620  0.43563476  1
  Bi2+  Bi64  1  -0.01120794  0.14577363  0.26940610  1
  Bi2+  Bi65  1  0.03091829  0.15553115  0.81425856  1
  Bi2+  Bi66  1  -0.07040888  0.37219692  0.30492866  1
  Bi2+  Bi67  1  0.00535679  0.34284778  0.77425158  1
  Bi2+  Bi68  1  0.00976754  0.63904023  0.28267541  1
  Bi2+  Bi69  1  -0.08698521  0.60672115  0.79910903  1
  Bi2+  Bi70  1  0.01186884  0.83884593  0.29157161  1
  Bi2+  Bi71  1  -0.09969120  0.89830714  0.79122522  1
  Bi2+  Bi72  1  0.25929989  0.12394516  0.29866180  1
  Bi2+  Bi73  1  0.21836165  0.14945303  0.77573595  1
  Bi2+  Bi74  1  0.33346327  0.37679105  0.30351227  1
  Bi2+  Bi75  1  0.25606115  0.36627973  0.78713398  1
  Bi2+  Bi76  1  0.22392596  0.56943549  0.29307707  1
  Bi2+  Bi77  1  0.23561801  0.62632299  0.78146256  1
  Bi2+  Bi78  1  0.21998345  0.86127599  0.30193879  1
  Bi2+  Bi79  1  0.24987363  0.88396866  0.79354988  1
  Bi2+  Bi80  1  0.53328237  0.16207803  0.28074072  1
  Bi2+  Bi81  1  0.46589177  0.10984963  0.81896458  1
  Bi2+  Bi82  1  0.52357130  0.35227061  0.33796219  1
  Bi2+  Bi83  1  0.49527287  0.37759488  0.78825730  1
  Bi2+  Bi84  1  0.48481264  0.52426566  0.28344533  1
  Bi2+  Bi85  1  0.48241731  0.64041364  0.79351544  1
  Bi2+  Bi86  1  0.50188912  0.89636638  0.29649174  1
  Bi2+  Bi87  1  0.51441683  0.86632081  0.79192021  1
  Bi2+  Bi88  1  0.79007246  0.17421390  0.30529678  1
  Bi2+  Bi89  1  0.71199639  0.12427305  0.81014214  1
  Bi2+  Bi90  1  0.71812497  0.36398999  0.31117730  1
  Bi2+  Bi91  1  0.68741490  0.46934676  0.78801251  1
  Bi2+  Bi92  1  0.77488668  0.61462597  0.28742759  1
  Bi2+  Bi93  1  0.73387416  0.62993326  0.85342748  1
  Bi2+  Bi94  1  0.80442623  0.90220929  0.29424031  1
  Bi2+  Bi95  1  0.72514701  0.80462041  0.79697172  1
  Bi2+  Bi96  1  0.12213082  0.00729498  0.20876676  1
  Bi2+  Bi97  1  0.08991160  0.02731462  0.72571041  1
  Bi2+  Bi98  1  0.13270784  0.27081231  0.20737653  1
  Bi2+  Bi99  1  0.08678693  0.21467504  0.69668867  1
  Bi2+  Bi100  1  0.08983755  0.44875744  0.24155739  1
  Bi2+  Bi101  1  0.08639463  0.52063843  0.70189482  1
  Bi2+  Bi102  1  0.12829879  0.71668874  0.19931545  1
  Bi2+  Bi103  1  0.12395816  0.78386976  0.67889461  1
  Bi2+  Bi104  1  0.40297391  -0.00064340  0.20516640  1
  Bi2+  Bi105  1  0.37126021  -0.00818278  0.70239623  1
  Bi2+  Bi106  1  0.40356913  0.27250854  0.21181571  1
  Bi2+  Bi107  1  0.35107505  0.33604384  0.69144049  1
  Bi2+  Bi108  1  0.35329702  0.47080708  0.20435327  1
  Bi2+  Bi109  1  0.43365442  0.50975917  0.70759795  1
  Bi2+  Bi110  1  0.38323470  0.72530531  0.21352235  1
  Bi2+  Bi111  1  0.40927494  0.76419574  0.71389883  1
  Bi2+  Bi112  1  0.66532862  0.03610367  0.20966691  1
  Bi2+  Bi113  1  0.62829981  -0.01781969  0.70331992  1
  Bi2+  Bi114  1  0.67510666  0.25249351  0.21317722  1
  Bi2+  Bi115  1  0.62802100  0.32193050  0.71242947  1
  Bi2+  Bi116  1  0.63244693  0.45338532  0.21704199  1
  Bi2+  Bi117  1  0.62717585  0.53411205  0.68036882  1
  Bi2+  Bi118  1  0.64663917  0.78449726  0.20421873  1
  Bi2+  Bi119  1  0.60372996  0.72743754  0.71618699  1
  Bi2+  Bi120  1  0.93269668  -0.02678222  0.21755888  1
  Bi2+  Bi121  1  0.87098205  0.01390825  0.70542267  1
  Bi2+  Bi122  1  0.88648274  0.26874643  0.20286765  1
  Bi2+  Bi123  1  0.87418302  0.20720725  0.74450797  1
  Bi2+  Bi124  1  0.84533408  0.46431713  0.21680333  1
  Bi2+  Bi125  1  0.82216627  0.46601065  0.70530922  1
  Bi2+  Bi126  1  0.91986875  0.74488783  0.20101154  1
  Bi2+  Bi127  1  0.86672123  0.74031214  0.72129734  1
  S2-  S128  1  0.08185511  0.13645480  0.14150519  1
  S2-  S129  1  -0.11331580  0.14170887  0.64103640  1
  S2-  S130  1  0.09611889  0.38830917  0.13611739  1
  S2-  S131  1  -0.02577039  0.43631415  0.65347916  1
  S2-  S132  1  0.00613459  0.62313544  0.14733468  1
  S2-  S133  1  -0.00207075  0.66212933  0.66401873  1
  S2-  S134  1  0.11160213  0.86795351  0.14425679  1
  S2-  S135  1  0.01215841  0.91784545  0.65376155  1
  S2-  S136  1  0.26571712  0.02672288  0.15730400  1
  S2-  S137  1  0.33062202  0.11563405  0.64180121  1
  S2-  S138  1  0.26698450  0.26372782  0.14441722  1
  S2-  S139  1  0.20146989  0.40824246  0.65949468  1
  S2-  S140  1  0.26331459  0.63934825  0.15633168  1
  S2-  S141  1  0.20682595  0.63177602  0.67021346  1
  S2-  S142  1  0.36117833  0.85051948  0.15419848  1
  S2-  S143  1  0.26414026  0.87082750  0.65145537  1
  S2-  S144  1  0.48122422  0.13605368  0.16026668  1
  S2-  S145  1  0.48968039  0.10049413  0.72376398  1
  S2-  S146  1  0.49496435  0.39969447  0.15365592  1
  S2-  S147  1  0.50533229  0.28065851  0.64339226  1
  S2-  S148  1  0.51374717  0.69231287  0.15857157  1
  S2-  S149  1  0.40786756  0.64840925  0.63777084  1
  S2-  S150  1  0.55157244  0.92615411  0.17069862  1
  S2-  S151  1  0.49848974  0.93958957  0.63556162  1
  S2-  S152  1  0.78124973  0.13840834  0.15789181  1
  S2-  S153  1  0.65756488  0.11302064  0.65003568  1
  S2-  S154  1  0.74253698  0.47151371  0.13355991  1
  S2-  S155  1  0.76219436  0.33585873  0.65003502  1
  S2-  S156  1  0.76070929  0.70065520  0.15866643  1
  S2-  S157  1  0.78488983  0.62149450  0.65687712  1
  S2-  S158  1  0.75322099  0.91475464  0.16708374  1
  S2-  S159  1  0.75214024  0.90197406  0.65656422  1
  S2-  S160  1  0.13831321  0.02136682  0.33916928  1
  S2-  S161  1  0.12439006  -0.07921476  0.85225343  1
  S2-  S162  1  0.23403979  0.25522137  0.35382375  1
  S2-  S163  1  0.12513205  0.34813798  0.85257542  1
  S2-  S164  1  0.13227266  0.46827606  0.34841122  1
  S2-  S165  1  0.10085467  0.59362600  0.83036730  1
  S2-  S166  1  0.17644792  0.71430005  0.35082373  1
  S2-  S167  1  0.12794713  0.76619300  0.77288751  1
  S2-  S168  1  0.34196642  -0.02743194  0.31996361  1
  S2-  S169  1  0.36624053  -0.02072841  0.84995736  1
  S2-  S170  1  0.40636472  0.14437319  0.34970351  1
  S2-  S171  1  0.33789887  0.22785880  0.84085255  1
  S2-  S172  1  0.37549968  0.58988010  0.35414114  1
  S2-  S173  1  0.27941307  0.49562617  0.84787373  1
  S2-  S174  1  0.36634288  0.78300175  0.31447558  1
  S2-  S175  1  0.28543209  0.74829936  0.85198446  1
  S2-  S176  1  0.64949694  -0.08389992  0.34341636  1
  S2-  S177  1  0.59986731  0.00176832  0.84664074  1
  S2-  S178  1  0.64707632  0.13605109  0.35709393  1
  S2-  S179  1  0.58139710  0.23242891  0.84498228  1
  S2-  S180  1  0.65752746  0.58097930  0.35051181  1
  S2-  S181  1  0.50091526  0.50035303  0.86114959  1
  S2-  S182  1  0.57000517  0.74914062  0.29383366  1
  S2-  S183  1  0.50770468  0.76063522  0.87049013  1
  S2-  S184  1  0.86672713  0.02706987  0.35061990  1
  S2-  S185  1  0.84069467  0.03069083  0.85303539  1
  S2-  S186  1  1.00370410  0.24046014  0.35774760  1
  S2-  S187  1  0.79613294  0.25469042  0.83711228  1
  S2-  S188  1  0.90004939  0.54582361  0.34611390  1
  S2-  S189  1  0.91479743  0.45327317  0.83816226  1
  S2-  S190  1  0.80570634  0.75261594  0.35184299  1
  S2-  S191  1  0.94515208  0.76136157  0.85310704  1
  S2-  S192  1  0.00228755  0.11775955  0.45941495  1
  S2-  S193  1  -0.00038999  0.12019631  0.95227816  1
  S2-  S194  1  0.00344696  0.38208593  0.45571421  1
  S2-  S195  1  -0.00247760  0.37001809  0.95013706  1
  S2-  S196  1  0.00437092  0.62468022  0.45773004  1
  S2-  S197  1  0.00252382  0.62094361  0.94517801  1
  S2-  S198  1  0.00131534  0.87242556  0.45079233  1
  S2-  S199  1  -0.00200210  0.87075699  0.95974554  1
  S2-  S200  1  0.25281421  0.12251755  0.45051453  1
  S2-  S201  1  0.24602555  0.12142673  0.95283645  1
  S2-  S202  1  0.25226780  0.37972273  0.45749420  1
  S2-  S203  1  0.24935795  0.36775051  0.95806163  1
  S2-  S204  1  0.25405864  0.62362354  0.46193515  1
  S2-  S205  1  0.24814567  0.62068047  0.94990333  1
  S2-  S206  1  0.25742169  0.87239442  0.44437835  1
  S2-  S207  1  0.24950984  0.87314519  0.96452166  1
  S2-  S208  1  0.50598758  0.12847189  0.45148667  1
  S2-  S209  1  0.50039656  0.12058449  0.95840983  1
  S2-  S210  1  0.50706547  0.37366748  0.45455633  1
  S2-  S211  1  0.50005874  0.36892700  0.95437005  1
  S2-  S212  1  0.51079713  0.62779738  0.45033035  1
  S2-  S213  1  0.49820208  0.61955942  0.96295900  1
  S2-  S214  1  0.50559564  0.86762989  0.43729877  1
  S2-  S215  1  0.49950537  0.87338733  0.97056889  1
  S2-  S216  1  0.76060289  0.12714906  0.46035925  1
  S2-  S217  1  0.74900116  0.12237072  0.95668986  1
  S2-  S218  1  0.75342804  0.37512759  0.44686458  1
  S2-  S219  1  0.74647515  0.37556254  0.94842371  1
  S2-  S220  1  0.74977923  0.62572933  0.45735125  1
  S2-  S221  1  0.74481355  0.61888911  0.96536232  1
  S2-  S222  1  0.75166908  0.87266782  0.45468658  1
  S2-  S223  1  0.74752514  0.86696879  0.95878721  1
  S2-  S224  1  0.12125151  0.00070214  0.04622826  1
  S2-  S225  1  0.13143282  -0.00002386  0.54658968  1
  S2-  S226  1  0.12065551  0.24747932  0.03560232  1
  S2-  S227  1  0.12882065  0.25034553  0.54696016  1
  S2-  S228  1  0.12234072  0.49705869  0.03532894  1
  S2-  S229  1  0.13128667  0.50510712  0.54950396  1
  S2-  S230  1  0.12248088  0.74591137  0.04743193  1
  S2-  S231  1  0.13324555  0.74942230  0.54932916  1
  S2-  S232  1  0.37443000  0.00245938  0.05412222  1
  S2-  S233  1  0.38293751  0.00014713  0.53240124  1
  S2-  S234  1  0.37443971  0.24447022  0.04552020  1
  S2-  S235  1  0.37890991  0.25233953  0.53810451  1
  S2-  S236  1  0.36862296  0.48884852  0.04717139  1
  S2-  S237  1  0.38446582  0.49554989  0.54715890  1
  S2-  S238  1  0.37349570  0.74378588  0.04686192  1
  S2-  S239  1  0.38405473  0.75438809  0.53267706  1
  S2-  S240  1  0.62429317  -0.00166498  0.05356959  1
  S2-  S241  1  0.63119522  0.00019840  0.53915569  1
  S2-  S242  1  0.62491790  0.24886505  0.05032513  1
  S2-  S243  1  0.63252276  0.25017597  0.54070469  1
  S2-  S244  1  0.61777614  0.49207886  0.04037004  1
  S2-  S245  1  0.62789723  0.49792610  0.54201253  1
  S2-  S246  1  0.62234202  0.74324694  0.05122141  1
  S2-  S247  1  0.62795071  0.75210431  0.55873272  1
  S2-  S248  1  0.87758206  -0.00419024  0.05448538  1
  S2-  S249  1  0.87824671  -0.00405811  0.54931443  1
  S2-  S250  1  0.87506775  0.24946629  0.04080028  1
  S2-  S251  1  0.88375627  0.25504113  0.53792585  1
  S2-  S252  1  0.87909073  0.49504483  0.03988710  1
  S2-  S253  1  0.87639851  0.50343036  0.54708231  1
  S2-  S254  1  0.87804830  0.74661662  0.04854783  1
  S2-  S255  1  0.87548560  0.75014399  0.55052065  1
