# generated using pymatgen
data_La6Ce7Pr13Nd19Sm19(BiS2)64
_symmetry_space_group_name_H-M   'P 1'
_cell_length_a   16.09821229
_cell_length_b   16.09601523
_cell_length_c   27.28605790
_cell_angle_alpha   89.90194540
_cell_angle_beta   89.96519535
_cell_angle_gamma   90.11821259
_symmetry_Int_Tables_number   1
_chemical_formula_structural   La6Ce7Pr13Nd19Sm19(BiS2)64
_chemical_formula_sum   'La6 Ce7 Pr13 Nd19 Sm19 Bi64 S128'
_cell_volume   7070.25665478
_cell_formula_units_Z   1
loop_
 _symmetry_equiv_pos_site_id
 _symmetry_equiv_pos_as_xyz
  1  'x, y, z'
loop_
 _atom_type_symbol
 _atom_type_oxidation_number
  La3+  3.0
  Ce3+  3.0
  Pr3+  3.0
  Nd3+  3.0
  Sm3+  3.0
  Bi2+  2.0
  S2-  -2.0
loop_
 _atom_site_type_symbol
 _atom_site_label
 _atom_site_symmetry_multiplicity
 _atom_site_fract_x
 _atom_site_fract_y
 _atom_site_fract_z
 _atom_site_occupancy
  La3+  La0  1  0.88252553  0.50501473  0.38919592  1
  La3+  La1  1  -0.00728915  0.86308637  0.59391134  1
  La3+  La2  1  -0.00138572  0.61706283  0.58122911  1
  La3+  La3  1  0.89126597  0.50738038  0.91774430  1
  La3+  La4  1  0.73588305  0.11469902  0.57987152  1
  La3+  La5  1  0.51086164  0.88490936  0.09261291  1
  Ce3+  Ce6  1  0.87078866  0.74433743  0.44535960  1
  Ce3+  Ce7  1  0.49443189  0.12218137  0.55824674  1
  Ce3+  Ce8  1  0.63169657  0.25593791  0.93555743  1
  Ce3+  Ce9  1  0.12728859  0.75181119  0.94405995  1
  Ce3+  Ce10  1  0.63322006  -0.00027327  0.93181609  1
  Ce3+  Ce11  1  0.74256982  0.87318310  0.55622677  1
  Ce3+  Ce12  1  0.75572069  0.62114869  0.05909175  1
  Pr3+  Pr13  1  0.62414560  0.51359670  0.90911043  1
  Pr3+  Pr14  1  0.86530057  0.25310787  0.44415372  1
  Pr3+  Pr15  1  -0.01254354  0.37418341  0.56413499  1
  Pr3+  Pr16  1  0.49085847  0.38253305  0.57204333  1
  Pr3+  Pr17  1  0.12730904  0.00290093  0.89228009  1
  Pr3+  Pr18  1  0.23685633  0.12270122  0.57237722  1
  Pr3+  Pr19  1  0.01287173  0.36722668  0.08003003  1
  Pr3+  Pr20  1  0.24060244  0.87770188  0.56840854  1
  Pr3+  Pr21  1  0.61915670  0.48915125  0.42350537  1
  Pr3+  Pr22  1  0.37228479  0.49747928  0.43160786  1
  Pr3+  Pr23  1  0.37871866  0.25126156  0.94143197  1
  Pr3+  Pr24  1  0.00620181  0.63626922  0.07785388  1
  Pr3+  Pr25  1  0.11511252  0.24839525  0.43970958  1
  Nd3+  Nd26  1  0.38216953  -0.00235722  0.93428791  1
  Nd3+  Nd27  1  0.38286964  0.75213135  0.95114558  1
  Nd3+  Nd28  1  0.11320650  0.74793525  0.43976363  1
  Nd3+  Nd29  1  0.49363684  0.62492643  0.55456391  1
  Nd3+  Nd30  1  0.73848415  0.37675986  0.56958887  1
  Nd3+  Nd31  1  0.62234684  -0.00020228  0.43134742  1
  Nd3+  Nd32  1  0.25767471  0.37551275  0.06324691  1
  Nd3+  Nd33  1  0.24100519  0.62321734  0.55563769  1
  Nd3+  Nd34  1  0.62848099  0.74985078  0.94798684  1
  Nd3+  Nd35  1  0.61892261  0.75142959  0.42536486  1
  Nd3+  Nd36  1  -0.01472412  0.12138135  0.59638128  1
  Nd3+  Nd37  1  0.87647736  0.00360309  0.93688441  1
  Nd3+  Nd38  1  0.11641021  0.49831130  0.43828170  1
  Nd3+  Nd39  1  0.50787190  0.37593071  0.05206123  1
  Nd3+  Nd40  1  0.36476293  -0.00063004  0.43686848  1
  Nd3+  Nd41  1  0.75463672  0.87607234  0.06031067  1
  Nd3+  Nd42  1  0.50761036  0.61537298  0.07122320  1
  Nd3+  Nd43  1  0.75941463  0.37966075  0.05171351  1
  Nd3+  Nd44  1  0.74179340  0.62136201  0.55428290  1
  Sm3+  Sm45  1  0.00660274  0.87924691  0.05798975  1
  Sm3+  Sm46  1  0.24241072  0.37142382  0.55117859  1
  Sm3+  Sm47  1  0.25829240  0.87765442  0.05505490  1
  Sm3+  Sm48  1  0.88393972  0.74928225  0.94048829  1
  Sm3+  Sm49  1  0.25681166  0.12172692  0.05353131  1
  Sm3+  Sm50  1  0.88301145  0.25491628  0.93934132  1
  Sm3+  Sm51  1  0.86999618  0.00075911  0.44888854  1
  Sm3+  Sm52  1  0.36938535  0.24654625  0.44620719  1
  Sm3+  Sm53  1  0.50825816  0.12396900  0.05440199  1
  Sm3+  Sm54  1  0.49180422  0.87419125  0.55306839  1
  Sm3+  Sm55  1  0.25747035  0.62735182  0.05608277  1
  Sm3+  Sm56  1  0.11469027  -0.00116485  0.45027993  1
  Sm3+  Sm57  1  0.37859085  0.50157838  0.93721750  1
  Sm3+  Sm58  1  0.75620777  0.12722965  0.05586097  1
  Sm3+  Sm59  1  0.36746532  0.75049288  0.44077387  1
  Sm3+  Sm60  1  0.00809628  0.12305894  0.05851504  1
  Sm3+  Sm61  1  0.12842200  0.50068657  0.94998177  1
  Sm3+  Sm62  1  0.12774039  0.24902081  0.94037486  1
  Sm3+  Sm63  1  0.61982261  0.24927396  0.44504057  1
  Bi2+  Bi64  1  -0.01484406  0.08893658  0.28279955  1
  Bi2+  Bi65  1  0.01321892  0.12472894  0.78581274  1
  Bi2+  Bi66  1  0.00019723  0.37101325  0.28551609  1
  Bi2+  Bi67  1  0.00503410  0.37350490  0.80193082  1
  Bi2+  Bi68  1  0.01765625  0.64474459  0.28602042  1
  Bi2+  Bi69  1  0.00060728  0.63284368  0.79181223  1
  Bi2+  Bi70  1  0.01842421  0.86792592  0.30273207  1
  Bi2+  Bi71  1  -0.02157408  0.85490849  0.79206620  1
  Bi2+  Bi72  1  0.21655215  0.10965041  0.29872136  1
  Bi2+  Bi73  1  0.27918114  0.14412240  0.78435160  1
  Bi2+  Bi74  1  0.25795215  0.30526632  0.28591652  1
  Bi2+  Bi75  1  0.26837249  0.41068824  0.83311680  1
  Bi2+  Bi76  1  0.28589986  0.55260591  0.27941226  1
  Bi2+  Bi77  1  0.24815616  0.59534595  0.79683645  1
  Bi2+  Bi78  1  0.26812753  0.92485256  0.28668370  1
  Bi2+  Bi79  1  0.32485434  0.87926241  0.78034794  1
  Bi2+  Bi80  1  0.51597975  0.12309789  0.28871202  1
  Bi2+  Bi81  1  0.50842329  0.09460230  0.80115309  1
  Bi2+  Bi82  1  0.50261526  0.36300311  0.28897930  1
  Bi2+  Bi83  1  0.44764955  0.36996997  0.78565114  1
  Bi2+  Bi84  1  0.47098776  0.61775348  0.28417777  1
  Bi2+  Bi85  1  0.44329262  0.63875436  0.78506830  1
  Bi2+  Bi86  1  0.48678417  0.86111162  0.29152868  1
  Bi2+  Bi87  1  0.51581711  0.90279872  0.83199996  1
  Bi2+  Bi88  1  0.70106386  0.10626814  0.32236715  1
  Bi2+  Bi89  1  0.70161891  0.12766555  0.78424176  1
  Bi2+  Bi90  1  0.74497442  0.28640182  0.28591972  1
  Bi2+  Bi91  1  0.74349542  0.36349456  0.76695616  1
  Bi2+  Bi92  1  0.75149294  0.63935325  0.29104232  1
  Bi2+  Bi93  1  0.73546011  0.65122234  0.78760675  1
  Bi2+  Bi94  1  0.75777347  0.90723658  0.28888770  1
  Bi2+  Bi95  1  0.70891230  0.86961724  0.80496745  1
  Bi2+  Bi96  1  0.05534181  0.02331000  0.17934104  1
  Bi2+  Bi97  1  0.14163657  0.00708255  0.70038023  1
  Bi2+  Bi98  1  0.13385773  0.20497509  0.20902137  1
  Bi2+  Bi99  1  0.17159683  0.31047419  0.75285591  1
  Bi2+  Bi100  1  0.14850444  0.49608896  0.20107661  1
  Bi2+  Bi101  1  0.12906287  0.51447236  0.71501309  1
  Bi2+  Bi102  1  0.12831521  0.84635979  0.20758385  1
  Bi2+  Bi103  1  0.19466382  0.74006356  0.72195124  1
  Bi2+  Bi104  1  0.36251849  0.04463830  0.21396825  1
  Bi2+  Bi105  1  0.39774376  0.02550057  0.71482372  1
  Bi2+  Bi106  1  0.40903530  0.23940611  0.20385668  1
  Bi2+  Bi107  1  0.34849889  0.26342486  0.69681842  1
  Bi2+  Bi108  1  0.36180464  0.42993812  0.20147165  1
  Bi2+  Bi109  1  0.35150937  0.48744907  0.71147367  1
  Bi2+  Bi110  1  0.29388244  0.73731522  0.22041827  1
  Bi2+  Bi111  1  0.38525580  0.75554397  0.69430181  1
  Bi2+  Bi112  1  0.62760659  0.02801658  0.21183485  1
  Bi2+  Bi113  1  0.61554436  -0.00458674  0.71087897  1
  Bi2+  Bi114  1  0.60416466  0.24734272  0.20581405  1
  Bi2+  Bi115  1  0.54133087  0.25246066  0.70996247  1
  Bi2+  Bi116  1  0.63389241  0.51287944  0.19196113  1
  Bi2+  Bi117  1  0.60151580  0.51582996  0.70327259  1
  Bi2+  Bi118  1  0.62443571  0.76081253  0.20567374  1
  Bi2+  Bi119  1  0.56927434  0.78592353  0.73575148  1
  Bi2+  Bi120  1  0.86432003  -0.00236052  0.20112179  1
  Bi2+  Bi121  1  0.83985505  0.01217217  0.71996490  1
  Bi2+  Bi122  1  0.86908949  0.19689522  0.21328199  1
  Bi2+  Bi123  1  0.90605729  0.25144708  0.73361564  1
  Bi2+  Bi124  1  0.87529430  0.52097910  0.18177883  1
  Bi2+  Bi125  1  0.86458504  0.52973094  0.69288471  1
  Bi2+  Bi126  1  0.88824219  0.80472915  0.22475596  1
  Bi2+  Bi127  1  0.83950835  0.78639149  0.72437687  1
  S2-  S128  1  -0.00591954  0.21744430  0.14029957  1
  S2-  S129  1  0.12521777  0.15137684  0.65221142  1
  S2-  S130  1  -0.00508808  0.41060483  0.17999241  1
  S2-  S131  1  0.00260730  0.47298440  0.65004174  1
  S2-  S132  1  0.02968106  0.60816523  0.17942124  1
  S2-  S133  1  -0.04918597  0.72544916  0.65929864  1
  S2-  S134  1  -0.01256600  0.79166965  0.14114301  1
  S2-  S135  1  -0.02330413  0.98751080  0.66641669  1
  S2-  S136  1  0.25159748  0.11760703  0.15191025  1
  S2-  S137  1  0.28425768  -0.00039043  0.64303981  1
  S2-  S138  1  0.18861947  0.35201730  0.15170231  1
  S2-  S139  1  0.24622656  0.38867797  0.64824846  1
  S2-  S140  1  0.26378414  0.62047531  0.15396494  1
  S2-  S141  1  0.15856286  0.62644830  0.64368978  1
  S2-  S142  1  0.27428879  0.87290846  0.15223676  1
  S2-  S143  1  0.14161266  0.85001741  0.65375338  1
  S2-  S144  1  0.49848833  0.04174065  0.14057109  1
  S2-  S145  1  0.58713792  0.12545898  0.64217629  1
  S2-  S146  1  0.50816626  0.45813081  0.13886027  1
  S2-  S147  1  0.61114342  0.37412160  0.64601511  1
  S2-  S148  1  0.52285958  0.64574752  0.17100563  1
  S2-  S149  1  0.47862770  0.53735589  0.64066931  1
  S2-  S150  1  0.47910316  0.83600190  0.19324650  1
  S2-  S151  1  0.49833725  0.87381670  0.65108952  1
  S2-  S152  1  0.72732915  0.14471237  0.15232261  1
  S2-  S153  1  0.84341304  0.15109529  0.65844924  1
  S2-  S154  1  0.74671235  0.40709417  0.15065896  1
  S2-  S155  1  0.81243740  0.38557488  0.66529348  1
  S2-  S156  1  0.74880626  0.64298393  0.15885617  1
  S2-  S157  1  0.71729500  0.60732795  0.65510337  1
  S2-  S158  1  0.66866424  0.89209263  0.14584585  1
  S2-  S159  1  0.73640565  0.95386471  0.64180227  1
  S2-  S160  1  0.10385516  0.00349263  0.35143456  1
  S2-  S161  1  0.11993912  -0.06592171  0.79338571  1
  S2-  S162  1  0.10300612  0.29022947  0.34131146  1
  S2-  S163  1  0.12999884  0.16656094  0.85309195  1
  S2-  S164  1  0.05208536  0.50618391  0.34619368  1
  S2-  S165  1  0.04891490  0.50918512  0.86286354  1
  S2-  S166  1  0.12078901  0.73868988  0.33886556  1
  S2-  S167  1  0.08041959  0.74626599  0.84987322  1
  S2-  S168  1  0.40815039  -0.01031519  0.34097237  1
  S2-  S169  1  0.29005843  0.00429781  0.85008066  1
  S2-  S170  1  0.38473281  0.26833040  0.34941431  1
  S2-  S171  1  0.39881082  0.22510170  0.84321612  1
  S2-  S172  1  0.48251230  0.49788005  0.35388245  1
  S2-  S173  1  0.47083294  0.51393941  0.85477741  1
  S2-  S174  1  0.39106328  0.74443595  0.34351863  1
  S2-  S175  1  0.39147891  0.76589628  0.85259908  1
  S2-  S176  1  0.62014395  -0.11346712  0.35418489  1
  S2-  S177  1  0.75259028  0.01196759  0.85992978  1
  S2-  S178  1  0.62042116  0.32977235  0.35765028  1
  S2-  S179  1  0.65786473  0.26777743  0.83925029  1
  S2-  S180  1  0.72565988  0.50905887  0.34395801  1
  S2-  S181  1  0.66397559  0.49080640  0.80475018  1
  S2-  S182  1  0.61047105  0.68250776  0.33031591  1
  S2-  S183  1  0.62995694  0.67352180  0.85915701  1
  S2-  S184  1  0.84961241  0.01781236  0.35058084  1
  S2-  S185  1  0.96297958  -0.00298172  0.85054658  1
  S2-  S186  1  0.87747186  0.33244187  0.35294612  1
  S2-  S187  1  0.90352043  0.22551390  0.84260958  1
  S2-  S188  1  0.88851112  0.51354486  0.27649413  1
  S2-  S189  1  0.85692054  0.43918532  0.82376383  1
  S2-  S190  1  0.88630145  0.68239081  0.35394031  1
  S2-  S191  1  0.87581915  0.65707396  0.85529254  1
  S2-  S192  1  -0.00805192  0.12337882  0.44932674  1
  S2-  S193  1  0.00352430  0.12694413  0.95555237  1
  S2-  S194  1  -0.00740101  0.37757179  0.45742063  1
  S2-  S195  1  0.00749473  0.37350078  0.96107238  1
  S2-  S196  1  -0.00525520  0.61971655  0.45880068  1
  S2-  S197  1  0.00648999  0.62757056  0.96684038  1
  S2-  S198  1  -0.00801337  0.87543242  0.45168657  1
  S2-  S199  1  0.00378675  0.87776884  0.95401209  1
  S2-  S200  1  0.24152609  0.12362889  0.45784457  1
  S2-  S201  1  0.25359606  0.12504711  0.95173144  1
  S2-  S202  1  0.24542980  0.37254039  0.44619850  1
  S2-  S203  1  0.25104932  0.37506580  0.95734006  1
  S2-  S204  1  0.24485205  0.62393732  0.44798940  1
  S2-  S205  1  0.25431659  0.62524550  0.95093720  1
  S2-  S206  1  0.24144531  0.87404827  0.45316872  1
  S2-  S207  1  0.25234335  0.87577892  0.95010621  1
  S2-  S208  1  0.49412920  0.12301490  0.44979340  1
  S2-  S209  1  0.50676282  0.12601639  0.94997586  1
  S2-  S210  1  0.48965215  0.36872936  0.46204235  1
  S2-  S211  1  0.50534365  0.37851278  0.94743085  1
  S2-  S212  1  0.49266816  0.62962150  0.45056778  1
  S2-  S213  1  0.50144116  0.62389583  0.96243380  1
  S2-  S214  1  0.48957668  0.87385939  0.45002754  1
  S2-  S215  1  0.50692695  0.87655273  0.96039854  1
  S2-  S216  1  0.74274663  0.12329999  0.46185931  1
  S2-  S217  1  0.75688044  0.13519717  0.95325642  1
  S2-  S218  1  0.74085629  0.37227450  0.46177897  1
  S2-  S219  1  0.75983629  0.38232858  0.94460275  1
  S2-  S220  1  0.73970183  0.62701442  0.44984812  1
  S2-  S221  1  0.75828566  0.62290548  0.95518190  1
  S2-  S222  1  0.74759374  0.87362309  0.45215993  1
  S2-  S223  1  0.75732716  0.86964291  0.95497258  1
  S2-  S224  1  0.13223754  -0.00088010  0.04989791  1
  S2-  S225  1  0.10848101  -0.00230543  0.55241953  1
  S2-  S226  1  0.13456482  0.24540301  0.04354618  1
  S2-  S227  1  0.11464179  0.25169685  0.54623206  1
  S2-  S228  1  0.13170233  0.50270413  0.05381044  1
  S2-  S229  1  0.12207937  0.49380786  0.54267881  1
  S2-  S230  1  0.13543405  0.75393725  0.04998372  1
  S2-  S231  1  0.11711156  0.74951892  0.54380323  1
  S2-  S232  1  0.38142833  0.00050566  0.04164688  1
  S2-  S233  1  0.37064120  -0.00229225  0.54057548  1
  S2-  S234  1  0.38199114  0.24826744  0.04923352  1
  S2-  S235  1  0.36688972  0.24681826  0.55126939  1
  S2-  S236  1  0.37727794  0.50074531  0.04233399  1
  S2-  S237  1  0.36328647  0.49875050  0.53877015  1
  S2-  S238  1  0.38465513  0.75131132  0.05680813  1
  S2-  S239  1  0.36613878  0.74986258  0.54615014  1
  S2-  S240  1  0.63393595  0.00478400  0.03929110  1
  S2-  S241  1  0.61453029  -0.00585786  0.53701667  1
  S2-  S242  1  0.63153976  0.25121059  0.04371019  1
  S2-  S243  1  0.61494876  0.24958438  0.54647984  1
  S2-  S244  1  0.63197875  0.49988169  0.03719961  1
  S2-  S245  1  0.61500236  0.50098490  0.53835428  1
  S2-  S246  1  0.62769560  0.74841757  0.05280182  1
  S2-  S247  1  0.61516200  0.75064376  0.54306224  1
  S2-  S248  1  0.87993554  0.00180802  0.04709835  1
  S2-  S249  1  0.87413911  -0.00398231  0.55115497  1
  S2-  S250  1  0.87929578  0.25050655  0.04395750  1
  S2-  S251  1  0.86696778  0.24580915  0.55141407  1
  S2-  S252  1  0.88883584  0.50029381  0.05455183  1
  S2-  S253  1  0.86429466  0.50076472  0.55375558  1
  S2-  S254  1  0.87706460  0.75204317  0.04377962  1
  S2-  S255  1  0.86644087  0.74836820  0.54925686  1
