# generated using pymatgen
data_La6Ce7Pr13Nd19Sm19(BiS2)64
_symmetry_space_group_name_H-M   'P 1'
_cell_length_a   16.12345536
_cell_length_b   16.13463487
_cell_length_c   27.22463778
_cell_angle_alpha   90.17860600
_cell_angle_beta   89.93531884
_cell_angle_gamma   89.96036557
_symmetry_Int_Tables_number   1
_chemical_formula_structural   La6Ce7Pr13Nd19Sm19(BiS2)64
_chemical_formula_sum   'La6 Ce7 Pr13 Nd19 Sm19 Bi64 S128'
_cell_volume   7082.34175659
_cell_formula_units_Z   1
loop_
 _symmetry_equiv_pos_site_id
 _symmetry_equiv_pos_as_xyz
  1  'x, y, z'
loop_
 _atom_type_symbol
 _atom_type_oxidation_number
  La3+  3.0
  Ce3+  3.0
  Pr3+  3.0
  Nd3+  3.0
  Sm3+  3.0
  Bi2+  2.0
  S2-  -2.0
loop_
 _atom_site_type_symbol
 _atom_site_label
 _atom_site_symmetry_multiplicity
 _atom_site_fract_x
 _atom_site_fract_y
 _atom_site_fract_z
 _atom_site_occupancy
  La3+  La0  1  0.88991858  -0.01137950  0.43164260  1
  La3+  La1  1  0.62568483  0.50122422  0.38981336  1
  La3+  La2  1  0.88779036  0.00570846  0.93261127  1
  La3+  La3  1  0.00646697  0.38617006  0.07790255  1
  La3+  La4  1  0.88915856  0.74699205  0.89879285  1
  La3+  La5  1  0.52133100  0.36155800  0.58093041  1
  Ce3+  Ce6  1  0.50696654  0.87831454  0.05626775  1
  Ce3+  Ce7  1  0.38941723  0.73779104  0.44970107  1
  Ce3+  Ce8  1  0.26233049  0.38192583  0.05658876  1
  Ce3+  Ce9  1  0.63364915  0.25340637  0.93561007  1
  Ce3+  Ce10  1  0.63361081  -0.00498688  0.42666251  1
  Ce3+  Ce11  1  0.51344010  0.61693028  0.56656030  1
  Ce3+  Ce12  1  0.13380877  0.49214516  0.43237984  1
  Pr3+  Pr13  1  0.87887407  0.49771448  0.93233721  1
  Pr3+  Pr14  1  0.63439918  0.24387321  0.43090191  1
  Pr3+  Pr15  1  0.62830964  0.50609181  0.92332330  1
  Pr3+  Pr16  1  0.50585115  0.37881412  0.05705631  1
  Pr3+  Pr17  1  0.37781566  0.75351402  0.93054506  1
  Pr3+  Pr18  1  0.50957314  0.12651890  0.05931390  1
  Pr3+  Pr19  1  0.63967353  0.00000839  0.92912363  1
  Pr3+  Pr20  1  0.26148208  0.61641570  0.56413027  1
  Pr3+  Pr21  1  0.26362383  0.12751821  0.06935810  1
  Pr3+  Pr22  1  0.38240095  0.00306038  0.92861412  1
  Pr3+  Pr23  1  0.88509503  0.49723414  0.42906922  1
  Pr3+  Pr24  1  0.12714116  0.49809782  0.93330856  1
  Pr3+  Pr25  1  0.13957971  0.73904291  0.44224063  1
  Nd3+  Nd26  1  0.63156577  0.74922345  0.93857033  1
  Nd3+  Nd27  1  0.25995113  0.36858515  0.56138634  1
  Nd3+  Nd28  1  0.38353003  0.25109814  0.92997092  1
  Nd3+  Nd29  1  0.00777806  0.86788264  0.56595897  1
  Nd3+  Nd30  1  0.37102091  0.50023466  0.90230017  1
  Nd3+  Nd31  1  0.00618187  0.62840149  0.05802895  1
  Nd3+  Nd32  1  0.88356333  0.74015703  0.44559061  1
  Nd3+  Nd33  1  0.75798950  0.62632442  0.05800290  1
  Nd3+  Nd34  1  0.51228712  0.87047590  0.55691015  1
  Nd3+  Nd35  1  0.13252943  0.25096442  0.95114820  1
  Nd3+  Nd36  1  0.88797602  0.24488125  0.43221999  1
  Nd3+  Nd37  1  0.75549419  0.37589999  0.06005816  1
  Nd3+  Nd38  1  0.00688843  0.36968393  0.55820878  1
  Nd3+  Nd39  1  0.26482738  0.87624588  0.06887507  1
  Nd3+  Nd40  1  0.14126187  -0.01662875  0.43237253  1
  Nd3+  Nd41  1  0.50634098  0.62613001  0.05344345  1
  Nd3+  Nd42  1  0.01567634  0.12685379  0.07786998  1
  Nd3+  Nd43  1  0.25916925  0.11808262  0.55775304  1
  Nd3+  Nd44  1  0.00853345  0.11764348  0.55443687  1
  Sm3+  Sm45  1  0.75921182  0.36977003  0.54979154  1
  Sm3+  Sm46  1  0.75884617  0.61739383  0.56108985  1
  Sm3+  Sm47  1  0.13615653  0.24290936  0.44462092  1
  Sm3+  Sm48  1  0.38649319  0.24450845  0.44440230  1
  Sm3+  Sm49  1  0.51471134  0.11865827  0.55940628  1
  Sm3+  Sm50  1  0.25860842  0.62647749  0.05359771  1
  Sm3+  Sm51  1  0.00883217  0.87582586  0.06041100  1
  Sm3+  Sm52  1  0.63497142  0.73969428  0.44329962  1
  Sm3+  Sm53  1  0.38639817  -0.00771903  0.44749968  1
  Sm3+  Sm54  1  0.39182821  0.48869094  0.44944697  1
  Sm3+  Sm55  1  0.12927921  0.75268183  0.94143274  1
  Sm3+  Sm56  1  0.25985088  0.86980315  0.56367978  1
  Sm3+  Sm57  1  0.76118404  0.11745438  0.55030845  1
  Sm3+  Sm58  1  0.76193673  0.12274892  0.06033952  1
  Sm3+  Sm59  1  0.13070015  0.00154735  0.94512224  1
  Sm3+  Sm60  1  0.75728697  0.87064458  0.55658213  1
  Sm3+  Sm61  1  0.00781552  0.61761858  0.56215760  1
  Sm3+  Sm62  1  0.88605282  0.25263897  0.95166843  1
  Sm3+  Sm63  1  0.76176660  0.87562440  0.04970267  1
  Bi2+  Bi64  1  -0.01745168  0.14605190  0.30532811  1
  Bi2+  Bi65  1  -0.01772216  0.18196488  0.79954709  1
  Bi2+  Bi66  1  0.04744396  0.38202426  0.28285695  1
  Bi2+  Bi67  1  -0.01937014  0.38128466  0.83251858  1
  Bi2+  Bi68  1  0.01273921  0.62654203  0.28247216  1
  Bi2+  Bi69  1  0.00118804  0.60646263  0.78418326  1
  Bi2+  Bi70  1  0.01286798  0.90131519  0.30392581  1
  Bi2+  Bi71  1  -0.05952892  0.95608431  0.79153915  1
  Bi2+  Bi72  1  0.25395813  0.06076047  0.27705950  1
  Bi2+  Bi73  1  0.24469850  0.07958686  0.79724608  1
  Bi2+  Bi74  1  0.25044342  0.44346454  0.30259043  1
  Bi2+  Bi75  1  0.24200727  0.35212456  0.78856443  1
  Bi2+  Bi76  1  0.19610290  0.62926457  0.31573576  1
  Bi2+  Bi77  1  0.24981697  0.62047317  0.77191139  1
  Bi2+  Bi78  1  0.25598051  0.81009677  0.28337565  1
  Bi2+  Bi79  1  0.23598189  0.89602070  0.84829695  1
  Bi2+  Bi80  1  0.50442189  0.12141535  0.29010004  1
  Bi2+  Bi81  1  0.48947488  0.13189707  0.77720565  1
  Bi2+  Bi82  1  0.46463399  0.36696144  0.29076973  1
  Bi2+  Bi83  1  0.52436992  0.36843857  0.78871791  1
  Bi2+  Bi84  1  0.46760069  0.64598481  0.29376369  1
  Bi2+  Bi85  1  0.49890555  0.64300625  0.78396538  1
  Bi2+  Bi86  1  0.49621611  0.92207643  0.30707963  1
  Bi2+  Bi87  1  0.42306583  0.86712043  0.81033552  1
  Bi2+  Bi88  1  0.69677001  0.09579174  0.25531274  1
  Bi2+  Bi89  1  0.75972851  0.13838802  0.74270289  1
  Bi2+  Bi90  1  0.73417358  0.35860490  0.28202486  1
  Bi2+  Bi91  1  0.81974051  0.39564686  0.76234995  1
  Bi2+  Bi92  1  0.75273309  0.62207306  0.28609267  1
  Bi2+  Bi93  1  0.73027682  0.57985364  0.78199743  1
  Bi2+  Bi94  1  0.68711558  0.89343818  0.30847962  1
  Bi2+  Bi95  1  0.70127893  0.92437313  0.78805526  1
  Bi2+  Bi96  1  0.10986924  -0.00588628  0.21017901  1
  Bi2+  Bi97  1  0.11635415  -0.03165066  0.73980158  1
  Bi2+  Bi98  1  0.13288295  0.21707105  0.23779114  1
  Bi2+  Bi99  1  0.12757151  0.16855922  0.72092268  1
  Bi2+  Bi100  1  0.14549125  0.49601963  0.20909077  1
  Bi2+  Bi101  1  0.08694358  0.44692946  0.74249067  1
  Bi2+  Bi102  1  0.09819805  0.76287905  0.21804063  1
  Bi2+  Bi103  1  0.14305344  0.78103985  0.76873098  1
  Bi2+  Bi104  1  0.40430111  0.00817678  0.20857812  1
  Bi2+  Bi105  1  0.38434556  -0.01071756  0.71588796  1
  Bi2+  Bi106  1  0.31736774  0.27374165  0.24430607  1
  Bi2+  Bi107  1  0.36668391  0.24289224  0.70639015  1
  Bi2+  Bi108  1  0.36315073  0.49964543  0.19627666  1
  Bi2+  Bi109  1  0.35073917  0.51211846  0.70093391  1
  Bi2+  Bi110  1  0.38916774  0.75055179  0.20853479  1
  Bi2+  Bi111  1  0.33728803  0.79783528  0.71235640  1
  Bi2+  Bi112  1  0.60636290  -0.04488391  0.19249830  1
  Bi2+  Bi113  1  0.57401930  0.02973930  0.69329948  1
  Bi2+  Bi114  1  0.56475684  0.20750147  0.19475853  1
  Bi2+  Bi115  1  0.63318508  0.27533797  0.71139877  1
  Bi2+  Bi116  1  0.63171832  0.50735564  0.17347211  1
  Bi2+  Bi117  1  0.62602969  0.53015073  0.69032488  1
  Bi2+  Bi118  1  0.58193747  0.77234165  0.23327415  1
  Bi2+  Bi119  1  0.57641916  0.79972936  0.74173986  1
  Bi2+  Bi120  1  0.86856164  -0.05221871  0.20477756  1
  Bi2+  Bi121  1  0.87541983  0.00232379  0.68784139  1
  Bi2+  Bi122  1  0.86830382  0.21741946  0.21370174  1
  Bi2+  Bi123  1  0.90548171  0.25335936  0.69898563  1
  Bi2+  Bi124  1  0.87736454  0.47940218  0.19678155  1
  Bi2+  Bi125  1  0.91601498  0.51817686  0.69071417  1
  Bi2+  Bi126  1  0.84744290  0.79388412  0.27086659  1
  Bi2+  Bi127  1  0.86968189  0.76143624  0.70353514  1
  S2-  S128  1  -0.06160901  0.09092280  0.16680330  1
  S2-  S129  1  -0.00145797  0.12184574  0.65305840  1
  S2-  S130  1  -0.03082433  0.31654177  0.17041743  1
  S2-  S131  1  0.02245725  0.36926314  0.65648138  1
  S2-  S132  1  0.00740039  0.53281882  0.14147275  1
  S2-  S133  1  -0.00422431  0.65655931  0.65782054  1
  S2-  S134  1  -0.02309659  0.84252390  0.15596206  1
  S2-  S135  1  -0.01096401  0.87487547  0.66444871  1
  S2-  S136  1  0.14850770  0.12488924  0.14714477  1
  S2-  S137  1  0.26794062  0.14250102  0.65606247  1
  S2-  S138  1  0.31464273  0.36083096  0.14907089  1
  S2-  S139  1  0.27784952  0.36963945  0.66091089  1
  S2-  S140  1  0.25268778  0.60325847  0.15276007  1
  S2-  S141  1  0.23297057  0.60725659  0.66309984  1
  S2-  S142  1  0.18964213  0.87870974  0.16040198  1
  S2-  S143  1  0.23835551  0.89962089  0.65929850  1
  S2-  S144  1  0.39582011  0.12834730  0.13750487  1
  S2-  S145  1  0.50807164  0.21436153  0.64124257  1
  S2-  S146  1  0.54018912  0.35842029  0.15641413  1
  S2-  S147  1  0.49936188  0.42330873  0.67901916  1
  S2-  S148  1  0.49527994  0.59902017  0.15270332  1
  S2-  S149  1  0.49639063  0.63162938  0.66446785  1
  S2-  S150  1  0.40361290  0.87200264  0.13605041  1
  S2-  S151  1  0.56081500  0.87488661  0.65135603  1
  S2-  S152  1  0.72315145  0.15484290  0.15442193  1
  S2-  S153  1  0.72511004  0.09737736  0.64554486  1
  S2-  S154  1  0.75946067  0.38471326  0.16081619  1
  S2-  S155  1  0.70278820  0.36548579  0.64348909  1
  S2-  S156  1  0.77806014  0.60755837  0.15792505  1
  S2-  S157  1  0.75562079  0.64600709  0.65986146  1
  S2-  S158  1  0.74602605  0.88211428  0.14785897  1
  S2-  S159  1  0.78119573  0.87094243  0.65459208  1
  S2-  S160  1  0.10906292  0.04001760  0.33939110  1
  S2-  S161  1  0.02462840  0.02601572  0.86673927  1
  S2-  S162  1  0.10944423  0.25916619  0.34839025  1
  S2-  S163  1  0.12627952  0.27288456  0.85229996  1
  S2-  S164  1  0.01628598  0.49400329  0.35797834  1
  S2-  S165  1  0.21864832  0.49762633  0.84692929  1
  S2-  S166  1  0.14367261  0.84509003  0.36243718  1
  S2-  S167  1  0.05010730  0.73617930  0.85313687  1
  S2-  S168  1  0.34946958  -0.01010777  0.35222602  1
  S2-  S169  1  0.37271564  0.12833574  0.85684723  1
  S2-  S170  1  0.38224927  0.25028812  0.34582485  1
  S2-  S171  1  0.37733750  0.34985273  0.84428556  1
  S2-  S172  1  0.45533354  0.49882209  0.35729335  1
  S2-  S173  1  0.51371382  0.50465881  0.84236361  1
  S2-  S174  1  0.38191787  0.74220184  0.35211363  1
  S2-  S175  1  0.36837109  0.65380992  0.84690144  1
  S2-  S176  1  0.63842630  0.11725834  0.35657088  1
  S2-  S177  1  0.55899512  -0.02526548  0.83990571  1
  S2-  S178  1  0.61356524  0.33864474  0.34590678  1
  S2-  S179  1  0.59462211  0.23399511  0.84038240  1
  S2-  S180  1  0.63329171  0.50064102  0.26959963  1
  S2-  S181  1  0.71382308  0.44396610  0.83899673  1
  S2-  S182  1  0.62860630  0.66828514  0.35360695  1
  S2-  S183  1  0.63698356  0.68754757  0.84554467  1
  S2-  S184  1  0.88439422  0.01681223  0.33208096  1
  S2-  S185  1  0.76924308  0.01666742  0.85558264  1
  S2-  S186  1  0.85484786  0.26020356  0.33395705  1
  S2-  S187  1  0.85954927  0.24143608  0.85478707  1
  S2-  S188  1  0.78755151  0.48777791  0.34423562  1
  S2-  S189  1  0.86892948  0.59635250  0.84729336  1
  S2-  S190  1  0.88839277  0.68641799  0.35156879  1
  S2-  S191  1  0.84225857  0.80805450  0.80389775  1
  S2-  S192  1  0.01379310  0.11763146  0.44953720  1
  S2-  S193  1  0.00883771  0.13135216  0.97033317  1
  S2-  S194  1  0.01115252  0.36557061  0.45366145  1
  S2-  S195  1  0.00668338  0.37642560  0.96558464  1
  S2-  S196  1  0.01215057  0.62017548  0.45837034  1
  S2-  S197  1  0.00460391  0.62581904  0.95372201  1
  S2-  S198  1  0.01002796  0.86369124  0.45853883  1
  S2-  S199  1  0.00485350  0.87084008  0.95534616  1
  S2-  S200  1  0.26003410  0.11796956  0.45149108  1
  S2-  S201  1  0.25243721  0.12378966  0.96013192  1
  S2-  S202  1  0.26069922  0.36796914  0.45418388  1
  S2-  S203  1  0.25723032  0.37725954  0.95180891  1
  S2-  S204  1  0.26448447  0.61188846  0.45655660  1
  S2-  S205  1  0.24994083  0.62839723  0.94992364  1
  S2-  S206  1  0.26720780  0.86553492  0.46039312  1
  S2-  S207  1  0.25344131  0.87604533  0.96130666  1
  S2-  S208  1  0.50471416  0.11760484  0.45512325  1
  S2-  S209  1  0.51297697  0.12410405  0.95246126  1
  S2-  S210  1  0.50778314  0.36375710  0.46228862  1
  S2-  S211  1  0.50853962  0.37803489  0.94925005  1
  S2-  S212  1  0.51353875  0.61466151  0.46024862  1
  S2-  S213  1  0.50256571  0.62789339  0.94918516  1
  S2-  S214  1  0.51161479  0.86705125  0.45055074  1
  S2-  S215  1  0.50681702  0.87481676  0.95041333  1
  S2-  S216  1  0.76780119  0.11666083  0.44769670  1
  S2-  S217  1  0.75925075  0.13139372  0.95774811  1
  S2-  S218  1  0.76280641  0.36759366  0.44828123  1
  S2-  S219  1  0.75874012  0.37364963  0.95439596  1
  S2-  S220  1  0.75748252  0.61755765  0.45628239  1
  S2-  S221  1  0.75797073  0.62761014  0.95192451  1
  S2-  S222  1  0.75857011  0.86560967  0.45004235  1
  S2-  S223  1  0.76475633  0.86501237  0.94497610  1
  S2-  S224  1  0.13388419  -0.00411172  0.04819024  1
  S2-  S225  1  0.13447535  -0.00818771  0.54539259  1
  S2-  S226  1  0.13461454  0.26049047  0.05628518  1
  S2-  S227  1  0.13352590  0.24367015  0.55001397  1
  S2-  S228  1  0.13540518  0.50498964  0.04151709  1
  S2-  S229  1  0.13224943  0.49402972  0.54661093  1
  S2-  S230  1  0.13301135  0.75062969  0.04842064  1
  S2-  S231  1  0.13553967  0.74435235  0.55222120  1
  S2-  S232  1  0.38477784  0.00077216  0.03581504  1
  S2-  S233  1  0.38650907  -0.00481719  0.55344332  1
  S2-  S234  1  0.38441073  0.25386248  0.03620777  1
  S2-  S235  1  0.38265175  0.24266610  0.54746925  1
  S2-  S236  1  0.38231129  0.50571760  0.04245951  1
  S2-  S237  1  0.38839782  0.48953272  0.55444189  1
  S2-  S238  1  0.38128449  0.74738812  0.03818935  1
  S2-  S239  1  0.38506873  0.74659372  0.55686821  1
  S2-  S240  1  0.63695053  0.00068447  0.04067294  1
  S2-  S241  1  0.63598427  -0.00506761  0.53648304  1
  S2-  S242  1  0.63445877  0.25061433  0.04352798  1
  S2-  S243  1  0.64035082  0.23930516  0.53908133  1
  S2-  S244  1  0.63298790  0.50262129  0.03888547  1
  S2-  S245  1  0.63755646  0.49477015  0.55279617  1
  S2-  S246  1  0.63264357  0.75298279  0.04685491  1
  S2-  S247  1  0.63731952  0.74435285  0.54864524  1
  S2-  S248  1  0.88402352  -0.00068746  0.04597036  1
  S2-  S249  1  0.88391618  -0.00860272  0.54171799  1
  S2-  S250  1  0.88187970  0.25001139  0.05630224  1
  S2-  S251  1  0.88300672  0.24312997  0.54215761  1
  S2-  S252  1  0.87838489  0.50181660  0.04106051  1
  S2-  S253  1  0.88331463  0.49533476  0.54403907  1
  S2-  S254  1  0.88194397  0.75121559  0.05147661  1
  S2-  S255  1  0.88204687  0.74418745  0.55063146  1
