# generated using pymatgen
data_La6Ce7Pr13Nd19Sm19(BiS2)64
_symmetry_space_group_name_H-M   'P 1'
_cell_length_a   16.05224479
_cell_length_b   15.98786386
_cell_length_c   27.54708067
_cell_angle_alpha   90.42752537
_cell_angle_beta   90.35377446
_cell_angle_gamma   89.94736954
_symmetry_Int_Tables_number   1
_chemical_formula_structural   La6Ce7Pr13Nd19Sm19(BiS2)64
_chemical_formula_sum   'La6 Ce7 Pr13 Nd19 Sm19 Bi64 S128'
_cell_volume   7069.37893849
_cell_formula_units_Z   1
loop_
 _symmetry_equiv_pos_site_id
 _symmetry_equiv_pos_as_xyz
  1  'x, y, z'
loop_
 _atom_type_symbol
 _atom_type_oxidation_number
  La3+  3.0
  Ce3+  3.0
  Pr3+  3.0
  Nd3+  3.0
  Sm3+  3.0
  Bi2+  2.0
  S2-  -2.0
loop_
 _atom_site_type_symbol
 _atom_site_label
 _atom_site_symmetry_multiplicity
 _atom_site_fract_x
 _atom_site_fract_y
 _atom_site_fract_z
 _atom_site_occupancy
  La3+  La0  1  0.04095883  0.13088092  0.58356915  1
  La3+  La1  1  0.84538221  0.26005971  0.89112550  1
  La3+  La2  1  0.36262850  0.48958660  0.90325084  1
  La3+  La3  1  0.73129690  0.37385055  0.08971593  1
  La3+  La4  1  0.85877178  -0.00962331  0.93368913  1
  La3+  La5  1  -0.00195571  0.36201247  0.11204295  1
  Ce3+  Ce6  1  0.65781271  0.49577449  0.43844900  1
  Ce3+  Ce7  1  0.90983593  0.49511495  0.43801632  1
  Ce3+  Ce8  1  0.28528729  0.62501474  0.55008642  1
  Ce3+  Ce9  1  0.48660239  0.11508735  0.05619314  1
  Ce3+  Ce10  1  0.61896584  0.48149450  0.93462053  1
  Ce3+  Ce11  1  -0.00333899  0.86609439  0.07594480  1
  Ce3+  Ce12  1  0.03289987  0.37503330  0.56620312  1
  Pr3+  Pr13  1  0.40856661  -0.00330963  0.44642628  1
  Pr3+  Pr14  1  0.15527397  -0.00463270  0.43564483  1
  Pr3+  Pr15  1  0.41023923  0.74752444  0.44066253  1
  Pr3+  Pr16  1  0.90985472  0.23891473  0.42484125  1
  Pr3+  Pr17  1  0.03493916  0.87512228  0.57055568  1
  Pr3+  Pr18  1  0.15528923  0.24362808  0.42633110  1
  Pr3+  Pr19  1  0.78735421  0.87511363  0.57074231  1
  Pr3+  Pr20  1  0.65976602  0.25469230  0.42458799  1
  Pr3+  Pr21  1  0.48612550  0.61426509  0.05021808  1
  Pr3+  Pr22  1  0.53408587  0.12665412  0.57036843  1
  Pr3+  Pr23  1  0.03684285  0.62152201  0.57027787  1
  Pr3+  Pr24  1  0.35887477  0.23544849  0.92892111  1
  Pr3+  Pr25  1  0.86160598  0.48498166  0.94953866  1
  Nd3+  Nd26  1  0.65738643  0.00097395  0.44466754  1
  Nd3+  Nd27  1  0.41258443  0.24523102  0.43435094  1
  Nd3+  Nd28  1  0.61180651  0.73739745  0.93665522  1
  Nd3+  Nd29  1  0.28374458  0.12434970  0.55914536  1
  Nd3+  Nd30  1  0.10996029  0.73935167  0.94513059  1
  Nd3+  Nd31  1  0.74236997  0.11965500  0.06566592  1
  Nd3+  Nd32  1  0.10845434  0.48456592  0.93850837  1
  Nd3+  Nd33  1  0.61317785  0.23938529  0.94571225  1
  Nd3+  Nd34  1  0.24485027  0.86224042  0.06768568  1
  Nd3+  Nd35  1  0.15495961  0.75018842  0.43389878  1
  Nd3+  Nd36  1  0.28104287  0.87157846  0.56635084  1
  Nd3+  Nd37  1  0.65834791  0.75004739  0.44398275  1
  Nd3+  Nd38  1  0.53287980  0.37520541  0.56729712  1
  Nd3+  Nd39  1  0.85767126  0.73873236  0.92382631  1
  Nd3+  Nd40  1  0.15458014  0.49455188  0.43956017  1
  Nd3+  Nd41  1  0.78254790  0.12677592  0.56213311  1
  Nd3+  Nd42  1  0.10401693  -0.01394468  0.94416108  1
  Nd3+  Nd43  1  0.78491638  0.37451735  0.55866728  1
  Nd3+  Nd44  1  0.23722966  0.36424968  0.05891626  1
  Sm3+  Sm45  1  0.23831822  0.61036767  0.05063428  1
  Sm3+  Sm46  1  -0.01163640  0.61163531  0.05958508  1
  Sm3+  Sm47  1  0.28337430  0.37340648  0.55169014  1
  Sm3+  Sm48  1  0.78036297  0.62451910  0.55479745  1
  Sm3+  Sm49  1  0.90800058  0.00046813  0.44829240  1
  Sm3+  Sm50  1  0.54283705  0.87494522  0.59347830  1
  Sm3+  Sm51  1  0.35817633  0.74149221  0.92633768  1
  Sm3+  Sm52  1  0.23667847  0.11598848  0.05421997  1
  Sm3+  Sm53  1  -0.01511300  0.11472862  0.06831202  1
  Sm3+  Sm54  1  0.73929419  0.61410086  0.06009125  1
  Sm3+  Sm55  1  0.40822274  0.49543054  0.43781953  1
  Sm3+  Sm56  1  0.48775384  0.86416105  0.05447744  1
  Sm3+  Sm57  1  0.74287267  0.86364851  0.05860168  1
  Sm3+  Sm58  1  0.53247669  0.62306247  0.56960534  1
  Sm3+  Sm59  1  0.10380250  0.23654996  0.94397265  1
  Sm3+  Sm60  1  0.61840251  -0.00926927  0.94503578  1
  Sm3+  Sm61  1  0.90706981  0.74903382  0.44787441  1
  Sm3+  Sm62  1  0.35876554  -0.01076334  0.93219798  1
  Sm3+  Sm63  1  0.48640011  0.36631394  0.05634286  1
  Bi2+  Bi64  1  0.01036948  0.13446858  0.29625500  1
  Bi2+  Bi65  1  0.00418319  0.11500636  0.79146086  1
  Bi2+  Bi66  1  0.00325281  0.42122813  0.29761008  1
  Bi2+  Bi67  1  0.01464775  0.46687210  0.78419717  1
  Bi2+  Bi68  1  -0.01798799  0.67241252  0.29946924  1
  Bi2+  Bi69  1  -0.03381324  0.65252485  0.81661262  1
  Bi2+  Bi70  1  0.01418731  0.88025340  0.30318858  1
  Bi2+  Bi71  1  0.02289349  0.86086290  0.79149526  1
  Bi2+  Bi72  1  0.25663135  0.05728779  0.28645592  1
  Bi2+  Bi73  1  0.25042380  0.17573959  0.78326546  1
  Bi2+  Bi74  1  0.26838804  0.38648189  0.28876658  1
  Bi2+  Bi75  1  0.26071301  0.43664182  0.77214252  1
  Bi2+  Bi76  1  0.17620630  0.66227635  0.28198295  1
  Bi2+  Bi77  1  0.24425459  0.70653801  0.77347183  1
  Bi2+  Bi78  1  0.27564351  0.83358863  0.28110016  1
  Bi2+  Bi79  1  0.27368367  0.91391261  0.76908995  1
  Bi2+  Bi80  1  0.46597148  0.07097336  0.25418468  1
  Bi2+  Bi81  1  0.48554247  0.15873661  0.79398682  1
  Bi2+  Bi82  1  0.47812976  0.33076000  0.30764797  1
  Bi2+  Bi83  1  0.46538948  0.36395843  0.77519490  1
  Bi2+  Bi84  1  0.52486816  0.63701757  0.29591517  1
  Bi2+  Bi85  1  0.46489988  0.64090763  0.76911869  1
  Bi2+  Bi86  1  0.47158290  0.86517346  0.29540337  1
  Bi2+  Bi87  1  0.48836988  0.83625981  0.79851443  1
  Bi2+  Bi88  1  0.70962423  0.12033229  0.30179519  1
  Bi2+  Bi89  1  0.74803156  0.11698177  0.79251315  1
  Bi2+  Bi90  1  0.75091467  0.38686752  0.29072988  1
  Bi2+  Bi91  1  0.66237066  0.41070664  0.79521403  1
  Bi2+  Bi92  1  0.69186659  0.62357273  0.23289122  1
  Bi2+  Bi93  1  0.77395389  0.59106358  0.80559559  1
  Bi2+  Bi94  1  0.74257892  0.83318504  0.29276447  1
  Bi2+  Bi95  1  0.76194945  0.86545870  0.79276513  1
  Bi2+  Bi96  1  0.08175766  -0.01027716  0.21612164  1
  Bi2+  Bi97  1  0.13725649  0.01178568  0.70568318  1
  Bi2+  Bi98  1  0.20474337  0.21895928  0.22592315  1
  Bi2+  Bi99  1  0.11571432  0.30579608  0.74759315  1
  Bi2+  Bi100  1  0.15809245  0.52812613  0.19890716  1
  Bi2+  Bi101  1  0.12260283  0.58406537  0.70960771  1
  Bi2+  Bi102  1  0.04420570  0.75560445  0.20073816  1
  Bi2+  Bi103  1  0.04930034  0.76392582  0.69047149  1
  Bi2+  Bi104  1  0.33053288  -0.03740489  0.19571983  1
  Bi2+  Bi105  1  0.37246062  0.04487133  0.70368311  1
  Bi2+  Bi106  1  0.39331269  0.24025577  0.20512712  1
  Bi2+  Bi107  1  0.36540677  0.24232825  0.69707773  1
  Bi2+  Bi108  1  0.34325523  0.42386837  0.17549648  1
  Bi2+  Bi109  1  0.37056559  0.51733029  0.68778352  1
  Bi2+  Bi110  1  0.36534468  0.61030328  0.22074090  1
  Bi2+  Bi111  1  0.37108464  0.79327574  0.69999569  1
  Bi2+  Bi112  1  0.61214488  -0.05613688  0.22542548  1
  Bi2+  Bi113  1  0.55711342  -0.00498141  0.74818047  1
  Bi2+  Bi114  1  0.62657656  0.22944368  0.19967325  1
  Bi2+  Bi115  1  0.61528726  0.25720428  0.72653605  1
  Bi2+  Bi116  1  0.52639138  0.47641056  0.21992039  1
  Bi2+  Bi117  1  0.62781703  0.55748698  0.72105512  1
  Bi2+  Bi118  1  0.54953195  0.76099838  0.19905316  1
  Bi2+  Bi119  1  0.62915771  0.77079416  0.72346570  1
  Bi2+  Bi120  1  0.88335707  -0.02930076  0.23583038  1
  Bi2+  Bi121  1  0.82605905  -0.02553023  0.70513096  1
  Bi2+  Bi122  1  0.87786211  0.20849452  0.20547534  1
  Bi2+  Bi123  1  0.88325248  0.22822401  0.68813869  1
  Bi2+  Bi124  1  0.87921446  0.59136636  0.21057040  1
  Bi2+  Bi125  1  0.87190452  0.48530972  0.70127267  1
  Bi2+  Bi126  1  0.84545430  0.78842492  0.19046480  1
  Bi2+  Bi127  1  0.87081981  0.69189617  0.71895891  1
  S2-  S128  1  0.01295685  0.19780842  0.15519493  1
  S2-  S129  1  -0.02184208  0.07559813  0.67898364  1
  S2-  S130  1  -0.04718727  0.36335763  0.21568685  1
  S2-  S131  1  0.03177153  0.27831281  0.64862228  1
  S2-  S132  1  0.00491597  0.53847560  0.14760345  1
  S2-  S133  1  0.02239058  0.49807120  0.64176159  1
  S2-  S134  1  -0.03821311  0.99157070  0.14278425  1
  S2-  S135  1  -0.08798506  0.87065335  0.64592333  1
  S2-  S136  1  0.24737982  0.10987682  0.15176280  1
  S2-  S137  1  0.19329706  0.12052079  0.64317836  1
  S2-  S138  1  0.16577871  0.37011997  0.14973279  1
  S2-  S139  1  0.28663603  0.37645482  0.64975267  1
  S2-  S140  1  0.25345585  0.64278776  0.14687917  1
  S2-  S141  1  0.25943332  0.63026733  0.64479084  1
  S2-  S142  1  0.13635495  0.86495134  0.14691066  1
  S2-  S143  1  0.16568375  0.87306260  0.64164635  1
  S2-  S144  1  0.50068896  0.12455949  0.15220125  1
  S2-  S145  1  0.52806414  0.25734673  0.64234065  1
  S2-  S146  1  0.56956851  0.37080986  0.14344598  1
  S2-  S147  1  0.53236102  0.49894585  0.64146024  1
  S2-  S148  1  0.50479961  0.61560555  0.14954324  1
  S2-  S149  1  0.51333138  0.73425732  0.64686826  1
  S2-  S150  1  0.38409509  0.84772933  0.13114455  1
  S2-  S151  1  0.52425188  1.01776152  0.65102033  1
  S2-  S152  1  0.73669056  0.11499372  0.16606928  1
  S2-  S153  1  0.75403936  0.11406884  0.66018728  1
  S2-  S154  1  0.75454510  0.33146700  0.19016353  1
  S2-  S155  1  0.78064841  0.36513397  0.65826093  1
  S2-  S156  1  0.73992160  0.53754019  0.14680787  1
  S2-  S157  1  0.76550042  0.60905847  0.65114926  1
  S2-  S158  1  0.68797995  0.85344929  0.15050799  1
  S2-  S159  1  0.68754232  0.87271296  0.65257767  1
  S2-  S160  1  0.14857482  0.10629278  0.35772564  1
  S2-  S161  1  0.09308344  -0.00992492  0.84311173  1
  S2-  S162  1  0.03063908  0.28107242  0.35224853  1
  S2-  S163  1  0.10934168  0.22765193  0.84390135  1
  S2-  S164  1  0.15335536  0.48016938  0.34096904  1
  S2-  S165  1  0.16013466  0.48958756  0.84451122  1
  S2-  S166  1  0.16136747  0.86791087  0.36042378  1
  S2-  S167  1  0.11717595  0.73966480  0.84606646  1
  S2-  S168  1  0.40050507  0.00870830  0.34717655  1
  S2-  S169  1  0.35176759  0.10575529  0.85610816  1
  S2-  S170  1  0.33465310  0.25543683  0.34611428  1
  S2-  S171  1  0.34182387  0.34307758  0.84896752  1
  S2-  S172  1  0.39780659  0.47330403  0.34087821  1
  S2-  S173  1  0.34825509  0.63688344  0.84524537  1
  S2-  S174  1  0.38835307  0.73145803  0.34207333  1
  S2-  S175  1  0.34618113  0.87063163  0.86040566  1
  S2-  S176  1  0.68162270  -0.02053788  0.34675844  1
  S2-  S177  1  0.69444242  -0.01122787  0.85732739  1
  S2-  S178  1  0.57293317  0.18820907  0.34492687  1
  S2-  S179  1  0.68175623  0.22547978  0.85426001  1
  S2-  S180  1  0.63321543  0.41221216  0.35384366  1
  S2-  S181  1  0.52808449  0.47937157  0.85218902  1
  S2-  S182  1  0.65441698  0.71995960  0.34644309  1
  S2-  S183  1  0.71533808  0.73121250  0.85670762  1
  S2-  S184  1  0.90522272  0.07588840  0.35991010  1
  S2-  S185  1  0.88772581  0.09570272  0.85513077  1
  S2-  S186  1  0.78662260  0.25875477  0.34771585  1
  S2-  S187  1  0.87925441  0.24622976  0.78448150  1
  S2-  S188  1  0.85870388  0.49203183  0.34371926  1
  S2-  S189  1  0.79857121  0.43274618  0.85952086  1
  S2-  S190  1  0.88140704  0.78787627  0.35423004  1
  S2-  S191  1  0.89297407  0.86661582  0.85747650  1
  S2-  S192  1  0.03204760  0.12208010  0.46273980  1
  S2-  S193  1  -0.01266392  0.11480211  0.96293602  1
  S2-  S194  1  0.03177230  0.37220397  0.45894525  1
  S2-  S195  1  -0.01720097  0.35841797  0.93543407  1
  S2-  S196  1  0.03230418  0.62515182  0.45347875  1
  S2-  S197  1  -0.01629547  0.61504544  0.95528460  1
  S2-  S198  1  0.02744912  0.87239775  0.46092361  1
  S2-  S199  1  -0.01534881  0.85841417  0.96521214  1
  S2-  S200  1  0.28510007  0.12358921  0.45531184  1
  S2-  S201  1  0.22978774  0.11194655  0.95194783  1
  S2-  S202  1  0.28258955  0.37281695  0.44861375  1
  S2-  S203  1  0.23225782  0.36060002  0.95318663  1
  S2-  S204  1  0.28099122  0.62143187  0.44413405  1
  S2-  S205  1  0.23573637  0.61152689  0.94859089  1
  S2-  S206  1  0.28388669  0.87013363  0.46016560  1
  S2-  S207  1  0.23358058  0.86453703  0.95991880  1
  S2-  S208  1  0.53301437  0.12341565  0.46137806  1
  S2-  S209  1  0.49066910  0.11004071  0.95112639  1
  S2-  S210  1  0.52984336  0.37364903  0.45852780  1
  S2-  S211  1  0.48454722  0.36215282  0.95327047  1
  S2-  S212  1  0.53282656  0.61985521  0.45572332  1
  S2-  S213  1  0.48635561  0.61508858  0.94568591  1
  S2-  S214  1  0.53487983  0.87300457  0.44599200  1
  S2-  S215  1  0.49229060  0.86743245  0.95196815  1
  S2-  S216  1  0.77999521  0.12443257  0.45761748  1
  S2-  S217  1  0.73859065  0.11847460  0.96106820  1
  S2-  S218  1  0.78602102  0.37376595  0.45437825  1
  S2-  S219  1  0.73922703  0.35700019  0.96440436  1
  S2-  S220  1  0.78361727  0.62425153  0.45097805  1
  S2-  S221  1  0.73817556  0.61337958  0.95751152  1
  S2-  S222  1  0.78403652  0.87461571  0.46187621  1
  S2-  S223  1  0.73640922  0.85983665  0.95793024  1
  S2-  S224  1  0.11682153  -0.00760794  0.04817278  1
  S2-  S225  1  0.15935303  -0.00181676  0.54166543  1
  S2-  S226  1  0.11118343  0.23977109  0.04679456  1
  S2-  S227  1  0.16215941  0.25164619  0.53949604  1
  S2-  S228  1  0.11108715  0.48783832  0.04243793  1
  S2-  S229  1  0.16133560  0.49880205  0.54374175  1
  S2-  S230  1  0.11449561  0.73308544  0.04861408  1
  S2-  S231  1  0.15627680  0.74564316  0.53932583  1
  S2-  S232  1  0.36323215  -0.00793107  0.03729912  1
  S2-  S233  1  0.40757804  -0.00726853  0.55147399  1
  S2-  S234  1  0.36266767  0.23976139  0.04265309  1
  S2-  S235  1  0.40556415  0.24989318  0.54097370  1
  S2-  S236  1  0.36247906  0.48791029  0.04334133  1
  S2-  S237  1  0.40716900  0.49905852  0.54098140  1
  S2-  S238  1  0.36187858  0.73621447  0.03056727  1
  S2-  S239  1  0.41035936  0.75240272  0.54542404  1
  S2-  S240  1  0.61457188  -0.01263076  0.04904251  1
  S2-  S241  1  0.65611803  -0.00281802  0.54865017  1
  S2-  S242  1  0.61233770  0.24008975  0.04938221  1
  S2-  S243  1  0.65936860  0.25205537  0.54259114  1
  S2-  S244  1  0.61253862  0.49077400  0.04072586  1
  S2-  S245  1  0.65869162  0.50081618  0.54340968  1
  S2-  S246  1  0.61412689  0.73993683  0.04242368  1
  S2-  S247  1  0.65469375  0.74832750  0.54839491  1
  S2-  S248  1  0.85799564  -0.01127335  0.04431216  1
  S2-  S249  1  0.91076419  0.00521532  0.55035392  1
  S2-  S250  1  0.86348283  0.24750149  0.07051017  1
  S2-  S251  1  0.90712345  0.24826522  0.54558620  1
  S2-  S252  1  0.86562372  0.48679304  0.05260703  1
  S2-  S253  1  0.90527298  0.50349427  0.54242560  1
  S2-  S254  1  0.86434361  0.73679604  0.05260551  1
  S2-  S255  1  0.90879532  0.74208273  0.54990130  1
