# generated using pymatgen
data_La6Ce7Pr13Nd19Sm19(BiS2)64
_symmetry_space_group_name_H-M   'P 1'
_cell_length_a   16.05876545
_cell_length_b   16.02446603
_cell_length_c   27.33137203
_cell_angle_alpha   90.37884799
_cell_angle_beta   89.99595872
_cell_angle_gamma   90.07585876
_symmetry_Int_Tables_number   1
_chemical_formula_structural   La6Ce7Pr13Nd19Sm19(BiS2)64
_chemical_formula_sum   'La6 Ce7 Pr13 Nd19 Sm19 Bi64 S128'
_cell_volume   7033.10789671
_cell_formula_units_Z   1
loop_
 _symmetry_equiv_pos_site_id
 _symmetry_equiv_pos_as_xyz
  1  'x, y, z'
loop_
 _atom_type_symbol
 _atom_type_oxidation_number
  La3+  3.0
  Ce3+  3.0
  Pr3+  3.0
  Nd3+  3.0
  Sm3+  3.0
  Bi2+  2.0
  S2-  -2.0
loop_
 _atom_site_type_symbol
 _atom_site_label
 _atom_site_symmetry_multiplicity
 _atom_site_fract_x
 _atom_site_fract_y
 _atom_site_fract_z
 _atom_site_occupancy
  La3+  La0  1  0.12298151  0.74893980  0.43067592  1
  La3+  La1  1  0.13299420  -0.01089704  0.90754247  1
  La3+  La2  1  0.75221030  0.61550466  0.11134223  1
  La3+  La3  1  0.74709593  0.12058205  0.57856111  1
  La3+  La4  1  0.89956814  -0.00929361  0.39334429  1
  La3+  La5  1  0.37885660  0.23465248  0.42106440  1
  Ce3+  Ce6  1  0.25011200  0.62075898  0.06485773  1
  Ce3+  Ce7  1  0.62381596  0.48641685  0.44288160  1
  Ce3+  Ce8  1  0.87255300  0.49126118  0.43111962  1
  Ce3+  Ce9  1  -0.00196810  0.36672736  0.56146252  1
  Ce3+  Ce10  1  0.63126414  0.24119922  0.94443465  1
  Ce3+  Ce11  1  0.50305506  0.12437059  0.05934079  1
  Ce3+  Ce12  1  0.25244530  0.85761915  0.57288434  1
  Pr3+  Pr13  1  0.00251289  0.37441901  0.05744867  1
  Pr3+  Pr14  1  0.50525098  0.61957034  0.06223430  1
  Pr3+  Pr15  1  0.49454011  0.36829144  0.56389892  1
  Pr3+  Pr16  1  -0.00164808  0.86029077  0.58108839  1
  Pr3+  Pr17  1  0.12022395  0.48870704  0.43551065  1
  Pr3+  Pr18  1  -0.00085377  0.61583683  0.56557616  1
  Pr3+  Pr19  1  0.25218683  0.87044305  0.06317637  1
  Pr3+  Pr20  1  0.12859801  0.49377410  0.92660265  1
  Pr3+  Pr21  1  0.86924029  -0.01121728  0.90882355  1
  Pr3+  Pr22  1  0.49713812  0.12273710  0.56776882  1
  Pr3+  Pr23  1  0.63002024  0.49473124  0.92403822  1
  Pr3+  Pr24  1  0.75484894  0.11823100  0.06813112  1
  Pr3+  Pr25  1  0.63075505  0.74236029  0.94137902  1
  Nd3+  Nd26  1  0.50133006  0.86885043  0.56417878  1
  Nd3+  Nd27  1  0.00350696  0.11884001  0.04819927  1
  Nd3+  Nd28  1  0.88145904  0.74761723  0.93838784  1
  Nd3+  Nd29  1  0.75567853  0.87225195  0.06535410  1
  Nd3+  Nd30  1  0.24783643  0.36182972  0.55591012  1
  Nd3+  Nd31  1  0.49663654  0.61191169  0.56651982  1
  Nd3+  Nd32  1  0.37633023  0.49391702  0.92817981  1
  Nd3+  Nd33  1  0.88099973  0.49471910  0.92840090  1
  Nd3+  Nd34  1  0.62654651  0.23523247  0.43883477  1
  Nd3+  Nd35  1  0.24830755  0.61498891  0.55691353  1
  Nd3+  Nd36  1  0.25258858  0.37304337  0.05829737  1
  Nd3+  Nd37  1  0.37768959  0.24062710  0.93709105  1
  Nd3+  Nd38  1  0.37442431  -0.01063417  0.44153298  1
  Nd3+  Nd39  1  0.11948737  0.23413308  0.44292586  1
  Nd3+  Nd40  1  0.74581828  0.85496826  0.58982697  1
  Nd3+  Nd41  1  0.00326407  0.87263774  0.05371317  1
  Nd3+  Nd42  1  0.13789045  0.74430822  0.92883119  1
  Nd3+  Nd43  1  0.62499902  0.73908650  0.44431810  1
  Nd3+  Nd44  1  0.12773627  0.24082206  0.93446342  1
  Sm3+  Sm45  1  0.24957692  0.11201384  0.56474040  1
  Sm3+  Sm46  1  0.00488252  0.62267237  0.05973646  1
  Sm3+  Sm47  1  0.75484025  0.37864977  0.05391219  1
  Sm3+  Sm48  1  0.12138266  -0.01512614  0.45817368  1
  Sm3+  Sm49  1  -0.00251572  0.11172646  0.56853347  1
  Sm3+  Sm50  1  0.87714289  0.23899362  0.94245246  1
  Sm3+  Sm51  1  0.37388879  0.73421852  0.43315194  1
  Sm3+  Sm52  1  0.87066752  0.74084648  0.44411435  1
  Sm3+  Sm53  1  0.62868610  -0.00665665  0.93805757  1
  Sm3+  Sm54  1  0.87248185  0.23360860  0.44796065  1
  Sm3+  Sm55  1  0.75051360  0.36697668  0.56132640  1
  Sm3+  Sm56  1  0.25127155  0.12121600  0.05826096  1
  Sm3+  Sm57  1  0.63765563  -0.01462842  0.45063222  1
  Sm3+  Sm58  1  0.50487017  0.37408910  0.05229463  1
  Sm3+  Sm59  1  0.75039239  0.61338098  0.56196427  1
  Sm3+  Sm60  1  0.37404940  0.48707964  0.42808901  1
  Sm3+  Sm61  1  0.37837190  -0.00667786  0.94056986  1
  Sm3+  Sm62  1  0.50482256  0.87194160  0.05772815  1
  Sm3+  Sm63  1  0.37793029  0.74438171  0.94372104  1
  Bi2+  Bi64  1  0.00462533  0.21651443  0.28346248  1
  Bi2+  Bi65  1  0.01356344  0.18199427  0.78943500  1
  Bi2+  Bi66  1  -0.03186247  0.40498858  0.31878285  1
  Bi2+  Bi67  1  0.00286010  0.44294642  0.75115625  1
  Bi2+  Bi68  1  -0.03003292  0.58659634  0.28087017  1
  Bi2+  Bi69  1  -0.00085236  0.62895628  0.79537278  1
  Bi2+  Bi70  1  0.02397420  0.85952553  0.29258909  1
  Bi2+  Bi71  1  -0.00068128  0.89429120  0.78506235  1
  Bi2+  Bi72  1  0.28109325  0.12105581  0.26317470  1
  Bi2+  Bi73  1  0.28567627  0.16490894  0.80480403  1
  Bi2+  Bi74  1  0.22161612  0.36542426  0.28773858  1
  Bi2+  Bi75  1  0.28275267  0.45699974  0.75472892  1
  Bi2+  Bi76  1  0.21020865  0.65329472  0.29001062  1
  Bi2+  Bi77  1  0.20176482  0.63495403  0.78933694  1
  Bi2+  Bi78  1  0.28939652  0.89781070  0.29156782  1
  Bi2+  Bi79  1  0.30431371  0.86467147  0.79153470  1
  Bi2+  Bi80  1  0.47267886  0.10959896  0.28420323  1
  Bi2+  Bi81  1  0.50883697  0.14500983  0.79693820  1
  Bi2+  Bi82  1  0.49531219  0.36010644  0.29083037  1
  Bi2+  Bi83  1  0.55275388  0.41257012  0.77779431  1
  Bi2+  Bi84  1  0.46930769  0.71190676  0.28618946  1
  Bi2+  Bi85  1  0.49485789  0.67279512  0.80425511  1
  Bi2+  Bi86  1  0.48744855  0.91128370  0.29899058  1
  Bi2+  Bi87  1  0.48149879  0.95235589  0.81866714  1
  Bi2+  Bi88  1  0.74257451  0.20499159  0.30472271  1
  Bi2+  Bi89  1  0.76325891  0.14524164  0.80338361  1
  Bi2+  Bi90  1  0.76909148  0.39781065  0.31335698  1
  Bi2+  Bi91  1  0.74711990  0.38527974  0.77145737  1
  Bi2+  Bi92  1  0.70477450  0.59785533  0.31448604  1
  Bi2+  Bi93  1  0.69116903  0.61363919  0.79341701  1
  Bi2+  Bi94  1  0.76298041  0.86692521  0.29316426  1
  Bi2+  Bi95  1  0.74909936  0.86218980  0.78211853  1
  Bi2+  Bi96  1  0.14124890  -0.00758430  0.24324475  1
  Bi2+  Bi97  1  0.14419037  0.04429303  0.70292979  1
  Bi2+  Bi98  1  0.12475055  0.23169676  0.19656522  1
  Bi2+  Bi99  1  0.18397479  0.30228949  0.70625904  1
  Bi2+  Bi100  1  0.15030042  0.48527958  0.20608184  1
  Bi2+  Bi101  1  0.10326370  0.58236207  0.69029286  1
  Bi2+  Bi102  1  0.18606362  0.75550917  0.19335137  1
  Bi2+  Bi103  1  0.15917972  0.77221125  0.70406840  1
  Bi2+  Bi104  1  0.39096637  -0.10961833  0.19012564  1
  Bi2+  Bi105  1  0.37315895  0.03717520  0.72409878  1
  Bi2+  Bi106  1  0.39163328  0.28384636  0.18617499  1
  Bi2+  Bi107  1  0.40970412  0.30147658  0.73541411  1
  Bi2+  Bi108  1  0.37189538  0.54804674  0.25824306  1
  Bi2+  Bi109  1  0.40092663  0.60259884  0.70791134  1
  Bi2+  Bi110  1  0.36509880  0.68390248  0.17754363  1
  Bi2+  Bi111  1  0.44032286  0.79837616  0.72034974  1
  Bi2+  Bi112  1  0.65104247  0.02722299  0.26887870  1
  Bi2+  Bi113  1  0.60630028  -0.04143373  0.72416624  1
  Bi2+  Bi114  1  0.65177808  0.20038561  0.19742959  1
  Bi2+  Bi115  1  0.60213028  0.20464456  0.70158693  1
  Bi2+  Bi116  1  0.63672677  0.39426730  0.21854286  1
  Bi2+  Bi117  1  0.64856218  0.47326058  0.68386243  1
  Bi2+  Bi118  1  0.62024607  0.74839412  0.20636299  1
  Bi2+  Bi119  1  0.59314161  0.67060074  0.69303247  1
  Bi2+  Bi120  1  0.90544101  0.00225399  0.18452192  1
  Bi2+  Bi121  1  0.88151296  0.02680772  0.69853660  1
  Bi2+  Bi122  1  0.84765527  0.20857716  0.20173341  1
  Bi2+  Bi123  1  0.87813921  0.30620519  0.70056690  1
  Bi2+  Bi124  1  0.88467065  0.40286145  0.21255752  1
  Bi2+  Bi125  1  0.84844249  0.49393943  0.65868864  1
  Bi2+  Bi126  1  0.90492437  0.73466816  0.20647890  1
  Bi2+  Bi127  1  0.84567816  0.65283219  0.72842122  1
  S2-  S128  1  0.03299669  0.11530831  0.14657854  1
  S2-  S129  1  0.00924849  0.13853664  0.66651023  1
  S2-  S130  1  0.03842318  0.37800852  0.15648090  1
  S2-  S131  1  0.03924501  0.35715705  0.65635382  1
  S2-  S132  1  -0.08081964  0.60879882  0.14554765  1
  S2-  S133  1  0.01494188  0.72129916  0.64766219  1
  S2-  S134  1  -0.01014358  0.85760273  0.15437057  1
  S2-  S135  1  0.02820331  0.92758167  0.67957410  1
  S2-  S136  1  0.26656568  0.16266140  0.15388735  1
  S2-  S137  1  0.24911238  0.17011219  0.65817499  1
  S2-  S138  1  0.27244153  0.40809829  0.15591491  1
  S2-  S139  1  0.26044179  0.41887028  0.64953977  1
  S2-  S140  1  0.13083394  0.61811240  0.13690961  1
  S2-  S141  1  0.26880587  0.71970951  0.63776927  1
  S2-  S142  1  0.21837706  0.92424053  0.15716973  1
  S2-  S143  1  0.26027536  0.94702070  0.65933304  1
  S2-  S144  1  0.49387453  0.15134984  0.15583468  1
  S2-  S145  1  0.49326730  0.03847668  0.65836350  1
  S2-  S146  1  0.49688025  0.39136563  0.15022582  1
  S2-  S147  1  0.48362925  0.25447110  0.64233752  1
  S2-  S148  1  0.58588684  0.61795691  0.15073471  1
  S2-  S149  1  0.48193406  0.49307366  0.64011981  1
  S2-  S150  1  0.54644684  0.88328346  0.15281279  1
  S2-  S151  1  0.59676889  0.85383287  0.64834824  1
  S2-  S152  1  0.75925685  -0.00109063  0.14195805  1
  S2-  S153  1  0.72470205  0.07258748  0.67862480  1
  S2-  S154  1  0.75231053  0.44478614  0.14465311  1
  S2-  S155  1  0.73819441  0.26930361  0.64385491  1
  S2-  S156  1  0.75181783  0.63393641  0.22792372  1
  S2-  S157  1  0.74798313  0.70035707  0.64792050  1
  S2-  S158  1  0.76243496  0.78234794  0.15043205  1
  S2-  S159  1  0.81892576  0.87930051  0.68684865  1
  S2-  S160  1  0.07468705  -0.03195882  0.36363339  1
  S2-  S161  1  0.09695366  0.04212785  0.80683859  1
  S2-  S162  1  0.14404543  0.23384596  0.34432681  1
  S2-  S163  1  0.13571806  0.25955204  0.83498159  1
  S2-  S164  1  0.18098996  0.49589249  0.34059678  1
  S2-  S165  1  0.00122327  0.48104253  0.85349525  1
  S2-  S166  1  0.06315496  0.69865853  0.33703280  1
  S2-  S167  1  0.10542982  0.84276003  0.84672746  1
  S2-  S168  1  0.34917722  0.09163660  0.36000150  1
  S2-  S169  1  0.28936175  0.00604570  0.85572503  1
  S2-  S170  1  0.36009838  0.36704831  0.35186427  1
  S2-  S171  1  0.37357622  0.28819617  0.84167841  1
  S2-  S172  1  0.39557311  0.61101946  0.35814267  1
  S2-  S173  1  0.25318740  0.49860278  0.85489875  1
  S2-  S174  1  0.25896170  0.77741349  0.36031410  1
  S2-  S175  1  0.28887298  0.73734625  0.85999248  1
  S2-  S176  1  0.72269401  -0.01035918  0.36429804  1
  S2-  S177  1  0.71525947  -0.00081955  0.85251308  1
  S2-  S178  1  0.52983758  0.23043880  0.35491517  1
  S2-  S179  1  0.63528197  0.23541287  0.84694399  1
  S2-  S180  1  0.58001139  0.48305482  0.34884019  1
  S2-  S181  1  0.49746015  0.51003331  0.85344119  1
  S2-  S182  1  0.65299239  0.75397546  0.34552403  1
  S2-  S183  1  0.63777422  0.76860349  0.84105933  1
  S2-  S184  1  0.89607109  -0.02042561  0.28169229  1
  S2-  S185  1  0.90083767  0.04506280  0.80920390  1
  S2-  S186  1  0.88998640  0.16121210  0.35898510  1
  S2-  S187  1  0.87759336  0.25165796  0.84451654  1
  S2-  S188  1  0.86318117  0.61409904  0.36145551  1
  S2-  S189  1  0.76110130  0.48737309  0.85166863  1
  S2-  S190  1  0.88324177  0.82461178  0.35751237  1
  S2-  S191  1  0.87277632  0.83489675  0.84903633  1
  S2-  S192  1  -0.00400446  0.10798504  0.46355440  1
  S2-  S193  1  0.00253530  0.11337785  0.94115223  1
  S2-  S194  1  -0.00412008  0.36070060  0.45425138  1
  S2-  S195  1  0.00206044  0.36130077  0.95192440  1
  S2-  S196  1  -0.00013876  0.61648984  0.45769861  1
  S2-  S197  1  0.00757104  0.62526257  0.95092653  1
  S2-  S198  1  -0.00654813  0.86709361  0.46685821  1
  S2-  S199  1  0.00525214  0.87591017  0.94959598  1
  S2-  S200  1  0.24252419  0.11115934  0.46057856  1
  S2-  S201  1  0.25133227  0.11796370  0.95423776  1
  S2-  S202  1  0.24365405  0.36095464  0.45141164  1
  S2-  S203  1  0.25280323  0.36473121  0.95173721  1
  S2-  S204  1  0.24705880  0.61358978  0.45244590  1
  S2-  S205  1  0.25605228  0.61853515  0.95939404  1
  S2-  S206  1  0.25200089  0.86907150  0.46530572  1
  S2-  S207  1  0.25586728  0.87218538  0.95662173  1
  S2-  S208  1  0.50608307  0.10663820  0.45918333  1
  S2-  S209  1  0.50338977  0.11675037  0.95132101  1
  S2-  S210  1  0.49847050  0.36423102  0.45671167  1
  S2-  S211  1  0.50354049  0.36618487  0.94840428  1
  S2-  S212  1  0.50067098  0.61211001  0.46006750  1
  S2-  S213  1  0.50033681  0.62181748  0.95503069  1
  S2-  S214  1  0.50012425  0.86566617  0.45410231  1
  S2-  S215  1  0.50236960  0.86961134  0.95231543  1
  S2-  S216  1  0.74912818  0.11694796  0.46743480  1
  S2-  S217  1  0.75454545  0.11614851  0.95814651  1
  S2-  S218  1  0.75138848  0.36116820  0.45534244  1
  S2-  S219  1  0.75658768  0.36530194  0.95079600  1
  S2-  S220  1  0.74604262  0.61310894  0.45942352  1
  S2-  S221  1  0.75786601  0.62306931  0.94294965  1
  S2-  S222  1  0.74623032  0.85734242  0.47060112  1
  S2-  S223  1  0.75238569  0.87148551  0.95616839  1
  S2-  S224  1  0.13037371  -0.00164800  0.04237510  1
  S2-  S225  1  0.12359774  -0.01061199  0.56024683  1
  S2-  S226  1  0.12938147  0.24564197  0.04202041  1
  S2-  S227  1  0.12207920  0.23537335  0.54968120  1
  S2-  S228  1  0.12818185  0.49390063  0.03603367  1
  S2-  S229  1  0.12388024  0.49042332  0.54362588  1
  S2-  S230  1  0.12790841  0.74828954  0.03746886  1
  S2-  S231  1  0.12454101  0.74075165  0.54126675  1
  S2-  S232  1  0.37830341  -0.00203911  0.04674755  1
  S2-  S233  1  0.37484536  -0.00954639  0.54768508  1
  S2-  S234  1  0.37759394  0.24785987  0.04342585  1
  S2-  S235  1  0.36775262  0.23741512  0.53784242  1
  S2-  S236  1  0.37840794  0.49529447  0.04125643  1
  S2-  S237  1  0.36837726  0.49030673  0.53518776  1
  S2-  S238  1  0.37998217  0.74759983  0.04709615  1
  S2-  S239  1  0.38180093  0.73896411  0.53878912  1
  S2-  S240  1  0.62504445  -0.00249510  0.04242964  1
  S2-  S241  1  0.62598591  -0.00806845  0.55328274  1
  S2-  S242  1  0.63142938  0.25016917  0.05064132  1
  S2-  S243  1  0.62328734  0.24614529  0.54294138  1
  S2-  S244  1  0.62908321  0.49465549  0.03606607  1
  S2-  S245  1  0.62781130  0.48968062  0.54724790  1
  S2-  S246  1  0.62721095  0.74781155  0.04633770  1
  S2-  S247  1  0.62021986  0.73364167  0.54839229  1
  S2-  S248  1  0.87938493  -0.00370855  0.03825279  1
  S2-  S249  1  0.87259490  -0.01102780  0.57178692  1
  S2-  S250  1  0.87641252  0.24691580  0.04835175  1
  S2-  S251  1  0.87816976  0.24014929  0.55151141  1
  S2-  S252  1  0.88013850  0.49741760  0.03651077  1
  S2-  S253  1  0.87428820  0.49031066  0.53877280  1
  S2-  S254  1  0.88098044  0.74512094  0.04212538  1
  S2-  S255  1  0.87202948  0.73918424  0.55017078  1
