# generated using pymatgen
data_La6Ce7Pr13Nd19Sm19(BiS2)64
_symmetry_space_group_name_H-M   'P 1'
_cell_length_a   16.01075371
_cell_length_b   16.07073142
_cell_length_c   27.60188300
_cell_angle_alpha   89.93912787
_cell_angle_beta   90.90821032
_cell_angle_gamma   89.97890000
_symmetry_Int_Tables_number   1
_chemical_formula_structural   La6Ce7Pr13Nd19Sm19(BiS2)64
_chemical_formula_sum   'La6 Ce7 Pr13 Nd19 Sm19 Bi64 S128'
_cell_volume   7101.19256913
_cell_formula_units_Z   1
loop_
 _symmetry_equiv_pos_site_id
 _symmetry_equiv_pos_as_xyz
  1  'x, y, z'
loop_
 _atom_type_symbol
 _atom_type_oxidation_number
  La3+  3.0
  Ce3+  3.0
  Pr3+  3.0
  Nd3+  3.0
  Sm3+  3.0
  Bi2+  2.0
  S2-  -2.0
loop_
 _atom_site_type_symbol
 _atom_site_label
 _atom_site_symmetry_multiplicity
 _atom_site_fract_x
 _atom_site_fract_y
 _atom_site_fract_z
 _atom_site_occupancy
  La3+  La0  1  0.73957846  0.87394481  0.11929019  1
  La3+  La1  1  0.23651308  0.11044120  0.08717789  1
  La3+  La2  1  -0.00170376  0.38715392  0.56630665  1
  La3+  La3  1  0.74126937  0.87518255  0.61253239  1
  La3+  La4  1  -0.00106430  0.88537401  0.57555213  1
  La3+  La5  1  0.75500177  0.60856394  0.07207191  1
  Ce3+  Ce6  1  0.74687515  0.12865409  0.56168035  1
  Ce3+  Ce7  1  0.24807664  0.13566752  0.56342591  1
  Ce3+  Ce8  1  0.24334077  0.39068647  0.56682874  1
  Ce3+  Ce9  1  0.24767008  0.36430037  0.06594296  1
  Ce3+  Ce10  1  -0.00531516  0.60533966  0.04998713  1
  Ce3+  Ce11  1  -0.01298071  0.85586720  0.05784650  1
  Ce3+  Ce12  1  0.49393421  0.35867455  0.05509162  1
  Pr3+  Pr13  1  0.61722713  0.48027104  0.93066084  1
  Pr3+  Pr14  1  0.11916149  0.22926385  0.93650446  1
  Pr3+  Pr15  1  0.36556933  0.48204268  0.92943990  1
  Pr3+  Pr16  1  0.36225789  0.76890066  0.42302784  1
  Pr3+  Pr17  1  0.74603996  0.63217899  0.56369885  1
  Pr3+  Pr18  1  0.74490253  0.10999752  0.06258641  1
  Pr3+  Pr19  1  0.13004149  -0.02544110  0.90873963  1
  Pr3+  Pr20  1  0.37050834  0.00867426  0.45017681  1
  Pr3+  Pr21  1  0.24588234  0.60953575  0.06840150  1
  Pr3+  Pr22  1  0.86040624  0.73210953  0.92810531  1
  Pr3+  Pr23  1  0.61805746  -0.01816674  0.94463780  1
  Pr3+  Pr24  1  0.11780973  0.48058434  0.92530591  1
  Pr3+  Pr25  1  0.25107093  0.88207745  0.57477348  1
  Nd3+  Nd26  1  0.49922180  0.85533341  0.06207453  1
  Nd3+  Nd27  1  0.11786660  0.50779262  0.42804529  1
  Nd3+  Nd28  1  0.87071012  0.25862487  0.44033769  1
  Nd3+  Nd29  1  0.61610839  0.76408232  0.41129389  1
  Nd3+  Nd30  1  0.12045350  0.75934452  0.44414661  1
  Nd3+  Nd31  1  0.50141558  0.38685492  0.55403305  1
  Nd3+  Nd32  1  0.86615070  0.48054026  0.92823014  1
  Nd3+  Nd33  1  0.62311034  0.25564498  0.43179875  1
  Nd3+  Nd34  1  -0.00068413  0.10538580  0.05435827  1
  Nd3+  Nd35  1  0.86903629  -0.01898548  0.94157654  1
  Nd3+  Nd36  1  0.36441324  0.73325292  0.94437789  1
  Nd3+  Nd37  1  0.50190656  0.63765044  0.54438076  1
  Nd3+  Nd38  1  0.62026644  0.73140502  0.94391101  1
  Nd3+  Nd39  1  0.50237852  0.13532197  0.55979581  1
  Nd3+  Nd40  1  0.61592233  0.23048879  0.94176222  1
  Nd3+  Nd41  1  0.25274323  0.63290265  0.56063315  1
  Nd3+  Nd42  1  0.12087459  0.25867948  0.43968192  1
  Nd3+  Nd43  1  0.62128567  0.01020695  0.43274894  1
  Nd3+  Nd44  1  0.74691248  0.36000101  0.06300054  1
  Sm3+  Sm45  1  0.86581819  0.75868171  0.44655171  1
  Sm3+  Sm46  1  -0.00371148  0.63397814  0.55417476  1
  Sm3+  Sm47  1  0.86629603  0.51012113  0.43136202  1
  Sm3+  Sm48  1  0.86921383  0.00446744  0.44525906  1
  Sm3+  Sm49  1  -0.00067852  0.35919369  0.05338515  1
  Sm3+  Sm50  1  0.36808211  0.26020782  0.44941124  1
  Sm3+  Sm51  1  0.75315696  0.38569139  0.56392820  1
  Sm3+  Sm52  1  0.50127491  0.60542421  0.05848834  1
  Sm3+  Sm53  1  -0.00370313  0.13019008  0.55670801  1
  Sm3+  Sm54  1  0.50488681  0.88164871  0.55616623  1
  Sm3+  Sm55  1  0.12018499  0.00692269  0.44628762  1
  Sm3+  Sm56  1  0.37005043  0.50973448  0.42915422  1
  Sm3+  Sm57  1  0.49460175  0.10593864  0.05733340  1
  Sm3+  Sm58  1  0.11719586  0.73666273  0.94570372  1
  Sm3+  Sm59  1  0.61899400  0.50871389  0.42596255  1
  Sm3+  Sm60  1  0.36195760  0.22768140  0.94556047  1
  Sm3+  Sm61  1  0.24442295  0.85978660  0.07181860  1
  Sm3+  Sm62  1  0.36450687  -0.01956828  0.94769533  1
  Sm3+  Sm63  1  0.86978396  0.23037865  0.94551257  1
  Bi2+  Bi64  1  0.03771234  0.16475142  0.29830320  1
  Bi2+  Bi65  1  0.01152946  0.19527576  0.78851718  1
  Bi2+  Bi66  1  -0.09101549  0.30230531  0.24599055  1
  Bi2+  Bi67  1  0.03517108  0.39952514  0.77852920  1
  Bi2+  Bi68  1  0.06552149  0.59126065  0.29132902  1
  Bi2+  Bi69  1  0.01641936  0.62580158  0.74828348  1
  Bi2+  Bi70  1  0.01123729  0.85883661  0.27475649  1
  Bi2+  Bi71  1  -0.00629624  0.87904941  0.80233073  1
  Bi2+  Bi72  1  0.23637979  0.15932364  0.29987149  1
  Bi2+  Bi73  1  0.31947844  0.13212779  0.76786719  1
  Bi2+  Bi74  1  0.16236118  0.41655901  0.27019340  1
  Bi2+  Bi75  1  0.26766031  0.40007403  0.77869370  1
  Bi2+  Bi76  1  0.29560892  0.65034039  0.30090699  1
  Bi2+  Bi77  1  0.30152332  0.66069357  0.77075752  1
  Bi2+  Bi78  1  0.23175697  0.91197693  0.30061689  1
  Bi2+  Bi79  1  0.25273785  0.87236641  0.79467880  1
  Bi2+  Bi80  1  0.49927346  0.11298013  0.28629825  1
  Bi2+  Bi81  1  0.50639271  0.13788015  0.80355277  1
  Bi2+  Bi82  1  0.56409077  0.30254586  0.30247276  1
  Bi2+  Bi83  1  0.52898486  0.33710012  0.78986851  1
  Bi2+  Bi84  1  0.50157361  0.58526628  0.27978562  1
  Bi2+  Bi85  1  0.49351932  0.60640624  0.79773794  1
  Bi2+  Bi86  1  0.47890062  0.88190259  0.28904206  1
  Bi2+  Bi87  1  0.49570021  0.85783972  0.78943021  1
  Bi2+  Bi88  1  0.76900887  0.14388723  0.28992781  1
  Bi2+  Bi89  1  0.71067174  0.13908054  0.76996019  1
  Bi2+  Bi90  1  0.72162565  0.40446010  0.27522630  1
  Bi2+  Bi91  1  0.82487468  0.37904445  0.79332994  1
  Bi2+  Bi92  1  0.82898034  0.62951113  0.29971618  1
  Bi2+  Bi93  1  0.69128953  0.60325787  0.78358099  1
  Bi2+  Bi94  1  0.77793790  0.86899576  0.31889752  1
  Bi2+  Bi95  1  0.73423193  0.88553328  0.82403000  1
  Bi2+  Bi96  1  0.10654811  -0.01076722  0.20868231  1
  Bi2+  Bi97  1  0.11614158  0.02058091  0.71067974  1
  Bi2+  Bi98  1  0.11787588  0.26742145  0.19690269  1
  Bi2+  Bi99  1  0.19886865  0.25561461  0.70780384  1
  Bi2+  Bi100  1  0.11295169  0.54161240  0.18464202  1
  Bi2+  Bi101  1  0.14893167  0.50442120  0.70353877  1
  Bi2+  Bi102  1  0.13423724  0.73155419  0.21762929  1
  Bi2+  Bi103  1  0.15434989  0.74349135  0.70687049  1
  Bi2+  Bi104  1  0.34106837  0.07585672  0.21911298  1
  Bi2+  Bi105  1  0.36934047  -0.07550333  0.70716791  1
  Bi2+  Bi106  1  0.38104876  0.29704925  0.25468369  1
  Bi2+  Bi107  1  0.39321608  0.29659700  0.70892316  1
  Bi2+  Bi108  1  0.34006670  0.49113233  0.23816866  1
  Bi2+  Bi109  1  0.41407640  0.53458561  0.69932517  1
  Bi2+  Bi110  1  0.33597913  0.79426755  0.22704143  1
  Bi2+  Bi111  1  0.33883565  0.74199037  0.66734252  1
  Bi2+  Bi112  1  0.60980110  0.00612803  0.21263597  1
  Bi2+  Bi113  1  0.54516786  0.01571876  0.71167161  1
  Bi2+  Bi114  1  0.55384588  0.24779776  0.18828330  1
  Bi2+  Bi115  1  0.66109353  0.24658720  0.68066738  1
  Bi2+  Bi116  1  0.60323088  0.49901720  0.19881495  1
  Bi2+  Bi117  1  0.65146790  0.43319909  0.72219889  1
  Bi2+  Bi118  1  0.62029736  0.73877563  0.21785721  1
  Bi2+  Bi119  1  0.57889368  0.72695528  0.72184672  1
  Bi2+  Bi120  1  0.92303674  0.03089957  0.24671325  1
  Bi2+  Bi121  1  0.86904307  0.01012137  0.71205226  1
  Bi2+  Bi122  1  0.74779436  0.23776649  0.18685364  1
  Bi2+  Bi123  1  0.85219871  0.23932356  0.71355993  1
  Bi2+  Bi124  1  0.88184697  0.48306362  0.20519814  1
  Bi2+  Bi125  1  0.85578829  0.49976366  0.69826500  1
  Bi2+  Bi126  1  0.89772179  0.73205799  0.20967556  1
  Bi2+  Bi127  1  0.85241820  0.74622913  0.72606262  1
  S2-  S128  1  0.07381482  0.12095990  0.14460496  1
  S2-  S129  1  -0.00240823  0.09118642  0.65290710  1
  S2-  S130  1  -0.01580310  0.36479979  0.15080265  1
  S2-  S131  1  -0.11961573  0.36680734  0.64015395  1
  S2-  S132  1  -0.07411815  0.60599656  0.13785524  1
  S2-  S133  1  -0.02223383  0.59881940  0.64873583  1
  S2-  S134  1  -0.08618847  0.85828694  0.14601765  1
  S2-  S135  1  -0.09241056  0.86632039  0.65977473  1
  S2-  S136  1  0.25372515  0.25849646  0.14558033  1
  S2-  S137  1  0.24109329  0.10104885  0.65803367  1
  S2-  S138  1  0.25948353  0.48709047  0.14076449  1
  S2-  S139  1  0.12032778  0.36757913  0.64045738  1
  S2-  S140  1  0.25840035  0.73602014  0.14253123  1
  S2-  S141  1  0.27296052  0.51613026  0.63456835  1
  S2-  S142  1  0.25292478  0.97290739  0.15049065  1
  S2-  S143  1  0.13006298  0.89438321  0.64934867  1
  S2-  S144  1  0.47901098  0.09001556  0.15359679  1
  S2-  S145  1  0.50911385  0.16165229  0.65681336  1
  S2-  S146  1  0.48973655  0.39596741  0.14882852  1
  S2-  S147  1  0.49148751  0.40779178  0.65150286  1
  S2-  S148  1  0.51693502  0.63248306  0.15503095  1
  S2-  S149  1  0.50818851  0.64416611  0.64431917  1
  S2-  S150  1  0.56400934  0.86566147  0.15377926  1
  S2-  S151  1  0.57375399  0.89203840  0.64606282  1
  S2-  S152  1  0.73930334  0.04308754  0.15415415  1
  S2-  S153  1  0.75270534  0.04475442  0.64677426  1
  S2-  S154  1  0.74813356  0.46962156  0.13954129  1
  S2-  S155  1  0.72156814  0.50251557  0.63455790  1
  S2-  S156  1  0.73851038  0.70729545  0.15733741  1
  S2-  S157  1  0.74613949  0.71375352  0.65517206  1
  S2-  S158  1  0.72717307  0.87843826  0.22838871  1
  S2-  S159  1  0.74988483  0.88677383  0.73100174  1
  S2-  S160  1  0.13301709  0.03446118  0.35090202  1
  S2-  S161  1  0.08225014  0.03663840  0.81476715  1
  S2-  S162  1  0.10793807  0.30195316  0.34490754  1
  S2-  S163  1  0.12580390  0.28267766  0.84192927  1
  S2-  S164  1  0.24647231  0.51394428  0.35916859  1
  S2-  S165  1  0.24357935  0.49860391  0.85505948  1
  S2-  S166  1  0.21407299  0.77511859  0.36206500  1
  S2-  S167  1  0.12750992  0.81633688  0.85870195  1
  S2-  S168  1  0.36654683  -0.04861876  0.35688586  1
  S2-  S169  1  0.28726270  -0.01130769  0.86024712  1
  S2-  S170  1  0.35405365  0.24328322  0.35295595  1
  S2-  S171  1  0.36480697  0.22105437  0.84745889  1
  S2-  S172  1  0.49158647  0.48937053  0.35635851  1
  S2-  S173  1  0.49012347  0.46542124  0.85621496  1
  S2-  S174  1  0.47314059  0.74869738  0.34555300  1
  S2-  S175  1  0.37172612  0.76688338  0.84753875  1
  S2-  S176  1  0.61946054  -0.08899821  0.34983053  1
  S2-  S177  1  0.58430324  -0.02658045  0.84659354  1
  S2-  S178  1  0.62627732  0.13524609  0.35799991  1
  S2-  S179  1  0.64720904  0.23506107  0.84530482  1
  S2-  S180  1  0.74543125  0.50540621  0.35637100  1
  S2-  S181  1  0.73881947  0.48056220  0.85693362  1
  S2-  S182  1  0.69279216  0.71293215  0.32161600  1
  S2-  S183  1  0.70879150  0.72588107  0.85851347  1
  S2-  S184  1  0.86097536  0.01978650  0.34739633  1
  S2-  S185  1  0.86877683  -0.01704710  0.84209677  1
  S2-  S186  1  0.83902108  0.26968929  0.34313055  1
  S2-  S187  1  0.88487622  0.23609447  0.84920899  1
  S2-  S188  1  0.98341788  0.50562900  0.35900179  1
  S2-  S189  1  0.98673258  0.48813164  0.85405196  1
  S2-  S190  1  0.91241313  0.76202639  0.35122962  1
  S2-  S191  1  0.91668933  0.74721732  0.83074102  1
  S2-  S192  1  -0.00489088  0.13075423  0.45245780  1
  S2-  S193  1  -0.00358356  0.10361504  0.94885853  1
  S2-  S194  1  -0.00547731  0.38145552  0.45766162  1
  S2-  S195  1  -0.00764696  0.35341825  0.95090754  1
  S2-  S196  1  -0.00542051  0.63717537  0.45285531  1
  S2-  S197  1  -0.00503206  0.61328472  0.94673843  1
  S2-  S198  1  -0.00356515  0.88394505  0.45856304  1
  S2-  S199  1  -0.00554949  0.86047532  0.95265196  1
  S2-  S200  1  0.24430135  0.13337141  0.45747436  1
  S2-  S201  1  0.24051537  0.10331425  0.95833043  1
  S2-  S202  1  0.24536257  0.38243029  0.45783536  1
  S2-  S203  1  0.24480268  0.35505459  0.95591340  1
  S2-  S204  1  0.24755923  0.63598894  0.45726141  1
  S2-  S205  1  0.23941778  0.61344822  0.95810178  1
  S2-  S206  1  0.24227966  0.88764802  0.46716965  1
  S2-  S207  1  0.24339773  0.85756316  0.96558157  1
  S2-  S208  1  0.49290787  0.13706762  0.45493330  1
  S2-  S209  1  0.48868763  0.10552340  0.95361205  1
  S2-  S210  1  0.49672273  0.37586197  0.45105393  1
  S2-  S211  1  0.48908264  0.34949618  0.95207330  1
  S2-  S212  1  0.49665082  0.63632621  0.44343157  1
  S2-  S213  1  0.49257985  0.61035138  0.95302577  1
  S2-  S214  1  0.49717833  0.88292561  0.45421850  1
  S2-  S215  1  0.49164111  0.85693786  0.95576634  1
  S2-  S216  1  0.75054387  0.13191086  0.45672576  1
  S2-  S217  1  0.74422769  0.10843964  0.95444167  1
  S2-  S218  1  0.74477110  0.38036111  0.45526385  1
  S2-  S219  1  0.74420154  0.35028329  0.95701664  1
  S2-  S220  1  0.74224045  0.63827040  0.45181603  1
  S2-  S221  1  0.74315239  0.60435408  0.95935337  1
  S2-  S222  1  0.74695000  0.88236236  0.44613703  1
  S2-  S223  1  0.74310325  0.86045518  0.95240492  1
  S2-  S224  1  0.11746961  -0.02339931  0.04998865  1
  S2-  S225  1  0.12423654  0.01065163  0.54788226  1
  S2-  S226  1  0.12010835  0.23554543  0.04160545  1
  S2-  S227  1  0.12012573  0.25247378  0.54417690  1
  S2-  S228  1  0.11944340  0.48268098  0.03671888  1
  S2-  S229  1  0.12140864  0.51532641  0.53779514  1
  S2-  S230  1  0.11651370  0.73454746  0.04838843  1
  S2-  S231  1  0.12363543  0.75529255  0.54900739  1
  S2-  S232  1  0.37190485  -0.01866315  0.04996299  1
  S2-  S233  1  0.37722506  0.00798705  0.55604896  1
  S2-  S234  1  0.37117147  0.22840043  0.04793095  1
  S2-  S235  1  0.37266587  0.26189964  0.55289150  1
  S2-  S236  1  0.37404372  0.48785655  0.03741982  1
  S2-  S237  1  0.37845795  0.50949545  0.53313877  1
  S2-  S238  1  0.37666340  0.73124808  0.04775090  1
  S2-  S239  1  0.37456162  0.76234736  0.53780933  1
  S2-  S240  1  0.62095422  -0.01752563  0.04908396  1
  S2-  S241  1  0.62074301  0.00969669  0.53993056  1
  S2-  S242  1  0.61802164  0.23285669  0.04735635  1
  S2-  S243  1  0.62666445  0.26113140  0.54080869  1
  S2-  S244  1  0.61925331  0.48131405  0.03847879  1
  S2-  S245  1  0.62135690  0.50791791  0.53060884  1
  S2-  S246  1  0.62179603  0.73193068  0.04714933  1
  S2-  S247  1  0.62637541  0.76202176  0.54380997  1
  S2-  S248  1  0.86805934  -0.01392630  0.04662049  1
  S2-  S249  1  0.87336011  0.00559633  0.54696001  1
  S2-  S250  1  0.87411197  0.23355849  0.04962689  1
  S2-  S251  1  0.87221426  0.25232921  0.54432706  1
  S2-  S252  1  0.87325378  0.47617652  0.03486203  1
  S2-  S253  1  0.87184785  0.51078899  0.53593140  1
  S2-  S254  1  0.87211630  0.73001399  0.03574797  1
  S2-  S255  1  0.87299590  0.75862622  0.54852572  1
