# generated using pymatgen
data_La6Ce7Pr13Nd19Sm19(BiS2)64
_symmetry_space_group_name_H-M   'P 1'
_cell_length_a   16.13828749
_cell_length_b   16.15433629
_cell_length_c   27.24403410
_cell_angle_alpha   89.86786664
_cell_angle_beta   90.01961986
_cell_angle_gamma   90.03963081
_symmetry_Int_Tables_number   1
_chemical_formula_structural   La6Ce7Pr13Nd19Sm19(BiS2)64
_chemical_formula_sum   'La6 Ce7 Pr13 Nd19 Sm19 Bi64 S128'
_cell_volume   7102.58923195
_cell_formula_units_Z   1
loop_
 _symmetry_equiv_pos_site_id
 _symmetry_equiv_pos_as_xyz
  1  'x, y, z'
loop_
 _atom_type_symbol
 _atom_type_oxidation_number
  La3+  3.0
  Ce3+  3.0
  Pr3+  3.0
  Nd3+  3.0
  Sm3+  3.0
  Bi2+  2.0
  S2-  -2.0
loop_
 _atom_site_type_symbol
 _atom_site_label
 _atom_site_symmetry_multiplicity
 _atom_site_fract_x
 _atom_site_fract_y
 _atom_site_fract_z
 _atom_site_occupancy
  La3+  La0  1  0.39221000  -0.00445701  0.42187778  1
  La3+  La1  1  0.61478307  -0.00684022  0.91967684  1
  La3+  La2  1  0.49529753  0.12079055  0.57703807  1
  La3+  La3  1  0.88812856  0.25218443  0.90396334  1
  La3+  La4  1  -0.01922672  0.37388989  0.10287884  1
  La3+  La5  1  0.25621148  0.13096851  0.08501198  1
  Ce3+  Ce6  1  0.62785568  0.24922660  0.44784750  1
  Ce3+  Ce7  1  0.12759183  0.00255877  0.43568997  1
  Ce3+  Ce8  1  0.25055812  0.87365003  0.05809067  1
  Ce3+  Ce9  1  0.87262624  0.74860304  0.94202026  1
  Ce3+  Ce10  1  0.12294310  0.00292968  0.94273954  1
  Ce3+  Ce11  1  0.11759751  0.49275953  0.94868579  1
  Ce3+  Ce12  1  0.37406357  0.00153535  0.94661649  1
  Pr3+  Pr13  1  -0.00491472  0.11956003  0.06625103  1
  Pr3+  Pr14  1  0.12052092  0.74912684  0.94189480  1
  Pr3+  Pr15  1  0.01702062  0.37547983  0.56907959  1
  Pr3+  Pr16  1  0.49557846  0.62209870  0.07093558  1
  Pr3+  Pr17  1  0.25513466  0.12620141  0.54252029  1
  Pr3+  Pr18  1  0.50965598  0.11327634  0.07730216  1
  Pr3+  Pr19  1  -0.00108343  0.62327368  0.06348453  1
  Pr3+  Pr20  1  0.01040338  0.12974512  0.56089201  1
  Pr3+  Pr21  1  0.74938186  0.62226592  0.05618654  1
  Pr3+  Pr22  1  0.75398061  0.12934784  0.56753495  1
  Pr3+  Pr23  1  0.11665371  0.26120122  0.40858335  1
  Pr3+  Pr24  1  0.37918432  0.50364454  0.43943107  1
  Pr3+  Pr25  1  0.50359978  0.62713026  0.57748483  1
  Nd3+  Nd26  1  0.37456453  0.24507389  0.94076822  1
  Nd3+  Nd27  1  0.37225730  0.49604767  0.94446058  1
  Nd3+  Nd28  1  0.38147021  0.24974083  0.43021799  1
  Nd3+  Nd29  1  0.37136226  0.74564315  0.93702310  1
  Nd3+  Nd30  1  0.00551057  0.62523798  0.55825106  1
  Nd3+  Nd31  1  0.25515714  0.87625360  0.54775888  1
  Nd3+  Nd32  1  0.26356223  0.37415763  0.55959010  1
  Nd3+  Nd33  1  0.75801294  0.87490619  0.57860307  1
  Nd3+  Nd34  1  0.75620198  0.62264391  0.56223271  1
  Nd3+  Nd35  1  0.74602151  0.12260880  0.04937780  1
  Nd3+  Nd36  1  0.74212901  0.87114689  0.05345558  1
  Nd3+  Nd37  1  0.12646067  0.50785102  0.43061867  1
  Nd3+  Nd38  1  0.75623503  0.37592054  0.56352032  1
  Nd3+  Nd39  1  0.87746192  0.50007620  0.44307326  1
  Nd3+  Nd40  1  0.61598436  0.74646964  0.92857298  1
  Nd3+  Nd41  1  0.62303930  0.49663644  0.94728231  1
  Nd3+  Nd42  1  0.62882205  0.75138932  0.44879816  1
  Nd3+  Nd43  1  0.63130393  0.00236369  0.45019276  1
  Nd3+  Nd44  1  0.00555607  0.87460346  0.56399042  1
  Sm3+  Sm45  1  0.75133130  0.36997915  0.05147995  1
  Sm3+  Sm46  1  0.50159817  0.37626575  0.55782318  1
  Sm3+  Sm47  1  0.38272317  0.75081826  0.44469671  1
  Sm3+  Sm48  1  0.11988982  0.24695300  0.95054221  1
  Sm3+  Sm49  1  0.88028194  0.25281781  0.44648232  1
  Sm3+  Sm50  1  0.87214963  -0.00093785  0.93925768  1
  Sm3+  Sm51  1  0.00039391  0.87651414  0.06323166  1
  Sm3+  Sm52  1  0.87390906  0.49541897  0.93870314  1
  Sm3+  Sm53  1  0.49635663  0.86597958  0.06591441  1
  Sm3+  Sm54  1  0.50510711  0.87193813  0.57331246  1
  Sm3+  Sm55  1  0.24702226  0.37004005  0.05866830  1
  Sm3+  Sm56  1  0.87496626  0.75388692  0.44443043  1
  Sm3+  Sm57  1  0.49674134  0.37089481  0.05800056  1
  Sm3+  Sm58  1  0.12539915  0.75057828  0.43491467  1
  Sm3+  Sm59  1  0.25298681  0.62777194  0.55488277  1
  Sm3+  Sm60  1  0.62858900  0.50247576  0.44967842  1
  Sm3+  Sm61  1  0.24564046  0.62013476  0.05903167  1
  Sm3+  Sm62  1  0.87945499  0.00210555  0.45127633  1
  Sm3+  Sm63  1  0.62356866  0.24609757  0.93868239  1
  Bi2+  Bi64  1  -0.05817398  0.11860842  0.28786585  1
  Bi2+  Bi65  1  0.02555933  0.12249442  0.79878093  1
  Bi2+  Bi66  1  -0.00665346  0.38061152  0.29446219  1
  Bi2+  Bi67  1  0.02370779  0.39345247  0.79290283  1
  Bi2+  Bi68  1  -0.02161570  0.63099655  0.28850460  1
  Bi2+  Bi69  1  -0.04024730  0.58379066  0.78314300  1
  Bi2+  Bi70  1  0.02168297  0.83427173  0.29301935  1
  Bi2+  Bi71  1  0.04419974  0.84018485  0.79349547  1
  Bi2+  Bi72  1  0.22630208  0.09088465  0.28719011  1
  Bi2+  Bi73  1  0.23192377  0.08902647  0.75705768  1
  Bi2+  Bi74  1  0.26954397  0.45978387  0.26143366  1
  Bi2+  Bi75  1  0.22021175  0.38018357  0.73957366  1
  Bi2+  Bi76  1  0.24814814  0.64220866  0.29972875  1
  Bi2+  Bi77  1  0.27448384  0.62861996  0.80170075  1
  Bi2+  Bi78  1  0.21559612  0.82846716  0.27082327  1
  Bi2+  Bi79  1  0.28233297  0.82551731  0.79330581  1
  Bi2+  Bi80  1  0.48435670  0.11661448  0.30544037  1
  Bi2+  Bi81  1  0.50278732  0.13409098  0.80424142  1
  Bi2+  Bi82  1  0.50970590  0.37976135  0.26401561  1
  Bi2+  Bi83  1  0.40402014  0.35684270  0.79486046  1
  Bi2+  Bi84  1  0.50530497  0.58774539  0.29866951  1
  Bi2+  Bi85  1  0.51900067  0.60555224  0.78895274  1
  Bi2+  Bi86  1  0.54522652  0.85920046  0.29011790  1
  Bi2+  Bi87  1  0.49791477  0.86103997  0.79475662  1
  Bi2+  Bi88  1  0.74678018  0.08866732  0.30079678  1
  Bi2+  Bi89  1  0.78620085  0.08131596  0.77358690  1
  Bi2+  Bi90  1  0.77598805  0.37049763  0.28393414  1
  Bi2+  Bi91  1  0.74740996  0.47098059  0.79332601  1
  Bi2+  Bi92  1  0.72203008  0.63904593  0.30128848  1
  Bi2+  Bi93  1  0.78542237  0.66770235  0.81291867  1
  Bi2+  Bi94  1  0.82282502  0.86583157  0.28212472  1
  Bi2+  Bi95  1  0.74319467  0.84458440  0.76587628  1
  Bi2+  Bi96  1  0.09862872  -0.04912304  0.20862104  1
  Bi2+  Bi97  1  0.11163132  -0.04413210  0.70348347  1
  Bi2+  Bi98  1  0.12057316  0.23929045  0.20750649  1
  Bi2+  Bi99  1  0.13638149  0.22593517  0.68981443  1
  Bi2+  Bi100  1  0.15102302  0.58179846  0.20334091  1
  Bi2+  Bi101  1  0.13538084  0.56059368  0.73049574  1
  Bi2+  Bi102  1  0.09589866  0.76109352  0.16932435  1
  Bi2+  Bi103  1  0.14858539  0.76722111  0.68990312  1
  Bi2+  Bi104  1  0.37732744  -0.01724158  0.20320730  1
  Bi2+  Bi105  1  0.37630779  -0.03183743  0.73303403  1
  Bi2+  Bi106  1  0.37205334  0.26600276  0.21517513  1
  Bi2+  Bi107  1  0.38595926  0.23248037  0.70252745  1
  Bi2+  Bi108  1  0.42730387  0.52181207  0.19633108  1
  Bi2+  Bi109  1  0.38216788  0.50215078  0.70155314  1
  Bi2+  Bi110  1  0.39837961  0.74513951  0.25284609  1
  Bi2+  Bi111  1  0.38205960  0.71820305  0.71492088  1
  Bi2+  Bi112  1  0.64346030  0.00705451  0.20614517  1
  Bi2+  Bi113  1  0.61028521  0.02467575  0.69703968  1
  Bi2+  Bi114  1  0.64399484  0.23665485  0.24887560  1
  Bi2+  Bi115  1  0.59333249  0.35874894  0.76004926  1
  Bi2+  Bi116  1  0.63847717  0.51080587  0.21730858  1
  Bi2+  Bi117  1  0.57280365  0.51358912  0.68743395  1
  Bi2+  Bi118  1  0.63316222  0.75056645  0.20501257  1
  Bi2+  Bi119  1  0.64766042  0.69173557  0.71803605  1
  Bi2+  Bi120  1  0.84651974  0.01493697  0.20642716  1
  Bi2+  Bi121  1  0.91973982  -0.05235753  0.73125273  1
  Bi2+  Bi122  1  0.84103946  0.23248447  0.21244444  1
  Bi2+  Bi123  1  0.87141945  0.24871913  0.69743049  1
  Bi2+  Bi124  1  0.84032302  0.50422098  0.20817176  1
  Bi2+  Bi125  1  0.83451240  0.48764131  0.69529679  1
  Bi2+  Bi126  1  0.91238955  0.75093662  0.20512937  1
  Bi2+  Bi127  1  0.91801985  0.73276743  0.71056584  1
  S2-  S128  1  -0.01483520  0.21531009  0.15083401  1
  S2-  S129  1  -0.00496350  0.14303515  0.66147891  1
  S2-  S130  1  0.06010605  0.38513811  0.20000014  1
  S2-  S131  1  -0.04590872  0.37903680  0.66703340  1
  S2-  S132  1  -0.03540031  0.53915272  0.14841496  1
  S2-  S133  1  0.03445909  0.63345626  0.65527814  1
  S2-  S134  1  -0.01979661  0.98736699  0.13820647  1
  S2-  S135  1  -0.10300195  0.86680669  0.64211214  1
  S2-  S136  1  0.19285807  0.08130660  0.17729494  1
  S2-  S137  1  0.27124549  0.13851096  0.64247791  1
  S2-  S138  1  0.25415820  0.30372780  0.14961343  1
  S2-  S139  1  0.15645400  0.37438953  0.63724103  1
  S2-  S140  1  0.29909899  0.61275005  0.15209279  1
  S2-  S141  1  0.27309811  0.61473102  0.65151204  1
  S2-  S142  1  0.30749562  0.87206710  0.15056593  1
  S2-  S143  1  0.24718897  0.87854282  0.64708594  1
  S2-  S144  1  0.39556400  0.13759287  0.15506683  1
  S2-  S145  1  0.53411679  0.18466218  0.67093210  1
  S2-  S146  1  0.49150335  0.35643925  0.15595741  1
  S2-  S147  1  0.39425901  0.36655330  0.63523375  1
  S2-  S148  1  0.50956946  0.74498351  0.14084308  1
  S2-  S149  1  0.49924460  0.75223539  0.64760880  1
  S2-  S150  1  0.50882328  0.96909656  0.14558042  1
  S2-  S151  1  0.47054589  0.98488951  0.64437909  1
  S2-  S152  1  0.65932041  0.12647416  0.13725614  1
  S2-  S153  1  0.75793948  0.10954829  0.66751208  1
  S2-  S154  1  0.81071133  0.37119221  0.14388903  1
  S2-  S155  1  0.74724807  0.34516869  0.66151429  1
  S2-  S156  1  0.72946034  0.62567195  0.15563279  1
  S2-  S157  1  0.78468029  0.65064146  0.65860673  1
  S2-  S158  1  0.71437749  0.87002444  0.15210937  1
  S2-  S159  1  0.67356590  0.88701428  0.66796100  1
  S2-  S160  1  0.10766849  0.02162180  0.34001202  1
  S2-  S161  1  0.14315465  0.03833219  0.84655774  1
  S2-  S162  1  0.16105312  0.22997976  0.30930930  1
  S2-  S163  1  0.05472080  0.25112697  0.85706025  1
  S2-  S164  1  0.12317077  0.40967857  0.35011513  1
  S2-  S165  1  0.11651371  0.48538162  0.85111810  1
  S2-  S166  1  0.10840828  0.63808424  0.35995019  1
  S2-  S167  1  0.14261720  0.73058868  0.84348696  1
  S2-  S168  1  0.35751538  -0.00250033  0.32069230  1
  S2-  S169  1  0.45227875  -0.00534369  0.86005864  1
  S2-  S170  1  0.37908587  0.23011960  0.33045087  1
  S2-  S171  1  0.35592929  0.21226889  0.84353950  1
  S2-  S172  1  0.37304661  0.48403410  0.33999824  1
  S2-  S173  1  0.36550661  0.50862292  0.84617687  1
  S2-  S174  1  0.42254934  0.78137178  0.35192988  1
  S2-  S175  1  0.48185569  0.72938225  0.86048066  1
  S2-  S176  1  0.54991115  -0.01580201  0.36395684  1
  S2-  S177  1  0.64469664  0.06542556  0.82594182  1
  S2-  S178  1  0.59707561  0.22526183  0.35409985  1
  S2-  S179  1  0.59637379  0.26269503  0.84206174  1
  S2-  S180  1  0.63933450  0.51591405  0.35266814  1
  S2-  S181  1  0.60217685  0.49763107  0.84928103  1
  S2-  S182  1  0.64631122  0.76308765  0.34944088  1
  S2-  S183  1  0.64205259  0.85740545  0.84848907  1
  S2-  S184  1  0.86797713  -0.00768392  0.35385188  1
  S2-  S185  1  0.90420201  0.02357203  0.84431847  1
  S2-  S186  1  0.95506909  0.24640502  0.35791957  1
  S2-  S187  1  0.84710558  0.22318367  0.80253082  1
  S2-  S188  1  0.90000248  0.50004390  0.34466072  1
  S2-  S189  1  0.88370360  0.41020965  0.85362616  1
  S2-  S190  1  0.86054886  0.72384887  0.34795478  1
  S2-  S191  1  0.89527884  0.79127546  0.84934898  1
  S2-  S192  1  0.00198863  0.12546216  0.45446249  1
  S2-  S193  1  -0.00509374  0.12297113  0.95741607  1
  S2-  S194  1  0.00168830  0.37883655  0.45880919  1
  S2-  S195  1  -0.00369142  0.37107738  0.95851091  1
  S2-  S196  1  -0.00443538  0.63019435  0.45479664  1
  S2-  S197  1  -0.00424082  0.62138362  0.95372573  1
  S2-  S198  1  0.00168559  0.87432944  0.45485138  1
  S2-  S199  1  -0.00179206  0.87763186  0.95732330  1
  S2-  S200  1  0.25534748  0.12577557  0.43666889  1
  S2-  S201  1  0.24749789  0.12651893  0.96001674  1
  S2-  S202  1  0.25767508  0.37514565  0.44950930  1
  S2-  S203  1  0.24709154  0.36918156  0.95327105  1
  S2-  S204  1  0.25610172  0.63223179  0.45082969  1
  S2-  S205  1  0.24569701  0.62010717  0.95416957  1
  S2-  S206  1  0.25332049  0.87165319  0.44070898  1
  S2-  S207  1  0.24900119  0.87311569  0.94946576  1
  S2-  S208  1  0.50431005  0.12593561  0.46169965  1
  S2-  S209  1  0.50133600  0.12642787  0.95885560  1
  S2-  S210  1  0.50483181  0.37841728  0.45189892  1
  S2-  S211  1  0.49844878  0.37165891  0.95258635  1
  S2-  S212  1  0.50581075  0.62694093  0.46126077  1
  S2-  S213  1  0.49644566  0.61694743  0.96259070  1
  S2-  S214  1  0.50681173  0.87151813  0.46666181  1
  S2-  S215  1  0.49248417  0.86853861  0.96000675  1
  S2-  S216  1  0.75750477  0.12731111  0.45868517  1
  S2-  S217  1  0.75254603  0.12770432  0.94265786  1
  S2-  S218  1  0.75275108  0.37562961  0.45510195  1
  S2-  S219  1  0.74779123  0.37025144  0.94746121  1
  S2-  S220  1  0.75396753  0.62568836  0.45668140  1
  S2-  S221  1  0.74778735  0.62130551  0.94904364  1
  S2-  S222  1  0.75551831  0.87779295  0.46206080  1
  S2-  S223  1  0.75013758  0.87317696  0.94871643  1
  S2-  S224  1  0.12853530  -0.00156547  0.04857178  1
  S2-  S225  1  0.12809244  -0.00121057  0.54388028  1
  S2-  S226  1  0.12244145  0.24814520  0.05258118  1
  S2-  S227  1  0.13268718  0.25143054  0.53383200  1
  S2-  S228  1  0.12390080  0.49352192  0.05553330  1
  S2-  S229  1  0.13337281  0.50593174  0.53875051  1
  S2-  S230  1  0.12433363  0.74832834  0.04755638  1
  S2-  S231  1  0.12822955  0.75105464  0.54029717  1
  S2-  S232  1  0.37371540  -0.00061675  0.04890018  1
  S2-  S233  1  0.37689419  -0.00274358  0.53453418  1
  S2-  S234  1  0.37668912  0.25083441  0.04615078  1
  S2-  S235  1  0.38292948  0.24931469  0.53707692  1
  S2-  S236  1  0.37077093  0.49398931  0.04999609  1
  S2-  S237  1  0.38088944  0.50749229  0.54506108  1
  S2-  S238  1  0.36860826  0.74215677  0.04253541  1
  S2-  S239  1  0.37680089  0.74993493  0.54796290  1
  S2-  S240  1  0.62287794  -0.00753660  0.03353379  1
  S2-  S241  1  0.63193662  -0.00013029  0.55466502  1
  S2-  S242  1  0.62246446  0.25415866  0.04328066  1
  S2-  S243  1  0.62583120  0.25399215  0.55385962  1
  S2-  S244  1  0.62304269  0.49457699  0.05369427  1
  S2-  S245  1  0.62784339  0.49938281  0.55342428  1
  S2-  S246  1  0.62304849  0.74367144  0.03673489  1
  S2-  S247  1  0.63490751  0.74922074  0.55391748  1
  S2-  S248  1  0.86614549  -0.00520598  0.04224605  1
  S2-  S249  1  0.88079338  0.00496083  0.55395105  1
  S2-  S250  1  0.86820573  0.24551672  0.04554079  1
  S2-  S251  1  0.88221187  0.25338643  0.55067101  1
  S2-  S252  1  0.87162190  0.49623820  0.04152116  1
  S2-  S253  1  0.88260778  0.49868563  0.55029405  1
  S2-  S254  1  0.87548579  0.75143844  0.05033944  1
  S2-  S255  1  0.87873003  0.74824792  0.54707564  1
