# generated using pymatgen
data_La6Ce7Pr13Nd19Sm19(BiS2)64
_symmetry_space_group_name_H-M   'P 1'
_cell_length_a   16.07867503
_cell_length_b   16.05568791
_cell_length_c   27.60760033
_cell_angle_alpha   90.12049210
_cell_angle_beta   90.34616564
_cell_angle_gamma   90.04747667
_symmetry_Int_Tables_number   1
_chemical_formula_structural   La6Ce7Pr13Nd19Sm19(BiS2)64
_chemical_formula_sum   'La6 Ce7 Pr13 Nd19 Sm19 Bi64 S128'
_cell_volume   7126.86929571
_cell_formula_units_Z   1
loop_
 _symmetry_equiv_pos_site_id
 _symmetry_equiv_pos_as_xyz
  1  'x, y, z'
loop_
 _atom_type_symbol
 _atom_type_oxidation_number
  La3+  3.0
  Ce3+  3.0
  Pr3+  3.0
  Nd3+  3.0
  Sm3+  3.0
  Bi2+  2.0
  S2-  -2.0
loop_
 _atom_site_type_symbol
 _atom_site_label
 _atom_site_symmetry_multiplicity
 _atom_site_fract_x
 _atom_site_fract_y
 _atom_site_fract_z
 _atom_site_occupancy
  La3+  La0  1  0.12330294  0.74472865  0.92704537  1
  La3+  La1  1  0.12050138  0.24824180  0.89177955  1
  La3+  La2  1  0.25026084  0.13884397  0.56713495  1
  La3+  La3  1  0.50851487  0.11129443  0.08419065  1
  La3+  La4  1  0.62212871  0.23889814  0.38671455  1
  La3+  La5  1  0.75285893  0.14080336  0.56424229  1
  Ce3+  Ce6  1  -0.00045961  0.14017392  0.55122725  1
  Ce3+  Ce7  1  0.50708598  0.86583832  0.06133920  1
  Ce3+  Ce8  1  0.12638424  0.01469451  0.44295550  1
  Ce3+  Ce9  1  0.49910236  0.88643404  0.55930719  1
  Ce3+  Ce10  1  0.49978134  0.14059518  0.55152638  1
  Ce3+  Ce11  1  0.75056417  0.63682792  0.55370541  1
  Ce3+  Ce12  1  0.25495314  0.36708667  0.06244446  1
  Pr3+  Pr13  1  0.87301915  0.01529343  0.43505854  1
  Pr3+  Pr14  1  0.37983721  0.24167970  0.93878211  1
  Pr3+  Pr15  1  0.50427384  0.38035820  0.08042783  1
  Pr3+  Pr16  1  0.00247174  0.64184268  0.56513339  1
  Pr3+  Pr17  1  0.37569272  0.01052878  0.43335084  1
  Pr3+  Pr18  1  0.86436393  0.24642037  0.93737907  1
  Pr3+  Pr19  1  0.00598029  0.86902185  0.05712895  1
  Pr3+  Pr20  1  0.25692503  0.12203209  0.06254735  1
  Pr3+  Pr21  1  0.37316907  0.75267711  0.92047481  1
  Pr3+  Pr22  1  0.00003253  0.39381716  0.57951437  1
  Pr3+  Pr23  1  0.37866227  0.48970271  0.94120012  1
  Pr3+  Pr24  1  0.62196042  0.50497579  0.42862409  1
  Pr3+  Pr25  1  0.75716071  0.62273768  0.06811842  1
  Nd3+  Nd26  1  0.76821812  0.10549761  0.08681381  1
  Nd3+  Nd27  1  0.37489329  0.76379050  0.42713891  1
  Nd3+  Nd28  1  0.50111323  0.38532363  0.54948279  1
  Nd3+  Nd29  1  0.87593887  0.51085541  0.43983669  1
  Nd3+  Nd30  1  0.87107577  0.27044433  0.43415800  1
  Nd3+  Nd31  1  0.00857432  0.62107238  0.05896049  1
  Nd3+  Nd32  1  0.87547510  0.74188416  0.93265197  1
  Nd3+  Nd33  1  0.00578586  0.36672666  0.05567769  1
  Nd3+  Nd34  1  0.37447151  0.50921118  0.43481848  1
  Nd3+  Nd35  1  0.87532233  -0.00033732  0.93741099  1
  Nd3+  Nd36  1  0.25626257  0.87034295  0.05597934  1
  Nd3+  Nd37  1  0.77252451  0.37534425  0.09293468  1
  Nd3+  Nd38  1  0.12993950  0.49150482  0.94082148  1
  Nd3+  Nd39  1  0.62292252  0.74288228  0.93492790  1
  Nd3+  Nd40  1  0.35989800  0.25972070  0.40534504  1
  Nd3+  Nd41  1  0.37967081  0.00203900  0.93919161  1
  Nd3+  Nd42  1  0.50064468  0.63817960  0.55374183  1
  Nd3+  Nd43  1  0.63249893  0.24531866  0.96622597  1
  Nd3+  Nd44  1  0.74653644  0.38960867  0.56204430  1
  Sm3+  Sm45  1  0.87450940  0.76066390  0.44264312  1
  Sm3+  Sm46  1  0.75069418  0.88839768  0.55375123  1
  Sm3+  Sm47  1  0.25607822  0.62122508  0.05371796  1
  Sm3+  Sm48  1  0.62507875  0.76126245  0.44165073  1
  Sm3+  Sm49  1  0.62724002  -0.00168324  0.94673582  1
  Sm3+  Sm50  1  0.12562794  0.26673934  0.44540778  1
  Sm3+  Sm51  1  0.50592716  0.62178981  0.06037954  1
  Sm3+  Sm52  1  0.62952877  0.49208596  0.94949166  1
  Sm3+  Sm53  1  0.25258190  0.38939146  0.56139470  1
  Sm3+  Sm54  1  0.12394256  0.76295952  0.43727712  1
  Sm3+  Sm55  1  0.62460550  0.01382703  0.44349627  1
  Sm3+  Sm56  1  0.12407799  0.51053696  0.44777769  1
  Sm3+  Sm57  1  0.25283609  0.63940060  0.55139514  1
  Sm3+  Sm58  1  0.75589647  0.86789820  0.05073850  1
  Sm3+  Sm59  1  0.25248719  0.88595436  0.55448735  1
  Sm3+  Sm60  1  -0.00125769  0.88585615  0.55738653  1
  Sm3+  Sm61  1  0.00190213  0.12280812  0.05129678  1
  Sm3+  Sm62  1  0.12757306  0.00367756  0.94079104  1
  Sm3+  Sm63  1  0.87825450  0.49067315  0.94779447  1
  Bi2+  Bi64  1  -0.00861105  0.11587908  0.28695109  1
  Bi2+  Bi65  1  -0.08838503  0.09294186  0.77407415  1
  Bi2+  Bi66  1  0.01745830  0.34493804  0.30244602  1
  Bi2+  Bi67  1  -0.00908561  0.38719341  0.78289048  1
  Bi2+  Bi68  1  -0.09903418  0.60906148  0.31044228  1
  Bi2+  Bi69  1  0.09784132  0.63056585  0.80626921  1
  Bi2+  Bi70  1  0.00041876  0.77030109  0.27164924  1
  Bi2+  Bi71  1  -0.02837767  0.82087651  0.76706030  1
  Bi2+  Bi72  1  0.21480419  0.11602800  0.29333386  1
  Bi2+  Bi73  1  0.29537422  0.12995115  0.80193132  1
  Bi2+  Bi74  1  0.22499754  0.38166564  0.28668041  1
  Bi2+  Bi75  1  0.30949820  0.38889585  0.77480158  1
  Bi2+  Bi76  1  0.32865726  0.65534915  0.31282064  1
  Bi2+  Bi77  1  0.30953765  0.66703883  0.74394231  1
  Bi2+  Bi78  1  0.24234989  0.84278373  0.29950015  1
  Bi2+  Bi79  1  0.23726141  0.86902050  0.79183964  1
  Bi2+  Bi80  1  0.49096094  0.10742301  0.28541141  1
  Bi2+  Bi81  1  0.49460261  0.17667246  0.75517462  1
  Bi2+  Bi82  1  0.46807834  0.40579859  0.27769200  1
  Bi2+  Bi83  1  0.50282554  0.36507849  0.79267659  1
  Bi2+  Bi84  1  0.51390818  0.58735057  0.31180006  1
  Bi2+  Bi85  1  0.45911266  0.58333613  0.80402449  1
  Bi2+  Bi86  1  0.50685587  0.83514295  0.28377355  1
  Bi2+  Bi87  1  0.48286340  0.85227119  0.78801990  1
  Bi2+  Bi88  1  0.74590998  0.10125540  0.27975045  1
  Bi2+  Bi89  1  0.71881021  0.09344938  0.80350137  1
  Bi2+  Bi90  1  0.76897606  0.37046034  0.29177365  1
  Bi2+  Bi91  1  0.76335405  0.33893150  0.81420369  1
  Bi2+  Bi92  1  0.70878639  0.63613470  0.30191463  1
  Bi2+  Bi93  1  0.72479830  0.71105327  0.82126988  1
  Bi2+  Bi94  1  0.79510172  0.87784005  0.27560429  1
  Bi2+  Bi95  1  0.76256820  0.84756152  0.74257438  1
  Bi2+  Bi96  1  0.09444596  -0.04580329  0.24607343  1
  Bi2+  Bi97  1  0.08381524  -0.01251350  0.77137187  1
  Bi2+  Bi98  1  0.10688931  0.23391789  0.22076578  1
  Bi2+  Bi99  1  0.11952606  0.23655860  0.69469218  1
  Bi2+  Bi100  1  0.09076243  0.51455716  0.25090578  1
  Bi2+  Bi101  1  0.12942647  0.55359019  0.71052358  1
  Bi2+  Bi102  1  0.11741799  0.68840179  0.20090763  1
  Bi2+  Bi103  1  0.14967465  0.76882966  0.70117378  1
  Bi2+  Bi104  1  0.35024054  -0.01233420  0.19708716  1
  Bi2+  Bi105  1  0.36721351  -0.01429449  0.73571662  1
  Bi2+  Bi106  1  0.32037666  0.24761937  0.19690550  1
  Bi2+  Bi107  1  0.36247376  0.25449998  0.68287439  1
  Bi2+  Bi108  1  0.36427584  0.55762407  0.21642522  1
  Bi2+  Bi109  1  0.43343601  0.48379764  0.70505719  1
  Bi2+  Bi110  1  0.37253248  0.75825764  0.21075279  1
  Bi2+  Bi111  1  0.39947172  0.80943808  0.67698769  1
  Bi2+  Bi112  1  0.63286926  -0.08473192  0.20911143  1
  Bi2+  Bi113  1  0.60514620  -0.02238143  0.74149907  1
  Bi2+  Bi114  1  0.60307684  0.25184972  0.18760084  1
  Bi2+  Bi115  1  0.62981059  0.27398144  0.68891008  1
  Bi2+  Bi116  1  0.62481960  0.54765415  0.21311005  1
  Bi2+  Bi117  1  0.64425082  0.53757036  0.76733761  1
  Bi2+  Bi118  1  0.55945098  0.73628931  0.17001100  1
  Bi2+  Bi119  1  0.63078095  0.70628541  0.70817050  1
  Bi2+  Bi120  1  0.90973308  -0.02454615  0.20011127  1
  Bi2+  Bi121  1  0.94063197  -0.03591095  0.68709940  1
  Bi2+  Bi122  1  0.90809750  0.24586004  0.21030199  1
  Bi2+  Bi123  1  0.86100417  0.22152630  0.69141458  1
  Bi2+  Bi124  1  0.90502891  0.51865928  0.21036141  1
  Bi2+  Bi125  1  0.84074509  0.57688223  0.77394114  1
  Bi2+  Bi126  1  0.74788388  0.73924115  0.19739379  1
  Bi2+  Bi127  1  0.90495864  0.67581537  0.68972811  1
  S2-  S128  1  -0.07702274  0.11950707  0.13792806  1
  S2-  S129  1  0.00168322  0.12731702  0.64757774  1
  S2-  S130  1  -0.06263090  0.37712046  0.14564349  1
  S2-  S131  1  -0.00487242  0.34074734  0.67752318  1
  S2-  S132  1  -0.03599055  0.64624754  0.15202887  1
  S2-  S133  1  -0.00281641  0.53769409  0.64598729  1
  S2-  S134  1  0.02840551  0.88199677  0.15517084  1
  S2-  S135  1  0.01367095  0.77687384  0.63312490  1
  S2-  S136  1  0.24064344  0.09039919  0.16068717  1
  S2-  S137  1  0.25545168  0.12590881  0.66647570  1
  S2-  S138  1  0.22572227  0.36579827  0.15772884  1
  S2-  S139  1  0.22910931  0.36114845  0.65647633  1
  S2-  S140  1  0.23860164  0.60955410  0.15018586  1
  S2-  S141  1  0.24667017  0.62454645  0.64790887  1
  S2-  S142  1  0.26674978  0.86571585  0.15466524  1
  S2-  S143  1  0.24018655  0.88648481  0.65079112  1
  S2-  S144  1  0.46046085  0.13853157  0.18327758  1
  S2-  S145  1  0.50341642  0.15814878  0.64859744  1
  S2-  S146  1  0.44920712  0.34609613  0.17669700  1
  S2-  S147  1  0.54429483  0.40389705  0.64584947  1
  S2-  S148  1  0.49607422  0.53324771  0.14376561  1
  S2-  S149  1  0.49326880  0.66325785  0.65080771  1
  S2-  S150  1  0.50051547  0.95642095  0.14376216  1
  S2-  S151  1  0.53797230  0.90244900  0.65262896  1
  S2-  S152  1  0.68942513  0.11459914  0.17575764  1
  S2-  S153  1  0.73260120  0.13189988  0.66407553  1
  S2-  S154  1  0.74813450  0.32758403  0.19095380  1
  S2-  S155  1  0.76813640  0.35750008  0.65930192  1
  S2-  S156  1  0.75749806  0.52345590  0.14991478  1
  S2-  S157  1  0.74676538  0.62107498  0.64950699  1
  S2-  S158  1  0.77340511  0.93459358  0.13914502  1
  S2-  S159  1  0.79544848  0.90007158  0.64729718  1
  S2-  S160  1  0.14390877  -0.02077406  0.34904220  1
  S2-  S161  1  0.14158177  0.08201909  0.85407159  1
  S2-  S162  1  0.20135719  0.25052753  0.35809366  1
  S2-  S163  1  0.10297853  0.26907587  0.78668819  1
  S2-  S164  1  0.11948691  0.47575320  0.35365465  1
  S2-  S165  1  0.09667115  0.46089238  0.84559148  1
  S2-  S166  1  0.13263125  0.73844742  0.34151335  1
  S2-  S167  1  0.23396191  0.72325386  0.84968042  1
  S2-  S168  1  0.35713367  0.10119798  0.34782929  1
  S2-  S169  1  0.41689024  0.11871059  0.86698541  1
  S2-  S170  1  0.47102001  0.25804733  0.33009793  1
  S2-  S171  1  0.28231433  0.27527403  0.85352570  1
  S2-  S172  1  0.35235270  0.41825849  0.35107381  1
  S2-  S173  1  0.32209629  0.50281690  0.84716372  1
  S2-  S174  1  0.38606634  0.88525836  0.35613095  1
  S2-  S175  1  0.36734228  0.89732872  0.85894483  1
  S2-  S176  1  0.62126078  0.05464465  0.34880663  1
  S2-  S177  1  0.61291472  -0.01334172  0.84928445  1
  S2-  S178  1  0.63010522  0.21666165  0.27978088  1
  S2-  S179  1  0.70659049  0.22884403  0.87533855  1
  S2-  S180  1  0.64379428  0.40512522  0.34596865  1
  S2-  S181  1  0.63340156  0.43836826  0.85607086  1
  S2-  S182  1  0.63065300  0.78209219  0.34556981  1
  S2-  S183  1  0.51006280  0.73014951  0.85870999  1
  S2-  S184  1  0.86964636  0.00964307  0.33583669  1
  S2-  S185  1  0.84190130  -0.01267762  0.84139752  1
  S2-  S186  1  0.79031465  0.22478690  0.34785294  1
  S2-  S187  1  0.91937537  0.26506087  0.84228567  1
  S2-  S188  1  0.88973812  0.40230290  0.36229290  1
  S2-  S189  1  0.86287850  0.47020676  0.85160680  1
  S2-  S190  1  0.88563579  0.78269853  0.34798746  1
  S2-  S191  1  0.98750036  0.73850183  0.85685792  1
  S2-  S192  1  -0.00004950  0.14288493  0.44523471  1
  S2-  S193  1  0.00065368  0.12628710  0.94828711  1
  S2-  S194  1  0.00399489  0.38848085  0.46575140  1
  S2-  S195  1  0.00427204  0.36538321  0.95175524  1
  S2-  S196  1  0.00156884  0.63810089  0.45423488  1
  S2-  S197  1  0.00083783  0.61446224  0.95430879  1
  S2-  S198  1  -0.00070496  0.88583597  0.45292930  1
  S2-  S199  1  0.00190885  0.87733413  0.95034760  1
  S2-  S200  1  0.24863956  0.13922688  0.45989436  1
  S2-  S201  1  0.24977896  0.12435964  0.95839096  1
  S2-  S202  1  0.24897133  0.38817084  0.45849635  1
  S2-  S203  1  0.24910913  0.36603532  0.95777851  1
  S2-  S204  1  0.24847609  0.63666624  0.44820245  1
  S2-  S205  1  0.25514839  0.61900128  0.95256223  1
  S2-  S206  1  0.24751213  0.88468793  0.45196447  1
  S2-  S207  1  0.24563966  0.87568743  0.95275142  1
  S2-  S208  1  0.50041772  0.13899306  0.44771532  1
  S2-  S209  1  0.51119799  0.12104731  0.97345228  1
  S2-  S210  1  0.49522648  0.38155030  0.44582610  1
  S2-  S211  1  0.50599637  0.36788560  0.96488602  1
  S2-  S212  1  0.49926671  0.63815059  0.44807603  1
  S2-  S213  1  0.50392027  0.61396452  0.95805012  1
  S2-  S214  1  0.50546420  0.88604906  0.45417925  1
  S2-  S215  1  0.50574298  0.87250311  0.95706329  1
  S2-  S216  1  0.74753467  0.13787245  0.45588321  1
  S2-  S217  1  0.75299648  0.11393777  0.97140463  1
  S2-  S218  1  0.74923151  0.38996864  0.45719132  1
  S2-  S219  1  0.75352176  0.37528283  0.97088879  1
  S2-  S220  1  0.74925024  0.63597981  0.44742646  1
  S2-  S221  1  0.75371231  0.61670411  0.95642900  1
  S2-  S222  1  0.74919824  0.88681311  0.44939798  1
  S2-  S223  1  0.75171442  0.86963589  0.94762404  1
  S2-  S224  1  0.12737767  -0.00152174  0.04548070  1
  S2-  S225  1  0.12403513  0.00806766  0.54895209  1
  S2-  S226  1  0.12553764  0.24156603  0.05788412  1
  S2-  S227  1  0.12458679  0.26736278  0.54937041  1
  S2-  S228  1  0.13019126  0.49538469  0.04740792  1
  S2-  S229  1  0.13066726  0.51380120  0.54973750  1
  S2-  S230  1  0.13184921  0.74459811  0.04039513  1
  S2-  S231  1  0.13114001  0.76314982  0.53934222  1
  S2-  S232  1  0.37886138  -0.00528481  0.04498333  1
  S2-  S233  1  0.37478002  0.01111645  0.54516323  1
  S2-  S234  1  0.38576339  0.24602071  0.05354805  1
  S2-  S235  1  0.37349688  0.26536926  0.54921529  1
  S2-  S236  1  0.37646249  0.49592664  0.04688931  1
  S2-  S237  1  0.37483724  0.51360667  0.54257142  1
  S2-  S238  1  0.37951895  0.74340632  0.04435239  1
  S2-  S239  1  0.37481123  0.76205524  0.53577512  1
  S2-  S240  1  0.63439841  -0.00829685  0.04958299  1
  S2-  S241  1  0.62725646  0.01221018  0.54711846  1
  S2-  S242  1  0.63475510  0.24977437  0.06945397  1
  S2-  S243  1  0.62639789  0.26313581  0.54824621  1
  S2-  S244  1  0.63222369  0.49647505  0.05115276  1
  S2-  S245  1  0.62340823  0.51384163  0.53716813  1
  S2-  S246  1  0.63272585  0.74313742  0.04046439  1
  S2-  S247  1  0.62731118  0.76379888  0.54557821  1
  S2-  S248  1  0.88334244  -0.00917149  0.04021747  1
  S2-  S249  1  0.87710581  0.01086139  0.54109068  1
  S2-  S250  1  0.87593103  0.24637316  0.04527610  1
  S2-  S251  1  0.87729617  0.26811243  0.54524829  1
  S2-  S252  1  0.88293739  0.49848315  0.04862078  1
  S2-  S253  1  0.87496404  0.51264080  0.54432929  1
  S2-  S254  1  0.88001127  0.74505095  0.03939128  1
  S2-  S255  1  0.87175347  0.76409938  0.54338334  1
