# generated using pymatgen
data_La6Ce7Pr13Nd19Sm19(BiS2)64
_symmetry_space_group_name_H-M   'P 1'
_cell_length_a   16.11044834
_cell_length_b   16.06595093
_cell_length_c   27.21578665
_cell_angle_alpha   89.91267836
_cell_angle_beta   89.88111005
_cell_angle_gamma   89.87648515
_symmetry_Int_Tables_number   1
_chemical_formula_structural   La6Ce7Pr13Nd19Sm19(BiS2)64
_chemical_formula_sum   'La6 Ce7 Pr13 Nd19 Sm19 Bi64 S128'
_cell_volume   7044.21347691
_cell_formula_units_Z   1
loop_
 _symmetry_equiv_pos_site_id
 _symmetry_equiv_pos_as_xyz
  1  'x, y, z'
loop_
 _atom_type_symbol
 _atom_type_oxidation_number
  La3+  3.0
  Ce3+  3.0
  Pr3+  3.0
  Nd3+  3.0
  Sm3+  3.0
  Bi2+  2.0
  S2-  -2.0
loop_
 _atom_site_type_symbol
 _atom_site_label
 _atom_site_symmetry_multiplicity
 _atom_site_fract_x
 _atom_site_fract_y
 _atom_site_fract_z
 _atom_site_occupancy
  La3+  La0  1  -0.00023322  0.37030769  0.57545754  1
  La3+  La1  1  0.50508347  0.88721105  0.57119747  1
  La3+  La2  1  0.26057940  0.63216074  0.59441661  1
  La3+  La3  1  0.00246108  0.61846323  0.60087987  1
  La3+  La4  1  0.12995242  0.27254529  0.41395356  1
  La3+  La5  1  0.87694620  0.27042918  0.88357743  1
  Ce3+  Ce6  1  0.25026087  0.12845387  0.05744921  1
  Ce3+  Ce7  1  0.87940087  0.00748594  0.42847721  1
  Ce3+  Ce8  1  0.62810887  0.26035084  0.43410895  1
  Ce3+  Ce9  1  0.87341099  0.01397935  0.94773380  1
  Ce3+  Ce10  1  0.75662090  0.37140217  0.05386076  1
  Ce3+  Ce11  1  0.37587975  0.00219285  0.94412515  1
  Ce3+  Ce12  1  0.12320875  0.75777124  0.93008606  1
  Pr3+  Pr13  1  0.74453201  0.12135484  0.08385425  1
  Pr3+  Pr14  1  0.38091356  0.25285247  0.42701215  1
  Pr3+  Pr15  1  0.49839323  0.13265651  0.06510147  1
  Pr3+  Pr16  1  0.25249451  0.13223421  0.56131857  1
  Pr3+  Pr17  1  0.62381921  0.00378421  0.94394844  1
  Pr3+  Pr18  1  0.87529408  0.26697477  0.42098233  1
  Pr3+  Pr19  1  0.87961056  0.50854093  0.44259542  1
  Pr3+  Pr20  1  0.11895277  0.50704125  0.92335222  1
  Pr3+  Pr21  1  0.00455483  0.87686837  0.55385755  1
  Pr3+  Pr22  1  0.37986709  0.75887524  0.43966616  1
  Pr3+  Pr23  1  0.74714020  0.87291379  0.06673889  1
  Pr3+  Pr24  1  0.12951232  0.75135565  0.44670243  1
  Pr3+  Pr25  1  0.12891051  0.00702433  0.43613604  1
  Nd3+  Nd26  1  0.25092990  0.88334872  0.57017682  1
  Nd3+  Nd27  1  0.62717385  0.50312756  0.94436480  1
  Nd3+  Nd28  1  0.50050194  0.37887807  0.56361733  1
  Nd3+  Nd29  1  0.00307761  0.13751969  0.54410171  1
  Nd3+  Nd30  1  0.01329411  0.62599715  0.07041809  1
  Nd3+  Nd31  1  0.75327800  0.62647853  0.57093390  1
  Nd3+  Nd32  1  0.75417880  0.13134391  0.54687384  1
  Nd3+  Nd33  1  0.62529122  0.50950857  0.44204178  1
  Nd3+  Nd34  1  0.62970439  0.00147550  0.42652579  1
  Nd3+  Nd35  1  0.37788649  0.00530531  0.43504149  1
  Nd3+  Nd36  1  0.87633237  0.51327140  0.93537471  1
  Nd3+  Nd37  1  0.37242124  0.49895042  0.92907311  1
  Nd3+  Nd38  1  0.75721355  0.62188696  0.06691077  1
  Nd3+  Nd39  1  0.38115836  0.75383509  0.89356886  1
  Nd3+  Nd40  1  0.49799099  0.37820067  0.05693437  1
  Nd3+  Nd41  1  0.49683420  0.62535135  0.05760977  1
  Nd3+  Nd42  1  0.12843180  0.50778503  0.45152291  1
  Nd3+  Nd43  1  0.12504313  -0.00089026  0.94204248  1
  Nd3+  Nd44  1  0.75805525  0.88323383  0.55851107  1
  Sm3+  Sm45  1  0.25260325  0.87575149  0.05643070  1
  Sm3+  Sm46  1  0.87554982  0.75330803  0.94791654  1
  Sm3+  Sm47  1  0.37999715  0.50957569  0.44680955  1
  Sm3+  Sm48  1  0.63150884  0.25133733  0.94145034  1
  Sm3+  Sm49  1  0.37196102  0.25541859  0.93390982  1
  Sm3+  Sm50  1  0.87866540  0.75082305  0.44860776  1
  Sm3+  Sm51  1  0.49666992  0.87368374  0.06262786  1
  Sm3+  Sm52  1  0.62143409  0.75392869  0.94233257  1
  Sm3+  Sm53  1  0.25841326  0.37454499  0.56455624  1
  Sm3+  Sm54  1  0.50272182  0.63552998  0.56940834  1
  Sm3+  Sm55  1  0.24604554  0.37778643  0.05426882  1
  Sm3+  Sm56  1  -0.00050751  0.11823180  0.07746383  1
  Sm3+  Sm57  1  0.11679948  0.24877059  0.94487112  1
  Sm3+  Sm58  1  0.50580149  0.12862714  0.55572271  1
  Sm3+  Sm59  1  0.25030311  0.62861166  0.04603504  1
  Sm3+  Sm60  1  -0.00091345  0.37412128  0.05690147  1
  Sm3+  Sm61  1  0.75108366  0.37872847  0.56112568  1
  Sm3+  Sm62  1  0.62991717  0.75660183  0.45146834  1
  Sm3+  Sm63  1  0.00293009  0.87760388  0.06398074  1
  Bi2+  Bi64  1  0.00206094  0.10896737  0.28259129  1
  Bi2+  Bi65  1  0.04707312  0.06972508  0.82420748  1
  Bi2+  Bi66  1  -0.00976160  0.38359290  0.29560237  1
  Bi2+  Bi67  1  0.02592688  0.36720802  0.78158913  1
  Bi2+  Bi68  1  -0.02425066  0.58299358  0.31667748  1
  Bi2+  Bi69  1  -0.01520179  0.60164669  0.79320151  1
  Bi2+  Bi70  1  0.07088412  0.82759647  0.29377354  1
  Bi2+  Bi71  1  -0.09781370  0.84278881  0.81269086  1
  Bi2+  Bi72  1  0.26456405  0.14222759  0.29178930  1
  Bi2+  Bi73  1  0.26782472  0.13550453  0.79936980  1
  Bi2+  Bi74  1  0.30657245  0.35858407  0.25507059  1
  Bi2+  Bi75  1  0.30929347  0.31718557  0.76442804  1
  Bi2+  Bi76  1  0.24285147  0.63655478  0.28389649  1
  Bi2+  Bi77  1  0.23572471  0.58027642  0.78463724  1
  Bi2+  Bi78  1  0.25160872  0.90357483  0.29562752  1
  Bi2+  Bi79  1  0.24321294  0.92375075  0.79381383  1
  Bi2+  Bi80  1  0.51910681  0.19659276  0.29381737  1
  Bi2+  Bi81  1  0.47254611  0.12370707  0.80042146  1
  Bi2+  Bi82  1  0.49071085  0.39315868  0.29137097  1
  Bi2+  Bi83  1  0.50049405  0.32495123  0.79813905  1
  Bi2+  Bi84  1  0.43176752  0.62352759  0.32242731  1
  Bi2+  Bi85  1  0.53232454  0.61347535  0.79286857  1
  Bi2+  Bi86  1  0.47897173  0.80324586  0.29042077  1
  Bi2+  Bi87  1  0.52100691  0.91251078  0.79071343  1
  Bi2+  Bi88  1  0.75651303  0.11161241  0.29111127  1
  Bi2+  Bi89  1  0.65636759  0.17024669  0.76416150  1
  Bi2+  Bi90  1  0.70556397  0.41316332  0.25077009  1
  Bi2+  Bi91  1  0.68019781  0.39230805  0.77779902  1
  Bi2+  Bi92  1  0.65914505  0.61292417  0.31148244  1
  Bi2+  Bi93  1  0.75721413  0.64443960  0.78745325  1
  Bi2+  Bi94  1  0.76704780  0.79838630  0.29232250  1
  Bi2+  Bi95  1  0.70830885  0.84405168  0.79517364  1
  Bi2+  Bi96  1  0.13309672  -0.04400004  0.20864694  1
  Bi2+  Bi97  1  0.07528289  0.00620060  0.71428155  1
  Bi2+  Bi98  1  0.13622693  0.27747904  0.19327474  1
  Bi2+  Bi99  1  0.13644507  0.19382875  0.71311556  1
  Bi2+  Bi100  1  0.07875312  0.56914644  0.22010895  1
  Bi2+  Bi101  1  0.16191101  0.39579886  0.69196954  1
  Bi2+  Bi102  1  0.11740379  0.76064866  0.18493091  1
  Bi2+  Bi103  1  0.12564407  0.80529903  0.72609970  1
  Bi2+  Bi104  1  0.41234664  0.04789685  0.23905778  1
  Bi2+  Bi105  1  0.35983671  0.01368630  0.71520008  1
  Bi2+  Bi106  1  0.38756674  0.20777662  0.18134971  1
  Bi2+  Bi107  1  0.46719107  0.17475109  0.68394070  1
  Bi2+  Bi108  1  0.34534477  0.53095432  0.20431745  1
  Bi2+  Bi109  1  0.43989362  0.47729036  0.71430345  1
  Bi2+  Bi110  1  0.33288331  0.76720647  0.21450444  1
  Bi2+  Bi111  1  0.38501181  0.74995688  0.71493237  1
  Bi2+  Bi112  1  0.60614529  -0.01930545  0.21964063  1
  Bi2+  Bi113  1  0.67352334  0.00219019  0.70145345  1
  Bi2+  Bi114  1  0.62751318  0.25152015  0.19929329  1
  Bi2+  Bi115  1  0.60992671  0.30735203  0.67834478  1
  Bi2+  Bi116  1  0.54689366  0.54176083  0.21830495  1
  Bi2+  Bi117  1  0.62410377  0.51479594  0.66476077  1
  Bi2+  Bi118  1  0.61957352  0.74976571  0.21493640  1
  Bi2+  Bi119  1  0.63185462  0.70335032  0.70798150  1
  Bi2+  Bi120  1  0.86983831  -0.07279505  0.22661872  1
  Bi2+  Bi121  1  0.89255429  0.01990559  0.76238616  1
  Bi2+  Bi122  1  0.88365895  0.28159014  0.19107459  1
  Bi2+  Bi123  1  0.87852784  0.21163200  0.69364997  1
  Bi2+  Bi124  1  0.81065815  0.57122826  0.23223893  1
  Bi2+  Bi125  1  0.80763958  0.49301861  0.71186008  1
  Bi2+  Bi126  1  0.92576784  0.73952256  0.22050435  1
  Bi2+  Bi127  1  0.88728767  0.77886683  0.70669943  1
  S2-  S128  1  0.01152574  0.17082043  0.17415470  1
  S2-  S129  1  0.01268927  0.21652958  0.63342327  1
  S2-  S130  1  0.02596203  0.37937594  0.15565150  1
  S2-  S131  1  0.02072181  0.46693629  0.65987685  1
  S2-  S132  1  -0.06648056  0.58498833  0.15725115  1
  S2-  S133  1  0.04388678  0.67112710  0.70194107  1
  S2-  S134  1  -0.00324133  0.96908896  0.14792760  1
  S2-  S135  1  0.00697041  0.88043417  0.65458196  1
  S2-  S136  1  0.23004341  0.13981305  0.15436256  1
  S2-  S137  1  0.25452900  0.01316752  0.63984256  1
  S2-  S138  1  0.25610111  0.38993918  0.15239016  1
  S2-  S139  1  0.23390653  0.25104927  0.63715865  1
  S2-  S140  1  0.16129196  0.61499736  0.13087852  1
  S2-  S141  1  0.22660439  0.54856664  0.68773294  1
  S2-  S142  1  0.27557913  0.89240783  0.15444167  1
  S2-  S143  1  0.24893736  0.78230428  0.65487876  1
  S2-  S144  1  0.59834820  0.11478697  0.14754795  1
  S2-  S145  1  0.52850914  0.02805376  0.63767241  1
  S2-  S146  1  0.49644792  0.33358690  0.15262594  1
  S2-  S147  1  0.38875323  0.38571003  0.64060423  1
  S2-  S148  1  0.44764936  0.63941559  0.15355202  1
  S2-  S149  1  0.40979337  0.62302648  0.65378369  1
  S2-  S150  1  0.52711263  0.87854801  0.15986271  1
  S2-  S151  1  0.50823567  0.80323428  0.66160701  1
  S2-  S152  1  0.79580594  0.15030796  0.18438097  1
  S2-  S153  1  0.75928612  0.11009044  0.64588474  1
  S2-  S154  1  0.75632687  0.38452403  0.15188379  1
  S2-  S155  1  0.83792921  0.35739914  0.64537870  1
  S2-  S156  1  0.72813607  0.67681683  0.15865345  1
  S2-  S157  1  0.85019420  0.63255932  0.65414674  1
  S2-  S158  1  0.74682391  0.94067430  0.16012029  1
  S2-  S159  1  0.76185418  0.87601868  0.65807683  1
  S2-  S160  1  0.13796120  0.03421086  0.33673050  1
  S2-  S161  1  0.11695171  -0.10932155  0.86127717  1
  S2-  S162  1  0.08521934  0.23577143  0.31106831  1
  S2-  S163  1  0.05195586  0.24255282  0.85405062  1
  S2-  S164  1  0.10509098  0.43642653  0.36042206  1
  S2-  S165  1  0.16416609  0.45522107  0.82765291  1
  S2-  S166  1  0.11299439  0.68446163  0.35334678  1
  S2-  S167  1  0.10182904  0.64950435  0.85156391  1
  S2-  S168  1  0.39765879  0.11579684  0.35566650  1
  S2-  S169  1  0.38743507  -0.07688456  0.85736903  1
  S2-  S170  1  0.27106700  0.27614909  0.34850832  1
  S2-  S171  1  0.36609158  0.36881193  0.85848378  1
  S2-  S172  1  0.36861002  0.47229627  0.35019057  1
  S2-  S173  1  0.38860978  0.58907382  0.84317051  1
  S2-  S174  1  0.38001644  0.87908139  0.36405791  1
  S2-  S175  1  0.28735016  0.75240611  0.80569758  1
  S2-  S176  1  0.63809059  0.00844459  0.32569845  1
  S2-  S177  1  0.64541314  -0.01324840  0.84380420  1
  S2-  S178  1  0.67586200  0.23315537  0.34025673  1
  S2-  S179  1  0.70551659  0.24336432  0.85268443  1
  S2-  S180  1  0.63238274  0.45255688  0.34867633  1
  S2-  S181  1  0.66189022  0.52444189  0.84757080  1
  S2-  S182  1  0.62431845  0.78507439  0.35420201  1
  S2-  S183  1  0.54296080  0.75687887  0.85312827  1
  S2-  S184  1  0.88562291  -0.00846698  0.32970973  1
  S2-  S185  1  0.87826891  0.09305621  0.85995598  1
  S2-  S186  1  0.88794334  0.20602192  0.32234705  1
  S2-  S187  1  0.88446395  0.28369495  0.77815569  1
  S2-  S188  1  0.86755906  0.41360112  0.35653035  1
  S2-  S189  1  0.92275352  0.44756999  0.84646131  1
  S2-  S190  1  0.86689926  0.69378152  0.35632993  1
  S2-  S191  1  0.87611913  0.65387354  0.86633870  1
  S2-  S192  1  0.00290883  0.13605137  0.43863690  1
  S2-  S193  1  0.00650325  0.12180269  0.96917087  1
  S2-  S194  1  0.00081946  0.38201070  0.46150016  1
  S2-  S195  1  -0.00354086  0.37376822  0.95310911  1
  S2-  S196  1  0.00208120  0.63004059  0.46551489  1
  S2-  S197  1  0.00251155  0.63099762  0.96318295  1
  S2-  S198  1  0.00171619  0.87691830  0.44609531  1
  S2-  S199  1  -0.00762545  0.88029252  0.96038070  1
  S2-  S200  1  0.25168144  0.13094668  0.45075726  1
  S2-  S201  1  0.24879574  0.12960714  0.94888172  1
  S2-  S202  1  0.25975901  0.38600041  0.45922189  1
  S2-  S203  1  0.24002462  0.37377903  0.95080521  1
  S2-  S204  1  0.25725398  0.63044857  0.45412430  1
  S2-  S205  1  0.25517412  0.63200308  0.94401919  1
  S2-  S206  1  0.24935442  0.88103847  0.46172451  1
  S2-  S207  1  0.25720743  0.87363286  0.95334265  1
  S2-  S208  1  0.51249591  0.12819230  0.45260247  1
  S2-  S209  1  0.49864898  0.13424539  0.95320875  1
  S2-  S210  1  0.50177199  0.38273141  0.45546759  1
  S2-  S211  1  0.50513905  0.37558752  0.95128737  1
  S2-  S212  1  0.50466684  0.63514493  0.46161179  1
  S2-  S213  1  0.50045834  0.62702587  0.95282844  1
  S2-  S214  1  0.50932420  0.88180704  0.45999355  1
  S2-  S215  1  0.49988790  0.87550303  0.95869244  1
  S2-  S216  1  0.75369921  0.12943682  0.44194861  1
  S2-  S217  1  0.74320180  0.12627036  0.96840115  1
  S2-  S218  1  0.74806511  0.38407086  0.45719539  1
  S2-  S219  1  0.75579174  0.37804949  0.94820375  1
  S2-  S220  1  0.75039354  0.63136925  0.46308869  1
  S2-  S221  1  0.74550880  0.63278667  0.96179637  1
  S2-  S222  1  0.75753301  0.87870259  0.45080455  1
  S2-  S223  1  0.74963735  0.87518470  0.95732541  1
  S2-  S224  1  0.12923402  -0.00042174  0.04829874  1
  S2-  S225  1  0.12202509  0.00768810  0.54266437  1
  S2-  S226  1  0.12338314  0.25157128  0.04958911  1
  S2-  S227  1  0.13055776  0.25765182  0.53063042  1
  S2-  S228  1  0.12444357  0.49710740  0.03445032  1
  S2-  S229  1  0.13749134  0.50528822  0.55718721  1
  S2-  S230  1  0.12756532  0.75881054  0.03979122  1
  S2-  S231  1  0.12584222  0.74749430  0.55468947  1
  S2-  S232  1  0.37737301  0.00292834  0.05119419  1
  S2-  S233  1  0.38007730  0.00708133  0.54021563  1
  S2-  S234  1  0.37238915  0.25595542  0.03897600  1
  S2-  S235  1  0.38459759  0.25025855  0.53732264  1
  S2-  S236  1  0.37055805  0.50082128  0.04022103  1
  S2-  S237  1  0.37912012  0.51178300  0.54824395  1
  S2-  S238  1  0.37301010  0.75089614  0.05095142  1
  S2-  S239  1  0.37955014  0.75900113  0.54722848  1
  S2-  S240  1  0.61918075  -0.00330375  0.04957867  1
  S2-  S241  1  0.63495037  0.00435780  0.53485053  1
  S2-  S242  1  0.62555904  0.25503571  0.04655669  1
  S2-  S243  1  0.62745877  0.25463536  0.54270723  1
  S2-  S244  1  0.62624061  0.50178104  0.05191779  1
  S2-  S245  1  0.62499528  0.50599525  0.54781650  1
  S2-  S246  1  0.62159705  0.74929547  0.04850284  1
  S2-  S247  1  0.63222070  0.75655983  0.55507734  1
  S2-  S248  1  0.87160568  0.00090569  0.05299854  1
  S2-  S249  1  0.88181542  0.00706614  0.53834254  1
  S2-  S250  1  0.87960520  0.24567298  0.06178539  1
  S2-  S251  1  0.87173927  0.25632615  0.53221624  1
  S2-  S252  1  0.87866528  0.50064343  0.04392129  1
  S2-  S253  1  0.87543107  0.50348370  0.54996903  1
  S2-  S254  1  0.87925397  0.75229370  0.05417460  1
  S2-  S255  1  0.87869171  0.75261303  0.55230327  1
