# generated using pymatgen
data_La6Ce7Pr13Nd19Sm19(BiS2)64
_symmetry_space_group_name_H-M   'P 1'
_cell_length_a   16.00527837
_cell_length_b   16.02082041
_cell_length_c   27.75185337
_cell_angle_alpha   90.01196687
_cell_angle_beta   90.12211435
_cell_angle_gamma   89.85967009
_symmetry_Int_Tables_number   1
_chemical_formula_structural   La6Ce7Pr13Nd19Sm19(BiS2)64
_chemical_formula_sum   'La6 Ce7 Pr13 Nd19 Sm19 Bi64 S128'
_cell_volume   7116.02849206
_cell_formula_units_Z   1
loop_
 _symmetry_equiv_pos_site_id
 _symmetry_equiv_pos_as_xyz
  1  'x, y, z'
loop_
 _atom_type_symbol
 _atom_type_oxidation_number
  La3+  3.0
  Ce3+  3.0
  Pr3+  3.0
  Nd3+  3.0
  Sm3+  3.0
  Bi2+  2.0
  S2-  -2.0
loop_
 _atom_site_type_symbol
 _atom_site_label
 _atom_site_symmetry_multiplicity
 _atom_site_fract_x
 _atom_site_fract_y
 _atom_site_fract_z
 _atom_site_occupancy
  La3+  La0  1  0.02564958  0.87713127  0.61608228  1
  La3+  La1  1  0.74084776  0.86892786  0.58250573  1
  La3+  La2  1  0.23207355  0.13936215  0.11438162  1
  La3+  La3  1  0.64623356  0.25318422  0.89351324  1
  La3+  La4  1  0.11977252  0.49675239  0.92419798  1
  La3+  La5  1  0.74019886  0.66762600  0.11843557  1
  Ce3+  Ce6  1  0.24318346  0.86348395  0.54937003  1
  Ce3+  Ce7  1  0.61573102  0.23652504  0.44407914  1
  Ce3+  Ce8  1  0.36982382  0.49253687  0.93015274  1
  Ce3+  Ce9  1  0.36713630  -0.01506128  0.42858244  1
  Ce3+  Ce10  1  0.49488545  0.86103147  0.55618745  1
  Ce3+  Ce11  1  0.48666539  0.11407916  0.56086057  1
  Ce3+  Ce12  1  0.61928815  0.00076662  0.94261398  1
  Pr3+  Pr13  1  0.73614148  0.61624477  0.57367626  1
  Pr3+  Pr14  1  0.74062636  0.36425520  0.55912601  1
  Pr3+  Pr15  1  0.74383633  0.12333346  0.06158323  1
  Pr3+  Pr16  1  0.86814457  -0.00695892  0.92247513  1
  Pr3+  Pr17  1  0.24254814  0.61680436  0.56357731  1
  Pr3+  Pr18  1  0.23647934  0.10587333  0.55688570  1
  Pr3+  Pr19  1  0.36991632  0.74451437  0.93886672  1
  Pr3+  Pr20  1  0.74123022  0.11468916  0.56875105  1
  Pr3+  Pr21  1  0.85910310  0.73595853  0.92241645  1
  Pr3+  Pr22  1  0.36210811  0.48705214  0.42599507  1
  Pr3+  Pr23  1  0.50726180  0.86301150  0.06831854  1
  Pr3+  Pr24  1  0.36915385  -0.00412955  0.94654887  1
  Pr3+  Pr25  1  0.00077474  0.36860640  0.05835866  1
  Nd3+  Nd26  1  0.11858665  -0.00671067  0.94005813  1
  Nd3+  Nd27  1  0.11389999  0.23687868  0.43834216  1
  Nd3+  Nd28  1  0.37134015  0.24007119  0.93269345  1
  Nd3+  Nd29  1  0.61476691  0.74150636  0.93828058  1
  Nd3+  Nd30  1  0.24615573  0.61931606  0.06413452  1
  Nd3+  Nd31  1  0.86191215  -0.01507918  0.44417935  1
  Nd3+  Nd32  1  0.48484186  0.36236083  0.55674602  1
  Nd3+  Nd33  1  0.23943285  0.36260030  0.55538589  1
  Nd3+  Nd34  1  -0.01174421  0.86857246  0.05803967  1
  Nd3+  Nd35  1  0.61387530  0.49283761  0.93696013  1
  Nd3+  Nd36  1  0.24744031  0.87378337  0.06716450  1
  Nd3+  Nd37  1  0.36589858  0.23302139  0.43010286  1
  Nd3+  Nd38  1  -0.01266485  0.61817849  0.05813233  1
  Nd3+  Nd39  1  0.62282189  0.73140960  0.42770395  1
  Nd3+  Nd40  1  -0.01559432  0.61994661  0.57649141  1
  Nd3+  Nd41  1  0.36741255  0.73665670  0.42734161  1
  Nd3+  Nd42  1  0.61719289  -0.01523067  0.44216174  1
  Nd3+  Nd43  1  0.86330180  0.49140050  0.44203696  1
  Nd3+  Nd44  1  0.74113851  0.38041795  0.06710343  1
  Sm3+  Sm45  1  0.49036797  0.61597714  0.56348305  1
  Sm3+  Sm46  1  0.86343049  0.23898990  0.44495626  1
  Sm3+  Sm47  1  0.11912791  0.24180155  0.94084353  1
  Sm3+  Sm48  1  0.11181358  0.73639136  0.44286372  1
  Sm3+  Sm49  1  -0.00918170  0.36403576  0.55598031  1
  Sm3+  Sm50  1  0.49242497  0.61333253  0.06568492  1
  Sm3+  Sm51  1  0.24541116  0.36765667  0.04922739  1
  Sm3+  Sm52  1  0.48961510  0.12046597  0.06022786  1
  Sm3+  Sm53  1  -0.01013824  0.10905008  0.55142833  1
  Sm3+  Sm54  1  0.11358833  0.49141438  0.45031594  1
  Sm3+  Sm55  1  0.11618362  0.74445195  0.94759727  1
  Sm3+  Sm56  1  0.75096147  0.87320599  0.05515700  1
  Sm3+  Sm57  1  0.86092477  0.49197738  0.93881543  1
  Sm3+  Sm58  1  -0.00354057  0.11552060  0.05511862  1
  Sm3+  Sm59  1  0.49170792  0.36437125  0.04735669  1
  Sm3+  Sm60  1  0.87064361  0.24505344  0.95066991  1
  Sm3+  Sm61  1  0.86236302  0.73922767  0.45189094  1
  Sm3+  Sm62  1  0.61312321  0.49007366  0.44483019  1
  Sm3+  Sm63  1  0.11079052  -0.01442640  0.43459920  1
  Bi2+  Bi64  1  0.02315503  0.10193337  0.29594721  1
  Bi2+  Bi65  1  -0.01738460  0.17051228  0.75725500  1
  Bi2+  Bi66  1  0.04494878  0.43577443  0.26632293  1
  Bi2+  Bi67  1  0.01886546  0.42671836  0.81019552  1
  Bi2+  Bi68  1  0.00630676  0.63282708  0.27786665  1
  Bi2+  Bi69  1  0.03857259  0.62211540  0.80092305  1
  Bi2+  Bi70  1  0.06582694  0.84388288  0.26320388  1
  Bi2+  Bi71  1  0.04276419  0.87599405  0.81617727  1
  Bi2+  Bi72  1  0.24308179  0.15356264  0.31323895  1
  Bi2+  Bi73  1  0.17391678  0.15028371  0.79071769  1
  Bi2+  Bi74  1  0.23740967  0.40017442  0.29120399  1
  Bi2+  Bi75  1  0.20662587  0.42777546  0.77202508  1
  Bi2+  Bi76  1  0.22080752  0.62998459  0.29704562  1
  Bi2+  Bi77  1  0.37070235  0.63713343  0.81868266  1
  Bi2+  Bi78  1  0.25003379  0.90505936  0.23741176  1
  Bi2+  Bi79  1  0.30068569  0.86791055  0.77490805  1
  Bi2+  Bi80  1  0.56268505  0.16222228  0.22199200  1
  Bi2+  Bi81  1  0.41023744  0.15209080  0.78876300  1
  Bi2+  Bi82  1  0.50360327  0.33673917  0.28836745  1
  Bi2+  Bi83  1  0.46384836  0.39354793  0.78880747  1
  Bi2+  Bi84  1  0.48005870  0.53100887  0.28685208  1
  Bi2+  Bi85  1  0.52810788  0.64458747  0.73766611  1
  Bi2+  Bi86  1  0.47263256  0.91866010  0.29992688  1
  Bi2+  Bi87  1  0.49268799  0.88636925  0.79998748  1
  Bi2+  Bi88  1  0.73603396  0.12516044  0.32107409  1
  Bi2+  Bi89  1  0.78176261  0.11441804  0.79746988  1
  Bi2+  Bi90  1  0.76851059  0.36855293  0.28568090  1
  Bi2+  Bi91  1  0.81033062  0.37058729  0.78120574  1
  Bi2+  Bi92  1  0.74308132  0.60027618  0.30284284  1
  Bi2+  Bi93  1  0.77963261  0.63145704  0.78270318  1
  Bi2+  Bi94  1  0.70744728  0.86321024  0.31129780  1
  Bi2+  Bi95  1  0.74400801  0.85544895  0.78547446  1
  Bi2+  Bi96  1  0.00637622  -0.03648217  0.17757474  1
  Bi2+  Bi97  1  0.15387129  0.02307057  0.70290637  1
  Bi2+  Bi98  1  0.10537302  0.26898016  0.20494733  1
  Bi2+  Bi99  1  0.13110740  0.27829485  0.70786991  1
  Bi2+  Bi100  1  0.12589933  0.56842105  0.18855981  1
  Bi2+  Bi101  1  0.11615407  0.55652770  0.69808610  1
  Bi2+  Bi102  1  0.16275099  0.75879072  0.17000507  1
  Bi2+  Bi103  1  0.24610705  0.69290365  0.73673395  1
  Bi2+  Bi104  1  0.45777856  -0.00563899  0.19896456  1
  Bi2+  Bi105  1  0.38268173  0.01013043  0.71108317  1
  Bi2+  Bi106  1  0.38968903  0.29846584  0.19749313  1
  Bi2+  Bi107  1  0.38528907  0.25956042  0.67953707  1
  Bi2+  Bi108  1  0.32691724  0.50730626  0.21215402  1
  Bi2+  Bi109  1  0.36616413  0.52675812  0.71861402  1
  Bi2+  Bi110  1  0.33777213  0.73084487  0.22199969  1
  Bi2+  Bi111  1  0.43421482  0.82235054  0.69132413  1
  Bi2+  Bi112  1  0.65611490  -0.01090523  0.20440237  1
  Bi2+  Bi113  1  0.63022609  0.00549532  0.76101617  1
  Bi2+  Bi114  1  0.72151466  0.26246227  0.18985520  1
  Bi2+  Bi115  1  0.61315452  0.26168330  0.70210399  1
  Bi2+  Bi116  1  0.61814822  0.43581782  0.21398597  1
  Bi2+  Bi117  1  0.65188697  0.48972909  0.76306699  1
  Bi2+  Bi118  1  0.56957223  0.75647891  0.20965704  1
  Bi2+  Bi119  1  0.67656785  0.74825319  0.69682927  1
  Bi2+  Bi120  1  0.85908199  0.01614675  0.24418991  1
  Bi2+  Bi121  1  0.87720277  -0.00529961  0.70503986  1
  Bi2+  Bi122  1  0.89236674  0.22295821  0.24508216  1
  Bi2+  Bi123  1  0.80976097  0.22117393  0.69746271  1
  Bi2+  Bi124  1  0.88111752  0.48934296  0.20428748  1
  Bi2+  Bi125  1  0.93638882  0.46414047  0.70836820  1
  Bi2+  Bi126  1  0.90206122  0.76345389  0.21804825  1
  Bi2+  Bi127  1  0.91648402  0.71061455  0.71567433  1
  S2-  S128  1  0.05367835  0.13035937  0.14589969  1
  S2-  S129  1  0.01368943  0.05817689  0.64249645  1
  S2-  S130  1  -0.02046232  0.37400875  0.15639254  1
  S2-  S131  1  0.00013833  0.33420569  0.65077169  1
  S2-  S132  1  -0.08762680  0.63392498  0.14730257  1
  S2-  S133  1  0.04997747  0.70959031  0.65413797  1
  S2-  S134  1  -0.12499375  0.86333624  0.13411725  1
  S2-  S135  1  0.03873102  0.90006923  0.72338914  1
  S2-  S136  1  0.22639498  0.15357240  0.22103845  1
  S2-  S137  1  0.28281619  0.11982944  0.65177391  1
  S2-  S138  1  0.23114938  0.31862226  0.14234614  1
  S2-  S139  1  0.26413414  0.36053685  0.65185741  1
  S2-  S140  1  0.36251288  0.61194190  0.13736522  1
  S2-  S141  1  0.36626767  0.61472786  0.63412260  1
  S2-  S142  1  0.23470605  0.96993075  0.14919872  1
  S2-  S143  1  0.20076522  0.90006844  0.63927463  1
  S2-  S144  1  0.40471981  0.14172430  0.14448334  1
  S2-  S145  1  0.52739339  0.14340349  0.65412940  1
  S2-  S146  1  0.48614096  0.39179576  0.14504302  1
  S2-  S147  1  0.49963827  0.37449738  0.65499688  1
  S2-  S148  1  0.57509381  0.63155637  0.15166635  1
  S2-  S149  1  0.60376997  0.61607209  0.64155587  1
  S2-  S150  1  0.43295814  0.83317985  0.15796728  1
  S2-  S151  1  0.58500260  0.86276856  0.64088156  1
  S2-  S152  1  0.77762374  0.07363442  0.15450306  1
  S2-  S153  1  0.74730695  0.01845613  0.65145950  1
  S2-  S154  1  0.74394310  0.49047189  0.14495593  1
  S2-  S155  1  0.73363791  0.36536833  0.65743019  1
  S2-  S156  1  0.73315144  0.70492600  0.22239930  1
  S2-  S157  1  0.85851499  0.59506943  0.64825693  1
  S2-  S158  1  0.65615424  0.84285680  0.13696565  1
  S2-  S159  1  0.86450372  0.84523919  0.65651929  1
  S2-  S160  1  0.14411861  0.01013866  0.34020923  1
  S2-  S161  1  0.15279500  -0.00808255  0.84301694  1
  S2-  S162  1  0.09511438  0.24023148  0.34093809  1
  S2-  S163  1  0.09199781  0.27452097  0.84737966  1
  S2-  S164  1  0.12743001  0.49297222  0.35520812  1
  S2-  S165  1  0.24975398  0.51198579  0.85563528  1
  S2-  S166  1  0.11546845  0.73627806  0.34541951  1
  S2-  S167  1  0.13511915  0.73539782  0.85142471  1
  S2-  S168  1  0.38164681  0.10820690  0.35760698  1
  S2-  S169  1  0.39989799  0.02356501  0.84892860  1
  S2-  S170  1  0.35464170  0.35224345  0.35529834  1
  S2-  S171  1  0.34987251  0.29074440  0.83812839  1
  S2-  S172  1  0.37060313  0.61233015  0.35506699  1
  S2-  S173  1  0.48909257  0.50913333  0.86005983  1
  S2-  S174  1  0.35448497  0.86167670  0.35498580  1
  S2-  S175  1  0.48681431  0.74850773  0.86331536  1
  S2-  S176  1  0.61223179  0.00228072  0.34376210  1
  S2-  S177  1  0.63501585  0.07897216  0.85670192  1
  S2-  S178  1  0.61538553  0.23555924  0.34836871  1
  S2-  S179  1  0.56361837  0.26009863  0.80170359  1
  S2-  S180  1  0.61312879  0.56339876  0.35691705  1
  S2-  S181  1  0.69531804  0.42776332  0.85468959  1
  S2-  S182  1  0.57086545  0.78299055  0.33361935  1
  S2-  S183  1  0.71059664  0.73629147  0.85413414  1
  S2-  S184  1  0.83591770  -0.02487986  0.34694761  1
  S2-  S185  1  0.93018209  0.06276090  0.83217178  1
  S2-  S186  1  0.85442588  0.24375610  0.34892825  1
  S2-  S187  1  0.81598880  0.25321092  0.85887600  1
  S2-  S188  1  0.85072158  0.49139856  0.34456777  1
  S2-  S189  1  0.88868467  0.59281551  0.85815741  1
  S2-  S190  1  0.77766548  0.73484100  0.36535682  1
  S2-  S191  1  0.88392302  0.86120584  0.85101117  1
  S2-  S192  1  -0.01295376  0.11264592  0.44815838  1
  S2-  S193  1  -0.00642481  0.12014390  0.95145051  1
  S2-  S194  1  -0.01089722  0.36426771  0.45209447  1
  S2-  S195  1  -0.00528924  0.37040565  0.95263903  1
  S2-  S196  1  -0.01201554  0.61471883  0.45769323  1
  S2-  S197  1  -0.00348581  0.61767199  0.95536715  1
  S2-  S198  1  -0.01267304  0.85962442  0.43876459  1
  S2-  S199  1  -0.00702398  0.86749342  0.95452599  1
  S2-  S200  1  0.23504166  0.10917436  0.45213213  1
  S2-  S201  1  0.24119964  0.11974108  0.94317243  1
  S2-  S202  1  0.23381356  0.36367314  0.45267124  1
  S2-  S203  1  0.24121873  0.36542813  0.94827780  1
  S2-  S204  1  0.23684466  0.61410207  0.45764812  1
  S2-  S205  1  0.24232313  0.62264229  0.95934387  1
  S2-  S206  1  0.23300145  0.86135945  0.44791846  1
  S2-  S207  1  0.24267430  0.86839531  0.95714931  1
  S2-  S208  1  0.49372292  0.11147837  0.45717536  1
  S2-  S209  1  0.49591578  0.12255658  0.95745096  1
  S2-  S210  1  0.49128193  0.36407361  0.45156838  1
  S2-  S211  1  0.50471735  0.35166125  0.94498489  1
  S2-  S212  1  0.49122512  0.61307504  0.45834542  1
  S2-  S213  1  0.49000649  0.61791641  0.96255344  1
  S2-  S214  1  0.49549684  0.85904105  0.45264646  1
  S2-  S215  1  0.49695319  0.87358614  0.96102524  1
  S2-  S216  1  0.74228202  0.11434979  0.46053724  1
  S2-  S217  1  0.74622132  0.12522459  0.95648620  1
  S2-  S218  1  0.73973284  0.36523838  0.45302019  1
  S2-  S219  1  0.74467656  0.36401005  0.96355501  1
  S2-  S220  1  0.73990758  0.60961419  0.46531927  1
  S2-  S221  1  0.73951313  0.61084099  0.94975879  1
  S2-  S222  1  0.73918305  0.86235160  0.46315539  1
  S2-  S223  1  0.74167498  0.87365491  0.95282938  1
  S2-  S224  1  0.11611768  -0.00839935  0.04354600  1
  S2-  S225  1  0.10965924  -0.01713748  0.53685455  1
  S2-  S226  1  0.12315427  0.23795435  0.04275685  1
  S2-  S227  1  0.11305553  0.23678969  0.54412020  1
  S2-  S228  1  0.12234098  0.49579179  0.04133179  1
  S2-  S229  1  0.11273523  0.49140639  0.55369287  1
  S2-  S230  1  0.11727502  0.74465416  0.04956229  1
  S2-  S231  1  0.11407439  0.74142069  0.54495161  1
  S2-  S232  1  0.37617668  -0.01049624  0.04927923  1
  S2-  S233  1  0.36776850  -0.01337731  0.54126327  1
  S2-  S234  1  0.36415109  0.24198054  0.03849423  1
  S2-  S235  1  0.36077272  0.23627488  0.53783318  1
  S2-  S236  1  0.36683261  0.48828689  0.03686483  1
  S2-  S237  1  0.36312479  0.48674873  0.53638475  1
  S2-  S238  1  0.36924920  0.74736481  0.04360119  1
  S2-  S239  1  0.36702363  0.74052517  0.53555760  1
  S2-  S240  1  0.61957130  -0.00063253  0.04765885  1
  S2-  S241  1  0.61529192  -0.00636314  0.54540519  1
  S2-  S242  1  0.61595591  0.24537775  0.06106314  1
  S2-  S243  1  0.61474604  0.23943457  0.54832507  1
  S2-  S244  1  0.60912680  0.48812055  0.04136327  1
  S2-  S245  1  0.61139220  0.48557013  0.54635294  1
  S2-  S246  1  0.62613297  0.73575984  0.04175937  1
  S2-  S247  1  0.61503878  0.73738072  0.53921610  1
  S2-  S248  1  0.87001385  -0.00103626  0.03436924  1
  S2-  S249  1  0.86813823  -0.01112691  0.54686158  1
  S2-  S250  1  0.87303703  0.24508024  0.05386296  1
  S2-  S251  1  0.86900791  0.23815333  0.54806097  1
  S2-  S252  1  0.87430726  0.48847414  0.04042496  1
  S2-  S253  1  0.86828304  0.48662086  0.54622124  1
  S2-  S254  1  0.86294203  0.73997451  0.03791384  1
  S2-  S255  1  0.86245781  0.73911065  0.55058903  1
