# generated using pymatgen
data_La6Ce7Pr13Nd19Sm19(BiS2)64
_symmetry_space_group_name_H-M   'P 1'
_cell_length_a   16.04937323
_cell_length_b   16.09855426
_cell_length_c   27.41498986
_cell_angle_alpha   89.62356459
_cell_angle_beta   89.90361767
_cell_angle_gamma   89.93985047
_symmetry_Int_Tables_number   1
_chemical_formula_structural   La6Ce7Pr13Nd19Sm19(BiS2)64
_chemical_formula_sum   'La6 Ce7 Pr13 Nd19 Sm19 Bi64 S128'
_cell_volume   7083.09097775
_cell_formula_units_Z   1
loop_
 _symmetry_equiv_pos_site_id
 _symmetry_equiv_pos_as_xyz
  1  'x, y, z'
loop_
 _atom_type_symbol
 _atom_type_oxidation_number
  La3+  3.0
  Ce3+  3.0
  Pr3+  3.0
  Nd3+  3.0
  Sm3+  3.0
  Bi2+  2.0
  S2-  -2.0
loop_
 _atom_site_type_symbol
 _atom_site_label
 _atom_site_symmetry_multiplicity
 _atom_site_fract_x
 _atom_site_fract_y
 _atom_site_fract_z
 _atom_site_occupancy
  La3+  La0  1  0.49601359  0.13555630  0.58173496  1
  La3+  La1  1  0.24850496  0.37755512  0.57079833  1
  La3+  La2  1  0.48965680  0.86940181  0.59136237  1
  La3+  La3  1  0.39996073  0.00385485  0.39517621  1
  La3+  La4  1  0.75677634  0.86693696  0.58548696  1
  La3+  La5  1  0.88960676  0.75479199  0.92217658  1
  Ce3+  Ce6  1  0.14131400  0.00324925  0.94585357  1
  Ce3+  Ce7  1  0.61910178  0.76174277  0.44521021  1
  Ce3+  Ce8  1  0.12542430  0.50583520  0.44651130  1
  Ce3+  Ce9  1  0.01029241  0.12826691  0.05437175  1
  Ce3+  Ce10  1  -0.00698312  0.12924453  0.55511823  1
  Ce3+  Ce11  1  -0.00586979  0.63322651  0.55784031  1
  Ce3+  Ce12  1  0.88784281  0.00474496  0.93177464  1
  Pr3+  Pr13  1  0.86869747  0.25268501  0.42953097  1
  Pr3+  Pr14  1  0.63919168  0.50003530  0.93217186  1
  Pr3+  Pr15  1  0.12753396  0.00530832  0.43969025  1
  Pr3+  Pr16  1  0.74930399  0.38097196  0.55969644  1
  Pr3+  Pr17  1  0.63658192  0.00892337  0.91827517  1
  Pr3+  Pr18  1  0.26774111  0.62960423  0.06249905  1
  Pr3+  Pr19  1  0.38584260  0.75671002  0.93232131  1
  Pr3+  Pr20  1  0.38325753  0.00561801  0.93789803  1
  Pr3+  Pr21  1  0.76191445  0.87759358  0.05275558  1
  Pr3+  Pr22  1  0.24788353  0.63220378  0.56381345  1
  Pr3+  Pr23  1  0.36463265  0.50215449  0.42973951  1
  Pr3+  Pr24  1  0.64300035  0.25311179  0.92179399  1
  Pr3+  Pr25  1  0.14114897  0.25604749  0.93826795  1
  Nd3+  Nd26  1  0.61746070  0.50462003  0.43532055  1
  Nd3+  Nd27  1  0.61830214  0.24876261  0.44881060  1
  Nd3+  Nd28  1  0.26662663  0.37804861  0.06252708  1
  Nd3+  Nd29  1  0.75529814  0.12996331  0.57766579  1
  Nd3+  Nd30  1  0.77089361  0.12646604  0.05822671  1
  Nd3+  Nd31  1  0.50785669  0.88197099  0.06052294  1
  Nd3+  Nd32  1  0.00533461  0.86790775  0.07640322  1
  Nd3+  Nd33  1  0.87243080  0.50291655  0.42854731  1
  Nd3+  Nd34  1  0.76313686  0.37644779  0.06235103  1
  Nd3+  Nd35  1  0.52892275  0.12602931  0.07029868  1
  Nd3+  Nd36  1  0.89005843  0.25809491  0.93074976  1
  Nd3+  Nd37  1  0.12666218  0.75837280  0.44363856  1
  Nd3+  Nd38  1  0.24919653  0.88396743  0.55975425  1
  Nd3+  Nd39  1  0.26682902  0.12958464  0.07106778  1
  Nd3+  Nd40  1  0.87104192  0.75600942  0.42456877  1
  Nd3+  Nd41  1  0.37360291  0.25452665  0.43409163  1
  Nd3+  Nd42  1  0.86718367  0.00537901  0.43411550  1
  Nd3+  Nd43  1  0.25339451  0.87236867  0.07492685  1
  Nd3+  Nd44  1  0.63478440  0.76122043  0.91330475  1
  Sm3+  Sm45  1  0.39272155  0.25255196  0.94769052  1
  Sm3+  Sm46  1  0.76043262  0.63161845  0.04901784  1
  Sm3+  Sm47  1  0.14190981  0.50464544  0.94720151  1
  Sm3+  Sm48  1  0.01374534  0.37923353  0.05483628  1
  Sm3+  Sm49  1  0.38935975  0.50437601  0.94565285  1
  Sm3+  Sm50  1  -0.00521105  0.88077764  0.55405680  1
  Sm3+  Sm51  1  0.13868130  0.75747635  0.93156352  1
  Sm3+  Sm52  1  0.61871600  0.00471621  0.46195991  1
  Sm3+  Sm53  1  0.50033944  0.38277536  0.56257291  1
  Sm3+  Sm54  1  0.74839728  0.63042135  0.54892639  1
  Sm3+  Sm55  1  0.51602582  0.63118369  0.05501778  1
  Sm3+  Sm56  1  0.51868634  0.37685421  0.06005651  1
  Sm3+  Sm57  1  -0.00364598  0.37732779  0.55465137  1
  Sm3+  Sm58  1  0.37560357  0.75862160  0.44202544  1
  Sm3+  Sm59  1  0.12754710  0.25416186  0.44199227  1
  Sm3+  Sm60  1  0.49845826  0.62810728  0.55950019  1
  Sm3+  Sm61  1  0.01247068  0.63077717  0.05395354  1
  Sm3+  Sm62  1  0.25233784  0.12745561  0.55316143  1
  Sm3+  Sm63  1  0.88825167  0.50541635  0.94725753  1
  Bi2+  Bi64  1  -0.02309613  0.15389235  0.28552005  1
  Bi2+  Bi65  1  0.01079204  0.10880397  0.80057670  1
  Bi2+  Bi66  1  0.00722404  0.36878477  0.30471082  1
  Bi2+  Bi67  1  0.02611355  0.30821700  0.81396342  1
  Bi2+  Bi68  1  0.00156186  0.55419702  0.27033004  1
  Bi2+  Bi69  1  -0.07694044  0.63060527  0.80052377  1
  Bi2+  Bi70  1  -0.01559602  0.83193765  0.28527530  1
  Bi2+  Bi71  1  0.01343899  0.89842435  0.79855183  1
  Bi2+  Bi72  1  0.26281282  0.13676266  0.27900315  1
  Bi2+  Bi73  1  0.20915211  0.12284182  0.78743756  1
  Bi2+  Bi74  1  0.23839471  0.37989937  0.29689472  1
  Bi2+  Bi75  1  0.23521167  0.42831115  0.79648697  1
  Bi2+  Bi76  1  0.24153000  0.63889805  0.29504275  1
  Bi2+  Bi77  1  0.19665427  0.61762781  0.76120997  1
  Bi2+  Bi78  1  0.23026501  0.88072144  0.30235776  1
  Bi2+  Bi79  1  0.22919821  0.88081817  0.79528418  1
  Bi2+  Bi80  1  0.53719886  0.13314888  0.29582312  1
  Bi2+  Bi81  1  0.47675855  0.14041891  0.78856661  1
  Bi2+  Bi82  1  0.51108435  0.41977246  0.29635532  1
  Bi2+  Bi83  1  0.48927652  0.38523372  0.79318491  1
  Bi2+  Bi84  1  0.43598467  0.61315442  0.32477180  1
  Bi2+  Bi85  1  0.47445004  0.59653730  0.78011907  1
  Bi2+  Bi86  1  0.50475299  0.79518949  0.28448789  1
  Bi2+  Bi87  1  0.47619422  0.86074013  0.79465282  1
  Bi2+  Bi88  1  0.70863878  0.09529947  0.23852517  1
  Bi2+  Bi89  1  0.74928121  0.13853462  0.78048454  1
  Bi2+  Bi90  1  0.76981371  0.25193789  0.30004066  1
  Bi2+  Bi91  1  0.76713444  0.39266243  0.78772181  1
  Bi2+  Bi92  1  0.79632342  0.60569254  0.27462560  1
  Bi2+  Bi93  1  0.67841519  0.57223024  0.77128505  1
  Bi2+  Bi94  1  0.75896037  0.82694171  0.28687858  1
  Bi2+  Bi95  1  0.76713106  0.87187948  0.78659843  1
  Bi2+  Bi96  1  0.06924846  -0.00837178  0.23793819  1
  Bi2+  Bi97  1  0.12678353  -0.02834235  0.70620310  1
  Bi2+  Bi98  1  0.07934485  0.27000424  0.21667190  1
  Bi2+  Bi99  1  0.09323242  0.23299970  0.71546515  1
  Bi2+  Bi100  1  0.17681151  0.51059636  0.21526130  1
  Bi2+  Bi101  1  0.03878172  0.48727561  0.75886385  1
  Bi2+  Bi102  1  0.11521560  0.76793022  0.20695853  1
  Bi2+  Bi103  1  0.10751230  0.77285894  0.71488346  1
  Bi2+  Bi104  1  0.39971197  0.02188086  0.18585309  1
  Bi2+  Bi105  1  0.34760092  -0.00425776  0.69573583  1
  Bi2+  Bi106  1  0.37134672  0.28969044  0.20712516  1
  Bi2+  Bi107  1  0.34895394  0.25147559  0.70658104  1
  Bi2+  Bi108  1  0.37235150  0.53578071  0.22397241  1
  Bi2+  Bi109  1  0.39127343  0.48587713  0.69706162  1
  Bi2+  Bi110  1  0.36572038  0.74962071  0.20916292  1
  Bi2+  Bi111  1  0.36008280  0.71305315  0.71322026  1
  Bi2+  Bi112  1  0.62548943  -0.08704218  0.21875935  1
  Bi2+  Bi113  1  0.61790853  0.01474895  0.72364723  1
  Bi2+  Bi114  1  0.61465397  0.28775283  0.19230779  1
  Bi2+  Bi115  1  0.61382854  0.32956577  0.71134545  1
  Bi2+  Bi116  1  0.60077233  0.58233271  0.25462296  1
  Bi2+  Bi117  1  0.58068688  0.51049408  0.67067614  1
  Bi2+  Bi118  1  0.60456653  0.72931861  0.17879645  1
  Bi2+  Bi119  1  0.64099312  0.72165241  0.70478589  1
  Bi2+  Bi120  1  0.88071320  0.00745498  0.20995518  1
  Bi2+  Bi121  1  0.92999171  0.00444564  0.71163586  1
  Bi2+  Bi122  1  0.87343479  0.25440390  0.19928104  1
  Bi2+  Bi123  1  0.90407680  0.27488019  0.70189715  1
  Bi2+  Bi124  1  0.86537667  0.45356521  0.21276895  1
  Bi2+  Bi125  1  0.85081831  0.51971957  0.71451202  1
  Bi2+  Bi126  1  0.86013430  0.74817371  0.19974124  1
  Bi2+  Bi127  1  0.90909612  0.72999412  0.70134161  1
  S2-  S128  1  -0.09704672  0.12528745  0.13151446  1
  S2-  S129  1  -0.09671821  0.12974013  0.63853820  1
  S2-  S130  1  -0.00534032  0.37394489  0.15150348  1
  S2-  S131  1  0.02188898  0.36150408  0.65044353  1
  S2-  S132  1  0.00002584  0.71426678  0.13796896  1
  S2-  S133  1  0.03014507  0.64477586  0.65236743  1
  S2-  S134  1  0.12476792  0.90384325  0.14863085  1
  S2-  S135  1  -0.08817522  0.87829803  0.63957824  1
  S2-  S136  1  0.25484842  0.11432358  0.17154798  1
  S2-  S137  1  0.26968293  0.14190250  0.65125614  1
  S2-  S138  1  0.24249473  0.36356813  0.15950991  1
  S2-  S139  1  0.25871397  0.37401424  0.67123978  1
  S2-  S140  1  0.23722612  0.72527188  0.14239555  1
  S2-  S141  1  0.26622060  0.59651954  0.66116232  1
  S2-  S142  1  0.38537437  0.87310934  0.14101721  1
  S2-  S143  1  0.30913867  0.84658872  0.64991282  1
  S2-  S144  1  0.46218705  0.17730560  0.16311754  1
  S2-  S145  1  0.47886847  0.09976555  0.68300412  1
  S2-  S146  1  0.48959969  0.38905546  0.15688537  1
  S2-  S147  1  0.48387696  0.28830799  0.64366461  1
  S2-  S148  1  0.45767906  0.63347756  0.14738115  1
  S2-  S149  1  0.49582737  0.71141917  0.64540423  1
  S2-  S150  1  0.54927861  0.98707763  0.13791391  1
  S2-  S151  1  0.48995672  0.90577812  0.69277472  1
  S2-  S152  1  0.67193797  0.16075888  0.13856362  1
  S2-  S153  1  0.69831354  0.12669963  0.67535645  1
  S2-  S154  1  0.71823295  0.40235771  0.15736619  1
  S2-  S155  1  0.76511899  0.33641397  0.65590145  1
  S2-  S156  1  0.74608291  0.64733430  0.14546471  1
  S2-  S157  1  0.76772073  0.69833799  0.63718359  1
  S2-  S158  1  0.86045573  0.88729407  0.13749854  1
  S2-  S159  1  0.70378200  0.88101783  0.68497818  1
  S2-  S160  1  0.14485469  0.00546007  0.33958595  1
  S2-  S161  1  0.24190335  0.01144709  0.86581955  1
  S2-  S162  1  0.17786527  0.24492677  0.34792947  1
  S2-  S163  1  0.20405723  0.27115449  0.84479676  1
  S2-  S164  1  0.21521410  0.51122443  0.36376103  1
  S2-  S165  1  0.13809347  0.53167302  0.85063617  1
  S2-  S166  1  0.12343043  0.75872981  0.34464640  1
  S2-  S167  1  0.02334068  0.75212765  0.85420153  1
  S2-  S168  1  0.35326334  0.00049191  0.28399995  1
  S2-  S169  1  0.45438849  -0.00104819  0.84431748  1
  S2-  S170  1  0.38822150  0.16195294  0.34787746  1
  S2-  S171  1  0.42630610  0.25224261  0.85123642  1
  S2-  S172  1  0.38238652  0.37640292  0.35793481  1
  S2-  S173  1  0.37175837  0.49674027  0.84838144  1
  S2-  S174  1  0.37572479  0.84039477  0.35540040  1
  S2-  S175  1  0.26094110  0.76041658  0.85876963  1
  S2-  S176  1  0.56974241  0.01709511  0.36561360  1
  S2-  S177  1  0.62773885  -0.10857650  0.84021521  1
  S2-  S178  1  0.61211477  0.25347107  0.34856661  1
  S2-  S179  1  0.62108202  0.13747151  0.84471511  1
  S2-  S180  1  0.65041888  0.48483927  0.33884697  1
  S2-  S181  1  0.62578292  0.38967679  0.85494567  1
  S2-  S182  1  0.63947846  0.75748250  0.34792735  1
  S2-  S183  1  0.49619840  0.72935173  0.85143676  1
  S2-  S184  1  0.87467688  -0.11024875  0.35773777  1
  S2-  S185  1  0.80254091  0.00887001  0.84590091  1
  S2-  S186  1  0.85229736  0.12394380  0.35897484  1
  S2-  S187  1  0.79403392  0.24899976  0.84778046  1
  S2-  S188  1  0.86094183  0.37867020  0.35699989  1
  S2-  S189  1  0.87288192  0.48640208  0.85182986  1
  S2-  S190  1  0.89018862  0.62408945  0.35580605  1
  S2-  S191  1  0.77087827  0.74365198  0.84424126  1
  S2-  S192  1  0.00223024  0.13134956  0.44983817  1
  S2-  S193  1  0.01449890  0.13148345  0.94802160  1
  S2-  S194  1  0.00309603  0.37913618  0.45140073  1
  S2-  S195  1  0.01509647  0.38376135  0.95117470  1
  S2-  S196  1  0.00324412  0.63183798  0.45358444  1
  S2-  S197  1  0.01568661  0.62426144  0.95231152  1
  S2-  S198  1  0.00059488  0.88118711  0.45187026  1
  S2-  S199  1  0.01571001  0.88196638  0.95339040  1
  S2-  S200  1  0.25237601  0.12745765  0.45145350  1
  S2-  S201  1  0.26439073  0.13676457  0.96347175  1
  S2-  S202  1  0.24584641  0.37754541  0.46277844  1
  S2-  S203  1  0.26674701  0.38023573  0.95695021  1
  S2-  S204  1  0.25122912  0.63548719  0.45822013  1
  S2-  S205  1  0.26378583  0.62519733  0.95702411  1
  S2-  S206  1  0.25256025  0.88309569  0.45523583  1
  S2-  S207  1  0.26144170  0.87858460  0.96573126  1
  S2-  S208  1  0.49342624  0.12753866  0.46716946  1
  S2-  S209  1  0.51283569  0.13028680  0.95773174  1
  S2-  S210  1  0.49765650  0.38053482  0.45953455  1
  S2-  S211  1  0.50994672  0.38069994  0.95664203  1
  S2-  S212  1  0.49531092  0.63050665  0.45517346  1
  S2-  S213  1  0.51572586  0.62399036  0.95210433  1
  S2-  S214  1  0.49428009  0.88326796  0.46271731  1
  S2-  S215  1  0.51346039  0.88108566  0.95351788  1
  S2-  S216  1  0.74256343  0.12784115  0.46609670  1
  S2-  S217  1  0.76935674  0.13138568  0.95264975  1
  S2-  S218  1  0.74094521  0.38041760  0.45459165  1
  S2-  S219  1  0.76709170  0.38112777  0.95569672  1
  S2-  S220  1  0.74332774  0.62969227  0.44737349  1
  S2-  S221  1  0.76066076  0.62619235  0.94626271  1
  S2-  S222  1  0.74316590  0.88221245  0.45853207  1
  S2-  S223  1  0.76282230  0.87875833  0.94791512  1
  S2-  S224  1  0.13824369  0.00973481  0.04881532  1
  S2-  S225  1  0.12140881  0.00570966  0.54820691  1
  S2-  S226  1  0.13778469  0.25527807  0.04868232  1
  S2-  S227  1  0.12301825  0.25117360  0.54754554  1
  S2-  S228  1  0.13761160  0.50435154  0.05261323  1
  S2-  S229  1  0.12101663  0.50399875  0.55226527  1
  S2-  S230  1  0.13359041  0.75139369  0.03672039  1
  S2-  S231  1  0.12245203  0.75982656  0.54982523  1
  S2-  S232  1  0.38625232  0.01043733  0.04572776  1
  S2-  S233  1  0.37485406  0.00493941  0.56186565  1
  S2-  S234  1  0.39252371  0.25528422  0.05110212  1
  S2-  S235  1  0.37085787  0.25586105  0.54343389  1
  S2-  S236  1  0.39251385  0.50201113  0.04979494  1
  S2-  S237  1  0.37474763  0.50456082  0.54739286  1
  S2-  S238  1  0.39091635  0.75051357  0.03948085  1
  S2-  S239  1  0.37332702  0.75310729  0.54459359  1
  S2-  S240  1  0.64607311  0.00500842  0.03292041  1
  S2-  S241  1  0.62367738  -0.00107199  0.56624153  1
  S2-  S242  1  0.64058894  0.25871335  0.03530795  1
  S2-  S243  1  0.62652675  0.25440354  0.55344400  1
  S2-  S244  1  0.63824901  0.50460972  0.04298885  1
  S2-  S245  1  0.62340206  0.50705086  0.54212379  1
  S2-  S246  1  0.63586149  0.75426759  0.03814084  1
  S2-  S247  1  0.62228998  0.75466031  0.54857531  1
  S2-  S248  1  0.89384275  -0.00167770  0.03518853  1
  S2-  S249  1  0.86992398  0.00239984  0.54032569  1
  S2-  S250  1  0.89072427  0.26022521  0.03723081  1
  S2-  S251  1  0.87296683  0.25763442  0.53803394  1
  S2-  S252  1  0.88783779  0.50625012  0.05167169  1
  S2-  S253  1  0.87415973  0.50554608  0.54277261  1
  S2-  S254  1  0.88574959  0.74910972  0.03260804  1
  S2-  S255  1  0.87414124  0.75473389  0.53213838  1
