# generated using pymatgen
data_La6Ce7Pr13Nd19Sm19(BiS2)64
_symmetry_space_group_name_H-M   'P 1'
_cell_length_a   16.11451565
_cell_length_b   16.11673522
_cell_length_c   27.20735822
_cell_angle_alpha   90.14763250
_cell_angle_beta   89.96685542
_cell_angle_gamma   89.95786506
_symmetry_Int_Tables_number   1
_chemical_formula_structural   La6Ce7Pr13Nd19Sm19(BiS2)64
_chemical_formula_sum   'La6 Ce7 Pr13 Nd19 Sm19 Bi64 S128'
_cell_volume   7066.08845934
_cell_formula_units_Z   1
loop_
 _symmetry_equiv_pos_site_id
 _symmetry_equiv_pos_as_xyz
  1  'x, y, z'
loop_
 _atom_type_symbol
 _atom_type_oxidation_number
  La3+  3.0
  Ce3+  3.0
  Pr3+  3.0
  Nd3+  3.0
  Sm3+  3.0
  Bi2+  2.0
  S2-  -2.0
loop_
 _atom_site_type_symbol
 _atom_site_label
 _atom_site_symmetry_multiplicity
 _atom_site_fract_x
 _atom_site_fract_y
 _atom_site_fract_z
 _atom_site_occupancy
  La3+  La0  1  0.37269556  0.27899206  0.40083336  1
  La3+  La1  1  0.23352745  0.13462570  0.10936911  1
  La3+  La2  1  0.11829708  0.22620910  0.91033674  1
  La3+  La3  1  0.75934495  0.86055894  0.07433305  1
  La3+  La4  1  0.37477479  0.22920929  0.92167350  1
  La3+  La5  1  0.75030380  0.59793600  0.10238797  1
  Ce3+  Ce6  1  0.74371844  0.11218227  0.06273439  1
  Ce3+  Ce7  1  0.61917073  0.50957829  0.44003619  1
  Ce3+  Ce8  1  -0.00130846  0.61128696  0.05831017  1
  Ce3+  Ce9  1  0.87670127  0.48608379  0.93337987  1
  Ce3+  Ce10  1  0.37236467  0.48628415  0.92907574  1
  Ce3+  Ce11  1  0.12299285  0.75927313  0.44353758  1
  Ce3+  Ce12  1  0.12330610  0.48604896  0.93711445  1
  Pr3+  Pr13  1  0.74779855  0.88689961  0.56029656  1
  Pr3+  Pr14  1  0.62506373  -0.02448865  0.93352839  1
  Pr3+  Pr15  1  0.62452084  0.22556445  0.92671901  1
  Pr3+  Pr16  1  0.62299358  0.26162031  0.44147399  1
  Pr3+  Pr17  1  0.87467872  0.51201405  0.43955079  1
  Pr3+  Pr18  1  0.87287357  0.22669849  0.92818905  1
  Pr3+  Pr19  1  0.37349046  0.01377069  0.44160995  1
  Pr3+  Pr20  1  0.00055867  0.35734034  0.05526030  1
  Pr3+  Pr21  1  0.74654849  0.14210186  0.56977774  1
  Pr3+  Pr22  1  -0.00328447  0.63837700  0.57262625  1
  Pr3+  Pr23  1  -0.00238118  0.39441115  0.57317009  1
  Pr3+  Pr24  1  0.62447600  0.48559814  0.92598220  1
  Pr3+  Pr25  1  0.11850812  0.26384679  0.43951955  1
  Nd3+  Nd26  1  0.87277985  -0.01779102  0.93416082  1
  Nd3+  Nd27  1  -0.00043608  0.88970798  0.55614769  1
  Nd3+  Nd28  1  0.25014677  0.63986967  0.57216095  1
  Nd3+  Nd29  1  0.49558243  0.60779096  0.06221524  1
  Nd3+  Nd30  1  0.00235643  0.14717235  0.57906014  1
  Nd3+  Nd31  1  0.25019559  0.61037595  0.06380167  1
  Nd3+  Nd32  1  0.12656536  0.50903672  0.44875136  1
  Nd3+  Nd33  1  0.25104390  0.39145954  0.57878860  1
  Nd3+  Nd34  1  0.50379348  0.64260999  0.56898963  1
  Nd3+  Nd35  1  0.62421044  0.01335216  0.44387472  1
  Nd3+  Nd36  1  0.61216820  0.77037258  0.41962199  1
  Nd3+  Nd37  1  0.49801018  0.35963751  0.04826516  1
  Nd3+  Nd38  1  0.24855612  0.35383430  0.04290859  1
  Nd3+  Nd39  1  0.25088626  0.87184539  0.06634109  1
  Nd3+  Nd40  1  0.37251840  0.75939599  0.44216475  1
  Nd3+  Nd41  1  0.12388543  0.01672740  0.44328818  1
  Nd3+  Nd42  1  0.74795097  0.36287816  0.04749128  1
  Nd3+  Nd43  1  0.87244498  0.76263210  0.43725546  1
  Nd3+  Nd44  1  0.50232427  0.86091631  0.06197398  1
  Sm3+  Sm45  1  0.49642014  0.14245599  0.55564817  1
  Sm3+  Sm46  1  0.74867231  0.38855540  0.55518785  1
  Sm3+  Sm47  1  0.37447991  0.50901797  0.45295513  1
  Sm3+  Sm48  1  0.24843403  0.88931062  0.55358359  1
  Sm3+  Sm49  1  0.12766719  -0.01391864  0.94132836  1
  Sm3+  Sm50  1  -0.00142742  0.11229602  0.05407662  1
  Sm3+  Sm51  1  0.12655487  0.73716581  0.94184819  1
  Sm3+  Sm52  1  0.87456478  0.01437836  0.45018588  1
  Sm3+  Sm53  1  0.62632855  0.73205540  0.95120972  1
  Sm3+  Sm54  1  0.87482568  0.73924761  0.94044081  1
  Sm3+  Sm55  1  0.37327076  -0.01267125  0.93731271  1
  Sm3+  Sm56  1  0.74615476  0.64024538  0.55127042  1
  Sm3+  Sm57  1  0.25253162  0.14341473  0.55865951  1
  Sm3+  Sm58  1  0.49822325  0.88666686  0.56370019  1
  Sm3+  Sm59  1  0.50237979  0.39600043  0.57604210  1
  Sm3+  Sm60  1  0.00325775  0.86137649  0.06101492  1
  Sm3+  Sm61  1  0.37352548  0.73660350  0.94567788  1
  Sm3+  Sm62  1  0.49866984  0.11140790  0.06152194  1
  Sm3+  Sm63  1  0.87720095  0.25900833  0.44520805  1
  Bi2+  Bi64  1  -0.03054368  0.13407697  0.28857168  1
  Bi2+  Bi65  1  -0.01693847  0.11224942  0.78616035  1
  Bi2+  Bi66  1  -0.01728576  0.38740941  0.30141554  1
  Bi2+  Bi67  1  0.02212317  0.38685833  0.79296812  1
  Bi2+  Bi68  1  0.00934054  0.65450050  0.22610702  1
  Bi2+  Bi69  1  -0.01002937  0.65924295  0.78760601  1
  Bi2+  Bi70  1  0.01868775  0.82827191  0.28858561  1
  Bi2+  Bi71  1  0.00352573  0.87436952  0.79769213  1
  Bi2+  Bi72  1  0.23333470  0.10837638  0.31011388  1
  Bi2+  Bi73  1  0.25507249  0.07759690  0.78892650  1
  Bi2+  Bi74  1  0.22873394  0.40592400  0.29391268  1
  Bi2+  Bi75  1  0.26082336  0.40177490  0.78239833  1
  Bi2+  Bi76  1  0.25709789  0.64094066  0.29746402  1
  Bi2+  Bi77  1  0.24914500  0.68593360  0.78572603  1
  Bi2+  Bi78  1  0.22464925  0.83831875  0.29085488  1
  Bi2+  Bi79  1  0.28089576  0.89391387  0.82250315  1
  Bi2+  Bi80  1  0.54142604  0.14895135  0.28899782  1
  Bi2+  Bi81  1  0.51404885  0.09360046  0.77981981  1
  Bi2+  Bi82  1  0.49888819  0.42608897  0.29415006  1
  Bi2+  Bi83  1  0.49785298  0.40429766  0.79070945  1
  Bi2+  Bi84  1  0.45004091  0.65649034  0.26998924  1
  Bi2+  Bi85  1  0.52082359  0.70254734  0.78471153  1
  Bi2+  Bi86  1  0.47537916  0.89823805  0.29403829  1
  Bi2+  Bi87  1  0.48074805  0.89746400  0.81250116  1
  Bi2+  Bi88  1  0.76992395  0.13179977  0.32579869  1
  Bi2+  Bi89  1  0.74339889  0.08972370  0.77683488  1
  Bi2+  Bi90  1  0.75710423  0.31519053  0.28971055  1
  Bi2+  Bi91  1  0.74008903  0.35851141  0.77643873  1
  Bi2+  Bi92  1  0.75438617  0.60901977  0.29797821  1
  Bi2+  Bi93  1  0.79318664  0.69184888  0.77760466  1
  Bi2+  Bi94  1  0.75495874  0.86740316  0.30803401  1
  Bi2+  Bi95  1  0.72687119  0.89680001  0.80333355  1
  Bi2+  Bi96  1  0.11793364  -0.07586318  0.21086218  1
  Bi2+  Bi97  1  0.15324611  -0.06810183  0.73591487  1
  Bi2+  Bi98  1  0.10108608  0.27221401  0.20117058  1
  Bi2+  Bi99  1  0.14006018  0.21352125  0.70638372  1
  Bi2+  Bi100  1  0.16503178  0.54128314  0.20962171  1
  Bi2+  Bi101  1  0.12056337  0.56798366  0.71210682  1
  Bi2+  Bi102  1  0.13467996  0.74648918  0.15573963  1
  Bi2+  Bi103  1  0.17466874  0.74598509  0.68408846  1
  Bi2+  Bi104  1  0.39577162  -0.00659856  0.20965399  1
  Bi2+  Bi105  1  0.38614333  -0.02774702  0.71727619  1
  Bi2+  Bi106  1  0.36784646  0.26187621  0.20714870  1
  Bi2+  Bi107  1  0.38817278  0.22348364  0.69516784  1
  Bi2+  Bi108  1  0.35930926  0.49824809  0.21690460  1
  Bi2+  Bi109  1  0.39217320  0.57505287  0.71155907  1
  Bi2+  Bi110  1  0.31981909  0.74844850  0.20039959  1
  Bi2+  Bi111  1  0.37600769  0.76223935  0.70169168  1
  Bi2+  Bi112  1  0.66960824  0.04506104  0.23200476  1
  Bi2+  Bi113  1  0.59434532  -0.05452969  0.71836364  1
  Bi2+  Bi114  1  0.63165858  0.24656238  0.20509193  1
  Bi2+  Bi115  1  0.63741266  0.26120128  0.69580129  1
  Bi2+  Bi116  1  0.60559184  0.45059483  0.20386155  1
  Bi2+  Bi117  1  0.65690909  0.51465449  0.72148464  1
  Bi2+  Bi118  1  0.59305506  0.74537797  0.20371310  1
  Bi2+  Bi119  1  0.65272035  0.72292951  0.69956380  1
  Bi2+  Bi120  1  0.86407134  0.03611133  0.21248718  1
  Bi2+  Bi121  1  0.86571457  -0.07556652  0.72121151  1
  Bi2+  Bi122  1  0.85462683  0.22806164  0.20029282  1
  Bi2+  Bi123  1  0.88520215  0.22403264  0.70900768  1
  Bi2+  Bi124  1  0.86886040  0.42773873  0.21377115  1
  Bi2+  Bi125  1  0.86877247  0.52435418  0.73143291  1
  Bi2+  Bi126  1  0.84683030  0.79953164  0.21141327  1
  Bi2+  Bi127  1  0.92050283  0.73302400  0.68895774  1
  S2-  S128  1  0.06133366  0.14885838  0.14316909  1
  S2-  S129  1  -0.00549276  0.09915514  0.67637220  1
  S2-  S130  1  0.00448333  0.38886139  0.15509826  1
  S2-  S131  1  0.00419518  0.29635851  0.65726428  1
  S2-  S132  1  -0.08306794  0.60715722  0.14396428  1
  S2-  S133  1  -0.01214957  0.52021975  0.64818421  1
  S2-  S134  1  -0.08986552  0.89109703  0.14280285  1
  S2-  S135  1  -0.00208911  0.87223241  0.65396014  1
  S2-  S136  1  0.22813390  0.15513241  0.21877582  1
  S2-  S137  1  0.24879900  0.12483582  0.65666533  1
  S2-  S138  1  0.23941906  0.30964679  0.13979303  1
  S2-  S139  1  0.24338752  0.32867263  0.67669484  1
  S2-  S140  1  0.36892240  0.60430873  0.13698668  1
  S2-  S141  1  0.25868492  0.52845933  0.65012713  1
  S2-  S142  1  0.25696482  0.97033288  0.14995957  1
  S2-  S143  1  0.26195095  0.89944620  0.65053087  1
  S2-  S144  1  0.40410606  0.12846514  0.14592844  1
  S2-  S145  1  0.51088113  0.14030962  0.65349298  1
  S2-  S146  1  0.48664631  0.35601275  0.14838919  1
  S2-  S147  1  0.48397949  0.34564955  0.67355931  1
  S2-  S148  1  0.58575315  0.59295348  0.14777768  1
  S2-  S149  1  0.51917943  0.53597554  0.64954773  1
  S2-  S150  1  0.48196313  0.86853669  0.16198597  1
  S2-  S151  1  0.51589279  0.77355142  0.63640262  1
  S2-  S152  1  0.62437843  0.11388343  0.13547957  1
  S2-  S153  1  0.74616960  0.12994288  0.66989464  1
  S2-  S154  1  0.74476251  0.43273459  0.13968189  1
  S2-  S155  1  0.75029649  0.35259834  0.65112747  1
  S2-  S156  1  0.74230647  0.65486655  0.20528322  1
  S2-  S157  1  0.75113206  0.60638476  0.64800023  1
  S2-  S158  1  0.69420270  0.85869312  0.16957569  1
  S2-  S159  1  0.73275003  0.88633391  0.65963234  1
  S2-  S160  1  0.09057918  0.04429531  0.34672788  1
  S2-  S161  1  0.10851203  0.06902963  0.85240821  1
  S2-  S162  1  0.21151134  0.26619593  0.35412029  1
  S2-  S163  1  0.16243071  0.28260064  0.81135153  1
  S2-  S164  1  0.10913145  0.47379523  0.35120995  1
  S2-  S165  1  0.13753377  0.49150110  0.83887837  1
  S2-  S166  1  0.11710676  0.71857223  0.34881024  1
  S2-  S167  1  0.11030456  0.75246762  0.84510860  1
  S2-  S168  1  0.36503545  -0.00388382  0.34145910  1
  S2-  S169  1  0.38799854  0.09328479  0.85417672  1
  S2-  S170  1  0.38021284  0.21162369  0.30077890  1
  S2-  S171  1  0.37956504  0.30433001  0.82365065  1
  S2-  S172  1  0.36587542  0.44352836  0.36134003  1
  S2-  S173  1  0.37894958  0.50463477  0.83127831  1
  S2-  S174  1  0.46122279  0.76258560  0.35719239  1
  S2-  S175  1  0.38369502  0.71842546  0.84794517  1
  S2-  S176  1  0.61195326  -0.07277435  0.35750594  1
  S2-  S177  1  0.63120417  0.08940617  0.85562864  1
  S2-  S178  1  0.54254272  0.28738891  0.35439649  1
  S2-  S179  1  0.61799597  0.29987103  0.83168575  1
  S2-  S180  1  0.62923322  0.51171766  0.34216026  1
  S2-  S181  1  0.61490007  0.52280790  0.82655211  1
  S2-  S182  1  0.65972485  0.72933648  0.32431397  1
  S2-  S183  1  0.62234523  0.79056495  0.85831441  1
  S2-  S184  1  0.85588062  -0.01343668  0.35367548  1
  S2-  S185  1  0.85754178  0.09488026  0.85443859  1
  S2-  S186  1  0.98372025  0.25247726  0.36736605  1
  S2-  S187  1  0.97034765  0.25953275  0.84403913  1
  S2-  S188  1  0.88607997  0.50592185  0.33955730  1
  S2-  S189  1  0.88878920  0.47069620  0.83524788  1
  S2-  S190  1  0.87182821  0.74439870  0.33787591  1
  S2-  S191  1  0.87237161  0.85292324  0.86371734  1
  S2-  S192  1  -0.00237609  0.13501743  0.46954533  1
  S2-  S193  1  -0.00121684  0.10570390  0.95234730  1
  S2-  S194  1  -0.00387185  0.38861435  0.46518682  1
  S2-  S195  1  -0.00001382  0.36032735  0.94867854  1
  S2-  S196  1  -0.00182497  0.63573792  0.45989987  1
  S2-  S197  1  0.00037833  0.61638177  0.94871455  1
  S2-  S198  1  -0.00114126  0.88903792  0.44965198  1
  S2-  S199  1  0.00478201  0.86095500  0.95769651  1
  S2-  S200  1  0.25146798  0.14073896  0.45423392  1
  S2-  S201  1  0.24784794  0.10689932  0.94607973  1
  S2-  S202  1  0.25066255  0.38679083  0.46691518  1
  S2-  S203  1  0.24622884  0.35782532  0.93784716  1
  S2-  S204  1  0.25098953  0.63456041  0.46099303  1
  S2-  S205  1  0.24857797  0.61333209  0.95346776  1
  S2-  S206  1  0.24724137  0.88679275  0.44865453  1
  S2-  S207  1  0.24968447  0.86101381  0.95782434  1
  S2-  S208  1  0.49624501  0.13889424  0.45043753  1
  S2-  S209  1  0.50206843  0.10384857  0.95641667  1
  S2-  S210  1  0.49724778  0.38699166  0.46625953  1
  S2-  S211  1  0.49965556  0.35986509  0.94163868  1
  S2-  S212  1  0.49702621  0.63480325  0.45779576  1
  S2-  S213  1  0.49829150  0.61288388  0.95254785  1
  S2-  S214  1  0.49569948  0.88863284  0.46106748  1
  S2-  S215  1  0.49692889  0.85706409  0.95572502  1
  S2-  S216  1  0.75060523  0.13693666  0.46174874  1
  S2-  S217  1  0.74796469  0.10539531  0.95836569  1
  S2-  S218  1  0.75155366  0.38348802  0.44957315  1
  S2-  S219  1  0.75113483  0.35859762  0.94075249  1
  S2-  S220  1  0.74583846  0.63832280  0.44689717  1
  S2-  S221  1  0.75232715  0.61548232  0.93714007  1
  S2-  S222  1  0.75036567  0.88858978  0.45456721  1
  S2-  S223  1  0.74880393  0.85663973  0.96416481  1
  S2-  S224  1  0.12065715  -0.01208818  0.04656200  1
  S2-  S225  1  0.12639055  0.01555965  0.55162905  1
  S2-  S226  1  0.12276995  0.23272641  0.03271021  1
  S2-  S227  1  0.12843258  0.26456951  0.55214565  1
  S2-  S228  1  0.12673094  0.48589181  0.04570722  1
  S2-  S229  1  0.12605747  0.51632242  0.55249912  1
  S2-  S230  1  0.12744318  0.73797933  0.04410698  1
  S2-  S231  1  0.12455266  0.76339564  0.54942042  1
  S2-  S232  1  0.38130635  -0.01655804  0.04109810  1
  S2-  S233  1  0.37558375  0.01288451  0.54966024  1
  S2-  S234  1  0.37640183  0.23500276  0.03434608  1
  S2-  S235  1  0.37633526  0.26563085  0.55943596  1
  S2-  S236  1  0.37059136  0.48161854  0.03633367  1
  S2-  S237  1  0.37843934  0.51487668  0.55374980  1
  S2-  S238  1  0.37134882  0.74184326  0.04809145  1
  S2-  S239  1  0.37041583  0.76495260  0.54732379  1
  S2-  S240  1  0.62637394  -0.01973704  0.04334130  1
  S2-  S241  1  0.61980828  0.01369398  0.55110782  1
  S2-  S242  1  0.62454122  0.23859969  0.03557240  1
  S2-  S243  1  0.62139340  0.26553165  0.54866396  1
  S2-  S244  1  0.62366141  0.48685178  0.03463487  1
  S2-  S245  1  0.62799506  0.51213272  0.54567730  1
  S2-  S246  1  0.62904599  0.73131998  0.05433115  1
  S2-  S247  1  0.62584351  0.76434893  0.53510575  1
  S2-  S248  1  0.87595620  -0.00891870  0.04174481  1
  S2-  S249  1  0.87450278  0.01552540  0.55628067  1
  S2-  S250  1  0.87215496  0.23532965  0.04180312  1
  S2-  S251  1  0.87336129  0.26362802  0.54971736  1
  S2-  S252  1  0.87439776  0.48608454  0.03883248  1
  S2-  S253  1  0.86754481  0.51452143  0.54611032  1
  S2-  S254  1  0.87831852  0.73595914  0.04442865  1
  S2-  S255  1  0.87373262  0.76213962  0.54521026  1
