# generated using pymatgen
data_La6Ce7Pr13Nd19Sm19(BiS2)64
_symmetry_space_group_name_H-M   'P 1'
_cell_length_a   16.08984395
_cell_length_b   16.09860762
_cell_length_c   27.46297890
_cell_angle_alpha   90.00134434
_cell_angle_beta   90.01361713
_cell_angle_gamma   89.98927575
_symmetry_Int_Tables_number   1
_chemical_formula_structural   La6Ce7Pr13Nd19Sm19(BiS2)64
_chemical_formula_sum   'La6 Ce7 Pr13 Nd19 Sm19 Bi64 S128'
_cell_volume   7113.57264098
_cell_formula_units_Z   1
loop_
 _symmetry_equiv_pos_site_id
 _symmetry_equiv_pos_as_xyz
  1  'x, y, z'
loop_
 _atom_type_symbol
 _atom_type_oxidation_number
  La3+  3.0
  Ce3+  3.0
  Pr3+  3.0
  Nd3+  3.0
  Sm3+  3.0
  Bi2+  2.0
  S2-  -2.0
loop_
 _atom_site_type_symbol
 _atom_site_label
 _atom_site_symmetry_multiplicity
 _atom_site_fract_x
 _atom_site_fract_y
 _atom_site_fract_z
 _atom_site_occupancy
  La3+  La0  1  0.38925438  0.24768162  0.42723599  1
  La3+  La1  1  0.89459122  0.25225884  0.39169712  1
  La3+  La2  1  0.50664090  0.61425294  0.61064359  1
  La3+  La3  1  0.25100373  0.12537192  0.11434361  1
  La3+  La4  1  0.13654100  -0.00894976  0.41426389  1
  La3+  La5  1  0.38383812  0.74798159  0.44327228  1
  Ce3+  Ce6  1  0.63593925  0.49828848  0.44329636  1
  Ce3+  Ce7  1  0.11598255  0.74326431  0.94253782  1
  Ce3+  Ce8  1  0.86320342  0.24315231  0.94975378  1
  Ce3+  Ce9  1  0.00644362  0.37045618  0.55586283  1
  Ce3+  Ce10  1  0.25139450  0.62248843  0.56729459  1
  Ce3+  Ce11  1  -0.00765270  0.11473807  0.07537466  1
  Ce3+  Ce12  1  0.35956948  0.24235197  0.93944138  1
  Pr3+  Pr13  1  0.63554815  0.24842735  0.43369850  1
  Pr3+  Pr14  1  0.88185016  -0.00538455  0.42726997  1
  Pr3+  Pr15  1  0.73796282  0.87087759  0.05548687  1
  Pr3+  Pr16  1  0.38481174  -0.00522810  0.43309132  1
  Pr3+  Pr17  1  0.26458950  0.12106549  0.56366666  1
  Pr3+  Pr18  1  0.86277816  -0.00165198  0.94047032  1
  Pr3+  Pr19  1  0.35458364  0.49068692  0.93252234  1
  Pr3+  Pr20  1  0.48506826  0.87042548  0.05641837  1
  Pr3+  Pr21  1  0.25284222  0.87356333  0.56508164  1
  Pr3+  Pr22  1  0.61433313  -0.00389411  0.94502313  1
  Pr3+  Pr23  1  -0.00888576  0.61873383  0.05928545  1
  Pr3+  Pr24  1  0.73676636  0.36919641  0.07218000  1
  Pr3+  Pr25  1  0.35479445  0.73463119  0.91822417  1
  Nd3+  Nd26  1  0.86308289  0.74223120  0.94110220  1
  Nd3+  Nd27  1  0.00672154  0.62268843  0.56753502  1
  Nd3+  Nd28  1  0.13085862  0.74706946  0.44133946  1
  Nd3+  Nd29  1  0.50683441  0.37251276  0.55733993  1
  Nd3+  Nd30  1  0.23877403  0.36933660  0.06524698  1
  Nd3+  Nd31  1  0.24896314  0.62467878  0.07093547  1
  Nd3+  Nd32  1  0.75923633  0.12176247  0.55029933  1
  Nd3+  Nd33  1  0.48605675  0.36770584  0.05528518  1
  Nd3+  Nd34  1  0.88355988  0.75167252  0.43586722  1
  Nd3+  Nd35  1  0.88454771  0.49830639  0.43658347  1
  Nd3+  Nd36  1  0.11206199  0.49325646  0.94179846  1
  Nd3+  Nd37  1  0.73811222  0.61988817  0.05610959  1
  Nd3+  Nd38  1  0.13214968  0.49742278  0.44169652  1
  Nd3+  Nd39  1  0.36053369  -0.00801103  0.93542275  1
  Nd3+  Nd40  1  0.63167024  0.74656872  0.44924342  1
  Nd3+  Nd41  1  0.13559864  0.24557062  0.43826021  1
  Nd3+  Nd42  1  0.61382767  0.49157349  0.93850408  1
  Nd3+  Nd43  1  0.75796622  0.37135502  0.55448482  1
  Nd3+  Nd44  1  0.11347962  -0.00413997  0.94080848  1
  Sm3+  Sm45  1  0.24002695  0.87089276  0.06238677  1
  Sm3+  Sm46  1  0.11329005  0.24058487  0.95250103  1
  Sm3+  Sm47  1  0.75574324  0.62258141  0.56093321  1
  Sm3+  Sm48  1  0.38371532  0.49931795  0.44685857  1
  Sm3+  Sm49  1  0.74323309  0.12465114  0.07799649  1
  Sm3+  Sm50  1  0.48680192  0.61879335  0.05073358  1
  Sm3+  Sm51  1  0.25932727  0.37286011  0.55568272  1
  Sm3+  Sm52  1  0.48346811  0.11930022  0.05304887  1
  Sm3+  Sm53  1  0.61470792  0.24419047  0.94855496  1
  Sm3+  Sm54  1  0.00840340  0.12159507  0.54657246  1
  Sm3+  Sm55  1  0.86286960  0.49191974  0.94812817  1
  Sm3+  Sm56  1  0.00797448  0.88019700  0.56347106  1
  Sm3+  Sm57  1  -0.00958295  0.87120528  0.05787107  1
  Sm3+  Sm58  1  0.61145250  0.74317576  0.94043124  1
  Sm3+  Sm59  1  0.62788748  -0.00576542  0.43902567  1
  Sm3+  Sm60  1  -0.00973021  0.36835920  0.06265155  1
  Sm3+  Sm61  1  0.51029766  0.11941226  0.56091628  1
  Sm3+  Sm62  1  0.50060244  0.87079631  0.57207631  1
  Sm3+  Sm63  1  0.76210492  0.87264878  0.56051832  1
  Bi2+  Bi64  1  -0.01266421  0.15634734  0.27048472  1
  Bi2+  Bi65  1  -0.03677398  0.12674011  0.79428518  1
  Bi2+  Bi66  1  0.01091859  0.46641758  0.27826323  1
  Bi2+  Bi67  1  0.01384889  0.47485023  0.80311836  1
  Bi2+  Bi68  1  -0.05387299  0.63245936  0.33221203  1
  Bi2+  Bi69  1  0.00199857  0.66924832  0.79852661  1
  Bi2+  Bi70  1  -0.00817282  0.80532432  0.29063398  1
  Bi2+  Bi71  1  -0.00023244  0.83388519  0.73600999  1
  Bi2+  Bi72  1  0.19222478  0.15487297  0.30548763  1
  Bi2+  Bi73  1  0.23118781  0.13400650  0.81826676  1
  Bi2+  Bi74  1  0.26436467  0.40542810  0.29547029  1
  Bi2+  Bi75  1  0.28553195  0.33312647  0.75357192  1
  Bi2+  Bi76  1  0.23831367  0.62340545  0.27867419  1
  Bi2+  Bi77  1  0.23261055  0.60316981  0.79506352  1
  Bi2+  Bi78  1  0.25966639  0.88053371  0.29439061  1
  Bi2+  Bi79  1  0.26213591  0.88837342  0.80585175  1
  Bi2+  Bi80  1  0.52614397  0.11583776  0.28202974  1
  Bi2+  Bi81  1  0.54400606  0.11815204  0.78307367  1
  Bi2+  Bi82  1  0.51538665  0.39267783  0.29947240  1
  Bi2+  Bi83  1  0.54124555  0.38785516  0.79804655  1
  Bi2+  Bi84  1  0.51311306  0.60292211  0.25049164  1
  Bi2+  Bi85  1  0.51825195  0.66112548  0.80920833  1
  Bi2+  Bi86  1  0.51262754  0.86815056  0.29493765  1
  Bi2+  Bi87  1  0.54080919  0.86670300  0.73892171  1
  Bi2+  Bi88  1  0.72154300  0.09899544  0.30414662  1
  Bi2+  Bi89  1  0.76543279  0.08390005  0.81621872  1
  Bi2+  Bi90  1  0.76464645  0.46227578  0.27840293  1
  Bi2+  Bi91  1  0.73545905  0.32515925  0.79050608  1
  Bi2+  Bi92  1  0.75936957  0.66676790  0.30222642  1
  Bi2+  Bi93  1  0.76997393  0.61860167  0.80189946  1
  Bi2+  Bi94  1  0.71646591  0.89223529  0.30039742  1
  Bi2+  Bi95  1  0.73205931  0.92151975  0.74231873  1
  Bi2+  Bi96  1  0.10438157  -0.01778297  0.21079109  1
  Bi2+  Bi97  1  0.11329149  -0.00691305  0.70750422  1
  Bi2+  Bi98  1  0.11277710  0.34958778  0.20954960  1
  Bi2+  Bi99  1  0.10563131  0.24573104  0.74971535  1
  Bi2+  Bi100  1  0.16845978  0.52965782  0.18207727  1
  Bi2+  Bi101  1  0.11244934  0.46667444  0.70330295  1
  Bi2+  Bi102  1  0.12282134  0.73230238  0.21581643  1
  Bi2+  Bi103  1  0.15684926  0.72781836  0.71758397  1
  Bi2+  Bi104  1  0.38460940  -0.02350356  0.20643723  1
  Bi2+  Bi105  1  0.35283528  0.04514208  0.70723131  1
  Bi2+  Bi106  1  0.38565523  0.24360180  0.21301589  1
  Bi2+  Bi107  1  0.46668662  0.26633661  0.71803085  1
  Bi2+  Bi108  1  0.35825515  0.49884157  0.21018813  1
  Bi2+  Bi109  1  0.35947733  0.50207576  0.71459575  1
  Bi2+  Bi110  1  0.37381052  0.73278957  0.20416262  1
  Bi2+  Bi111  1  0.36747858  0.78330161  0.71029536  1
  Bi2+  Bi112  1  0.64534911  0.00700071  0.21370387  1
  Bi2+  Bi113  1  0.59351770  0.02400842  0.67997844  1
  Bi2+  Bi114  1  0.59651844  0.27290799  0.22064242  1
  Bi2+  Bi115  1  0.66106253  0.20952515  0.70709370  1
  Bi2+  Bi116  1  0.62523854  0.46492272  0.19571008  1
  Bi2+  Bi117  1  0.63530203  0.47409833  0.70884140  1
  Bi2+  Bi118  1  0.65022349  0.71767815  0.20839430  1
  Bi2+  Bi119  1  0.74324053  0.73396680  0.70988483  1
  Bi2+  Bi120  1  0.85761195  -0.01005757  0.21449190  1
  Bi2+  Bi121  1  0.87449926  0.02691012  0.69101905  1
  Bi2+  Bi122  1  0.85163975  0.25691138  0.21819151  1
  Bi2+  Bi123  1  0.91340238  0.29628150  0.73709229  1
  Bi2+  Bi124  1  0.88575190  0.56989889  0.21268406  1
  Bi2+  Bi125  1  0.86350121  0.48286889  0.71240658  1
  Bi2+  Bi126  1  0.83888766  0.78228068  0.21436199  1
  Bi2+  Bi127  1  0.92003874  0.66471657  0.68656288  1
  S2-  S128  1  0.08837559  0.11830555  0.15792810  1
  S2-  S129  1  0.00811085  0.08395104  0.64363350  1
  S2-  S130  1  -0.04347675  0.35506511  0.15844087  1
  S2-  S131  1  0.00721400  0.36413886  0.65294026  1
  S2-  S132  1  0.00721667  0.64341580  0.15706435  1
  S2-  S133  1  0.12187483  0.61253160  0.64394867  1
  S2-  S134  1  -0.00174937  0.90385906  0.15416490  1
  S2-  S135  1  0.12513440  0.87597256  0.64043518  1
  S2-  S136  1  0.27655836  0.12143563  0.22465727  1
  S2-  S137  1  0.21881937  0.10647873  0.66309298  1
  S2-  S138  1  0.25529156  0.29236728  0.15373583  1
  S2-  S139  1  0.25474522  0.39087337  0.65299337  1
  S2-  S140  1  0.24218957  0.75395956  0.13957162  1
  S2-  S141  1  0.34111583  0.63112218  0.65130316  1
  S2-  S142  1  0.24515985  0.95881130  0.14929085  1
  S2-  S143  1  0.35696180  0.90539254  0.64641478  1
  S2-  S144  1  0.42844329  0.11635830  0.14470871  1
  S2-  S145  1  0.41069306  0.14744286  0.63906553  1
  S2-  S146  1  0.48337547  0.35658620  0.15329853  1
  S2-  S147  1  0.50384770  0.41008887  0.65281936  1
  S2-  S148  1  0.39990933  0.61170489  0.13385932  1
  S2-  S149  1  0.50131464  0.58614120  0.71669581  1
  S2-  S150  1  0.46879945  0.86142988  0.15641278  1
  S2-  S151  1  0.51772325  0.77582514  0.65447999  1
  S2-  S152  1  0.86778728  0.10905978  0.14876718  1
  S2-  S153  1  0.78626152  0.14843202  0.64712176  1
  S2-  S154  1  0.72813514  0.25683330  0.14992944  1
  S2-  S155  1  0.75358518  0.39321905  0.65297165  1
  S2-  S156  1  0.72652825  0.59145841  0.15229726  1
  S2-  S157  1  0.67639845  0.61348444  0.64810095  1
  S2-  S158  1  0.74507532  0.89406046  0.15309258  1
  S2-  S159  1  0.87868263  0.88580001  0.63177044  1
  S2-  S160  1  0.07333375  0.02504411  0.31479902  1
  S2-  S161  1  0.14225958  -0.01787945  0.84161218  1
  S2-  S162  1  0.06016070  0.25412390  0.34720937  1
  S2-  S163  1  0.10401281  0.22759021  0.85495132  1
  S2-  S164  1  0.14431034  0.51506565  0.34383850  1
  S2-  S165  1  0.18189159  0.47663030  0.85253124  1
  S2-  S166  1  0.13897912  0.83279549  0.35517647  1
  S2-  S167  1  0.20006194  0.74543571  0.85839082  1
  S2-  S168  1  0.28053717  0.01531981  0.35080872  1
  S2-  S169  1  0.36209425  0.01062748  0.83575866  1
  S2-  S170  1  0.30705268  0.25928458  0.33783158  1
  S2-  S171  1  0.34329512  0.25805874  0.84374231  1
  S2-  S172  1  0.39154279  0.47856683  0.34937165  1
  S2-  S173  1  0.37297871  0.58449746  0.84993090  1
  S2-  S174  1  0.38369306  0.79779005  0.34609938  1
  S2-  S175  1  0.41074025  0.79169314  0.82697640  1
  S2-  S176  1  0.51580598  -0.00730693  0.36219674  1
  S2-  S177  1  0.62282592  0.00333735  0.84582932  1
  S2-  S178  1  0.52517106  0.24211939  0.35666821  1
  S2-  S179  1  0.60979997  0.25213850  0.85152983  1
  S2-  S180  1  0.63884018  0.47805616  0.34675143  1
  S2-  S181  1  0.62035257  0.52643384  0.84174430  1
  S2-  S182  1  0.62212381  0.76655873  0.35032884  1
  S2-  S183  1  0.63382215  0.75435656  0.84444614  1
  S2-  S184  1  0.88455940  0.09569887  0.34498209  1
  S2-  S185  1  0.90360163  -0.00985418  0.84302306  1
  S2-  S186  1  0.77092726  0.26157902  0.31431898  1
  S2-  S187  1  0.85295449  0.23637837  0.85330796  1
  S2-  S188  1  0.89357842  0.41899344  0.34801615  1
  S2-  S189  1  0.85537634  0.49344468  0.85132094  1
  S2-  S190  1  0.87891432  0.86404300  0.35773596  1
  S2-  S191  1  0.85960851  0.74015033  0.84267494  1
  S2-  S192  1  0.01112313  0.12091482  0.44488229  1
  S2-  S193  1  -0.01071778  0.11909873  0.96122837  1
  S2-  S194  1  0.00872328  0.37212123  0.45170635  1
  S2-  S195  1  -0.01116527  0.36878362  0.95666152  1
  S2-  S196  1  0.00774269  0.62274163  0.46008480  1
  S2-  S197  1  -0.01336313  0.61678563  0.95269902  1
  S2-  S198  1  0.00905396  0.87269473  0.45849614  1
  S2-  S199  1  -0.01254631  0.86815579  0.95225884  1
  S2-  S200  1  0.26013132  0.12442690  0.45489777  1
  S2-  S201  1  0.23754322  0.11822250  0.95063479  1
  S2-  S202  1  0.25883729  0.37450362  0.45170063  1
  S2-  S203  1  0.23440190  0.36571746  0.95895420  1
  S2-  S204  1  0.25644133  0.62167543  0.45416837  1
  S2-  S205  1  0.23609352  0.61572239  0.96157921  1
  S2-  S206  1  0.25751124  0.87222229  0.45876044  1
  S2-  S207  1  0.23895823  0.87048963  0.95651718  1
  S2-  S208  1  0.51156124  0.12219634  0.45952436  1
  S2-  S209  1  0.48819777  0.12074402  0.94890086  1
  S2-  S210  1  0.50946473  0.37688774  0.45359825  1
  S2-  S211  1  0.48767254  0.36860527  0.94986907  1
  S2-  S212  1  0.50841842  0.62038731  0.44469123  1
  S2-  S213  1  0.48936641  0.61777518  0.94958837  1
  S2-  S214  1  0.51009895  0.87040635  0.46472697  1
  S2-  S215  1  0.48955825  0.86796572  0.94910712  1
  S2-  S216  1  0.75137907  0.11859426  0.44576961  1
  S2-  S217  1  0.73697000  0.12153689  0.96613564  1
  S2-  S218  1  0.76225307  0.36951522  0.44907284  1
  S2-  S219  1  0.73752060  0.36933639  0.96148848  1
  S2-  S220  1  0.76007884  0.62428957  0.45528306  1
  S2-  S221  1  0.73790550  0.61806747  0.95202042  1
  S2-  S222  1  0.75315266  0.87318183  0.45759737  1
  S2-  S223  1  0.73805832  0.86715409  0.95009182  1
  S2-  S224  1  0.11321285  -0.01006578  0.04570312  1
  S2-  S225  1  0.13263867  0.00206520  0.53852941  1
  S2-  S226  1  0.11299572  0.24592221  0.05479173  1
  S2-  S227  1  0.13551225  0.24677037  0.54616520  1
  S2-  S228  1  0.11475235  0.49312779  0.04869505  1
  S2-  S229  1  0.13176744  0.49295656  0.54540651  1
  S2-  S230  1  0.11258808  0.74568165  0.04621557  1
  S2-  S231  1  0.12704197  0.74735243  0.54430361  1
  S2-  S232  1  0.36307572  -0.00469876  0.04142943  1
  S2-  S233  1  0.38847084  -0.00223307  0.54067247  1
  S2-  S234  1  0.36152163  0.24312343  0.04483792  1
  S2-  S235  1  0.38374053  0.25145274  0.53841023  1
  S2-  S236  1  0.36329029  0.49119764  0.03956363  1
  S2-  S237  1  0.38275048  0.49875728  0.54972120  1
  S2-  S238  1  0.36621620  0.74476460  0.03359675  1
  S2-  S239  1  0.38394710  0.74551290  0.54910523  1
  S2-  S240  1  0.61348457  0.00032142  0.05244870  1
  S2-  S241  1  0.63308773  -0.00656169  0.54467295  1
  S2-  S242  1  0.61037917  0.24108040  0.05128610  1
  S2-  S243  1  0.63126297  0.24638423  0.54508927  1
  S2-  S244  1  0.61156790  0.49439499  0.04545903  1
  S2-  S245  1  0.63050768  0.49940966  0.54723192  1
  S2-  S246  1  0.61107268  0.74250441  0.04696284  1
  S2-  S247  1  0.63689635  0.75138153  0.55206786  1
  S2-  S248  1  0.86299787  -0.00612363  0.04646847  1
  S2-  S249  1  0.88261148  0.00111930  0.53320227  1
  S2-  S250  1  0.86510584  0.24706361  0.05200007  1
  S2-  S251  1  0.88284356  0.24626432  0.54485447  1
  S2-  S252  1  0.86312271  0.49210782  0.05278605  1
  S2-  S253  1  0.88100256  0.49913049  0.54637185  1
  S2-  S254  1  0.86451594  0.74488275  0.04881845  1
  S2-  S255  1  0.88099161  0.74405827  0.54190302  1
