# generated using pymatgen
data_La6Ce7Pr13Nd19Sm19(BiS2)64
_symmetry_space_group_name_H-M   'P 1'
_cell_length_a   16.07160745
_cell_length_b   16.02964748
_cell_length_c   27.51012322
_cell_angle_alpha   90.24724290
_cell_angle_beta   89.85391373
_cell_angle_gamma   90.08014368
_symmetry_Int_Tables_number   1
_chemical_formula_structural   La6Ce7Pr13Nd19Sm19(BiS2)64
_chemical_formula_sum   'La6 Ce7 Pr13 Nd19 Sm19 Bi64 S128'
_cell_volume   7087.12266929
_cell_formula_units_Z   1
loop_
 _symmetry_equiv_pos_site_id
 _symmetry_equiv_pos_as_xyz
  1  'x, y, z'
loop_
 _atom_type_symbol
 _atom_type_oxidation_number
  La3+  3.0
  Ce3+  3.0
  Pr3+  3.0
  Nd3+  3.0
  Sm3+  3.0
  Bi2+  2.0
  S2-  -2.0
loop_
 _atom_site_type_symbol
 _atom_site_label
 _atom_site_symmetry_multiplicity
 _atom_site_fract_x
 _atom_site_fract_y
 _atom_site_fract_z
 _atom_site_occupancy
  La3+  La0  1  0.23962085  0.61228400  0.56783405  1
  La3+  La1  1  0.24603829  0.11423848  0.59945292  1
  La3+  La2  1  0.37302330  0.72801984  0.42288594  1
  La3+  La3  1  0.01727307  0.88747427  0.11350019  1
  La3+  La4  1  0.47463846  0.11452148  0.09061242  1
  La3+  La5  1  0.74060627  0.63277308  0.60785867  1
  Ce3+  Ce6  1  0.36765540  -0.00788155  0.93010763  1
  Ce3+  Ce7  1  0.36357580  0.23343176  0.44147599  1
  Ce3+  Ce8  1  0.74435465  0.11327362  0.57130643  1
  Ce3+  Ce9  1  0.10906308  0.73987121  0.92168963  1
  Ce3+  Ce10  1  0.61599922  0.73318921  0.44120090  1
  Ce3+  Ce11  1  0.36369884  0.74085260  0.94152147  1
  Ce3+  Ce12  1  0.11741599  0.48843626  0.43075212  1
  Pr3+  Pr13  1  -0.01034046  0.11561060  0.05360837  1
  Pr3+  Pr14  1  0.73510732  0.61988719  0.05631091  1
  Pr3+  Pr15  1  0.11888346  0.73358633  0.43413792  1
  Pr3+  Pr16  1  0.11870640  -0.02020160  0.43949770  1
  Pr3+  Pr17  1  0.61647620  0.23288871  0.43466036  1
  Pr3+  Pr18  1  0.24130541  0.85984838  0.57012588  1
  Pr3+  Pr19  1  0.86921261  -0.01219439  0.43866615  1
  Pr3+  Pr20  1  0.11584921  0.23896726  0.92572890  1
  Pr3+  Pr21  1  0.48833288  0.37766407  0.07783175  1
  Pr3+  Pr22  1  0.61709354  0.48504679  0.44213307  1
  Pr3+  Pr23  1  -0.01247033  0.36862061  0.07126086  1
  Pr3+  Pr24  1  0.86246664  0.74269611  0.93051972  1
  Pr3+  Pr25  1  0.49180759  0.35968395  0.56132301  1
  Nd3+  Nd26  1  0.36736457  0.48319327  0.43929726  1
  Nd3+  Nd27  1  -0.00776429  0.10901138  0.57062601  1
  Nd3+  Nd28  1  0.61396372  -0.00664763  0.94311542  1
  Nd3+  Nd29  1  0.86678687  0.73294931  0.43824582  1
  Nd3+  Nd30  1  0.11512641  0.23299663  0.44418203  1
  Nd3+  Nd31  1  -0.01058634  0.60919268  0.55940147  1
  Nd3+  Nd32  1  -0.01023319  0.85826572  0.56504284  1
  Nd3+  Nd33  1  0.11411091  0.48900369  0.93525965  1
  Nd3+  Nd34  1  0.36353234  -0.01457814  0.44425700  1
  Nd3+  Nd35  1  0.73928098  0.36742826  0.56592188  1
  Nd3+  Nd36  1  0.86514889  0.48931650  0.94504864  1
  Nd3+  Nd37  1  0.61580859  -0.01143126  0.44311350  1
  Nd3+  Nd38  1  0.23207594  0.62454156  0.05617137  1
  Nd3+  Nd39  1  0.61315062  0.48613797  0.93140934  1
  Nd3+  Nd40  1  -0.01427703  0.62928927  0.06005950  1
  Nd3+  Nd41  1  0.61515251  0.73506985  0.92275896  1
  Nd3+  Nd42  1  0.49190654  0.86082053  0.55811237  1
  Nd3+  Nd43  1  0.73621286  0.11837234  0.05395109  1
  Nd3+  Nd44  1  -0.01044684  0.36384822  0.55619636  1
  Sm3+  Sm45  1  0.23810320  0.36761746  0.06470818  1
  Sm3+  Sm46  1  0.86418859  -0.01000207  0.93814200  1
  Sm3+  Sm47  1  0.86429416  0.48611556  0.44285690  1
  Sm3+  Sm48  1  0.74149363  0.86145731  0.54940760  1
  Sm3+  Sm49  1  0.49243251  0.11273588  0.56344981  1
  Sm3+  Sm50  1  0.61188488  0.24573293  0.94360890  1
  Sm3+  Sm51  1  0.11351330  -0.01260153  0.92639314  1
  Sm3+  Sm52  1  0.23825069  0.87016544  0.04717339  1
  Sm3+  Sm53  1  0.49073968  0.86938876  0.05292315  1
  Sm3+  Sm54  1  0.36492198  0.24376935  0.94264704  1
  Sm3+  Sm55  1  0.23913750  0.36531543  0.56451126  1
  Sm3+  Sm56  1  0.86563430  0.24325671  0.94276777  1
  Sm3+  Sm57  1  0.23690428  0.11589621  0.05106548  1
  Sm3+  Sm58  1  0.49389310  0.60951807  0.56564855  1
  Sm3+  Sm59  1  0.86682934  0.23470168  0.44597135  1
  Sm3+  Sm60  1  0.36288310  0.48998581  0.94348480  1
  Sm3+  Sm61  1  0.74602335  0.86799767  0.06101377  1
  Sm3+  Sm62  1  0.48979175  0.61973445  0.05649404  1
  Sm3+  Sm63  1  0.73652418  0.36585522  0.06744626  1
  Bi2+  Bi64  1  0.00401732  0.17371667  0.30147006  1
  Bi2+  Bi65  1  -0.00696447  0.14311837  0.78701445  1
  Bi2+  Bi66  1  0.07357911  0.41644723  0.30220729  1
  Bi2+  Bi67  1  -0.00299592  0.34723527  0.79464444  1
  Bi2+  Bi68  1  -0.02551162  0.64025475  0.29543742  1
  Bi2+  Bi69  1  -0.01083411  0.57084851  0.79492809  1
  Bi2+  Bi70  1  -0.01487410  0.92490299  0.31193554  1
  Bi2+  Bi71  1  -0.01103683  0.85324858  0.78969801  1
  Bi2+  Bi72  1  0.28956636  0.13837239  0.23757137  1
  Bi2+  Bi73  1  0.25640417  0.12568845  0.78567652  1
  Bi2+  Bi74  1  0.27280336  0.42226754  0.27300573  1
  Bi2+  Bi75  1  0.27444330  0.37181071  0.79441767  1
  Bi2+  Bi76  1  0.24936653  0.64173838  0.29309001  1
  Bi2+  Bi77  1  0.26295934  0.58738070  0.79504961  1
  Bi2+  Bi78  1  0.23964396  0.92537503  0.30333822  1
  Bi2+  Bi79  1  0.25991933  0.85486386  0.78478146  1
  Bi2+  Bi80  1  0.49613792  0.13298378  0.31521710  1
  Bi2+  Bi81  1  0.54959736  0.11439461  0.79083221  1
  Bi2+  Bi82  1  0.51136053  0.36801817  0.29589845  1
  Bi2+  Bi83  1  0.54762078  0.31151465  0.76494828  1
  Bi2+  Bi84  1  0.50512830  0.60923692  0.28995891  1
  Bi2+  Bi85  1  0.50117211  0.70040947  0.79171415  1
  Bi2+  Bi86  1  0.52191424  0.87500232  0.29317395  1
  Bi2+  Bi87  1  0.52696981  0.89484962  0.80139862  1
  Bi2+  Bi88  1  0.78628576  0.14357495  0.28409457  1
  Bi2+  Bi89  1  0.74167057  0.18450757  0.77719871  1
  Bi2+  Bi90  1  0.79838395  0.45783715  0.25528245  1
  Bi2+  Bi91  1  0.72786673  0.39003329  0.79372415  1
  Bi2+  Bi92  1  0.75426615  0.63594671  0.29556186  1
  Bi2+  Bi93  1  0.74408604  0.62983833  0.79891962  1
  Bi2+  Bi94  1  0.71461127  0.86817760  0.26491503  1
  Bi2+  Bi95  1  0.73526919  0.89083304  0.77885057  1
  Bi2+  Bi96  1  0.13955381  0.01899963  0.20849997  1
  Bi2+  Bi97  1  0.13064645  -0.01666654  0.71485202  1
  Bi2+  Bi98  1  0.14797208  0.27692939  0.22769719  1
  Bi2+  Bi99  1  0.13246744  0.24033878  0.72648964  1
  Bi2+  Bi100  1  0.13100207  0.49654960  0.20163944  1
  Bi2+  Bi101  1  0.13101392  0.47742836  0.71272710  1
  Bi2+  Bi102  1  0.14905579  0.75110338  0.20468660  1
  Bi2+  Bi103  1  0.12933864  0.67472078  0.72443861  1
  Bi2+  Bi104  1  0.38011388  -0.05118400  0.22500874  1
  Bi2+  Bi105  1  0.44935941  0.00540470  0.71585422  1
  Bi2+  Bi106  1  0.42004215  0.28353312  0.21256804  1
  Bi2+  Bi107  1  0.39142826  0.28016404  0.70343862  1
  Bi2+  Bi108  1  0.37854876  0.54667502  0.20659460  1
  Bi2+  Bi109  1  0.40893945  0.55888701  0.71922759  1
  Bi2+  Bi110  1  0.42058104  0.75287846  0.21482460  1
  Bi2+  Bi111  1  0.35893252  0.74897381  0.70770190  1
  Bi2+  Bi112  1  0.59890457  -0.00895356  0.20625424  1
  Bi2+  Bi113  1  0.63244210  0.06242482  0.68677489  1
  Bi2+  Bi114  1  0.68416194  0.25195083  0.20201122  1
  Bi2+  Bi115  1  0.66516621  0.24955300  0.66933829  1
  Bi2+  Bi116  1  0.64433357  0.60058690  0.20210909  1
  Bi2+  Bi117  1  0.59837953  0.49850495  0.71033856  1
  Bi2+  Bi118  1  0.60360486  0.79090184  0.17456067  1
  Bi2+  Bi119  1  0.61524444  0.78992852  0.71016809  1
  Bi2+  Bi120  1  0.85180268  0.01872823  0.20757526  1
  Bi2+  Bi121  1  0.87103644  0.01249551  0.73727698  1
  Bi2+  Bi122  1  0.92264844  0.30979463  0.23038283  1
  Bi2+  Bi123  1  0.86312708  0.24000426  0.69282267  1
  Bi2+  Bi124  1  0.94332617  0.54834839  0.19570862  1
  Bi2+  Bi125  1  0.87070746  0.43068123  0.71653396  1
  Bi2+  Bi126  1  0.84475054  0.74895710  0.21719989  1
  Bi2+  Bi127  1  0.89841072  0.76868860  0.69915979  1
  S2-  S128  1  0.01252308  0.06118673  0.14856606  1
  S2-  S129  1  0.09238702  0.11758601  0.65310067  1
  S2-  S130  1  0.11835425  0.35309426  0.13801698  1
  S2-  S131  1  0.00128111  0.40704914  0.65154362  1
  S2-  S132  1  0.02747421  0.71659780  0.14378868  1
  S2-  S133  1  -0.00311713  0.65398562  0.65519810  1
  S2-  S134  1  0.03595010  0.88179988  0.22243052  1
  S2-  S135  1  0.01630463  0.89184950  0.66132419  1
  S2-  S136  1  0.31085072  0.11830113  0.13926144  1
  S2-  S137  1  0.25162037  -0.03756995  0.65401975  1
  S2-  S138  1  0.34930806  0.36759900  0.14199122  1
  S2-  S139  1  0.24871620  0.27373127  0.64946125  1
  S2-  S140  1  0.23854721  0.62585749  0.15553618  1
  S2-  S141  1  0.23440217  0.48774846  0.63926596  1
  S2-  S142  1  0.19533847  0.88639711  0.14187962  1
  S2-  S143  1  0.22740487  0.73274525  0.64459200  1
  S2-  S144  1  0.54898881  0.16075255  0.18164920  1
  S2-  S145  1  0.40980082  0.13222437  0.64964628  1
  S2-  S146  1  0.62754589  0.36294895  0.14410926  1
  S2-  S147  1  0.46494079  0.42379794  0.65367287  1
  S2-  S148  1  0.50507039  0.53737588  0.14119343  1
  S2-  S149  1  0.58031174  0.63757263  0.65009166  1
  S2-  S150  1  0.46731691  0.95491288  0.13767782  1
  S2-  S151  1  0.47954592  0.85699263  0.65673947  1
  S2-  S152  1  0.77185224  0.12201831  0.15134707  1
  S2-  S153  1  0.86539843  0.08887894  0.64250331  1
  S2-  S154  1  0.85764648  0.35255034  0.14290206  1
  S2-  S155  1  0.73453285  0.46777175  0.64857457  1
  S2-  S156  1  0.79897642  0.62659679  0.14976280  1
  S2-  S157  1  0.79664327  0.64138209  0.70929409  1
  S2-  S158  1  0.84484112  0.87959609  0.14339713  1
  S2-  S159  1  0.75431553  0.81437256  0.64218395  1
  S2-  S160  1  0.08648945  0.05773556  0.34739470  1
  S2-  S161  1  0.11917768  0.10885968  0.85280521  1
  S2-  S162  1  0.12839950  0.27285693  0.34745075  1
  S2-  S163  1  0.12799037  0.37024078  0.85844386  1
  S2-  S164  1  0.11899523  0.61053971  0.35761628  1
  S2-  S165  1  0.11929705  0.60088321  0.85686182  1
  S2-  S166  1  0.11532417  0.85606922  0.36103544  1
  S2-  S167  1  0.12469398  0.86792290  0.84920926  1
  S2-  S168  1  0.36264359  0.03002665  0.34853937  1
  S2-  S169  1  0.32648106  -0.00936503  0.83473903  1
  S2-  S170  1  0.38936297  0.27039412  0.34809744  1
  S2-  S171  1  0.33888171  0.23723821  0.84395217  1
  S2-  S172  1  0.36848642  0.57837005  0.35655534  1
  S2-  S173  1  0.37603370  0.47470976  0.84636787  1
  S2-  S174  1  0.30599543  0.78540418  0.33535301  1
  S2-  S175  1  0.33338376  0.73372937  0.84608510  1
  S2-  S176  1  0.60219554  0.02908076  0.34777145  1
  S2-  S177  1  0.65133992  -0.00246241  0.84668625  1
  S2-  S178  1  0.62080232  0.25110248  0.33429401  1
  S2-  S179  1  0.60868340  0.35128346  0.86503443  1
  S2-  S180  1  0.59915775  0.48599888  0.34243508  1
  S2-  S181  1  0.59935777  0.59954226  0.85446144  1
  S2-  S182  1  0.52748520  0.73791511  0.35828872  1
  S2-  S183  1  0.74160775  0.76714033  0.85385989  1
  S2-  S184  1  0.84182086  0.01243094  0.34072558  1
  S2-  S185  1  0.88800083  -0.02592709  0.84111764  1
  S2-  S186  1  0.86178656  0.25227756  0.34923348  1
  S2-  S187  1  0.87439287  0.24101030  0.84602654  1
  S2-  S188  1  0.86742574  0.51568358  0.34566316  1
  S2-  S189  1  0.83778240  0.50328862  0.84774604  1
  S2-  S190  1  0.91386081  0.77208738  0.34539070  1
  S2-  S191  1  0.95041851  0.71530735  0.84082036  1
  S2-  S192  1  -0.01073299  0.11310217  0.46144128  1
  S2-  S193  1  -0.01396825  0.11561598  0.94897493  1
  S2-  S194  1  -0.01121100  0.36239274  0.45050170  1
  S2-  S195  1  -0.01151327  0.36421381  0.95961356  1
  S2-  S196  1  -0.01242623  0.60829484  0.45433619  1
  S2-  S197  1  -0.01276465  0.61431874  0.95579027  1
  S2-  S198  1  -0.01282899  0.85866696  0.45951683  1
  S2-  S199  1  -0.01365347  0.87068747  0.94363838  1
  S2-  S200  1  0.23919459  0.11087472  0.45198409  1
  S2-  S201  1  0.24289492  0.11559620  0.94932168  1
  S2-  S202  1  0.24028244  0.36251317  0.45526445  1
  S2-  S203  1  0.24223151  0.36629903  0.96010434  1
  S2-  S204  1  0.24437075  0.60915596  0.45922077  1
  S2-  S205  1  0.24135083  0.61550297  0.95306880  1
  S2-  S206  1  0.24819153  0.85543569  0.46140965  1
  S2-  S207  1  0.24233495  0.86838371  0.94651061  1
  S2-  S208  1  0.49080297  0.11149736  0.45941913  1
  S2-  S209  1  0.49039617  0.12105274  0.94071204  1
  S2-  S210  1  0.49223021  0.35876419  0.45468406  1
  S2-  S211  1  0.48446591  0.36709168  0.96253755  1
  S2-  S212  1  0.49351834  0.60769400  0.46151970  1
  S2-  S213  1  0.48634965  0.61482087  0.95443538  1
  S2-  S214  1  0.49148667  0.86374708  0.45391176  1
  S2-  S215  1  0.49300577  0.86382357  0.94812741  1
  S2-  S216  1  0.74286631  0.11222531  0.45806374  1
  S2-  S217  1  0.73887753  0.12112148  0.94822212  1
  S2-  S218  1  0.74297750  0.35944826  0.45532939  1
  S2-  S219  1  0.74184927  0.36331794  0.96167581  1
  S2-  S220  1  0.74178475  0.61009422  0.44542128  1
  S2-  S221  1  0.73831156  0.61300905  0.95232316  1
  S2-  S222  1  0.74061574  0.86129090  0.44470006  1
  S2-  S223  1  0.73760361  0.87131693  0.95702788  1
  S2-  S224  1  0.11436970  -0.00871053  0.03595127  1
  S2-  S225  1  0.11390761  -0.01615785  0.54682043  1
  S2-  S226  1  0.11640759  0.23910754  0.03729816  1
  S2-  S227  1  0.11480219  0.23991146  0.54881435  1
  S2-  S228  1  0.11084858  0.49749784  0.04440388  1
  S2-  S229  1  0.11297319  0.48618226  0.53777460  1
  S2-  S230  1  0.11423972  0.75045299  0.03437872  1
  S2-  S231  1  0.11082684  0.73627932  0.54176605  1
  S2-  S232  1  0.36444437  -0.00679193  0.03471224  1
  S2-  S233  1  0.36963869  -0.01075946  0.54948080  1
  S2-  S234  1  0.36393522  0.24001158  0.04359235  1
  S2-  S235  1  0.36483472  0.23694161  0.54544166  1
  S2-  S236  1  0.35921631  0.50117414  0.04618530  1
  S2-  S237  1  0.37046211  0.48678398  0.54334393  1
  S2-  S238  1  0.36569022  0.74588215  0.04921333  1
  S2-  S239  1  0.37349817  0.73363761  0.54742428  1
  S2-  S240  1  0.61450300  -0.00734202  0.04802063  1
  S2-  S241  1  0.61790307  -0.01268045  0.54925799  1
  S2-  S242  1  0.60469059  0.23502504  0.04617352  1
  S2-  S243  1  0.61755541  0.23506516  0.54289550  1
  S2-  S244  1  0.61526010  0.49251089  0.03847725  1
  S2-  S245  1  0.61561641  0.48888696  0.54705453  1
  S2-  S246  1  0.61281416  0.74563487  0.03776567  1
  S2-  S247  1  0.61916064  0.73581646  0.54467916  1
  S2-  S248  1  0.86225933  -0.00513405  0.04114753  1
  S2-  S249  1  0.86508319  -0.01818599  0.54374022  1
  S2-  S250  1  0.86371348  0.24055040  0.04492823  1
  S2-  S251  1  0.86462111  0.24009596  0.54931006  1
  S2-  S252  1  0.86308462  0.49449850  0.04864110  1
  S2-  S253  1  0.86224812  0.49000200  0.54654169  1
  S2-  S254  1  0.85892994  0.74351805  0.03818006  1
  S2-  S255  1  0.86171959  0.73208041  0.54468963  1
