# generated using pymatgen
data_La6Ce7Pr13Nd19Sm19(BiS2)64
_symmetry_space_group_name_H-M   'P 1'
_cell_length_a   16.02007811
_cell_length_b   16.05582611
_cell_length_c   27.43328013
_cell_angle_alpha   90.12794033
_cell_angle_beta   90.14948269
_cell_angle_gamma   89.88721061
_symmetry_Int_Tables_number   1
_chemical_formula_structural   La6Ce7Pr13Nd19Sm19(BiS2)64
_chemical_formula_sum   'La6 Ce7 Pr13 Nd19 Sm19 Bi64 S128'
_cell_volume   7056.21209244
_cell_formula_units_Z   1
loop_
 _symmetry_equiv_pos_site_id
 _symmetry_equiv_pos_as_xyz
  1  'x, y, z'
loop_
 _atom_type_symbol
 _atom_type_oxidation_number
  La3+  3.0
  Ce3+  3.0
  Pr3+  3.0
  Nd3+  3.0
  Sm3+  3.0
  Bi2+  2.0
  S2-  -2.0
loop_
 _atom_site_type_symbol
 _atom_site_label
 _atom_site_symmetry_multiplicity
 _atom_site_fract_x
 _atom_site_fract_y
 _atom_site_fract_z
 _atom_site_occupancy
  La3+  La0  1  0.14745911  0.00730582  0.92826011  1
  La3+  La1  1  0.76916964  0.63288577  0.06508363  1
  La3+  La2  1  0.39722587  0.26415319  0.90635012  1
  La3+  La3  1  0.88752581  0.76656169  0.88648533  1
  La3+  La4  1  0.88927965  0.50714863  0.93100995  1
  La3+  La5  1  0.87388859  -0.01964985  0.42024718  1
  Ce3+  Ce6  1  0.51517482  0.13835862  0.05142100  1
  Ce3+  Ce7  1  0.52115239  0.87817496  0.07091587  1
  Ce3+  Ce8  1  0.36436158  0.49116050  0.43802695  1
  Ce3+  Ce9  1  0.74104030  0.61621733  0.56102330  1
  Ce3+  Ce10  1  0.14286360  0.25906870  0.94500889  1
  Ce3+  Ce11  1  0.49146928  0.86159096  0.56012637  1
  Ce3+  Ce12  1  0.01022001  0.38236285  0.06633373  1
  Pr3+  Pr13  1  0.26997925  0.13586996  0.05924162  1
  Pr3+  Pr14  1  0.50342580  0.37271075  0.11667397  1
  Pr3+  Pr15  1  0.74402256  0.11459416  0.55337266  1
  Pr3+  Pr16  1  0.39123961  0.00248578  0.93924309  1
  Pr3+  Pr17  1  0.36665977  0.74167331  0.43008255  1
  Pr3+  Pr18  1  -0.00662829  0.11658813  0.55237343  1
  Pr3+  Pr19  1  0.24321887  0.36106241  0.57034559  1
  Pr3+  Pr20  1  0.39253948  0.50843306  0.94125181  1
  Pr3+  Pr21  1  0.24740012  0.10926942  0.58503030  1
  Pr3+  Pr22  1  0.60739029  0.24103035  0.43865709  1
  Pr3+  Pr23  1  0.50134988  0.12744822  0.58122047  1
  Pr3+  Pr24  1  -0.00500511  0.62335080  0.56341238  1
  Pr3+  Pr25  1  0.63826807  0.50700584  0.95055549  1
  Nd3+  Nd26  1  0.52005726  0.63242498  0.07984678  1
  Nd3+  Nd27  1  0.89059502  0.25963072  0.92996753  1
  Nd3+  Nd28  1  0.25037445  0.85756655  0.58947442  1
  Nd3+  Nd29  1  0.76905337  0.88449423  0.06254222  1
  Nd3+  Nd30  1  0.61660922  0.75117995  0.40952446  1
  Nd3+  Nd31  1  0.76591206  0.37820831  0.06835934  1
  Nd3+  Nd32  1  0.61088364  -0.00722077  0.44089211  1
  Nd3+  Nd33  1  0.01177028  0.63530112  0.06585959  1
  Nd3+  Nd34  1  0.39396536  0.75245318  0.93504702  1
  Nd3+  Nd35  1  -0.00596249  0.36727349  0.55483411  1
  Nd3+  Nd36  1  0.49320334  0.61618086  0.55266846  1
  Nd3+  Nd37  1  0.01275471  0.88815497  0.06382036  1
  Nd3+  Nd38  1  0.64270921  0.00312512  0.94005310  1
  Nd3+  Nd39  1  0.24625075  0.61480568  0.57141859  1
  Nd3+  Nd40  1  0.11729310  0.49325015  0.44274171  1
  Nd3+  Nd41  1  0.26898326  0.38509752  0.06125223  1
  Nd3+  Nd42  1  0.86579545  0.49311397  0.43936979  1
  Nd3+  Nd43  1  0.49420425  0.37653214  0.56655902  1
  Nd3+  Nd44  1  0.13155479  0.75550318  0.94439400  1
  Sm3+  Sm45  1  0.64520750  0.75579237  0.94098626  1
  Sm3+  Sm46  1  0.76601871  0.13357956  0.04864042  1
  Sm3+  Sm47  1  0.36215775  0.23921573  0.44375902  1
  Sm3+  Sm48  1  0.01559716  0.13163498  0.05023905  1
  Sm3+  Sm49  1  0.11767465  -0.00974025  0.44565732  1
  Sm3+  Sm50  1  0.13804436  0.50731485  0.95022533  1
  Sm3+  Sm51  1  0.86680488  0.74336152  0.44457443  1
  Sm3+  Sm52  1  -0.01706360  0.88475407  0.57784859  1
  Sm3+  Sm53  1  0.12291664  0.24046767  0.43789568  1
  Sm3+  Sm54  1  0.26689307  0.88199237  0.05795183  1
  Sm3+  Sm55  1  0.26817447  0.63541951  0.05871680  1
  Sm3+  Sm56  1  0.74587634  0.37255561  0.56217911  1
  Sm3+  Sm57  1  0.89402855  0.00493009  0.93174367  1
  Sm3+  Sm58  1  0.61824272  0.49270785  0.43273950  1
  Sm3+  Sm59  1  0.86266303  0.24302177  0.43625924  1
  Sm3+  Sm60  1  0.73741442  0.85837369  0.56196063  1
  Sm3+  Sm61  1  0.11808036  0.74551758  0.44936444  1
  Sm3+  Sm62  1  0.36413925  -0.00745375  0.45179131  1
  Sm3+  Sm63  1  0.63774571  0.25900148  0.93902092  1
  Bi2+  Bi64  1  0.02656602  0.12411201  0.25031716  1
  Bi2+  Bi65  1  -0.11390821  0.15545099  0.78761750  1
  Bi2+  Bi66  1  0.04960773  0.32814151  0.30113993  1
  Bi2+  Bi67  1  0.01944089  0.44056657  0.79891713  1
  Bi2+  Bi68  1  0.05588624  0.58060707  0.26902347  1
  Bi2+  Bi69  1  0.03660068  0.64991230  0.79067613  1
  Bi2+  Bi70  1  0.00599097  0.85976217  0.28780654  1
  Bi2+  Bi71  1  -0.00504894  0.91482829  0.77435126  1
  Bi2+  Bi72  1  0.17177385  0.07595162  0.32417106  1
  Bi2+  Bi73  1  0.20343441  0.09512434  0.79460737  1
  Bi2+  Bi74  1  0.25831412  0.37113203  0.30218563  1
  Bi2+  Bi75  1  0.25066100  0.34758604  0.79715225  1
  Bi2+  Bi76  1  0.23981231  0.67701663  0.30956436  1
  Bi2+  Bi77  1  0.30412091  0.63365381  0.77319972  1
  Bi2+  Bi78  1  0.22320296  0.87458278  0.29485872  1
  Bi2+  Bi79  1  0.29413788  0.82679690  0.80859411  1
  Bi2+  Bi80  1  0.51180417  0.10726625  0.29427197  1
  Bi2+  Bi81  1  0.53003598  0.07973977  0.76745636  1
  Bi2+  Bi82  1  0.53630531  0.36088469  0.31690703  1
  Bi2+  Bi83  1  0.51185645  0.39046162  0.78450120  1
  Bi2+  Bi84  1  0.41575454  0.61740030  0.27850952  1
  Bi2+  Bi85  1  0.52566659  0.62960489  0.79515294  1
  Bi2+  Bi86  1  0.49077121  0.88085700  0.28884229  1
  Bi2+  Bi87  1  0.49069888  0.81996958  0.81955431  1
  Bi2+  Bi88  1  0.70885566  0.13507654  0.28311156  1
  Bi2+  Bi89  1  0.69477369  0.16817115  0.81128750  1
  Bi2+  Bi90  1  0.77915945  0.40129431  0.29968743  1
  Bi2+  Bi91  1  0.76576212  0.35863129  0.78055866  1
  Bi2+  Bi92  1  0.83053238  0.65395259  0.28771172  1
  Bi2+  Bi93  1  0.73888561  0.61418111  0.78946820  1
  Bi2+  Bi94  1  0.75603974  0.88903002  0.29177228  1
  Bi2+  Bi95  1  0.72550374  0.89263166  0.77945387  1
  Bi2+  Bi96  1  0.12268887  -0.10089106  0.19471224  1
  Bi2+  Bi97  1  0.10096579  0.09621124  0.70014219  1
  Bi2+  Bi98  1  0.15792967  0.26148565  0.21074318  1
  Bi2+  Bi99  1  0.04297877  0.26248618  0.75124679  1
  Bi2+  Bi100  1  0.09401831  0.44379758  0.18577617  1
  Bi2+  Bi101  1  0.17699262  0.49315167  0.73357930  1
  Bi2+  Bi102  1  0.07441428  0.71369677  0.18790955  1
  Bi2+  Bi103  1  0.17121970  0.84430219  0.72006180  1
  Bi2+  Bi104  1  0.33304296  0.03285643  0.26568689  1
  Bi2+  Bi105  1  0.41274246  -0.06587645  0.73730455  1
  Bi2+  Bi106  1  0.36918685  0.23112399  0.20556206  1
  Bi2+  Bi107  1  0.35747516  0.22845982  0.70587580  1
  Bi2+  Bi108  1  0.27588568  0.51062597  0.22025928  1
  Bi2+  Bi109  1  0.38969540  0.48042464  0.70774232  1
  Bi2+  Bi110  1  0.35011408  0.76754407  0.21081104  1
  Bi2+  Bi111  1  0.40903871  0.68517199  0.68094498  1
  Bi2+  Bi112  1  0.60630183  -0.01185800  0.21918803  1
  Bi2+  Bi113  1  0.60953017  -0.04534379  0.69178516  1
  Bi2+  Bi114  1  0.64787064  0.24260820  0.19969944  1
  Bi2+  Bi115  1  0.62266571  0.24919544  0.71328839  1
  Bi2+  Bi116  1  0.62796198  0.52205720  0.21624823  1
  Bi2+  Bi117  1  0.64543925  0.47937335  0.71739955  1
  Bi2+  Bi118  1  0.61997553  0.76400409  0.21283598  1
  Bi2+  Bi119  1  0.60918191  0.75825188  0.71841897  1
  Bi2+  Bi120  1  0.87436387  0.03761650  0.19771753  1
  Bi2+  Bi121  1  0.80656997  0.02877906  0.70678001  1
  Bi2+  Bi122  1  0.89129053  0.27997597  0.23561961  1
  Bi2+  Bi123  1  0.86526721  0.28085855  0.69231992  1
  Bi2+  Bi124  1  0.89932124  0.49664200  0.20882426  1
  Bi2+  Bi125  1  0.89606266  0.48029438  0.70024028  1
  Bi2+  Bi126  1  0.88489382  0.77023343  0.20674100  1
  Bi2+  Bi127  1  0.87447312  0.74211655  0.68211390  1
  S2-  S128  1  0.00861991  0.09066226  0.14484901  1
  S2-  S129  1  -0.02523373  0.04842189  0.64348217  1
  S2-  S130  1  -0.10424664  0.35920968  0.13940810  1
  S2-  S131  1  0.00704450  0.36696977  0.65281941  1
  S2-  S132  1  -0.10611114  0.62278374  0.14134099  1
  S2-  S133  1  -0.01391824  0.60492774  0.66391349  1
  S2-  S134  1  -0.10943135  0.90005980  0.13874180  1
  S2-  S135  1  0.03141869  0.82165038  0.66655326  1
  S2-  S136  1  0.25644292  0.14028893  0.15952559  1
  S2-  S137  1  0.22495999  0.24685510  0.65128093  1
  S2-  S138  1  0.33559997  0.37754712  0.15304173  1
  S2-  S139  1  0.24460129  0.48537724  0.64206354  1
  S2-  S140  1  0.26639842  0.64649769  0.15645055  1
  S2-  S141  1  0.24167974  0.71899325  0.65387675  1
  S2-  S142  1  0.28595876  0.89607492  0.15477414  1
  S2-  S143  1  0.20947518  0.97953848  0.65711457  1
  S2-  S144  1  0.50809179  0.18199859  0.14577705  1
  S2-  S145  1  0.38637361  0.09756873  0.65481328  1
  S2-  S146  1  0.50750266  0.34432652  0.22444111  1
  S2-  S147  1  0.49674943  0.27272792  0.64715163  1
  S2-  S148  1  0.49667763  0.53312124  0.16292642  1
  S2-  S149  1  0.50649333  0.51252096  0.63592645  1
  S2-  S150  1  0.48920203  0.76533109  0.14628014  1
  S2-  S151  1  0.40510715  0.84871163  0.64537518  1
  S2-  S152  1  0.76732015  0.13882709  0.14663471  1
  S2-  S153  1  0.69072083  0.12182347  0.64893027  1
  S2-  S154  1  0.67297143  0.38947537  0.15499900  1
  S2-  S155  1  0.74852215  0.48991744  0.63613202  1
  S2-  S156  1  0.67270800  0.64232047  0.15510363  1
  S2-  S157  1  0.71578068  0.72338430  0.63746203  1
  S2-  S158  1  0.65740217  0.89117928  0.14256064  1
  S2-  S159  1  0.83699936  0.89575043  0.64037594  1
  S2-  S160  1  0.03001945  -0.01645065  0.35995172  1
  S2-  S161  1  0.06715307  0.01101725  0.83675535  1
  S2-  S162  1  0.24412759  0.23330778  0.36646547  1
  S2-  S163  1  0.13292122  0.24491742  0.84797261  1
  S2-  S164  1  0.13171904  0.47585163  0.34475937  1
  S2-  S165  1  0.13047021  0.53444291  0.85332242  1
  S2-  S166  1  0.09487474  0.74539120  0.35155526  1
  S2-  S167  1  0.06467231  0.77112628  0.85284226  1
  S2-  S168  1  0.41984983  0.00041507  0.35899460  1
  S2-  S169  1  0.28640905  -0.00009284  0.85787519  1
  S2-  S170  1  0.47269923  0.22936429  0.36736693  1
  S2-  S171  1  0.34504151  0.20323138  0.81252018  1
  S2-  S172  1  0.39627902  0.46673722  0.34235590  1
  S2-  S173  1  0.37759334  0.41424806  0.85137374  1
  S2-  S174  1  0.47126674  0.73909223  0.34861484  1
  S2-  S175  1  0.39291969  0.62704494  0.86383271  1
  S2-  S176  1  0.62867381  -0.09515757  0.35601473  1
  S2-  S177  1  0.63316755  0.00149291  0.84080911  1
  S2-  S178  1  0.68521606  0.27684769  0.35009072  1
  S2-  S179  1  0.55569277  0.27030116  0.85071529  1
  S2-  S180  1  0.64060163  0.49836889  0.33391040  1
  S2-  S181  1  0.64615134  0.52435857  0.84879182  1
  S2-  S182  1  0.68617978  0.71284010  0.31402083  1
  S2-  S183  1  0.71953957  0.75629555  0.85066972  1
  S2-  S184  1  0.81629668  0.03486642  0.32861033  1
  S2-  S185  1  0.87151164  -0.06939781  0.84457352  1
  S2-  S186  1  0.90347848  0.26454319  0.34228311  1
  S2-  S187  1  0.88423007  0.37645315  0.85682959  1
  S2-  S188  1  0.88472846  0.51098911  0.34236614  1
  S2-  S189  1  0.89277582  0.60241765  0.84553930  1
  S2-  S190  1  0.87189728  0.82584436  0.35935358  1
  S2-  S191  1  0.90731048  0.76204713  0.77452163  1
  S2-  S192  1  -0.00789147  0.12420200  0.44758927  1
  S2-  S193  1  0.01422799  0.13294022  0.94588682  1
  S2-  S194  1  -0.00602503  0.36458080  0.44963427  1
  S2-  S195  1  0.01776492  0.38103670  0.95849255  1
  S2-  S196  1  -0.00749977  0.62026569  0.45395602  1
  S2-  S197  1  0.01456031  0.62994529  0.96030188  1
  S2-  S198  1  -0.00466671  0.86358652  0.46552171  1
  S2-  S199  1  0.01530431  0.88778143  0.95619111  1
  S2-  S200  1  0.24083861  0.11313539  0.46706630  1
  S2-  S201  1  0.27425486  0.14029905  0.95263556  1
  S2-  S202  1  0.24081713  0.36829443  0.46078745  1
  S2-  S203  1  0.26465152  0.38355133  0.95581641  1
  S2-  S204  1  0.24057360  0.61837525  0.45540600  1
  S2-  S205  1  0.25916992  0.63305233  0.95630171  1
  S2-  S206  1  0.24193071  0.86824677  0.44644791  1
  S2-  S207  1  0.26510927  0.87393806  0.95474642  1
  S2-  S208  1  0.48918976  0.11405226  0.47000569  1
  S2-  S209  1  0.51512235  0.12997191  0.94544856  1
  S2-  S210  1  0.49099790  0.37312233  0.45908061  1
  S2-  S211  1  0.51555967  0.38071758  0.95215030  1
  S2-  S212  1  0.49554471  0.61414787  0.44724341  1
  S2-  S213  1  0.52038677  0.63706121  0.96283771  1
  S2-  S214  1  0.48927777  0.86625189  0.45555395  1
  S2-  S215  1  0.51802256  0.87913625  0.95702035  1
  S2-  S216  1  0.74159907  0.11676388  0.44731422  1
  S2-  S217  1  0.76656231  0.13180413  0.94368315  1
  S2-  S218  1  0.74341422  0.36955199  0.45739599  1
  S2-  S219  1  0.76144038  0.37731055  0.95760962  1
  S2-  S220  1  0.74128724  0.61952805  0.44709830  1
  S2-  S221  1  0.76612950  0.63405879  0.95649863  1
  S2-  S222  1  0.73831203  0.86355400  0.45749913  1
  S2-  S223  1  0.76981780  0.88195973  0.95407965  1
  S2-  S224  1  0.14407567  0.00885733  0.04115810  1
  S2-  S225  1  0.11811111  -0.01289777  0.54761080  1
  S2-  S226  1  0.13918576  0.25833199  0.05192219  1
  S2-  S227  1  0.11626732  0.24020050  0.54232992  1
  S2-  S228  1  0.14119136  0.51072129  0.05428798  1
  S2-  S229  1  0.11575595  0.49385053  0.54704635  1
  S2-  S230  1  0.13984498  0.76036544  0.05023156  1
  S2-  S231  1  0.12161880  0.74651097  0.55194869  1
  S2-  S232  1  0.39309448  0.00465845  0.04660542  1
  S2-  S233  1  0.36680821  -0.01520393  0.55190326  1
  S2-  S234  1  0.39356131  0.26316510  0.04836462  1
  S2-  S235  1  0.37099136  0.24233636  0.54695630  1
  S2-  S236  1  0.38995215  0.51213567  0.04914636  1
  S2-  S237  1  0.36548420  0.49262908  0.54123180  1
  S2-  S238  1  0.38780827  0.75823288  0.04154809  1
  S2-  S239  1  0.36545980  0.73764376  0.53767093  1
  S2-  S240  1  0.64097908  0.01213516  0.04388519  1
  S2-  S241  1  0.61660181  -0.01129874  0.54756937  1
  S2-  S242  1  0.64278856  0.25657815  0.04241794  1
  S2-  S243  1  0.62407084  0.25096974  0.54527497  1
  S2-  S244  1  0.64000146  0.50444155  0.05367862  1
  S2-  S245  1  0.62229666  0.49208461  0.53546783  1
  S2-  S246  1  0.64307143  0.75829771  0.04385861  1
  S2-  S247  1  0.61303613  0.73961559  0.53563815  1
  S2-  S248  1  0.89038630  0.01336012  0.03523169  1
  S2-  S249  1  0.86463326  -0.00708941  0.53249865  1
  S2-  S250  1  0.89172112  0.25194026  0.03555321  1
  S2-  S251  1  0.86590452  0.24514031  0.54311990  1
  S2-  S252  1  0.89046109  0.50224326  0.04067251  1
  S2-  S253  1  0.87313911  0.49425908  0.54283072  1
  S2-  S254  1  0.89477258  0.76181881  0.04667048  1
  S2-  S255  1  0.86992212  0.74400850  0.54664633  1
