# generated using pymatgen
data_La6Ce7Pr13Nd19Sm19(BiS2)64
_symmetry_space_group_name_H-M   'P 1'
_cell_length_a   16.14776794
_cell_length_b   16.14054189
_cell_length_c   27.24624884
_cell_angle_alpha   90.13932021
_cell_angle_beta   90.00152030
_cell_angle_gamma   90.00639293
_symmetry_Int_Tables_number   1
_chemical_formula_structural   La6Ce7Pr13Nd19Sm19(BiS2)64
_chemical_formula_sum   'La6 Ce7 Pr13 Nd19 Sm19 Bi64 S128'
_cell_volume   7101.27028148
_cell_formula_units_Z   1
loop_
 _symmetry_equiv_pos_site_id
 _symmetry_equiv_pos_as_xyz
  1  'x, y, z'
loop_
 _atom_type_symbol
 _atom_type_oxidation_number
  La3+  3.0
  Ce3+  3.0
  Pr3+  3.0
  Nd3+  3.0
  Sm3+  3.0
  Bi2+  2.0
  S2-  -2.0
loop_
 _atom_site_type_symbol
 _atom_site_label
 _atom_site_symmetry_multiplicity
 _atom_site_fract_x
 _atom_site_fract_y
 _atom_site_fract_z
 _atom_site_occupancy
  La3+  La0  1  0.11656063  0.48584549  0.41206963  1
  La3+  La1  1  0.49545461  0.38513616  0.06716370  1
  La3+  La2  1  0.37472329  -0.00889683  0.43432500  1
  La3+  La3  1  0.75163466  0.38953417  0.07565527  1
  La3+  La4  1  0.13027150  0.26233237  0.88556039  1
  La3+  La5  1  0.87249862  -0.00266257  0.44158494  1
  Ce3+  Ce6  1  0.62792226  0.25964047  0.93987898  1
  Ce3+  Ce7  1  0.24653157  0.38552050  0.06405353  1
  Ce3+  Ce8  1  -0.00471409  0.12057938  0.57059965  1
  Ce3+  Ce9  1  0.49498901  0.63527939  0.06244789  1
  Ce3+  Ce10  1  0.00177988  0.37125657  0.56498319  1
  Ce3+  Ce11  1  0.74666790  0.62163216  0.55741162  1
  Ce3+  Ce12  1  0.24950829  0.12071271  0.56401252  1
  Pr3+  Pr13  1  0.49776162  0.12172752  0.55688842  1
  Pr3+  Pr14  1  0.12253765  0.75702048  0.93455502  1
  Pr3+  Pr15  1  0.74624469  0.12326105  0.56125862  1
  Pr3+  Pr16  1  0.23677350  0.64852776  0.09913530  1
  Pr3+  Pr17  1  0.37187962  0.24161394  0.43335834  1
  Pr3+  Pr18  1  0.12229607  0.23966017  0.43980785  1
  Pr3+  Pr19  1  0.75066211  0.63730993  0.06868976  1
  Pr3+  Pr20  1  0.00115289  0.61974877  0.55484553  1
  Pr3+  Pr21  1  0.37344245  0.00719011  0.93835311  1
  Pr3+  Pr22  1  0.36919434  0.50657319  0.94706633  1
  Pr3+  Pr23  1  0.12323362  0.74431585  0.43363695  1
  Pr3+  Pr24  1  0.25004358  0.86905770  0.56024505  1
  Pr3+  Pr25  1  0.49667353  0.88574100  0.06219898  1
  Nd3+  Nd26  1  0.62449730  0.50846759  0.94603315  1
  Nd3+  Nd27  1  0.87201981  0.75823562  0.93891963  1
  Nd3+  Nd28  1  0.37021379  0.75632316  0.94536492  1
  Nd3+  Nd29  1  0.87269989  0.26303949  0.93147304  1
  Nd3+  Nd30  1  0.24810488  0.61901859  0.55088954  1
  Nd3+  Nd31  1  0.25055678  0.37031557  0.55975400  1
  Nd3+  Nd32  1  0.00273178  0.38410380  0.06223234  1
  Nd3+  Nd33  1  0.87335417  0.01014122  0.94188934  1
  Nd3+  Nd34  1  0.62437646  0.49390694  0.43667017  1
  Nd3+  Nd35  1  0.12176985  -0.00335691  0.43969079  1
  Nd3+  Nd36  1  0.37172176  0.49137221  0.43031269  1
  Nd3+  Nd37  1  -0.00084602  0.86938438  0.55962419  1
  Nd3+  Nd38  1  0.87385313  0.24653236  0.44656922  1
  Nd3+  Nd39  1  0.37061775  0.25814136  0.93970743  1
  Nd3+  Nd40  1  0.62274627  0.74325643  0.43937311  1
  Nd3+  Nd41  1  -0.00247274  0.13642724  0.06033257  1
  Nd3+  Nd42  1  0.87393083  0.74343754  0.43995688  1
  Nd3+  Nd43  1  0.74728395  0.37356738  0.56316468  1
  Nd3+  Nd44  1  0.87399448  0.50632914  0.94267048  1
  Sm3+  Sm45  1  0.62353090  0.00797313  0.94757331  1
  Sm3+  Sm46  1  0.62346670  0.24561426  0.43798445  1
  Sm3+  Sm47  1  0.62336436  0.75752683  0.95061327  1
  Sm3+  Sm48  1  0.49749989  0.61868714  0.54994993  1
  Sm3+  Sm49  1  0.74870533  0.13651540  0.05863732  1
  Sm3+  Sm50  1  0.49677669  0.37108731  0.54932878  1
  Sm3+  Sm51  1  0.74736000  0.86839569  0.55476421  1
  Sm3+  Sm52  1  0.24658324  0.88668283  0.05841348  1
  Sm3+  Sm53  1  0.74976630  0.88473934  0.05857731  1
  Sm3+  Sm54  1  0.62244153  -0.00720009  0.44640105  1
  Sm3+  Sm55  1  0.37120360  0.74218998  0.43972219  1
  Sm3+  Sm56  1  0.12378663  0.50271446  0.94339221  1
  Sm3+  Sm57  1  0.24684749  0.13611699  0.05654591  1
  Sm3+  Sm58  1  0.87258295  0.49301818  0.44584635  1
  Sm3+  Sm59  1  -0.00149801  0.88516008  0.05189097  1
  Sm3+  Sm60  1  0.12125976  0.01417822  0.94122095  1
  Sm3+  Sm61  1  0.49805471  0.86839390  0.56062413  1
  Sm3+  Sm62  1  0.00193644  0.63611710  0.05778480  1
  Sm3+  Sm63  1  0.49757615  0.13436314  0.05590026  1
  Bi2+  Bi64  1  -0.02839751  0.09596369  0.30572829  1
  Bi2+  Bi65  1  -0.04142929  0.10656236  0.77400609  1
  Bi2+  Bi66  1  -0.02935405  0.34069265  0.28781738  1
  Bi2+  Bi67  1  -0.00991314  0.37748375  0.78868979  1
  Bi2+  Bi68  1  -0.00782781  0.67673226  0.26705840  1
  Bi2+  Bi69  1  -0.02473418  0.62672223  0.76098418  1
  Bi2+  Bi70  1  0.03397867  0.90949373  0.31098219  1
  Bi2+  Bi71  1  -0.01009277  0.84428145  0.80616409  1
  Bi2+  Bi72  1  0.21989395  0.12943123  0.28332836  1
  Bi2+  Bi73  1  0.26786029  0.11316382  0.78388445  1
  Bi2+  Bi74  1  0.24398003  0.38246480  0.29728652  1
  Bi2+  Bi75  1  0.25688543  0.39554596  0.79133504  1
  Bi2+  Bi76  1  0.25830874  0.63375261  0.29915372  1
  Bi2+  Bi77  1  0.27604375  0.61408838  0.78774102  1
  Bi2+  Bi78  1  0.25877670  0.93419333  0.30048503  1
  Bi2+  Bi79  1  0.24697321  0.83661801  0.78500635  1
  Bi2+  Bi80  1  0.47844515  0.08751676  0.24713211  1
  Bi2+  Bi81  1  0.52780781  0.16194906  0.80434785  1
  Bi2+  Bi82  1  0.51552252  0.34193710  0.29529848  1
  Bi2+  Bi83  1  0.51880489  0.35248431  0.76824436  1
  Bi2+  Bi84  1  0.54846750  0.64455287  0.25598583  1
  Bi2+  Bi85  1  0.46405762  0.66455954  0.78092187  1
  Bi2+  Bi86  1  0.51495228  0.89120610  0.31493552  1
  Bi2+  Bi87  1  0.52310685  0.85683399  0.79843026  1
  Bi2+  Bi88  1  0.77044776  0.11620009  0.26221648  1
  Bi2+  Bi89  1  0.72052151  0.12186029  0.79068396  1
  Bi2+  Bi90  1  0.76939666  0.42674084  0.29744084  1
  Bi2+  Bi91  1  0.73472782  0.38271274  0.79602297  1
  Bi2+  Bi92  1  0.73785289  0.63391613  0.29282540  1
  Bi2+  Bi93  1  0.70229820  0.61204107  0.78950189  1
  Bi2+  Bi94  1  0.78125104  0.83504025  0.28683477  1
  Bi2+  Bi95  1  0.74189604  0.84503590  0.79125848  1
  Bi2+  Bi96  1  0.09584757  0.00384632  0.21496175  1
  Bi2+  Bi97  1  0.11858208  -0.01865970  0.77055831  1
  Bi2+  Bi98  1  0.10880550  0.25787560  0.22486112  1
  Bi2+  Bi99  1  0.12621329  0.24363003  0.68200438  1
  Bi2+  Bi100  1  0.11894678  0.50574682  0.20051158  1
  Bi2+  Bi101  1  0.14101341  0.54895067  0.71731255  1
  Bi2+  Bi102  1  0.14829811  0.81566756  0.23083671  1
  Bi2+  Bi103  1  0.11754089  0.74948007  0.68489424  1
  Bi2+  Bi104  1  0.35125701  -0.03784398  0.19572819  1
  Bi2+  Bi105  1  0.44495931  0.01191900  0.74083542  1
  Bi2+  Bi106  1  0.34545760  0.21780701  0.20569627  1
  Bi2+  Bi107  1  0.37376807  0.25703258  0.68865716  1
  Bi2+  Bi108  1  0.38825411  0.48110726  0.20792084  1
  Bi2+  Bi109  1  0.42346217  0.50917458  0.71169637  1
  Bi2+  Bi110  1  0.41148575  0.79046215  0.24135333  1
  Bi2+  Bi111  1  0.35201872  0.76734058  0.69492952  1
  Bi2+  Bi112  1  0.63976581  -0.02946963  0.24034122  1
  Bi2+  Bi113  1  0.62257495  -0.06099003  0.70982290  1
  Bi2+  Bi114  1  0.62908669  0.22449004  0.21786481  1
  Bi2+  Bi115  1  0.61977004  0.21556939  0.70729060  1
  Bi2+  Bi116  1  0.63651010  0.47983935  0.20209659  1
  Bi2+  Bi117  1  0.61822071  0.50375451  0.70478834  1
  Bi2+  Bi118  1  0.68807377  0.74372756  0.19473371  1
  Bi2+  Bi119  1  0.61186895  0.73510700  0.71147872  1
  Bi2+  Bi120  1  0.90168839  -0.04322883  0.21198210  1
  Bi2+  Bi121  1  0.83507591  -0.02002051  0.72507831  1
  Bi2+  Bi122  1  0.87879310  0.24361612  0.20293983  1
  Bi2+  Bi123  1  0.86626173  0.23750868  0.69578236  1
  Bi2+  Bi124  1  0.88350753  0.52787235  0.22559767  1
  Bi2+  Bi125  1  0.83378907  0.50400251  0.72566780  1
  Bi2+  Bi126  1  0.88236762  0.75795048  0.18921114  1
  Bi2+  Bi127  1  0.87389153  0.78014438  0.71203907  1
  S2-  S128  1  0.01162246  0.16802995  0.15898552  1
  S2-  S129  1  0.01775747  0.11300848  0.66775739  1
  S2-  S130  1  -0.00719262  0.43152674  0.15941620  1
  S2-  S131  1  -0.00775211  0.35406660  0.66292306  1
  S2-  S132  1  0.07892488  0.63583299  0.14611246  1
  S2-  S133  1  0.01098466  0.60839366  0.65446669  1
  S2-  S134  1  0.00543621  0.87322078  0.14872548  1
  S2-  S135  1  0.00377040  0.85954533  0.65873896  1
  S2-  S136  1  0.26590712  0.10739914  0.15294712  1
  S2-  S137  1  0.25564271  0.12752461  0.66243355  1
  S2-  S138  1  0.27940272  0.37360330  0.16112301  1
  S2-  S139  1  0.24793719  0.36608962  0.65955232  1
  S2-  S140  1  0.27822777  0.59805252  0.19486622  1
  S2-  S141  1  0.25060004  0.63520936  0.64936321  1
  S2-  S142  1  0.23734595  0.80580406  0.14433130  1
  S2-  S143  1  0.22721858  0.87380898  0.65960936  1
  S2-  S144  1  0.50036497  0.15492192  0.15280318  1
  S2-  S145  1  0.48887612  0.13237313  0.65659209  1
  S2-  S146  1  0.50636936  0.37777968  0.16774061  1
  S2-  S147  1  0.46904839  0.36848390  0.64542511  1
  S2-  S148  1  0.49764938  0.59546191  0.15765465  1
  S2-  S149  1  0.50642786  0.62409879  0.64765744  1
  S2-  S150  1  0.48496165  0.87590899  0.16135809  1
  S2-  S151  1  0.45286552  0.88049068  0.65445774  1
  S2-  S152  1  0.76561298  0.13307872  0.15569597  1
  S2-  S153  1  0.79686398  0.10236872  0.65604429  1
  S2-  S154  1  0.72155030  0.33639226  0.17147588  1
  S2-  S155  1  0.74136290  0.31925937  0.65727095  1
  S2-  S156  1  0.76508513  0.53032243  0.14731592  1
  S2-  S157  1  0.75100681  0.58115465  0.65118324  1
  S2-  S158  1  0.72886450  0.90453521  0.15431433  1
  S2-  S159  1  0.73506486  0.83394136  0.64957050  1
  S2-  S160  1  0.11587434  0.11319447  0.36537047  1
  S2-  S161  1  0.13591488  0.08999031  0.85396515  1
  S2-  S162  1  0.12117679  0.33701647  0.35524826  1
  S2-  S163  1  0.13004293  0.27633151  0.77630046  1
  S2-  S164  1  0.13848858  0.51879359  0.31052707  1
  S2-  S165  1  0.11826561  0.43772029  0.85209172  1
  S2-  S166  1  0.12176901  0.72154353  0.33461165  1
  S2-  S167  1  0.12710371  0.74674342  0.83457574  1
  S2-  S168  1  0.35995262  0.05802754  0.34280661  1
  S2-  S169  1  0.36645200  0.02771063  0.83824650  1
  S2-  S170  1  0.37561389  0.28601077  0.33647219  1
  S2-  S171  1  0.29964966  0.25965251  0.84875906  1
  S2-  S172  1  0.36228502  0.50844657  0.33089336  1
  S2-  S173  1  0.35733910  0.49030580  0.84683902  1
  S2-  S174  1  0.35533908  0.75565002  0.34327680  1
  S2-  S175  1  0.38145999  0.79583797  0.84989776  1
  S2-  S176  1  0.62362293  0.00106227  0.34929286  1
  S2-  S177  1  0.62496349  0.02582146  0.85038371  1
  S2-  S178  1  0.61557310  0.24112469  0.34003092  1
  S2-  S179  1  0.73816180  0.25944128  0.86280078  1
  S2-  S180  1  0.61031670  0.46878343  0.33922782  1
  S2-  S181  1  0.62590545  0.49183505  0.84760831  1
  S2-  S182  1  0.60161601  0.74031973  0.34166169  1
  S2-  S183  1  0.64708346  0.74711377  0.85456168  1
  S2-  S184  1  0.86649078  -0.03871056  0.34404185  1
  S2-  S185  1  0.90456146  -0.00623852  0.84453608  1
  S2-  S186  1  0.88545804  0.22338099  0.34902097  1
  S2-  S187  1  0.96463839  0.24764878  0.84613888  1
  S2-  S188  1  0.91319641  0.47146165  0.35241758  1
  S2-  S189  1  0.87285895  0.44887050  0.84933374  1
  S2-  S190  1  0.87486370  0.71443518  0.34250997  1
  S2-  S191  1  0.89986096  0.71306905  0.84537777  1
  S2-  S192  1  -0.00537814  0.11979714  0.46385929  1
  S2-  S193  1  -0.00371881  0.13310329  0.95513643  1
  S2-  S194  1  -0.00308241  0.37008064  0.45851579  1
  S2-  S195  1  -0.00121575  0.38261665  0.95710802  1
  S2-  S196  1  -0.00095236  0.61595473  0.44758949  1
  S2-  S197  1  0.00047909  0.62963549  0.95261881  1
  S2-  S198  1  -0.00165894  0.86902359  0.45286444  1
  S2-  S199  1  -0.00063616  0.88545761  0.94848772  1
  S2-  S200  1  0.25179079  0.11700091  0.45797676  1
  S2-  S201  1  0.24913436  0.13236463  0.95445085  1
  S2-  S202  1  0.24924116  0.37030329  0.45235007  1
  S2-  S203  1  0.24489555  0.37920804  0.95744694  1
  S2-  S204  1  0.24643618  0.61557827  0.44416051  1
  S2-  S205  1  0.24494305  0.63131497  0.94535163  1
  S2-  S206  1  0.24740862  0.86865794  0.45148696  1
  S2-  S207  1  0.24457062  0.88621772  0.95235069  1
  S2-  S208  1  0.50231790  0.12021541  0.44968013  1
  S2-  S209  1  0.49940808  0.13378899  0.95172692  1
  S2-  S210  1  0.49903219  0.36890870  0.44571388  1
  S2-  S211  1  0.49789121  0.38234132  0.95618186  1
  S2-  S212  1  0.49622939  0.61863263  0.44456679  1
  S2-  S213  1  0.49779280  0.63410074  0.95390786  1
  S2-  S214  1  0.49833670  0.86619805  0.45486543  1
  S2-  S215  1  0.50015423  0.88228557  0.95511625  1
  S2-  S216  1  0.74400124  0.12131902  0.45325850  1
  S2-  S217  1  0.74834625  0.12979134  0.95582081  1
  S2-  S218  1  0.74738119  0.36971299  0.45437346  1
  S2-  S219  1  0.74871513  0.38653694  0.96495904  1
  S2-  S220  1  0.74922837  0.61806658  0.44988317  1
  S2-  S221  1  0.74946730  0.63376969  0.95935381  1
  S2-  S222  1  0.74632332  0.86793602  0.44982722  1
  S2-  S223  1  0.74735084  0.88332753  0.95321160  1
  S2-  S224  1  0.12283048  0.00957077  0.04805254  1
  S2-  S225  1  0.12293333  -0.00508489  0.54771623  1
  S2-  S226  1  0.12471007  0.25753601  0.05702366  1
  S2-  S227  1  0.12455280  0.24481731  0.54859607  1
  S2-  S228  1  0.12656460  0.51304322  0.04778182  1
  S2-  S229  1  0.12573518  0.49392172  0.54437218  1
  S2-  S230  1  0.12218718  0.76274850  0.04088756  1
  S2-  S231  1  0.12459875  0.74546102  0.54131437  1
  S2-  S232  1  0.37170962  0.01077564  0.04556416  1
  S2-  S233  1  0.37582739  -0.00639948  0.54503961  1
  S2-  S234  1  0.37266205  0.25639454  0.04733578  1
  S2-  S235  1  0.37375376  0.24624104  0.54129100  1
  S2-  S236  1  0.36630865  0.51516751  0.05408566  1
  S2-  S237  1  0.37454372  0.49582254  0.53967240  1
  S2-  S238  1  0.36932801  0.75925938  0.05078794  1
  S2-  S239  1  0.37584274  0.74346660  0.54432731  1
  S2-  S240  1  0.62468190  0.01102587  0.05232463  1
  S2-  S241  1  0.62304452  -0.00798422  0.55178079  1
  S2-  S242  1  0.62319137  0.25764541  0.04927949  1
  S2-  S243  1  0.62195943  0.24945021  0.54458060  1
  S2-  S244  1  0.62144478  0.51173114  0.05149405  1
  S2-  S245  1  0.62054092  0.49456647  0.54357689  1
  S2-  S246  1  0.62368232  0.76083199  0.05448936  1
  S2-  S247  1  0.62035478  0.74528206  0.54594878  1
  S2-  S248  1  0.87258069  0.00862175  0.04922280  1
  S2-  S249  1  0.87102760  -0.00836655  0.55024202  1
  S2-  S250  1  0.87330175  0.26045617  0.04814847  1
  S2-  S251  1  0.87222831  0.24809867  0.55179260  1
  S2-  S252  1  0.88156177  0.51328295  0.04822651  1
  S2-  S253  1  0.87362276  0.49512866  0.55075599  1
  S2-  S254  1  0.87580008  0.76063054  0.04596724  1
  S2-  S255  1  0.87316131  0.74576743  0.54659261  1
