# generated using pymatgen
data_La6Ce7Pr13Nd19Sm19(BiS2)64
_symmetry_space_group_name_H-M   'P 1'
_cell_length_a   16.11101724
_cell_length_b   16.09576921
_cell_length_c   27.20217757
_cell_angle_alpha   90.01794202
_cell_angle_beta   89.99930231
_cell_angle_gamma   89.97671107
_symmetry_Int_Tables_number   1
_chemical_formula_structural   La6Ce7Pr13Nd19Sm19(BiS2)64
_chemical_formula_sum   'La6 Ce7 Pr13 Nd19 Sm19 Bi64 S128'
_cell_volume   7054.04641085
_cell_formula_units_Z   1
loop_
 _symmetry_equiv_pos_site_id
 _symmetry_equiv_pos_as_xyz
  1  'x, y, z'
loop_
 _atom_type_symbol
 _atom_type_oxidation_number
  La3+  3.0
  Ce3+  3.0
  Pr3+  3.0
  Nd3+  3.0
  Sm3+  3.0
  Bi2+  2.0
  S2-  -2.0
loop_
 _atom_site_type_symbol
 _atom_site_label
 _atom_site_symmetry_multiplicity
 _atom_site_fract_x
 _atom_site_fract_y
 _atom_site_fract_z
 _atom_site_occupancy
  La3+  La0  1  0.21902776  0.12675601  0.60781969  1
  La3+  La1  1  0.49833369  0.37281660  0.07337750  1
  La3+  La2  1  0.36572973  0.25632974  0.89734118  1
  La3+  La3  1  0.87702558  0.51442402  0.92222691  1
  La3+  La4  1  0.87993570  0.74461007  0.38867020  1
  La3+  La5  1  0.73571090  0.88740724  0.09577096  1
  Ce3+  Ce6  1  0.62086084  0.75616924  0.94383479  1
  Ce3+  Ce7  1  0.49754098  0.62854148  0.05944188  1
  Ce3+  Ce8  1  0.12793423  0.24921829  0.43972275  1
  Ce3+  Ce9  1  -0.00619949  0.62778688  0.06678714  1
  Ce3+  Ce10  1  -0.00383639  0.62551509  0.55894073  1
  Ce3+  Ce11  1  0.49656863  0.87199126  0.56421018  1
  Ce3+  Ce12  1  0.87000021  0.00202101  0.94736161  1
  Pr3+  Pr13  1  0.00296819  0.88136425  0.07345836  1
  Pr3+  Pr14  1  0.61990762  0.51146716  0.93340749  1
  Pr3+  Pr15  1  0.62124174  0.00008894  0.43688243  1
  Pr3+  Pr16  1  0.74667387  0.13411798  0.06144556  1
  Pr3+  Pr17  1  0.25024620  0.37910962  0.56612729  1
  Pr3+  Pr18  1  0.76737114  0.38037142  0.61107961  1
  Pr3+  Pr19  1  0.87029426  0.25689143  0.93280415  1
  Pr3+  Pr20  1  0.12547818  -0.00410003  0.43323628  1
  Pr3+  Pr21  1  0.50184469  0.38257717  0.58021604  1
  Pr3+  Pr22  1  0.38110110  0.49685025  0.43469661  1
  Pr3+  Pr23  1  -0.00479930  0.37926354  0.06505307  1
  Pr3+  Pr24  1  0.12909544  0.74759169  0.43210833  1
  Pr3+  Pr25  1  0.36276656  -0.00621749  0.92370065  1
  Nd3+  Nd26  1  0.87008412  0.25021378  0.43215531  1
  Nd3+  Nd27  1  -0.00240072  0.37052678  0.55698460  1
  Nd3+  Nd28  1  0.37487267  0.24768365  0.45658728  1
  Nd3+  Nd29  1  0.86723780  0.00692300  0.42525566  1
  Nd3+  Nd30  1  0.74736433  0.38392465  0.08019139  1
  Nd3+  Nd31  1  0.12412214  0.50336905  0.94950701  1
  Nd3+  Nd32  1  0.12342955  0.25821270  0.93758315  1
  Nd3+  Nd33  1  0.74993383  0.12003513  0.56723337  1
  Nd3+  Nd34  1  0.49636093  0.11606546  0.57779548  1
  Nd3+  Nd35  1  0.24999904  0.62547773  0.56518937  1
  Nd3+  Nd36  1  0.62000854  0.00738282  0.93812391  1
  Nd3+  Nd37  1  0.74613703  0.63073520  0.06119181  1
  Nd3+  Nd38  1  0.50077513  0.62737925  0.56022385  1
  Nd3+  Nd39  1  0.12250102  0.50028851  0.44075405  1
  Nd3+  Nd40  1  0.37696279  0.74940867  0.43127220  1
  Nd3+  Nd41  1  0.24911514  0.88197107  0.07015843  1
  Nd3+  Nd42  1  0.62013987  0.26123228  0.93137573  1
  Nd3+  Nd43  1  0.49272221  0.88396744  0.06479408  1
  Nd3+  Nd44  1  0.49500684  0.13303139  0.04855657  1
  Sm3+  Sm45  1  0.75230381  0.62286659  0.56383596  1
  Sm3+  Sm46  1  0.12168502  0.00368217  0.94314935  1
  Sm3+  Sm47  1  0.25222108  0.37428782  0.06916832  1
  Sm3+  Sm48  1  0.62368425  0.25155293  0.45543079  1
  Sm3+  Sm49  1  -0.00201093  0.87332641  0.54800511  1
  Sm3+  Sm50  1  0.87109360  0.50037588  0.44180374  1
  Sm3+  Sm51  1  0.62719980  0.49822987  0.45063453  1
  Sm3+  Sm52  1  0.24923425  0.13212717  0.05068886  1
  Sm3+  Sm53  1  0.37111095  0.50048073  0.94193498  1
  Sm3+  Sm54  1  0.12250962  0.75467867  0.94784311  1
  Sm3+  Sm55  1  -0.00470788  0.13094253  0.05282607  1
  Sm3+  Sm56  1  0.87309065  0.75662258  0.94820112  1
  Sm3+  Sm57  1  0.37031380  0.75731622  0.94479931  1
  Sm3+  Sm58  1  0.37551655  0.00089446  0.44955135  1
  Sm3+  Sm59  1  0.24910517  0.62706732  0.05826096  1
  Sm3+  Sm60  1  0.24775965  0.87452905  0.56146052  1
  Sm3+  Sm61  1  0.63063267  0.74984779  0.44546920  1
  Sm3+  Sm62  1  0.75193414  0.87815495  0.55711919  1
  Sm3+  Sm63  1  -0.00402008  0.12188365  0.54966481  1
  Bi2+  Bi64  1  0.05191564  0.15709481  0.23971218  1
  Bi2+  Bi65  1  0.02336812  0.07633511  0.77831543  1
  Bi2+  Bi66  1  0.02992116  0.39424525  0.29545608  1
  Bi2+  Bi67  1  0.01388437  0.37629800  0.78971427  1
  Bi2+  Bi68  1  0.03526745  0.61489944  0.27260770  1
  Bi2+  Bi69  1  0.00269715  0.68997963  0.78512956  1
  Bi2+  Bi70  1  0.01444588  0.86774916  0.27943232  1
  Bi2+  Bi71  1  -0.02519528  0.88397764  0.80239432  1
  Bi2+  Bi72  1  0.23225706  0.16549605  0.29106616  1
  Bi2+  Bi73  1  0.21973024  0.10574922  0.79682844  1
  Bi2+  Bi74  1  0.25274483  0.36318455  0.26560645  1
  Bi2+  Bi75  1  0.20826409  0.42110065  0.79900319  1
  Bi2+  Bi76  1  0.28377598  0.63953827  0.28143103  1
  Bi2+  Bi77  1  0.27993596  0.64254631  0.79067723  1
  Bi2+  Bi78  1  0.27600766  0.89153123  0.29426707  1
  Bi2+  Bi79  1  0.24912707  0.83863590  0.79354459  1
  Bi2+  Bi80  1  0.42994480  0.11028083  0.28355252  1
  Bi2+  Bi81  1  0.50453781  0.11869596  0.78250860  1
  Bi2+  Bi82  1  0.49223203  0.35705796  0.31928334  1
  Bi2+  Bi83  1  0.49327507  0.41382958  0.78196747  1
  Bi2+  Bi84  1  0.47340018  0.65688129  0.30342301  1
  Bi2+  Bi85  1  0.47991960  0.64294549  0.79285153  1
  Bi2+  Bi86  1  0.49626708  0.84958717  0.29622724  1
  Bi2+  Bi87  1  0.50245579  0.83651085  0.78045811  1
  Bi2+  Bi88  1  0.72585682  0.15845225  0.29878262  1
  Bi2+  Bi89  1  0.74326410  0.09353202  0.79656044  1
  Bi2+  Bi90  1  0.83914249  0.34150132  0.30747194  1
  Bi2+  Bi91  1  0.74192055  0.34780889  0.80574787  1
  Bi2+  Bi92  1  0.71315442  0.59423360  0.30155776  1
  Bi2+  Bi93  1  0.75915600  0.67538938  0.78817484  1
  Bi2+  Bi94  1  0.74229385  0.87630617  0.29508442  1
  Bi2+  Bi95  1  0.76876563  0.87073941  0.78770419  1
  Bi2+  Bi96  1  0.19781309  0.03491089  0.20431245  1
  Bi2+  Bi97  1  0.11453947  -0.09408313  0.71507918  1
  Bi2+  Bi98  1  0.10408737  0.32854089  0.18382432  1
  Bi2+  Bi99  1  0.08254665  0.23785919  0.71614613  1
  Bi2+  Bi100  1  0.16020157  0.50943712  0.20501216  1
  Bi2+  Bi101  1  0.13958037  0.55269751  0.71715325  1
  Bi2+  Bi102  1  0.18615649  0.77387260  0.21470598  1
  Bi2+  Bi103  1  0.19928475  0.73136735  0.68128528  1
  Bi2+  Bi104  1  0.37291288  -0.02864098  0.16585749  1
  Bi2+  Bi105  1  0.37711975  -0.08410543  0.70686474  1
  Bi2+  Bi106  1  0.37376492  0.24126613  0.20481808  1
  Bi2+  Bi107  1  0.35346185  0.27231493  0.70259397  1
  Bi2+  Bi108  1  0.40441531  0.51446025  0.21260747  1
  Bi2+  Bi109  1  0.37660538  0.53573114  0.71116616  1
  Bi2+  Bi110  1  0.38085694  0.78552810  0.20614775  1
  Bi2+  Bi111  1  0.39305746  0.74051354  0.65683486  1
  Bi2+  Bi112  1  0.54238892  -0.00643290  0.21851755  1
  Bi2+  Bi113  1  0.64554013  -0.03629217  0.71123881  1
  Bi2+  Bi114  1  0.61682779  0.25961880  0.20822728  1
  Bi2+  Bi115  1  0.62700489  0.23269082  0.70089346  1
  Bi2+  Bi116  1  0.68886677  0.43046609  0.24244549  1
  Bi2+  Bi117  1  0.62858778  0.60091498  0.71202373  1
  Bi2+  Bi118  1  0.60463341  0.69962437  0.21938829  1
  Bi2+  Bi119  1  0.59613476  0.78038816  0.68052711  1
  Bi2+  Bi120  1  0.85427633  0.01480403  0.20699347  1
  Bi2+  Bi121  1  0.89132296  -0.00406251  0.70625569  1
  Bi2+  Bi122  1  0.88778634  0.26398271  0.20154684  1
  Bi2+  Bi123  1  0.88930115  0.24360597  0.72663546  1
  Bi2+  Bi124  1  0.88131461  0.49164308  0.23301214  1
  Bi2+  Bi125  1  0.89871639  0.50111961  0.71683638  1
  Bi2+  Bi126  1  0.86963017  0.73319432  0.18596459  1
  Bi2+  Bi127  1  0.87642892  0.77033610  0.71028521  1
  S2-  S128  1  -0.02997191  0.11825615  0.15025957  1
  S2-  S129  1  0.05153890  0.11968716  0.64304142  1
  S2-  S130  1  -0.11295532  0.41297656  0.14334042  1
  S2-  S131  1  -0.06797363  0.37309931  0.65036913  1
  S2-  S132  1  0.01704897  0.63892382  0.16438409  1
  S2-  S133  1  -0.00288797  0.59407230  0.65744015  1
  S2-  S134  1  -0.05548757  0.89103741  0.16958281  1
  S2-  S135  1  -0.02052923  0.87937950  0.64724198  1
  S2-  S136  1  0.24546439  0.17244094  0.14669217  1
  S2-  S137  1  0.28199525  0.12654411  0.70828959  1
  S2-  S138  1  0.36869785  0.38549146  0.14433125  1
  S2-  S139  1  0.20441052  0.29498370  0.65057320  1
  S2-  S140  1  0.27889725  0.59677562  0.15378503  1
  S2-  S141  1  0.25372158  0.50751309  0.64056512  1
  S2-  S142  1  0.13922578  0.89020420  0.14691487  1
  S2-  S143  1  0.23123286  0.95810612  0.64729910  1
  S2-  S144  1  0.51185278  0.19922179  0.14155112  1
  S2-  S145  1  0.48272812  0.15698772  0.67769476  1
  S2-  S146  1  0.61638735  0.40414818  0.14838603  1
  S2-  S147  1  0.51034320  0.34998122  0.68143018  1
  S2-  S148  1  0.50776256  0.60424614  0.15734503  1
  S2-  S149  1  0.51025853  0.53668908  0.64389539  1
  S2-  S150  1  0.57702390  0.86900307  0.15115976  1
  S2-  S151  1  0.50565190  0.97153077  0.64399918  1
  S2-  S152  1  0.73239678  0.04134765  0.14837720  1
  S2-  S153  1  0.77989314  0.21238002  0.65130891  1
  S2-  S154  1  0.75309974  0.24477736  0.14355657  1
  S2-  S155  1  0.71015293  0.38016824  0.71123802  1
  S2-  S156  1  0.73239536  0.63601394  0.16196133  1
  S2-  S157  1  0.77135642  0.55105673  0.65361070  1
  S2-  S158  1  0.76080560  0.86381481  0.19858803  1
  S2-  S159  1  0.76097465  0.98807231  0.63612777  1
  S2-  S160  1  0.13407880  -0.04404958  0.33437323  1
  S2-  S161  1  0.20316764  -0.02726822  0.85976422  1
  S2-  S162  1  0.10618244  0.25346026  0.34311682  1
  S2-  S163  1  0.20416248  0.25997534  0.84914886  1
  S2-  S164  1  0.11555112  0.52381752  0.34189086  1
  S2-  S165  1  0.08907512  0.50193771  0.85230597  1
  S2-  S166  1  0.04143225  0.73779066  0.34395086  1
  S2-  S167  1  0.12968426  0.74238867  0.84956311  1
  S2-  S168  1  0.40771279  -0.01972018  0.35249672  1
  S2-  S169  1  0.37707189  0.09520371  0.84220121  1
  S2-  S170  1  0.40187078  0.23998473  0.35745843  1
  S2-  S171  1  0.41816700  0.26563886  0.79622441  1
  S2-  S172  1  0.35296182  0.45270304  0.33780060  1
  S2-  S173  1  0.36251765  0.42959038  0.85259105  1
  S2-  S174  1  0.25924556  0.75033730  0.35797866  1
  S2-  S175  1  0.38606505  0.84934008  0.86107960  1
  S2-  S176  1  0.66685795  0.01478882  0.33964053  1
  S2-  S177  1  0.60799877  0.00795133  0.83860814  1
  S2-  S178  1  0.61637394  0.25022001  0.35590271  1
  S2-  S179  1  0.62033373  0.22485863  0.83158414  1
  S2-  S180  1  0.59232320  0.49151421  0.35409897  1
  S2-  S181  1  0.62087585  0.45679852  0.83695319  1
  S2-  S182  1  0.70350133  0.74284383  0.35658647  1
  S2-  S183  1  0.62271276  0.68084680  0.85562404  1
  S2-  S184  1  0.89520700  -0.07803551  0.33945042  1
  S2-  S185  1  0.84929988  -0.00067086  0.85062085  1
  S2-  S186  1  0.86161039  0.14174563  0.35290229  1
  S2-  S187  1  0.85394819  0.21804688  0.83389844  1
  S2-  S188  1  0.85877246  0.57503743  0.35325597  1
  S2-  S189  1  0.86649051  0.46000711  0.82385720  1
  S2-  S190  1  0.87469215  0.75698689  0.28021389  1
  S2-  S191  1  0.88676573  0.66830691  0.86273099  1
  S2-  S192  1  0.00197319  0.12405140  0.44611910  1
  S2-  S193  1  -0.00093546  0.12959875  0.94677123  1
  S2-  S194  1  -0.00363223  0.37475742  0.44999629  1
  S2-  S195  1  -0.00342943  0.38097362  0.95397250  1
  S2-  S196  1  -0.00406008  0.62440299  0.45273170  1
  S2-  S197  1  0.00202346  0.63257799  0.96130561  1
  S2-  S198  1  -0.00259638  0.87092303  0.44579027  1
  S2-  S199  1  -0.00016034  0.87818011  0.95938205  1
  S2-  S200  1  0.25250376  0.12208314  0.44474183  1
  S2-  S201  1  0.24469463  0.13014602  0.94895890  1
  S2-  S202  1  0.25041006  0.37654147  0.45610633  1
  S2-  S203  1  0.24701781  0.37980851  0.96131053  1
  S2-  S204  1  0.25303626  0.61900098  0.45598010  1
  S2-  S205  1  0.24907995  0.62996505  0.95262413  1
  S2-  S206  1  0.25424912  0.87647085  0.45644450  1
  S2-  S207  1  0.24290721  0.87469228  0.96536015  1
  S2-  S208  1  0.50003412  0.12434808  0.46447723  1
  S2-  S209  1  0.49539174  0.13392960  0.94376070  1
  S2-  S210  1  0.50155771  0.37434657  0.46754506  1
  S2-  S211  1  0.49559744  0.38041756  0.95056236  1
  S2-  S212  1  0.50409932  0.62705964  0.45356155  1
  S2-  S213  1  0.48889926  0.63121737  0.95249388  1
  S2-  S214  1  0.50078852  0.87046373  0.45528314  1
  S2-  S215  1  0.49786796  0.88008802  0.95852514  1
  S2-  S216  1  0.74351604  0.12694137  0.45982782  1
  S2-  S217  1  0.74542588  0.13124127  0.95185180  1
  S2-  S218  1  0.74813665  0.37483251  0.44814276  1
  S2-  S219  1  0.74897854  0.38490116  0.94355645  1
  S2-  S220  1  0.74791352  0.62228255  0.46069737  1
  S2-  S221  1  0.74786719  0.63345725  0.95618430  1
  S2-  S222  1  0.75052152  0.87717240  0.45346436  1
  S2-  S223  1  0.74609968  0.87717509  0.94910738  1
  S2-  S224  1  0.12232789  0.01118526  0.04673522  1
  S2-  S225  1  0.12184921  -0.00251165  0.54027035  1
  S2-  S226  1  0.12093106  0.25461031  0.04419223  1
  S2-  S227  1  0.12152433  0.24644246  0.54330017  1
  S2-  S228  1  0.12532983  0.50258070  0.05556891  1
  S2-  S229  1  0.11878106  0.49952726  0.54612873  1
  S2-  S230  1  0.12450114  0.74897436  0.05264197  1
  S2-  S231  1  0.12452982  0.74968181  0.54319888  1
  S2-  S232  1  0.36990245  0.00767956  0.03730348  1
  S2-  S233  1  0.36748131  0.00101047  0.55112069  1
  S2-  S234  1  0.36900451  0.25492002  0.04010213  1
  S2-  S235  1  0.37457677  0.24826632  0.56224479  1
  S2-  S236  1  0.37150218  0.50368182  0.04471021  1
  S2-  S237  1  0.37824350  0.50318666  0.54230138  1
  S2-  S238  1  0.37049225  0.75380018  0.05075043  1
  S2-  S239  1  0.37144155  0.74967112  0.53797571  1
  S2-  S240  1  0.61812183  0.00550845  0.04458352  1
  S2-  S241  1  0.62271611  -0.00294656  0.54298563  1
  S2-  S242  1  0.62427197  0.25872666  0.03721142  1
  S2-  S243  1  0.62154789  0.24769072  0.56067203  1
  S2-  S244  1  0.62386460  0.50615574  0.04171930  1
  S2-  S245  1  0.63764599  0.49271881  0.55359056  1
  S2-  S246  1  0.62227661  0.75605939  0.04930897  1
  S2-  S247  1  0.63012201  0.74981408  0.54960976  1
  S2-  S248  1  0.87319422  0.00199107  0.05046217  1
  S2-  S249  1  0.87770061  -0.00192526  0.53439610  1
  S2-  S250  1  0.87499147  0.25624383  0.03982698  1
  S2-  S251  1  0.87513317  0.24696770  0.54020945  1
  S2-  S252  1  0.87023461  0.50758137  0.03808472  1
  S2-  S253  1  0.87311164  0.49604871  0.54586371  1
  S2-  S254  1  0.86878518  0.76072099  0.05357332  1
  S2-  S255  1  0.87111570  0.75153925  0.55426312  1
