# generated using pymatgen
data_La6Ce7Pr13Nd19Sm19(BiS2)64
_symmetry_space_group_name_H-M   'P 1'
_cell_length_a   16.02627237
_cell_length_b   16.01388700
_cell_length_c   27.56377082
_cell_angle_alpha   90.23711030
_cell_angle_beta   90.01912775
_cell_angle_gamma   89.80537635
_symmetry_Int_Tables_number   1
_chemical_formula_structural   La6Ce7Pr13Nd19Sm19(BiS2)64
_chemical_formula_sum   'La6 Ce7 Pr13 Nd19 Sm19 Bi64 S128'
_cell_volume   7073.94473950
_cell_formula_units_Z   1
loop_
 _symmetry_equiv_pos_site_id
 _symmetry_equiv_pos_as_xyz
  1  'x, y, z'
loop_
 _atom_type_symbol
 _atom_type_oxidation_number
  La3+  3.0
  Ce3+  3.0
  Pr3+  3.0
  Nd3+  3.0
  Sm3+  3.0
  Bi2+  2.0
  S2-  -2.0
loop_
 _atom_site_type_symbol
 _atom_site_label
 _atom_site_symmetry_multiplicity
 _atom_site_fract_x
 _atom_site_fract_y
 _atom_site_fract_z
 _atom_site_occupancy
  La3+  La0  1  0.86443156  0.21476872  0.94414661  1
  La3+  La1  1  0.00233385  0.35085609  0.08611056  1
  La3+  La2  1  0.37749691  0.03901554  0.41216380  1
  La3+  La3  1  0.73720209  0.34854309  0.07839985  1
  La3+  La4  1  0.73525983  0.09687024  0.07792974  1
  La3+  La5  1  0.38394335  0.53658232  0.42832234  1
  Ce3+  Ce6  1  0.12775339  0.04668632  0.42864545  1
  Ce3+  Ce7  1  0.38529134  0.78494220  0.42740676  1
  Ce3+  Ce8  1  0.63174844  0.03654335  0.43608309  1
  Ce3+  Ce9  1  0.36413825  0.71204551  0.92513497  1
  Ce3+  Ce10  1  0.88290114  0.53501535  0.43820016  1
  Ce3+  Ce11  1  0.36635275  0.45850212  0.93053482  1
  Ce3+  Ce12  1  0.61309055  0.71728673  0.93065360  1
  Pr3+  Pr13  1  0.12795738  0.28895780  0.43487856  1
  Pr3+  Pr14  1  0.73853380  0.84517809  0.06563256  1
  Pr3+  Pr15  1  0.01426790  0.16618188  0.59232180  1
  Pr3+  Pr16  1  0.11034936  0.45960142  0.92186104  1
  Pr3+  Pr17  1  0.01017586  0.91051257  0.55358764  1
  Pr3+  Pr18  1  0.50830017  0.91371308  0.56010485  1
  Pr3+  Pr19  1  0.62994021  0.28483388  0.43729147  1
  Pr3+  Pr20  1  0.12771473  0.53680430  0.43047322  1
  Pr3+  Pr21  1  0.36671064  0.20943625  0.93562397  1
  Pr3+  Pr22  1  0.26088176  0.66285092  0.55627738  1
  Pr3+  Pr23  1  0.88304180  0.78555017  0.44010977  1
  Pr3+  Pr24  1  0.50524245  0.41692175  0.56505676  1
  Pr3+  Pr25  1  0.11047420  0.20983842  0.93393106  1
  Nd3+  Nd26  1  0.25715701  0.91214262  0.54822593  1
  Nd3+  Nd27  1  0.25408040  0.16211786  0.55915721  1
  Nd3+  Nd28  1  0.86326836  -0.03250364  0.94219946  1
  Nd3+  Nd29  1  -0.01396518  0.84159089  0.06501318  1
  Nd3+  Nd30  1  0.86375236  0.71541474  0.92511763  1
  Nd3+  Nd31  1  0.23800284  0.83750647  0.05752341  1
  Nd3+  Nd32  1  0.51203880  0.66494128  0.57123327  1
  Nd3+  Nd33  1  0.01011238  0.41476124  0.56902481  1
  Nd3+  Nd34  1  0.62953015  0.54214117  0.43473918  1
  Nd3+  Nd35  1  0.36400449  -0.03135463  0.94181040  1
  Nd3+  Nd36  1  0.48340750  0.08568545  0.07574793  1
  Nd3+  Nd37  1  0.23502883  0.09794583  0.07039154  1
  Nd3+  Nd38  1  0.76153389  0.91214235  0.55945133  1
  Nd3+  Nd39  1  0.75691406  0.65957924  0.56196851  1
  Nd3+  Nd40  1  0.61695268  0.46073079  0.93054058  1
  Nd3+  Nd41  1  0.50663033  0.16441577  0.56340288  1
  Nd3+  Nd42  1  0.01663030  0.65846907  0.57345887  1
  Nd3+  Nd43  1  0.61471495  0.21510761  0.94055362  1
  Nd3+  Nd44  1  0.75711740  0.16274154  0.56049419  1
  Sm3+  Sm45  1  -0.01240801  0.59173009  0.05017350  1
  Sm3+  Sm46  1  0.48804311  0.84161858  0.05752578  1
  Sm3+  Sm47  1  0.23793225  0.34389096  0.04658346  1
  Sm3+  Sm48  1  0.86201991  0.45781428  0.93774283  1
  Sm3+  Sm49  1  0.88268434  0.28645621  0.44671654  1
  Sm3+  Sm50  1  0.63104691  0.78807161  0.44129366  1
  Sm3+  Sm51  1  0.25497394  0.41249910  0.55376956  1
  Sm3+  Sm52  1  0.38203628  0.28783910  0.43512087  1
  Sm3+  Sm53  1  0.61473053  -0.02768976  0.94169966  1
  Sm3+  Sm54  1  0.13155117  0.78061864  0.43175335  1
  Sm3+  Sm55  1  0.88374577  0.03813668  0.44859168  1
  Sm3+  Sm56  1  0.75644475  0.41152264  0.55888896  1
  Sm3+  Sm57  1  0.11336671  -0.03115557  0.94528833  1
  Sm3+  Sm58  1  0.74111492  0.59311621  0.05444477  1
  Sm3+  Sm59  1  0.11225450  0.71644096  0.93212185  1
  Sm3+  Sm60  1  0.23824533  0.59049165  0.04920375  1
  Sm3+  Sm61  1  0.49126019  0.34385534  0.05874919  1
  Sm3+  Sm62  1  0.49004859  0.59263724  0.05018315  1
  Sm3+  Sm63  1  -0.00780837  0.08994457  0.07361522  1
  Bi2+  Bi64  1  0.00220510  0.05447672  0.27780187  1
  Bi2+  Bi65  1  -0.00210578  0.14512756  0.80246870  1
  Bi2+  Bi66  1  0.00781173  0.34209106  0.30863235  1
  Bi2+  Bi67  1  -0.01553637  0.39899272  0.80376927  1
  Bi2+  Bi68  1  -0.01184321  0.68705213  0.22807741  1
  Bi2+  Bi69  1  0.01900862  0.65596809  0.77074126  1
  Bi2+  Bi70  1  0.01087886  0.84005098  0.29930290  1
  Bi2+  Bi71  1  -0.08685540  0.88745092  0.81912505  1
  Bi2+  Bi72  1  0.24517856  0.18934035  0.30670235  1
  Bi2+  Bi73  1  0.24263254  0.06379568  0.78688385  1
  Bi2+  Bi74  1  0.26499373  0.40674532  0.28037788  1
  Bi2+  Bi75  1  0.27717077  0.32540153  0.73024004  1
  Bi2+  Bi76  1  0.20681362  0.60837113  0.28247920  1
  Bi2+  Bi77  1  0.28224650  0.63863670  0.77311363  1
  Bi2+  Bi78  1  0.27949230  0.78234844  0.30579048  1
  Bi2+  Bi79  1  0.24927341  0.85921213  0.79446259  1
  Bi2+  Bi80  1  0.46193509  0.09235440  0.27698130  1
  Bi2+  Bi81  1  0.46826956  0.17139314  0.80703470  1
  Bi2+  Bi82  1  0.48481427  0.40805405  0.27667524  1
  Bi2+  Bi83  1  0.48717156  0.41766776  0.80454856  1
  Bi2+  Bi84  1  0.51761120  0.62130993  0.29266623  1
  Bi2+  Bi85  1  0.47424122  0.68873041  0.75793239  1
  Bi2+  Bi86  1  0.53498167  0.83025722  0.28135345  1
  Bi2+  Bi87  1  0.50445752  0.88060395  0.79407042  1
  Bi2+  Bi88  1  0.76049608  0.12239528  0.30854675  1
  Bi2+  Bi89  1  0.79077182  0.17432025  0.79435346  1
  Bi2+  Bi90  1  0.75652758  0.38499670  0.32856130  1
  Bi2+  Bi91  1  0.72956609  0.41490364  0.80427600  1
  Bi2+  Bi92  1  0.79459822  0.65048543  0.25597995  1
  Bi2+  Bi93  1  0.74829380  0.68615766  0.76130704  1
  Bi2+  Bi94  1  0.75523377  0.83906427  0.28909788  1
  Bi2+  Bi95  1  0.71422713  0.89600154  0.82512472  1
  Bi2+  Bi96  1  0.17319862  -0.05923340  0.26774040  1
  Bi2+  Bi97  1  0.07884091  -0.04808781  0.76895213  1
  Bi2+  Bi98  1  0.18782657  0.22197398  0.20432959  1
  Bi2+  Bi99  1  0.10237200  0.22866999  0.71790586  1
  Bi2+  Bi100  1  0.13856660  0.48699095  0.20135113  1
  Bi2+  Bi101  1  0.12251998  0.52897983  0.70433479  1
  Bi2+  Bi102  1  0.09883179  0.82586761  0.18427955  1
  Bi2+  Bi103  1  0.09489923  0.79441562  0.69668114  1
  Bi2+  Bi104  1  0.36599765  -0.02309051  0.20746096  1
  Bi2+  Bi105  1  0.36883694  -0.04372636  0.72051332  1
  Bi2+  Bi106  1  0.38384112  0.26550387  0.22294878  1
  Bi2+  Bi107  1  0.37845305  0.16462863  0.70253185  1
  Bi2+  Bi108  1  0.37516511  0.55413547  0.20718318  1
  Bi2+  Bi109  1  0.37673751  0.49143423  0.71947890  1
  Bi2+  Bi110  1  0.38983602  0.75306611  0.21387230  1
  Bi2+  Bi111  1  0.33341444  0.75716328  0.68403641  1
  Bi2+  Bi112  1  0.61734041  -0.01596140  0.21044578  1
  Bi2+  Bi113  1  0.62472950  0.04710466  0.76950484  1
  Bi2+  Bi114  1  0.63211457  0.24275425  0.21355652  1
  Bi2+  Bi115  1  0.59781436  0.22642456  0.71180047  1
  Bi2+  Bi116  1  0.62153397  0.49713724  0.20041972  1
  Bi2+  Bi117  1  0.61857932  0.49251433  0.68700169  1
  Bi2+  Bi118  1  0.67127553  0.76053213  0.19320949  1
  Bi2+  Bi119  1  0.61854497  0.79455183  0.70245656  1
  Bi2+  Bi120  1  0.87245302  -0.05540963  0.21880846  1
  Bi2+  Bi121  1  0.81145879  -0.05741840  0.72754533  1
  Bi2+  Bi122  1  0.87951394  0.17059645  0.22087100  1
  Bi2+  Bi123  1  0.85944746  0.26584627  0.70503150  1
  Bi2+  Bi124  1  0.88490668  0.46306132  0.20700863  1
  Bi2+  Bi125  1  0.86498457  0.53391436  0.74161485  1
  Bi2+  Bi126  1  0.85150864  0.72000597  0.14791938  1
  Bi2+  Bi127  1  0.89522144  0.74953223  0.69516144  1
  S2-  S128  1  0.11559134  0.11925489  0.14401547  1
  S2-  S129  1  -0.03915514  0.12915392  0.69091021  1
  S2-  S130  1  -0.04213202  0.31654810  0.18723689  1
  S2-  S131  1  -0.00069032  0.31404893  0.65066739  1
  S2-  S132  1  0.00270689  0.51253281  0.13753768  1
  S2-  S133  1  -0.00655353  0.53494173  0.64364219  1
  S2-  S134  1  -0.01373111  0.95161361  0.14376816  1
  S2-  S135  1  -0.01979322  0.89338206  0.65093855  1
  S2-  S136  1  0.35205947  0.10034792  0.14575406  1
  S2-  S137  1  0.16651150  0.14172662  0.64396014  1
  S2-  S138  1  0.17053388  0.35707950  0.13626803  1
  S2-  S139  1  0.21073520  0.41055314  0.64864342  1
  S2-  S140  1  0.23342740  0.59569164  0.14736185  1
  S2-  S141  1  0.16241450  0.65564779  0.63953944  1
  S2-  S142  1  0.27073275  0.84424588  0.15473396  1
  S2-  S143  1  0.25036530  0.89672457  0.64673469  1
  S2-  S144  1  0.59155082  0.11953154  0.15288897  1
  S2-  S145  1  0.52077837  0.09776575  0.65403152  1
  S2-  S146  1  0.58128981  0.35883063  0.14246656  1
  S2-  S147  1  0.53761576  0.34331858  0.65682494  1
  S2-  S148  1  0.51569308  0.59719274  0.14723874  1
  S2-  S149  1  0.46857878  0.54299853  0.63969431  1
  S2-  S150  1  0.49614552  0.92651341  0.14368691  1
  S2-  S151  1  0.48598302  0.80212509  0.63584527  1
  S2-  S152  1  0.76302883  0.22085095  0.15282914  1
  S2-  S153  1  0.74330224  0.17569366  0.65816479  1
  S2-  S154  1  0.74259214  0.37827408  0.23553482  1
  S2-  S155  1  0.75664853  0.42787757  0.65637487  1
  S2-  S156  1  0.75430866  0.50052106  0.13813469  1
  S2-  S157  1  0.65641690  0.64734569  0.64250469  1
  S2-  S158  1  0.74352111  0.96127745  0.14675844  1
  S2-  S159  1  0.70265042  0.92244761  0.65146327  1
  S2-  S160  1  0.23071807  0.03327715  0.35094229  1
  S2-  S161  1  0.11299689  0.07197875  0.86538360  1
  S2-  S162  1  0.08832557  0.19514599  0.35079316  1
  S2-  S163  1  0.09136525  0.29951225  0.84559189  1
  S2-  S164  1  0.12569102  0.41099104  0.35635476  1
  S2-  S165  1  0.10363114  0.51105589  0.82453829  1
  S2-  S166  1  0.11091250  0.66349141  0.35879024  1
  S2-  S167  1  0.23095770  0.72564757  0.85792797  1
  S2-  S168  1  0.43066339  -0.05920521  0.33028845  1
  S2-  S169  1  0.36165164  0.07803604  0.86356407  1
  S2-  S170  1  0.40605877  0.18392115  0.35545675  1
  S2-  S171  1  0.38203066  0.31214702  0.85222876  1
  S2-  S172  1  0.38413684  0.40615174  0.35799547  1
  S2-  S173  1  0.37018359  0.52925592  0.84293480  1
  S2-  S174  1  0.38766305  0.66255050  0.35536393  1
  S2-  S175  1  0.49160780  0.73476049  0.85634530  1
  S2-  S176  1  0.64917347  0.01510750  0.34001793  1
  S2-  S177  1  0.60097637  0.09096097  0.86735401  1
  S2-  S178  1  0.64523432  0.25290021  0.33870323  1
  S2-  S179  1  0.62051929  0.32628934  0.85906474  1
  S2-  S180  1  0.61507476  0.48930647  0.34087411  1
  S2-  S181  1  0.61962870  0.52643020  0.83502372  1
  S2-  S182  1  0.61933669  0.72171144  0.35227887  1
  S2-  S183  1  0.73135228  0.72348768  0.85784224  1
  S2-  S184  1  0.88522130  0.02487460  0.35122327  1
  S2-  S185  1  0.86835339  0.08571938  0.86658373  1
  S2-  S186  1  0.87251584  0.25796893  0.34969441  1
  S2-  S187  1  0.84658750  0.30946821  0.85545846  1
  S2-  S188  1  0.90887762  0.47842722  0.34600305  1
  S2-  S189  1  0.86350294  0.52266805  0.84443359  1
  S2-  S190  1  0.87409068  0.74917526  0.34258221  1
  S2-  S191  1  0.99476925  0.73766882  0.85852800  1
  S2-  S192  1  0.00075671  0.16190368  0.45986111  1
  S2-  S193  1  -0.00932306  0.08748049  0.96911037  1
  S2-  S194  1  0.00180741  0.41109938  0.46161165  1
  S2-  S195  1  -0.01072984  0.34260392  0.95454351  1
  S2-  S196  1  0.00334369  0.66050679  0.46235115  1
  S2-  S197  1  -0.01096264  0.58875414  0.94836682  1
  S2-  S198  1  0.00968150  0.91105575  0.44722670  1
  S2-  S199  1  -0.00793709  0.84592012  0.95985938  1
  S2-  S200  1  0.25792096  0.16491697  0.45493678  1
  S2-  S201  1  0.23853102  0.09005396  0.96504472  1
  S2-  S202  1  0.25658751  0.41090160  0.45343210  1
  S2-  S203  1  0.23789358  0.33803712  0.94574508  1
  S2-  S204  1  0.25605698  0.66311458  0.45233101  1
  S2-  S205  1  0.23678023  0.58571168  0.94745756  1
  S2-  S206  1  0.25421875  0.90676999  0.44435485  1
  S2-  S207  1  0.23750497  0.84500747  0.95359040  1
  S2-  S208  1  0.50584273  0.15923180  0.45733753  1
  S2-  S209  1  0.48759585  0.08878922  0.96900453  1
  S2-  S210  1  0.50932015  0.41031690  0.45721805  1
  S2-  S211  1  0.48906933  0.34024609  0.95807348  1
  S2-  S212  1  0.50995779  0.66422130  0.46076632  1
  S2-  S213  1  0.49001083  0.58728899  0.94899960  1
  S2-  S214  1  0.50684387  0.91223262  0.45186602  1
  S2-  S215  1  0.48999118  0.84747446  0.95544700  1
  S2-  S216  1  0.75911272  0.16009323  0.45528749  1
  S2-  S217  1  0.73771212  0.09009698  0.96709697  1
  S2-  S218  1  0.75534051  0.41127261  0.45411725  1
  S2-  S219  1  0.73900873  0.34156016  0.96571744  1
  S2-  S220  1  0.75603214  0.66199625  0.45477396  1
  S2-  S221  1  0.74043332  0.58789723  0.95282583  1
  S2-  S222  1  0.75809716  0.91149462  0.45295024  1
  S2-  S223  1  0.73719661  0.84637037  0.95928741  1
  S2-  S224  1  0.11761859  -0.03563475  0.04692544  1
  S2-  S225  1  0.13017598  0.03711830  0.53781833  1
  S2-  S226  1  0.11245830  0.22342641  0.04054933  1
  S2-  S227  1  0.13106773  0.28753131  0.54303492  1
  S2-  S228  1  0.11563260  0.47089535  0.03190013  1
  S2-  S229  1  0.13379211  0.53581115  0.53712073  1
  S2-  S230  1  0.11202901  0.71456111  0.04084019  1
  S2-  S231  1  0.13248861  0.78567769  0.53656719  1
  S2-  S232  1  0.35965455  -0.03789797  0.04502251  1
  S2-  S233  1  0.38077198  0.03759315  0.54954886  1
  S2-  S234  1  0.36411751  0.22493236  0.04611844  1
  S2-  S235  1  0.37986941  0.28782089  0.54737363  1
  S2-  S236  1  0.36475091  0.46777277  0.04347397  1
  S2-  S237  1  0.37785291  0.53502364  0.53657980  1
  S2-  S238  1  0.36501251  0.71544581  0.04006149  1
  S2-  S239  1  0.38192706  0.78802126  0.53416398  1
  S2-  S240  1  0.61118647  -0.03462078  0.04383413  1
  S2-  S241  1  0.63429470  0.03711922  0.54272913  1
  S2-  S242  1  0.61038413  0.21972889  0.04530570  1
  S2-  S243  1  0.63346599  0.28716743  0.54448679  1
  S2-  S244  1  0.61257439  0.47226869  0.03776042  1
  S2-  S245  1  0.63431258  0.53467988  0.54030654  1
  S2-  S246  1  0.61398342  0.71756659  0.04280271  1
  S2-  S247  1  0.63728659  0.78952070  0.54266198  1
  S2-  S248  1  0.86498850  -0.03113927  0.04533509  1
  S2-  S249  1  0.88626925  0.04038021  0.55377191  1
  S2-  S250  1  0.87714152  0.22140536  0.05391041  1
  S2-  S251  1  0.88047976  0.28698736  0.55011260  1
  S2-  S252  1  0.86855954  0.46715951  0.04071952  1
  S2-  S253  1  0.87790805  0.53592749  0.54437455  1
  S2-  S254  1  0.86442770  0.71696784  0.03228631  1
  S2-  S255  1  0.88383244  0.78233511  0.54675555  1
