# generated using pymatgen
data_La6Ce7Pr13Nd19Sm19(BiS2)64
_symmetry_space_group_name_H-M   'P 1'
_cell_length_a   16.15735089
_cell_length_b   16.14377290
_cell_length_c   27.28129014
_cell_angle_alpha   89.95985341
_cell_angle_beta   89.90687100
_cell_angle_gamma   89.95782838
_symmetry_Int_Tables_number   1
_chemical_formula_structural   La6Ce7Pr13Nd19Sm19(BiS2)64
_chemical_formula_sum   'La6 Ce7 Pr13 Nd19 Sm19 Bi64 S128'
_cell_volume   7116.05511806
_cell_formula_units_Z   1
loop_
 _symmetry_equiv_pos_site_id
 _symmetry_equiv_pos_as_xyz
  1  'x, y, z'
loop_
 _atom_type_symbol
 _atom_type_oxidation_number
  La3+  3.0
  Ce3+  3.0
  Pr3+  3.0
  Nd3+  3.0
  Sm3+  3.0
  Bi2+  2.0
  S2-  -2.0
loop_
 _atom_site_type_symbol
 _atom_site_label
 _atom_site_symmetry_multiplicity
 _atom_site_fract_x
 _atom_site_fract_y
 _atom_site_fract_z
 _atom_site_occupancy
  La3+  La0  1  0.63082226  0.76248754  0.38146094  1
  La3+  La1  1  0.12527283  0.25231735  0.89614670  1
  La3+  La2  1  0.01827110  0.11683849  0.58254522  1
  La3+  La3  1  0.38972710  0.23089725  0.42896004  1
  La3+  La4  1  0.89439049  0.24026799  0.43794007  1
  La3+  La5  1  0.88939718  0.73865239  0.42943844  1
  Ce3+  Ce6  1  0.13918294  0.74322689  0.43544047  1
  Ce3+  Ce7  1  0.62329940  0.50733362  0.94613409  1
  Ce3+  Ce8  1  0.75112017  0.63410664  0.05194136  1
  Ce3+  Ce9  1  0.75017302  0.38071741  0.05826850  1
  Ce3+  Ce10  1  0.39181935  0.48842436  0.43300225  1
  Ce3+  Ce11  1  0.37488168  0.75662798  0.93912833  1
  Ce3+  Ce12  1  0.76658332  0.36467106  0.55551452  1
  Pr3+  Pr13  1  0.87309987  0.50539619  0.93732034  1
  Pr3+  Pr14  1  0.51778250  0.36296157  0.55439946  1
  Pr3+  Pr15  1  0.51519694  0.61117914  0.56448194  1
  Pr3+  Pr16  1  0.01874686  0.36600534  0.56987217  1
  Pr3+  Pr17  1  0.50030003  0.63309972  0.06228696  1
  Pr3+  Pr18  1  0.62334884  0.25611382  0.93651561  1
  Pr3+  Pr19  1  0.89218164  -0.01009100  0.43951425  1
  Pr3+  Pr20  1  0.50057038  0.88056939  0.06206368  1
  Pr3+  Pr21  1  0.87727111  0.00934417  0.93707950  1
  Pr3+  Pr22  1  0.61714167  0.76623418  0.91307699  1
  Pr3+  Pr23  1  0.64157874  0.50227119  0.43811649  1
  Pr3+  Pr24  1  0.88291551  0.75819406  0.92431377  1
  Pr3+  Pr25  1  0.89593010  0.49162732  0.44576550  1
  Nd3+  Nd26  1  0.76424051  0.10997923  0.56389393  1
  Nd3+  Nd27  1  0.26752954  0.61615350  0.55122667  1
  Nd3+  Nd28  1  0.52228398  0.86525499  0.55419692  1
  Nd3+  Nd29  1  0.37246133  0.00842679  0.94491975  1
  Nd3+  Nd30  1  0.75228277  0.13205412  0.06647117  1
  Nd3+  Nd31  1  0.13669179  -0.00774750  0.44036736  1
  Nd3+  Nd32  1  0.26751675  0.86528995  0.55980348  1
  Nd3+  Nd33  1  0.75163145  0.87714947  0.05619973  1
  Nd3+  Nd34  1  0.26629785  0.11526702  0.56651934  1
  Nd3+  Nd35  1  0.62640232  0.00884637  0.94263804  1
  Nd3+  Nd36  1  0.00009256  0.38057295  0.05765885  1
  Nd3+  Nd37  1  0.12607649  0.50128092  0.93890164  1
  Nd3+  Nd38  1  0.00072078  0.13222814  0.05635580  1
  Nd3+  Nd39  1  0.01612805  0.86373067  0.56563996  1
  Nd3+  Nd40  1  0.50057439  0.13159338  0.06251737  1
  Nd3+  Nd41  1  0.24843738  0.88014846  0.05962988  1
  Nd3+  Nd42  1  0.64752941  0.24112613  0.43021578  1
  Nd3+  Nd43  1  0.24796127  0.38040400  0.06110300  1
  Nd3+  Nd44  1  0.76655367  0.85818131  0.55916182  1
  Sm3+  Sm45  1  0.39164051  -0.00982041  0.44149829  1
  Sm3+  Sm46  1  0.01741557  0.61685722  0.56034715  1
  Sm3+  Sm47  1  0.87495234  0.25535170  0.93994944  1
  Sm3+  Sm48  1  0.26598570  0.36435495  0.55061418  1
  Sm3+  Sm49  1  0.12594787  0.00909558  0.94372070  1
  Sm3+  Sm50  1  0.51768670  0.11483030  0.55388984  1
  Sm3+  Sm51  1  -0.00072483  0.63254688  0.05193740  1
  Sm3+  Sm52  1  -0.00063358  0.88027153  0.05260685  1
  Sm3+  Sm53  1  0.14179336  0.49022820  0.44451662  1
  Sm3+  Sm54  1  0.13637055  0.23751293  0.43860249  1
  Sm3+  Sm55  1  0.39456887  0.74293915  0.43894779  1
  Sm3+  Sm56  1  0.64916103  -0.00179595  0.42517228  1
  Sm3+  Sm57  1  0.37243140  0.25687553  0.94334625  1
  Sm3+  Sm58  1  0.24852384  0.63123222  0.05479544  1
  Sm3+  Sm59  1  0.50022132  0.37949123  0.06251527  1
  Sm3+  Sm60  1  0.12788857  0.75618245  0.93608767  1
  Sm3+  Sm61  1  0.76552348  0.62090491  0.56275494  1
  Sm3+  Sm62  1  0.37565819  0.50477817  0.94922740  1
  Sm3+  Sm63  1  0.24820573  0.13267628  0.05742889  1
  Bi2+  Bi64  1  -0.06417060  0.11521231  0.30793687  1
  Bi2+  Bi65  1  -0.02176956  0.10722302  0.79341966  1
  Bi2+  Bi66  1  -0.05400952  0.40113876  0.31233517  1
  Bi2+  Bi67  1  -0.00834510  0.37103095  0.79192942  1
  Bi2+  Bi68  1  0.04177488  0.60989812  0.28569414  1
  Bi2+  Bi69  1  0.05572165  0.63005368  0.78202871  1
  Bi2+  Bi70  1  0.03691669  0.86868714  0.29092969  1
  Bi2+  Bi71  1  0.03739936  0.85273675  0.77114645  1
  Bi2+  Bi72  1  0.20881777  0.10771445  0.32092564  1
  Bi2+  Bi73  1  0.31465042  0.12535504  0.78400303  1
  Bi2+  Bi74  1  0.21679460  0.35000561  0.29645753  1
  Bi2+  Bi75  1  0.27325889  0.39429871  0.79377030  1
  Bi2+  Bi76  1  0.24872884  0.62937211  0.29808357  1
  Bi2+  Bi77  1  0.24237552  0.64945821  0.81087570  1
  Bi2+  Bi78  1  0.22438938  0.82100024  0.32085111  1
  Bi2+  Bi79  1  0.23183334  0.84245921  0.82254137  1
  Bi2+  Bi80  1  0.46339216  0.16543960  0.28704353  1
  Bi2+  Bi81  1  0.52510353  0.18429546  0.81562622  1
  Bi2+  Bi82  1  0.47802306  0.40672798  0.26816535  1
  Bi2+  Bi83  1  0.54260276  0.37731818  0.79994704  1
  Bi2+  Bi84  1  0.44750284  0.64348570  0.26547944  1
  Bi2+  Bi85  1  0.47626441  0.58584013  0.78859751  1
  Bi2+  Bi86  1  0.39679814  0.89542283  0.29965729  1
  Bi2+  Bi87  1  0.42008147  0.87239268  0.78250682  1
  Bi2+  Bi88  1  0.73540143  0.13401689  0.28770074  1
  Bi2+  Bi89  1  0.69000199  0.08716074  0.78954357  1
  Bi2+  Bi90  1  0.76689499  0.35838027  0.27421458  1
  Bi2+  Bi91  1  0.75239222  0.38933206  0.75122385  1
  Bi2+  Bi92  1  0.77987230  0.63445052  0.28429253  1
  Bi2+  Bi93  1  0.74916253  0.60485867  0.79738577  1
  Bi2+  Bi94  1  0.74090839  0.89431189  0.27902126  1
  Bi2+  Bi95  1  0.75272466  0.87150922  0.80354945  1
  Bi2+  Bi96  1  0.13377266  0.01482204  0.23019985  1
  Bi2+  Bi97  1  0.17537429  -0.01066116  0.75282237  1
  Bi2+  Bi98  1  0.08633547  0.21942329  0.26090992  1
  Bi2+  Bi99  1  0.15020743  0.26049037  0.69705585  1
  Bi2+  Bi100  1  0.12018370  0.44771937  0.21279379  1
  Bi2+  Bi101  1  0.17918534  0.51316607  0.72174694  1
  Bi2+  Bi102  1  0.14465283  0.73145814  0.21790881  1
  Bi2+  Bi103  1  0.16747558  0.75076416  0.70880170  1
  Bi2+  Bi104  1  0.33265093  0.01296496  0.21274349  1
  Bi2+  Bi105  1  0.35049766  -0.00070004  0.69619235  1
  Bi2+  Bi106  1  0.30368160  0.22682428  0.22436890  1
  Bi2+  Bi107  1  0.40129254  0.28194591  0.73169708  1
  Bi2+  Bi108  1  0.31234158  0.49919073  0.21658371  1
  Bi2+  Bi109  1  0.37573359  0.50305820  0.70125371  1
  Bi2+  Bi110  1  0.34355119  0.76762786  0.20148027  1
  Bi2+  Bi111  1  0.37193608  0.70740607  0.72310080  1
  Bi2+  Bi112  1  0.52705792  -0.00047541  0.23388280  1
  Bi2+  Bi113  1  0.53511164  0.03800610  0.72839811  1
  Bi2+  Bi114  1  0.61610113  0.25933965  0.18749326  1
  Bi2+  Bi115  1  0.58642888  0.29562377  0.69274803  1
  Bi2+  Bi116  1  0.64141339  0.50533962  0.26203311  1
  Bi2+  Bi117  1  0.61959403  0.52678261  0.71417132  1
  Bi2+  Bi118  1  0.62766502  0.74912877  0.17417077  1
  Bi2+  Bi119  1  0.62943511  0.79896237  0.69338629  1
  Bi2+  Bi120  1  0.93857067  -0.01101270  0.21800083  1
  Bi2+  Bi121  1  0.83143985  -0.01292627  0.69859640  1
  Bi2+  Bi122  1  0.86578496  0.24591168  0.18930250  1
  Bi2+  Bi123  1  0.85775734  0.23701239  0.70224330  1
  Bi2+  Bi124  1  0.92456125  0.49980532  0.21366004  1
  Bi2+  Bi125  1  0.89536585  0.52252802  0.72610502  1
  Bi2+  Bi126  1  0.87883175  0.75236619  0.18135841  1
  Bi2+  Bi127  1  0.89319288  0.73744086  0.70697610  1
  S2-  S128  1  -0.03759198  0.12972772  0.15290757  1
  S2-  S129  1  -0.04158580  0.10087859  0.68141117  1
  S2-  S130  1  -0.00866700  0.36546585  0.15674071  1
  S2-  S131  1  -0.00017069  0.32607752  0.66688330  1
  S2-  S132  1  -0.02117028  0.63374671  0.14911419  1
  S2-  S133  1  -0.00971005  0.61574633  0.65701093  1
  S2-  S134  1  -0.00812950  0.85915923  0.14915212  1
  S2-  S135  1  -0.04553928  0.87393031  0.65917956  1
  S2-  S136  1  0.23275394  0.12401760  0.15462095  1
  S2-  S137  1  0.16147992  0.12491658  0.64489139  1
  S2-  S138  1  0.25695978  0.36710898  0.15909411  1
  S2-  S139  1  0.23344576  0.37126891  0.64652692  1
  S2-  S140  1  0.24823326  0.63782601  0.15200230  1
  S2-  S141  1  0.26515169  0.62167840  0.65008127  1
  S2-  S142  1  0.24847442  0.88258196  0.15804973  1
  S2-  S143  1  0.23114135  0.88482643  0.65582872  1
  S2-  S144  1  0.51586501  0.13276823  0.16081244  1
  S2-  S145  1  0.51980056  0.15016616  0.65038066  1
  S2-  S146  1  0.50156670  0.36709362  0.16069241  1
  S2-  S147  1  0.50684248  0.44201644  0.64340729  1
  S2-  S148  1  0.50539765  0.63196874  0.16276144  1
  S2-  S149  1  0.56663029  0.65503363  0.65813105  1
  S2-  S150  1  0.50909085  0.87879701  0.16235808  1
  S2-  S151  1  0.50100111  0.86412373  0.65350727  1
  S2-  S152  1  0.74200799  0.13413127  0.16624507  1
  S2-  S153  1  0.75368922  0.13092862  0.66338855  1
  S2-  S154  1  0.74342208  0.36765265  0.15489642  1
  S2-  S155  1  0.74766464  0.35543757  0.65105507  1
  S2-  S156  1  0.75250541  0.63692587  0.14981866  1
  S2-  S157  1  0.77237078  0.72919016  0.64238157  1
  S2-  S158  1  0.75270977  0.87331276  0.15587345  1
  S2-  S159  1  0.71130912  0.93072007  0.64542669  1
  S2-  S160  1  0.01897009  -0.00780844  0.36545704  1
  S2-  S161  1  0.10951767  0.04505821  0.84870475  1
  S2-  S162  1  0.01939108  0.24005157  0.36453401  1
  S2-  S163  1  0.09352162  0.23007374  0.79412626  1
  S2-  S164  1  0.08737245  0.47757870  0.35239480  1
  S2-  S165  1  0.12396989  0.41580690  0.85273655  1
  S2-  S166  1  0.02375886  0.73498217  0.36046164  1
  S2-  S167  1  0.02883569  0.76275058  0.85616742  1
  S2-  S168  1  0.37189961  0.08801053  0.36128913  1
  S2-  S169  1  0.38987784  0.01172656  0.84665440  1
  S2-  S170  1  0.40584179  0.30525679  0.33804067  1
  S2-  S171  1  0.28987006  0.25417562  0.85726726  1
  S2-  S172  1  0.41927004  0.52284604  0.33886378  1
  S2-  S173  1  0.38967271  0.48401682  0.85201711  1
  S2-  S174  1  0.46229874  0.74872788  0.34833632  1
  S2-  S175  1  0.46376460  0.76195101  0.85738081  1
  S2-  S176  1  0.61263065  -0.07524830  0.33888284  1
  S2-  S177  1  0.62844130  -0.05880231  0.85190819  1
  S2-  S178  1  0.60586065  0.14758361  0.34727065  1
  S2-  S179  1  0.69579154  0.22136581  0.84701568  1
  S2-  S180  1  0.64711101  0.59056479  0.35158307  1
  S2-  S181  1  0.65090059  0.48294442  0.85193501  1
  S2-  S182  1  0.64318984  0.76305272  0.27117116  1
  S2-  S183  1  0.64910270  0.73516749  0.81229063  1
  S2-  S184  1  0.79404720  0.01240722  0.35217517  1
  S2-  S185  1  0.87792273  -0.01304315  0.83759058  1
  S2-  S186  1  0.78113595  0.25407135  0.35781920  1
  S2-  S187  1  0.91732891  0.24463960  0.84534616  1
  S2-  S188  1  0.86977672  0.54388689  0.35088959  1
  S2-  S189  1  0.89785762  0.49058221  0.83839286  1
  S2-  S190  1  0.80223272  0.77373153  0.34342600  1
  S2-  S191  1  0.84116008  0.73081985  0.82675589  1
  S2-  S192  1  0.01852054  0.11592833  0.46873584  1
  S2-  S193  1  0.00415735  0.13561484  0.95135841  1
  S2-  S194  1  0.02116036  0.36756463  0.46334520  1
  S2-  S195  1  -0.00006475  0.37648238  0.95235175  1
  S2-  S196  1  0.02140929  0.61269267  0.45778341  1
  S2-  S197  1  0.00332532  0.62694669  0.94830617  1
  S2-  S198  1  0.01741389  0.86370087  0.46111402  1
  S2-  S199  1  0.00524880  0.88649854  0.95005582  1
  S2-  S200  1  0.26012175  0.11479006  0.46181425  1
  S2-  S201  1  0.24642693  0.13365378  0.95377862  1
  S2-  S202  1  0.26254786  0.36250144  0.44593878  1
  S2-  S203  1  0.25214588  0.38089126  0.95679003  1
  S2-  S204  1  0.26600086  0.61684189  0.44550692  1
  S2-  S205  1  0.24981943  0.62852733  0.95054237  1
  S2-  S206  1  0.26802821  0.86850097  0.45314853  1
  S2-  S207  1  0.24757161  0.88333219  0.95379556  1
  S2-  S208  1  0.51829107  0.11170855  0.45247220  1
  S2-  S209  1  0.49710301  0.13156805  0.95602293  1
  S2-  S210  1  0.52089850  0.36546908  0.44694206  1
  S2-  S211  1  0.49715758  0.37892103  0.95686629  1
  S2-  S212  1  0.50936074  0.61671197  0.45638045  1
  S2-  S213  1  0.49865805  0.62933848  0.95462351  1
  S2-  S214  1  0.51532406  0.86990640  0.44926503  1
  S2-  S215  1  0.49903957  0.88668273  0.95634654  1
  S2-  S216  1  0.76705423  0.11695902  0.45815482  1
  S2-  S217  1  0.75213361  0.13124384  0.95831802  1
  S2-  S218  1  0.76523773  0.37327144  0.45218337  1
  S2-  S219  1  0.75151968  0.37776577  0.95140923  1
  S2-  S220  1  0.77050490  0.61538758  0.46033786  1
  S2-  S221  1  0.74777232  0.63567964  0.94501892  1
  S2-  S222  1  0.76061450  0.86755146  0.45248599  1
  S2-  S223  1  0.75210575  0.88023171  0.94910061  1
  S2-  S224  1  0.12448165  0.00571746  0.04987011  1
  S2-  S225  1  0.14122782  -0.01216410  0.54767217  1
  S2-  S226  1  0.12533195  0.25522013  0.05392697  1
  S2-  S227  1  0.14234266  0.24322016  0.54306795  1
  S2-  S228  1  0.12423576  0.50749188  0.04701332  1
  S2-  S229  1  0.14247517  0.49214976  0.54959224  1
  S2-  S230  1  0.12444742  0.75523939  0.04270617  1
  S2-  S231  1  0.14173075  0.74024925  0.54666477  1
  S2-  S232  1  0.37278742  0.00770596  0.05183698  1
  S2-  S233  1  0.39192121  -0.00742104  0.54617336  1
  S2-  S234  1  0.37436351  0.25551189  0.05008281  1
  S2-  S235  1  0.38969999  0.23927524  0.54288443  1
  S2-  S236  1  0.37424338  0.50535542  0.05405255  1
  S2-  S237  1  0.38782996  0.48768699  0.54008963  1
  S2-  S238  1  0.37208664  0.75574032  0.04693771  1
  S2-  S239  1  0.39179070  0.74170034  0.54621975  1
  S2-  S240  1  0.62746847  0.00659840  0.05025052  1
  S2-  S241  1  0.63815110  -0.00546263  0.53646228  1
  S2-  S242  1  0.62393603  0.25554031  0.04541778  1
  S2-  S243  1  0.64157846  0.23786776  0.54029192  1
  S2-  S244  1  0.62285525  0.50441767  0.05277839  1
  S2-  S245  1  0.64529275  0.49346606  0.54598649  1
  S2-  S246  1  0.62425558  0.75748464  0.03876332  1
  S2-  S247  1  0.63902570  0.73821175  0.54554525  1
  S2-  S248  1  0.87555606  0.00499835  0.04568752  1
  S2-  S249  1  0.89147317  -0.01071812  0.54958492  1
  S2-  S250  1  0.87510524  0.25591521  0.04525952  1
  S2-  S251  1  0.89129091  0.23970199  0.55061494  1
  S2-  S252  1  0.87621808  0.50658387  0.04509594  1
  S2-  S253  1  0.89177016  0.49357240  0.55429358  1
  S2-  S254  1  0.87856238  0.75669442  0.03460395  1
  S2-  S255  1  0.89687263  0.73758506  0.54158740  1
