# generated using pymatgen
data_La6Ce7Pr13Nd19Sm19(BiS2)64
_symmetry_space_group_name_H-M   'P 1'
_cell_length_a   16.07832452
_cell_length_b   16.05044787
_cell_length_c   27.31170254
_cell_angle_alpha   89.74089740
_cell_angle_beta   89.88447563
_cell_angle_gamma   89.97374737
_symmetry_Int_Tables_number   1
_chemical_formula_structural   La6Ce7Pr13Nd19Sm19(BiS2)64
_chemical_formula_sum   'La6 Ce7 Pr13 Nd19 Sm19 Bi64 S128'
_cell_volume   7048.08855174
_cell_formula_units_Z   1
loop_
 _symmetry_equiv_pos_site_id
 _symmetry_equiv_pos_as_xyz
  1  'x, y, z'
loop_
 _atom_type_symbol
 _atom_type_oxidation_number
  La3+  3.0
  Ce3+  3.0
  Pr3+  3.0
  Nd3+  3.0
  Sm3+  3.0
  Bi2+  2.0
  S2-  -2.0
loop_
 _atom_site_type_symbol
 _atom_site_label
 _atom_site_symmetry_multiplicity
 _atom_site_fract_x
 _atom_site_fract_y
 _atom_site_fract_z
 _atom_site_occupancy
  La3+  La0  1  0.34968061  -0.00359577  0.92215346  1
  La3+  La1  1  0.38159336  0.73429212  0.39032457  1
  La3+  La2  1  0.87019140  0.48578999  0.40636379  1
  La3+  La3  1  0.86385948  0.75613866  0.89396432  1
  La3+  La4  1  0.72839927  0.11236471  0.07532577  1
  La3+  La5  1  0.00700994  0.62712514  0.10573476  1
  Ce3+  Ce6  1  0.88101469  0.73296963  0.44187814  1
  Ce3+  Ce7  1  0.48858197  0.61766504  0.06493932  1
  Ce3+  Ce8  1  0.75110115  0.61606583  0.06535756  1
  Ce3+  Ce9  1  0.37769088  0.49125231  0.43919947  1
  Ce3+  Ce10  1  0.62182058  0.49807654  0.94748064  1
  Ce3+  Ce11  1  0.00284267  0.85406031  0.57226094  1
  Ce3+  Ce12  1  0.85771259  0.49760465  0.93433112  1
  Pr3+  Pr13  1  0.36709348  0.49658317  0.93543767  1
  Pr3+  Pr14  1  0.23462382  0.37129495  0.05714897  1
  Pr3+  Pr15  1  0.25253439  0.61139614  0.55622720  1
  Pr3+  Pr16  1  0.61755392  0.74550320  0.94664094  1
  Pr3+  Pr17  1  0.23380052  0.86229560  0.05978646  1
  Pr3+  Pr18  1  0.10963849  0.25071334  0.92270038  1
  Pr3+  Pr19  1  0.12299221  0.22874086  0.43230434  1
  Pr3+  Pr20  1  0.75434724  0.36016095  0.56154691  1
  Pr3+  Pr21  1  0.11097657  -0.00574283  0.94291139  1
  Pr3+  Pr22  1  0.61060222  -0.00430101  0.93848347  1
  Pr3+  Pr23  1  0.37644189  0.23302941  0.43787619  1
  Pr3+  Pr24  1  0.23824495  0.12174485  0.06294569  1
  Pr3+  Pr25  1  0.75298169  0.60932181  0.56214512  1
  Nd3+  Nd26  1  0.12671914  -0.02115107  0.43758591  1
  Nd3+  Nd27  1  -0.01068363  0.86366796  0.05188021  1
  Nd3+  Nd28  1  0.62548825  -0.01655121  0.44490934  1
  Nd3+  Nd29  1  0.86043216  0.24631498  0.93646193  1
  Nd3+  Nd30  1  0.36532892  0.74245657  0.93225259  1
  Nd3+  Nd31  1  -0.01787312  0.36907810  0.06908141  1
  Nd3+  Nd32  1  0.12163776  0.47830751  0.42185493  1
  Nd3+  Nd33  1  0.61617331  0.24311645  0.93551150  1
  Nd3+  Nd34  1  0.11881361  0.73982107  0.91548439  1
  Nd3+  Nd35  1  0.47825435  0.11878894  0.06301841  1
  Nd3+  Nd36  1  0.00631780  0.60530533  0.56584279  1
  Nd3+  Nd37  1  0.00270263  0.36261770  0.56127341  1
  Nd3+  Nd38  1  0.74008960  0.36056347  0.07129561  1
  Nd3+  Nd39  1  0.25250107  0.36152487  0.55416330  1
  Nd3+  Nd40  1  0.87623704  0.22911917  0.43685333  1
  Nd3+  Nd41  1  0.00965073  0.11521136  0.57677019  1
  Nd3+  Nd42  1  0.86117647  -0.00217297  0.93813154  1
  Nd3+  Nd43  1  0.75379548  0.10871889  0.56536299  1
  Nd3+  Nd44  1  0.10236445  0.49894513  0.93364093  1
  Sm3+  Sm45  1  0.48356415  0.86660310  0.05255606  1
  Sm3+  Sm46  1  0.49985913  0.85925850  0.55802634  1
  Sm3+  Sm47  1  0.74021477  0.86974184  0.06115475  1
  Sm3+  Sm48  1  0.87938020  -0.01128439  0.44906740  1
  Sm3+  Sm49  1  0.35879751  0.25383208  0.92494365  1
  Sm3+  Sm50  1  0.13040464  0.73672363  0.43877063  1
  Sm3+  Sm51  1  0.50231355  0.61247972  0.55756876  1
  Sm3+  Sm52  1  0.37658458  -0.01128129  0.43677806  1
  Sm3+  Sm53  1  0.50153930  0.10748492  0.56520082  1
  Sm3+  Sm54  1  0.48861814  0.36869246  0.05147004  1
  Sm3+  Sm55  1  0.25302271  0.11001564  0.56181909  1
  Sm3+  Sm56  1  0.62898572  0.48701114  0.44306082  1
  Sm3+  Sm57  1  0.23746203  0.61807196  0.05089272  1
  Sm3+  Sm58  1  0.75362685  0.85933733  0.55730863  1
  Sm3+  Sm59  1  -0.01245065  0.12345794  0.06021006  1
  Sm3+  Sm60  1  0.50112086  0.35913882  0.55493004  1
  Sm3+  Sm61  1  0.25252037  0.85881950  0.55762097  1
  Sm3+  Sm62  1  0.62808570  0.23501761  0.44721146  1
  Sm3+  Sm63  1  0.62472122  0.73807410  0.44115689  1
  Bi2+  Bi64  1  -0.00966590  0.10406624  0.28931037  1
  Bi2+  Bi65  1  0.04294924  0.11143710  0.79572155  1
  Bi2+  Bi66  1  0.01755445  0.32837006  0.29005863  1
  Bi2+  Bi67  1  -0.02680266  0.36843855  0.78632445  1
  Bi2+  Bi68  1  0.03315125  0.65053476  0.31859183  1
  Bi2+  Bi69  1  0.00525938  0.62826430  0.79062404  1
  Bi2+  Bi70  1  -0.02770470  0.88086690  0.30432794  1
  Bi2+  Bi71  1  -0.03165546  0.90105360  0.76893611  1
  Bi2+  Bi72  1  0.24199895  0.16183377  0.30119819  1
  Bi2+  Bi73  1  0.33091596  0.17647191  0.76720005  1
  Bi2+  Bi74  1  0.39957489  0.28181862  0.30962208  1
  Bi2+  Bi75  1  0.22980322  0.35803914  0.78859720  1
  Bi2+  Bi76  1  0.30046889  0.57502656  0.26831117  1
  Bi2+  Bi77  1  0.26396765  0.64020088  0.78255849  1
  Bi2+  Bi78  1  0.22693839  0.93424088  0.29271393  1
  Bi2+  Bi79  1  0.27786798  0.90386407  0.78740196  1
  Bi2+  Bi80  1  0.51496059  0.15139659  0.24208590  1
  Bi2+  Bi81  1  0.50393799  0.21070619  0.82128181  1
  Bi2+  Bi82  1  0.52580580  0.42945902  0.29263960  1
  Bi2+  Bi83  1  0.50474693  0.40481393  0.79992969  1
  Bi2+  Bi84  1  0.54692529  0.63437658  0.27985760  1
  Bi2+  Bi85  1  0.44881058  0.61903865  0.83121168  1
  Bi2+  Bi86  1  0.50244039  0.90070722  0.28909228  1
  Bi2+  Bi87  1  0.48691530  0.81310680  0.79758180  1
  Bi2+  Bi88  1  0.73039607  0.10085863  0.30394889  1
  Bi2+  Bi89  1  0.81105551  0.10507441  0.81280000  1
  Bi2+  Bi90  1  0.74179105  0.35315902  0.29265854  1
  Bi2+  Bi91  1  0.69848197  0.35963501  0.78997092  1
  Bi2+  Bi92  1  0.74355349  0.61973684  0.28238408  1
  Bi2+  Bi93  1  0.63699634  0.61911294  0.79956912  1
  Bi2+  Bi94  1  0.77501669  0.90450637  0.30232945  1
  Bi2+  Bi95  1  0.68729694  0.88431495  0.78310789  1
  Bi2+  Bi96  1  0.09067889  -0.01971351  0.21196751  1
  Bi2+  Bi97  1  0.19025257  0.04869170  0.73042158  1
  Bi2+  Bi98  1  0.12866157  0.16970423  0.20266751  1
  Bi2+  Bi99  1  0.09877208  0.24453596  0.71069592  1
  Bi2+  Bi100  1  0.15663086  0.49290855  0.21408274  1
  Bi2+  Bi101  1  0.12351789  0.49970747  0.70429622  1
  Bi2+  Bi102  1  0.14772474  0.75745568  0.20628388  1
  Bi2+  Bi103  1  0.12472865  0.77376426  0.69475213  1
  Bi2+  Bi104  1  0.36059894  0.03269178  0.23280371  1
  Bi2+  Bi105  1  0.45690067  0.00670152  0.72602395  1
  Bi2+  Bi106  1  0.33186897  0.25633173  0.20021991  1
  Bi2+  Bi107  1  0.35410831  0.33625886  0.69462941  1
  Bi2+  Bi108  1  0.43936992  0.48564525  0.19267178  1
  Bi2+  Bi109  1  0.38531621  0.53222516  0.71670737  1
  Bi2+  Bi110  1  0.39616912  0.79066604  0.20863433  1
  Bi2+  Bi111  1  0.37577489  0.74955948  0.70928645  1
  Bi2+  Bi112  1  0.61809869  -0.02525039  0.20407760  1
  Bi2+  Bi113  1  0.64636187  0.05977676  0.73668690  1
  Bi2+  Bi114  1  0.61679369  0.31042524  0.20727341  1
  Bi2+  Bi115  1  0.57145074  0.24076423  0.71634961  1
  Bi2+  Bi116  1  0.64071677  0.51439513  0.20129257  1
  Bi2+  Bi117  1  0.58871613  0.50467632  0.71139518  1
  Bi2+  Bi118  1  0.67470260  0.78103127  0.22522433  1
  Bi2+  Bi119  1  0.60227557  0.77484307  0.70399055  1
  Bi2+  Bi120  1  0.89070485  0.01107512  0.20536279  1
  Bi2+  Bi121  1  0.90569761  0.06329633  0.71492229  1
  Bi2+  Bi122  1  0.87409797  0.25455180  0.21084864  1
  Bi2+  Bi123  1  0.83928602  0.25248946  0.72136928  1
  Bi2+  Bi124  1  0.89922236  0.50365665  0.21510957  1
  Bi2+  Bi125  1  0.86277363  0.48552592  0.71074895  1
  Bi2+  Bi126  1  0.86889261  0.81369687  0.21634371  1
  Bi2+  Bi127  1  0.84164239  0.74193217  0.69885320  1
  S2-  S128  1  -0.00025743  0.22636606  0.14111908  1
  S2-  S129  1  -0.01702192  0.25125714  0.64163715  1
  S2-  S130  1  0.03294834  0.46389943  0.15179322  1
  S2-  S131  1  -0.00290941  0.48132961  0.64112272  1
  S2-  S132  1  0.02130022  0.63446014  0.22289378  1
  S2-  S133  1  -0.01288225  0.71491101  0.64541785  1
  S2-  S134  1  0.03163885  0.79736492  0.14203329  1
  S2-  S135  1  0.04031919  0.90582326  0.66629275  1
  S2-  S136  1  0.35332270  0.10888539  0.13805512  1
  S2-  S137  1  0.15427057  0.11736410  0.64157286  1
  S2-  S138  1  0.23281690  0.37560518  0.15955036  1
  S2-  S139  1  0.20010749  0.36714426  0.64890218  1
  S2-  S140  1  0.18357940  0.62352377  0.14478625  1
  S2-  S141  1  0.18189890  0.62028475  0.64911786  1
  S2-  S142  1  0.26476197  0.85587565  0.15894153  1
  S2-  S143  1  0.26603008  0.84977142  0.65773905  1
  S2-  S144  1  0.57663680  0.10849621  0.14574024  1
  S2-  S145  1  0.44483324  0.12306542  0.65670126  1
  S2-  S146  1  0.47044963  0.32606229  0.14586601  1
  S2-  S147  1  0.52085337  0.36679292  0.65215029  1
  S2-  S148  1  0.41742398  0.64403951  0.15242424  1
  S2-  S149  1  0.50467507  0.62834417  0.65565899  1
  S2-  S150  1  0.49513089  0.87833486  0.15034567  1
  S2-  S151  1  0.50830307  0.88823312  0.65472524  1
  S2-  S152  1  0.74432396  0.23023267  0.15035517  1
  S2-  S153  1  0.74554047  0.13479134  0.66215990  1
  S2-  S154  1  0.85150223  0.39129778  0.14911229  1
  S2-  S155  1  0.77266986  0.37744773  0.66194077  1
  S2-  S156  1  0.84434875  0.61115941  0.14984334  1
  S2-  S157  1  0.76572064  0.60258240  0.66282361  1
  S2-  S158  1  0.75334755  0.97305480  0.14079655  1
  S2-  S159  1  0.75076776  0.86003509  0.65534682  1
  S2-  S160  1  0.11746609  0.09540003  0.36239087  1
  S2-  S161  1  0.20187606  -0.01059647  0.85719413  1
  S2-  S162  1  0.13548897  0.34112292  0.35257085  1
  S2-  S163  1  0.10759018  0.38761374  0.85258448  1
  S2-  S164  1  0.17167412  0.57217474  0.34139026  1
  S2-  S165  1  0.14118643  0.59667025  0.84968009  1
  S2-  S166  1  0.11779807  0.85130962  0.36170947  1
  S2-  S167  1  0.04038398  0.78839674  0.82645819  1
  S2-  S168  1  0.36610205  -0.09905604  0.35176344  1
  S2-  S169  1  0.42665182  -0.02622920  0.83140288  1
  S2-  S170  1  0.38159046  0.11733842  0.36326094  1
  S2-  S171  1  0.24342405  0.21769830  0.85249391  1
  S2-  S172  1  0.40112955  0.56398883  0.35091838  1
  S2-  S173  1  0.35808441  0.39456339  0.85413849  1
  S2-  S174  1  0.29743107  0.73390543  0.29303406  1
  S2-  S175  1  0.26360551  0.77145242  0.85224891  1
  S2-  S176  1  0.60768086  0.00450169  0.34701997  1
  S2-  S177  1  0.66137038  0.02264598  0.84339667  1
  S2-  S178  1  0.65550085  0.22836507  0.34985071  1
  S2-  S179  1  0.73837214  0.24492920  0.86039970  1
  S2-  S180  1  0.71283975  0.48990270  0.35671319  1
  S2-  S181  1  0.70668511  0.49539564  0.86136809  1
  S2-  S182  1  0.54696210  0.75364721  0.35236902  1
  S2-  S183  1  0.69188858  0.75866600  0.85591230  1
  S2-  S184  1  0.87237742  0.09452953  0.36877596  1
  S2-  S185  1  0.86706691  -0.07970294  0.84766402  1
  S2-  S186  1  0.87181781  0.32282227  0.35111132  1
  S2-  S187  1  0.97074782  0.22936843  0.85590908  1
  S2-  S188  1  0.98328050  0.48744681  0.32710119  1
  S2-  S189  1  0.91924217  0.49440887  0.83882076  1
  S2-  S190  1  0.86663630  0.65839305  0.35442939  1
  S2-  S191  1  0.85720822  0.69302444  0.79578757  1
  S2-  S192  1  0.00200595  0.10623678  0.46934267  1
  S2-  S193  1  -0.01213509  0.11816797  0.95696604  1
  S2-  S194  1  -0.00366897  0.36025166  0.45411122  1
  S2-  S195  1  -0.01826350  0.37091295  0.95828982  1
  S2-  S196  1  0.00795072  0.61027677  0.45314627  1
  S2-  S197  1  -0.02261355  0.62930047  0.93376071  1
  S2-  S198  1  -0.00173578  0.86054176  0.46321035  1
  S2-  S199  1  -0.01354124  0.86682884  0.94784493  1
  S2-  S200  1  0.25075670  0.10744816  0.46070797  1
  S2-  S201  1  0.23526075  0.12261359  0.95795331  1
  S2-  S202  1  0.25675425  0.36357879  0.44913120  1
  S2-  S203  1  0.23714456  0.37397688  0.95338245  1
  S2-  S204  1  0.26091404  0.62359102  0.45025370  1
  S2-  S205  1  0.24238059  0.61768611  0.94965843  1
  S2-  S206  1  0.25806141  0.85837199  0.45517203  1
  S2-  S207  1  0.23556773  0.86485380  0.95560945  1
  S2-  S208  1  0.50613804  0.11003460  0.46108342  1
  S2-  S209  1  0.48212998  0.12081142  0.94963943  1
  S2-  S210  1  0.50459197  0.36171517  0.45014242  1
  S2-  S211  1  0.49637533  0.37174344  0.94921158  1
  S2-  S212  1  0.50624667  0.61337588  0.45425734  1
  S2-  S213  1  0.49293080  0.61980165  0.95884294  1
  S2-  S214  1  0.49842217  0.86048849  0.45538948  1
  S2-  S215  1  0.48591363  0.86904682  0.94748043  1
  S2-  S216  1  0.74661476  0.10766417  0.46146611  1
  S2-  S217  1  0.73690731  0.11617449  0.96251432  1
  S2-  S218  1  0.74880967  0.35918125  0.45658973  1
  S2-  S219  1  0.73709247  0.36825012  0.96406690  1
  S2-  S220  1  0.74668158  0.61500396  0.45648183  1
  S2-  S221  1  0.74472444  0.62700567  0.95986892  1
  S2-  S222  1  0.75361076  0.86087814  0.45189076  1
  S2-  S223  1  0.74103922  0.87281492  0.95771334  1
  S2-  S224  1  0.11199584  -0.00388821  0.05129966  1
  S2-  S225  1  0.13131174  -0.01761693  0.54640925  1
  S2-  S226  1  0.11317266  0.24492264  0.04008121  1
  S2-  S227  1  0.13106485  0.23743852  0.54005460  1
  S2-  S228  1  0.11147611  0.49883790  0.04024836  1
  S2-  S229  1  0.13074737  0.48521005  0.53442680  1
  S2-  S230  1  0.11302519  0.73681184  0.03402156  1
  S2-  S231  1  0.12870259  0.73730184  0.54163426  1
  S2-  S232  1  0.36005042  -0.01203603  0.03709852  1
  S2-  S233  1  0.37616845  -0.01444452  0.54784934  1
  S2-  S234  1  0.36270721  0.24899972  0.03467709  1
  S2-  S235  1  0.37820894  0.23369327  0.54578678  1
  S2-  S236  1  0.36415593  0.49428444  0.04404351  1
  S2-  S237  1  0.38078685  0.48630453  0.54748947  1
  S2-  S238  1  0.36276385  0.74157315  0.03980184  1
  S2-  S239  1  0.37927255  0.73605782  0.55483088  1
  S2-  S240  1  0.60539300  -0.01273894  0.04315410  1
  S2-  S241  1  0.62665436  -0.01635115  0.55194221  1
  S2-  S242  1  0.60836696  0.24344513  0.04158122  1
  S2-  S243  1  0.62433455  0.23328701  0.55258604  1
  S2-  S244  1  0.61581846  0.49241839  0.05497638  1
  S2-  S245  1  0.62390044  0.48497915  0.54814792  1
  S2-  S246  1  0.61562787  0.74499861  0.05478314  1
  S2-  S247  1  0.62619830  0.73792862  0.54671208  1
  S2-  S248  1  0.87004059  -0.00561085  0.04364179  1
  S2-  S249  1  0.87850573  -0.01487567  0.55465621  1
  S2-  S250  1  0.86137452  0.23904531  0.04290536  1
  S2-  S251  1  0.87418035  0.23211745  0.54430153  1
  S2-  S252  1  0.86480647  0.49338846  0.04113427  1
  S2-  S253  1  0.87476993  0.48618427  0.54222423  1
  S2-  S254  1  0.86260261  0.74930744  0.05534466  1
  S2-  S255  1  0.87405016  0.73448911  0.54561169  1
