# generated using pymatgen
data_La6Ce7Pr13Nd19Sm19(BiS2)64
_symmetry_space_group_name_H-M   'P 1'
_cell_length_a   16.05673782
_cell_length_b   16.05857438
_cell_length_c   27.44222540
_cell_angle_alpha   89.98531034
_cell_angle_beta   89.92234244
_cell_angle_gamma   89.91939255
_symmetry_Int_Tables_number   1
_chemical_formula_structural   La6Ce7Pr13Nd19Sm19(BiS2)64
_chemical_formula_sum   'La6 Ce7 Pr13 Nd19 Sm19 Bi64 S128'
_cell_volume   7075.91794693
_cell_formula_units_Z   1
loop_
 _symmetry_equiv_pos_site_id
 _symmetry_equiv_pos_as_xyz
  1  'x, y, z'
loop_
 _atom_type_symbol
 _atom_type_oxidation_number
  La3+  3.0
  Ce3+  3.0
  Pr3+  3.0
  Nd3+  3.0
  Sm3+  3.0
  Bi2+  2.0
  S2-  -2.0
loop_
 _atom_site_type_symbol
 _atom_site_label
 _atom_site_symmetry_multiplicity
 _atom_site_fract_x
 _atom_site_fract_y
 _atom_site_fract_z
 _atom_site_occupancy
  La3+  La0  1  -0.00327678  0.12928813  0.61644031  1
  La3+  La1  1  0.49568149  0.62486857  0.60993154  1
  La3+  La2  1  0.39116669  0.75086792  0.41439603  1
  La3+  La3  1  0.89294737  0.49495441  0.40614742  1
  La3+  La4  1  0.88766223  0.75920819  0.40426103  1
  La3+  La5  1  -0.01593296  0.62178607  0.11144996  1
  Ce3+  Ce6  1  0.24596596  0.62190253  0.05870487  1
  Ce3+  Ce7  1  -0.00990824  0.37401842  0.06524430  1
  Ce3+  Ce8  1  0.51372949  0.37096768  0.56543075  1
  Ce3+  Ce9  1  0.37005162  0.24771020  0.93523007  1
  Ce3+  Ce10  1  0.61946959  0.25034660  0.93416287  1
  Ce3+  Ce11  1  0.49511139  0.86477006  0.06197311  1
  Ce3+  Ce12  1  0.25432051  0.12066105  0.56434041  1
  Pr3+  Pr13  1  0.36503080  0.74831404  0.92930049  1
  Pr3+  Pr14  1  0.38893677  0.00060054  0.43398700  1
  Pr3+  Pr15  1  0.62541761  0.50318258  0.92638530  1
  Pr3+  Pr16  1  0.63633150  0.50260272  0.43924958  1
  Pr3+  Pr17  1  0.24366341  0.12472354  0.05824820  1
  Pr3+  Pr18  1  0.73807369  0.61542203  0.07468062  1
  Pr3+  Pr19  1  0.11423522  0.25074508  0.93605244  1
  Pr3+  Pr20  1  0.49626222  0.61813764  0.06352216  1
  Pr3+  Pr21  1  -0.00769157  0.12501732  0.07257540  1
  Pr3+  Pr22  1  0.13479084  -0.00358084  0.44040960  1
  Pr3+  Pr23  1  0.87155816  0.74483903  0.95263100  1
  Pr3+  Pr24  1  0.76573291  0.37449400  0.56042328  1
  Pr3+  Pr25  1  0.00369112  0.87665610  0.08594138  1
  Nd3+  Nd26  1  0.26649113  0.87026296  0.55462819  1
  Nd3+  Nd27  1  0.86500794  0.23926004  0.93041324  1
  Nd3+  Nd28  1  0.37139143  0.49453492  0.93082790  1
  Nd3+  Nd29  1  0.24260537  0.37361975  0.05792589  1
  Nd3+  Nd30  1  0.12015135  -0.00124388  0.94528513  1
  Nd3+  Nd31  1  0.74483603  0.86705746  0.05852216  1
  Nd3+  Nd32  1  0.38806860  0.24614457  0.45003012  1
  Nd3+  Nd33  1  0.26344405  0.37965508  0.56285311  1
  Nd3+  Nd34  1  0.63754505  0.25080733  0.44024080  1
  Nd3+  Nd35  1  0.63897784  0.74776246  0.42734813  1
  Nd3+  Nd36  1  0.61268515  0.74745060  0.92816668  1
  Nd3+  Nd37  1  0.87077884  -0.00671951  0.94268430  1
  Nd3+  Nd38  1  0.89109870  0.25272683  0.43917003  1
  Nd3+  Nd39  1  0.12175012  0.74834397  0.94808089  1
  Nd3+  Nd40  1  0.13623835  0.74799682  0.42628869  1
  Nd3+  Nd41  1  0.14373658  0.49814977  0.42911091  1
  Nd3+  Nd42  1  0.74475584  0.12294518  0.05777036  1
  Nd3+  Nd43  1  0.25504027  0.86721817  0.07258045  1
  Nd3+  Nd44  1  0.01515761  0.38520010  0.56497132  1
  Sm3+  Sm45  1  0.36919347  -0.00058976  0.94747476  1
  Sm3+  Sm46  1  0.76816283  0.12339910  0.55405083  1
  Sm3+  Sm47  1  0.13478504  0.24945353  0.44796383  1
  Sm3+  Sm48  1  0.63989404  0.00019419  0.44299223  1
  Sm3+  Sm49  1  0.88990392  -0.00117827  0.44143831  1
  Sm3+  Sm50  1  0.61714633  -0.00367765  0.95011822  1
  Sm3+  Sm51  1  0.49524629  0.37414648  0.05919289  1
  Sm3+  Sm52  1  0.75571540  0.62719292  0.55209649  1
  Sm3+  Sm53  1  0.51265106  0.12430286  0.56743825  1
  Sm3+  Sm54  1  0.76396006  0.87249231  0.55250342  1
  Sm3+  Sm55  1  0.74660841  0.37560703  0.05117024  1
  Sm3+  Sm56  1  0.51434830  0.87090058  0.55351261  1
  Sm3+  Sm57  1  0.26553439  0.62714815  0.55026196  1
  Sm3+  Sm58  1  0.01246635  0.87462359  0.56196059  1
  Sm3+  Sm59  1  0.49663071  0.13074545  0.06175032  1
  Sm3+  Sm60  1  0.87216332  0.49977779  0.94344597  1
  Sm3+  Sm61  1  0.01167141  0.62461170  0.55359148  1
  Sm3+  Sm62  1  0.38871485  0.49881913  0.43843215  1
  Sm3+  Sm63  1  0.11593263  0.49659207  0.95165183  1
  Bi2+  Bi64  1  0.02744163  0.15672296  0.27979575  1
  Bi2+  Bi65  1  0.02141072  0.13667970  0.81863423  1
  Bi2+  Bi66  1  0.01689750  0.36885213  0.28606554  1
  Bi2+  Bi67  1  -0.01979558  0.41504407  0.79930639  1
  Bi2+  Bi68  1  -0.01807925  0.61690458  0.27814915  1
  Bi2+  Bi69  1  0.00446203  0.67446803  0.79943562  1
  Bi2+  Bi70  1  0.00780840  0.88572324  0.28901525  1
  Bi2+  Bi71  1  -0.03610120  0.87570780  0.78220792  1
  Bi2+  Bi72  1  0.30245526  0.10426174  0.29263507  1
  Bi2+  Bi73  1  0.23165475  0.02242847  0.77203023  1
  Bi2+  Bi74  1  0.25618412  0.29717366  0.29087503  1
  Bi2+  Bi75  1  0.24687620  0.38753449  0.81374032  1
  Bi2+  Bi76  1  0.24953831  0.58007573  0.28387960  1
  Bi2+  Bi77  1  0.19403392  0.69468216  0.77191255  1
  Bi2+  Bi78  1  0.25894622  0.85878091  0.28587254  1
  Bi2+  Bi79  1  0.33692205  0.86673574  0.80549441  1
  Bi2+  Bi80  1  0.48979892  0.12569622  0.31608515  1
  Bi2+  Bi81  1  0.49062690  0.09522629  0.79033084  1
  Bi2+  Bi82  1  0.52085045  0.34743408  0.28908818  1
  Bi2+  Bi83  1  0.48859741  0.34222797  0.72733204  1
  Bi2+  Bi84  1  0.45445390  0.62074866  0.29503127  1
  Bi2+  Bi85  1  0.49838402  0.59973925  0.81081337  1
  Bi2+  Bi86  1  0.51158417  0.91318992  0.28065199  1
  Bi2+  Bi87  1  0.52828877  0.89065214  0.77784877  1
  Bi2+  Bi88  1  0.69198239  0.12637106  0.30930006  1
  Bi2+  Bi89  1  0.74747409  0.09848619  0.79019386  1
  Bi2+  Bi90  1  0.79485924  0.28661710  0.26860490  1
  Bi2+  Bi91  1  0.71585019  0.39390497  0.79953477  1
  Bi2+  Bi92  1  0.67209172  0.63137313  0.29558851  1
  Bi2+  Bi93  1  0.74268905  0.69881889  0.77785736  1
  Bi2+  Bi94  1  0.73926971  0.93906905  0.25714043  1
  Bi2+  Bi95  1  0.72662354  0.89913803  0.79354305  1
  Bi2+  Bi96  1  0.12581325  0.03096884  0.21246254  1
  Bi2+  Bi97  1  0.12210394  -0.11235039  0.71207914  1
  Bi2+  Bi98  1  0.12199976  0.22258658  0.18036574  1
  Bi2+  Bi99  1  0.13189645  0.25798307  0.71043164  1
  Bi2+  Bi100  1  0.16519121  0.42270815  0.21746927  1
  Bi2+  Bi101  1  0.10246211  0.52551490  0.72738625  1
  Bi2+  Bi102  1  0.16247504  0.75484263  0.21052574  1
  Bi2+  Bi103  1  0.08595346  0.70171061  0.67208637  1
  Bi2+  Bi104  1  0.37297229  -0.00300922  0.20765547  1
  Bi2+  Bi105  1  0.35837020  0.04613080  0.68165227  1
  Bi2+  Bi106  1  0.39293614  0.26302422  0.21212119  1
  Bi2+  Bi107  1  0.34872948  0.20930786  0.74344272  1
  Bi2+  Bi108  1  0.38917649  0.48560252  0.22060223  1
  Bi2+  Bi109  1  0.34642190  0.47725696  0.70829206  1
  Bi2+  Bi110  1  0.42103744  0.71745166  0.19721179  1
  Bi2+  Bi111  1  0.35811927  0.74898864  0.70717022  1
  Bi2+  Bi112  1  0.56207543  0.06489607  0.20780412  1
  Bi2+  Bi113  1  0.54936825  0.01487510  0.68215561  1
  Bi2+  Bi114  1  0.64585917  0.24537673  0.19829734  1
  Bi2+  Bi115  1  0.61971948  0.18810706  0.71848501  1
  Bi2+  Bi116  1  0.60272930  0.45901918  0.21156390  1
  Bi2+  Bi117  1  0.69886411  0.51170505  0.71362304  1
  Bi2+  Bi118  1  0.60246975  0.79602394  0.20297812  1
  Bi2+  Bi119  1  0.63894034  0.78060255  0.69545413  1
  Bi2+  Bi120  1  0.87660011  0.07137883  0.22487959  1
  Bi2+  Bi121  1  0.84626993  -0.02147390  0.71143823  1
  Bi2+  Bi122  1  0.93204826  0.26186108  0.18167015  1
  Bi2+  Bi123  1  0.85871709  0.26401057  0.71018396  1
  Bi2+  Bi124  1  0.83550697  0.48862977  0.21460350  1
  Bi2+  Bi125  1  0.88886426  0.53280192  0.72197143  1
  Bi2+  Bi126  1  0.84237993  0.77463710  0.22378748  1
  Bi2+  Bi127  1  0.89611462  0.72791737  0.70424109  1
  S2-  S128  1  -0.01867861  0.01444376  0.15150183  1
  S2-  S129  1  0.00034813  0.14498347  0.72490168  1
  S2-  S130  1  -0.03990944  0.44717925  0.15188690  1
  S2-  S131  1  -0.00234367  0.30150951  0.65233208  1
  S2-  S132  1  0.07451075  0.60342917  0.19970802  1
  S2-  S133  1  0.04095845  0.52264150  0.63433743  1
  S2-  S134  1  -0.02130919  0.78082478  0.17006546  1
  S2-  S135  1  -0.00437927  0.95835660  0.64775248  1
  S2-  S136  1  0.26441552  0.11567174  0.15690276  1
  S2-  S137  1  0.16794776  0.13594611  0.64963767  1
  S2-  S138  1  0.29013390  0.37957721  0.15258965  1
  S2-  S139  1  0.24336807  0.37592083  0.66241307  1
  S2-  S140  1  0.27769990  0.66112251  0.15189352  1
  S2-  S141  1  0.31875771  0.61373652  0.64418019  1
  S2-  S142  1  0.15877631  0.88824154  0.15412847  1
  S2-  S143  1  0.26752737  0.87296672  0.65449534  1
  S2-  S144  1  0.49889035  0.25045373  0.13403761  1
  S2-  S145  1  0.52508258  0.24575833  0.63906403  1
  S2-  S146  1  0.49148785  0.48730335  0.13587450  1
  S2-  S147  1  0.49524308  0.45944864  0.64979043  1
  S2-  S148  1  0.60633111  0.66924408  0.14033461  1
  S2-  S149  1  0.48905778  0.63669688  0.71939225  1
  S2-  S150  1  0.39027072  0.86257522  0.14061609  1
  S2-  S151  1  0.48864783  0.79756591  0.64102157  1
  S2-  S152  1  0.76749942  0.14856567  0.15379687  1
  S2-  S153  1  0.82104821  0.13168582  0.64677970  1
  S2-  S154  1  0.72442846  0.44965929  0.13955580  1
  S2-  S155  1  0.75776413  0.36170009  0.66209343  1
  S2-  S156  1  0.82817386  0.63297365  0.16424525  1
  S2-  S157  1  0.67163370  0.63067058  0.63977404  1
  S2-  S158  1  0.75502628  0.88238454  0.15638825  1
  S2-  S159  1  0.74707521  0.88553820  0.65043272  1
  S2-  S160  1  0.13631810  -0.05411357  0.34306265  1
  S2-  S161  1  0.10674607  -0.00497861  0.84638811  1
  S2-  S162  1  0.11852891  0.26264229  0.35031332  1
  S2-  S163  1  0.15791180  0.25103771  0.83791916  1
  S2-  S164  1  0.04111310  0.50640413  0.34780279  1
  S2-  S165  1  0.11845852  0.48193794  0.85453208  1
  S2-  S166  1  0.02865525  0.74193967  0.34346304  1
  S2-  S167  1  0.22339778  0.76641226  0.86612193  1
  S2-  S168  1  0.38387133  -0.10005103  0.35111369  1
  S2-  S169  1  0.35564317  0.02720644  0.85118587  1
  S2-  S170  1  0.40480732  0.28072110  0.35387032  1
  S2-  S171  1  0.38002844  0.29435498  0.84199627  1
  S2-  S172  1  0.27794184  0.48555546  0.35968591  1
  S2-  S173  1  0.34670195  0.53741268  0.83493140  1
  S2-  S174  1  0.25085123  0.72607264  0.34701908  1
  S2-  S175  1  0.48523297  0.76234064  0.85367802  1
  S2-  S176  1  0.64628268  -0.03653822  0.34791657  1
  S2-  S177  1  0.60921330  0.00127524  0.85280488  1
  S2-  S178  1  0.66457348  0.29041387  0.34518834  1
  S2-  S179  1  0.69651523  0.24403830  0.84719092  1
  S2-  S180  1  0.57996814  0.50664272  0.34341483  1
  S2-  S181  1  0.56713640  0.44048661  0.83657993  1
  S2-  S182  1  0.53122055  0.74198763  0.34636415  1
  S2-  S183  1  0.65665281  0.63529423  0.85585906  1
  S2-  S184  1  0.89617668  -0.07399712  0.35270261  1
  S2-  S185  1  0.87238113  0.07785330  0.85689848  1
  S2-  S186  1  0.88966337  0.33901492  0.35239854  1
  S2-  S187  1  0.92292684  0.27980292  0.83978481  1
  S2-  S188  1  0.82410035  0.54839891  0.31454799  1
  S2-  S189  1  0.84479616  0.49310671  0.84665155  1
  S2-  S190  1  0.74714588  0.74700276  0.34398914  1
  S2-  S191  1  0.89561052  0.77575720  0.85433402  1
  S2-  S192  1  0.01126674  0.12420055  0.44137153  1
  S2-  S193  1  -0.00563494  0.12221372  0.96163926  1
  S2-  S194  1  0.01486026  0.37719271  0.45763978  1
  S2-  S195  1  -0.00962122  0.37265228  0.95744311  1
  S2-  S196  1  0.00814189  0.62615491  0.45116370  1
  S2-  S197  1  -0.00205363  0.62226227  0.95018868  1
  S2-  S198  1  0.00966133  0.87072251  0.45746006  1
  S2-  S199  1  -0.00188507  0.87345214  0.96037907  1
  S2-  S200  1  0.25999724  0.12325645  0.45391765  1
  S2-  S201  1  0.24374900  0.12512695  0.95196744  1
  S2-  S202  1  0.26309428  0.36819435  0.45767430  1
  S2-  S203  1  0.24313754  0.37277148  0.95269361  1
  S2-  S204  1  0.26543941  0.62632377  0.45031114  1
  S2-  S205  1  0.24272314  0.61592088  0.95428346  1
  S2-  S206  1  0.26194131  0.87296243  0.45091303  1
  S2-  S207  1  0.24631790  0.87924889  0.96668897  1
  S2-  S208  1  0.51624993  0.12327382  0.45983697  1
  S2-  S209  1  0.49578090  0.12303928  0.95663193  1
  S2-  S210  1  0.51126184  0.37318822  0.45714882  1
  S2-  S211  1  0.49516757  0.37207211  0.95385781  1
  S2-  S212  1  0.50870382  0.62234000  0.44681417  1
  S2-  S213  1  0.49111769  0.61968311  0.95233490  1
  S2-  S214  1  0.51725169  0.87817937  0.45127341  1
  S2-  S215  1  0.49115344  0.87736238  0.95673684  1
  S2-  S216  1  0.76586502  0.12440393  0.44952979  1
  S2-  S217  1  0.74038959  0.11813668  0.95417496  1
  S2-  S218  1  0.76485654  0.37711780  0.45388650  1
  S2-  S219  1  0.74862497  0.37368834  0.94896716  1
  S2-  S220  1  0.76954884  0.62320856  0.44828998  1
  S2-  S221  1  0.74920912  0.62183413  0.96256071  1
  S2-  S222  1  0.76385502  0.87631856  0.45105650  1
  S2-  S223  1  0.74159556  0.87174313  0.95194757  1
  S2-  S224  1  0.12081820  0.00034610  0.04999100  1
  S2-  S225  1  0.13694004  -0.00629173  0.54583844  1
  S2-  S226  1  0.11679928  0.25008028  0.04462369  1
  S2-  S227  1  0.13697672  0.25460257  0.54917870  1
  S2-  S228  1  0.11611468  0.50070228  0.05670019  1
  S2-  S229  1  0.14468070  0.50391646  0.53527560  1
  S2-  S230  1  0.11798877  0.74412794  0.05357345  1
  S2-  S231  1  0.13729385  0.74911134  0.54011756  1
  S2-  S232  1  0.37573436  0.00434378  0.05030121  1
  S2-  S233  1  0.39099984  -0.00046135  0.54282878  1
  S2-  S234  1  0.36820215  0.24937002  0.04111606  1
  S2-  S235  1  0.38104355  0.24480373  0.55373269  1
  S2-  S236  1  0.36700448  0.49458313  0.03821337  1
  S2-  S237  1  0.38824547  0.50114238  0.54164361  1
  S2-  S238  1  0.37242503  0.74175446  0.03739892  1
  S2-  S239  1  0.38999868  0.74784714  0.53811099  1
  S2-  S240  1  0.61726305  -0.00171546  0.05480705  1
  S2-  S241  1  0.63987298  0.00109820  0.54694168  1
  S2-  S242  1  0.62501880  0.25062052  0.03949026  1
  S2-  S243  1  0.64401376  0.24403847  0.54450109  1
  S2-  S244  1  0.61939736  0.49325882  0.03391440  1
  S2-  S245  1  0.63790053  0.49692961  0.54499625  1
  S2-  S246  1  0.61942510  0.74891443  0.03427186  1
  S2-  S247  1  0.63982490  0.75467571  0.53491202  1
  S2-  S248  1  0.86805618  -0.00433594  0.04769346  1
  S2-  S249  1  0.88766663  -0.00205776  0.54327788  1
  S2-  S250  1  0.86763030  0.24808608  0.04117831  1
  S2-  S251  1  0.89192352  0.24713035  0.54391164  1
  S2-  S252  1  0.87119643  0.50247259  0.04630831  1
  S2-  S253  1  0.88248902  0.50601738  0.55040896  1
  S2-  S254  1  0.87270125  0.74624458  0.05685814  1
  S2-  S255  1  0.88675690  0.74839621  0.55431920  1
