# generated using pymatgen
data_La6Ce7Pr13Nd19Sm19(BiS2)64
_symmetry_space_group_name_H-M   'P 1'
_cell_length_a   16.14877681
_cell_length_b   16.13657019
_cell_length_c   27.22993932
_cell_angle_alpha   89.97319113
_cell_angle_beta   89.92421441
_cell_angle_gamma   89.96244957
_symmetry_Int_Tables_number   1
_chemical_formula_structural   La6Ce7Pr13Nd19Sm19(BiS2)64
_chemical_formula_sum   'La6 Ce7 Pr13 Nd19 Sm19 Bi64 S128'
_cell_volume   7095.72893505
_cell_formula_units_Z   1
loop_
 _symmetry_equiv_pos_site_id
 _symmetry_equiv_pos_as_xyz
  1  'x, y, z'
loop_
 _atom_type_symbol
 _atom_type_oxidation_number
  La3+  3.0
  Ce3+  3.0
  Pr3+  3.0
  Nd3+  3.0
  Sm3+  3.0
  Bi2+  2.0
  S2-  -2.0
loop_
 _atom_site_type_symbol
 _atom_site_label
 _atom_site_symmetry_multiplicity
 _atom_site_fract_x
 _atom_site_fract_y
 _atom_site_fract_z
 _atom_site_occupancy
  La3+  La0  1  0.64813351  0.74868357  0.42951455  1
  La3+  La1  1  0.39115111  0.50863329  0.40376479  1
  La3+  La2  1  0.62369512  0.73157784  0.88576910  1
  La3+  La3  1  0.77082302  0.62643330  0.56806287  1
  La3+  La4  1  0.12151304  0.25875565  0.90652348  1
  La3+  La5  1  0.02068771  0.11370579  0.60695313  1
  Ce3+  Ce6  1  -0.00168768  0.63047113  0.06305433  1
  Ce3+  Ce7  1  -0.00238142  0.87627622  0.06358492  1
  Ce3+  Ce8  1  0.26543539  0.37250612  0.55452997  1
  Ce3+  Ce9  1  0.26942831  0.62432655  0.55474868  1
  Ce3+  Ce10  1  0.86481333  0.25706930  0.94139664  1
  Ce3+  Ce11  1  0.49694800  0.37922575  0.06977320  1
  Ce3+  Ce12  1  0.51332303  0.12648637  0.55796895  1
  Pr3+  Pr13  1  0.12336749  0.49942995  0.94532398  1
  Pr3+  Pr14  1  0.39997937  0.75426928  0.42853270  1
  Pr3+  Pr15  1  0.11971770  0.75204786  0.93544995  1
  Pr3+  Pr16  1  0.11836156  0.01160998  0.94495501  1
  Pr3+  Pr17  1  0.14429481  0.24333899  0.40858431  1
  Pr3+  Pr18  1  0.89309944  0.00764482  0.42996487  1
  Pr3+  Pr19  1  0.64233167  0.50285225  0.43014931  1
  Pr3+  Pr20  1  0.24446173  0.12718312  0.07130643  1
  Pr3+  Pr21  1  0.38887992  0.25094984  0.43122608  1
  Pr3+  Pr22  1  0.37503059  0.75166107  0.94031338  1
  Pr3+  Pr23  1  -0.01438269  0.12443055  0.08489708  1
  Pr3+  Pr24  1  0.39181858  0.00002931  0.43956273  1
  Pr3+  Pr25  1  0.87556642  0.75391565  0.93324507  1
  Nd3+  Nd26  1  0.76990579  0.87767111  0.55748911  1
  Nd3+  Nd27  1  0.64261016  0.00253139  0.44544573  1
  Nd3+  Nd28  1  0.63979080  0.25283888  0.44335364  1
  Nd3+  Nd29  1  0.01543993  0.62332576  0.55761548  1
  Nd3+  Nd30  1  -0.00504568  0.38415475  0.07342907  1
  Nd3+  Nd31  1  0.88985954  0.49427514  0.42650389  1
  Nd3+  Nd32  1  0.14243622  0.74741544  0.44125901  1
  Nd3+  Nd33  1  0.87053422  0.50218034  0.94552596  1
  Nd3+  Nd34  1  0.24532724  0.37475917  0.07597177  1
  Nd3+  Nd35  1  0.52125119  0.62198967  0.56070522  1
  Nd3+  Nd36  1  0.62204053  0.25649174  0.93504249  1
  Nd3+  Nd37  1  0.76909642  0.37462878  0.55795358  1
  Nd3+  Nd38  1  0.62071327  -0.00322283  0.93012532  1
  Nd3+  Nd39  1  0.89281512  0.24670094  0.42972920  1
  Nd3+  Nd40  1  0.49779574  0.12719445  0.05243550  1
  Nd3+  Nd41  1  0.74464547  0.37901352  0.06914686  1
  Nd3+  Nd42  1  0.36716841  0.00782293  0.94093168  1
  Nd3+  Nd43  1  0.77025947  0.12665982  0.56116594  1
  Nd3+  Nd44  1  0.74402299  0.12576438  0.05862378  1
  Sm3+  Sm45  1  0.24588829  0.87882479  0.05271542  1
  Sm3+  Sm46  1  0.61814500  0.50880281  0.95503952  1
  Sm3+  Sm47  1  0.51401940  0.37630532  0.55059440  1
  Sm3+  Sm48  1  0.14067439  0.49814421  0.44478044  1
  Sm3+  Sm49  1  0.26176127  0.12572324  0.55184177  1
  Sm3+  Sm50  1  0.49799420  0.64060550  0.07787018  1
  Sm3+  Sm51  1  0.26564106  0.87417087  0.55516467  1
  Sm3+  Sm52  1  0.74409311  0.87557262  0.05096450  1
  Sm3+  Sm53  1  0.74414245  0.63333592  0.05883244  1
  Sm3+  Sm54  1  0.49817306  0.87796322  0.05712074  1
  Sm3+  Sm55  1  0.14066436  0.00076100  0.43477434  1
  Sm3+  Sm56  1  0.01721623  0.88055353  0.54838116  1
  Sm3+  Sm57  1  0.37063132  0.25724868  0.95108783  1
  Sm3+  Sm58  1  0.24800196  0.62993368  0.06290977  1
  Sm3+  Sm59  1  0.51544191  0.87351936  0.55837822  1
  Sm3+  Sm60  1  0.37315418  0.50233497  0.95566651  1
  Sm3+  Sm61  1  0.87382981  0.00744434  0.94178168  1
  Sm3+  Sm62  1  0.01855586  0.36410565  0.55190010  1
  Sm3+  Sm63  1  0.89166850  0.74951718  0.43503983  1
  Bi2+  Bi64  1  -0.00928251  0.05487189  0.29041768  1
  Bi2+  Bi65  1  -0.00400860  0.09744706  0.80766888  1
  Bi2+  Bi66  1  0.00194886  0.43144178  0.28868958  1
  Bi2+  Bi67  1  -0.02898536  0.38712732  0.79740978  1
  Bi2+  Bi68  1  -0.04287990  0.63504429  0.29294305  1
  Bi2+  Bi69  1  0.01544309  0.63378797  0.79454756  1
  Bi2+  Bi70  1  -0.01139546  0.86324800  0.29380584  1
  Bi2+  Bi71  1  0.01811302  0.83554700  0.72744217  1
  Bi2+  Bi72  1  0.26790674  0.05356543  0.28718898  1
  Bi2+  Bi73  1  0.25656748  0.10087143  0.81159001  1
  Bi2+  Bi74  1  0.22488061  0.37475771  0.28604932  1
  Bi2+  Bi75  1  0.26943084  0.38845047  0.80307873  1
  Bi2+  Bi76  1  0.23212684  0.62214945  0.29014943  1
  Bi2+  Bi77  1  0.20363403  0.66869271  0.82278591  1
  Bi2+  Bi78  1  0.20327197  0.87143127  0.30670571  1
  Bi2+  Bi79  1  0.22752756  0.82784196  0.76164243  1
  Bi2+  Bi80  1  0.50636152  0.04238199  0.31499073  1
  Bi2+  Bi81  1  0.52415039  0.15911448  0.80989833  1
  Bi2+  Bi82  1  0.54915488  0.38858517  0.26818510  1
  Bi2+  Bi83  1  0.52594108  0.35730339  0.79789312  1
  Bi2+  Bi84  1  0.49791417  0.64710119  0.28182976  1
  Bi2+  Bi85  1  0.48267102  0.59906156  0.79683295  1
  Bi2+  Bi86  1  0.47353031  0.87619568  0.22746921  1
  Bi2+  Bi87  1  0.47571987  0.88947220  0.78802180  1
  Bi2+  Bi88  1  0.73080414  0.12387705  0.29023008  1
  Bi2+  Bi89  1  0.72543822  0.14556338  0.79495075  1
  Bi2+  Bi90  1  0.75111105  0.38803981  0.29439953  1
  Bi2+  Bi91  1  0.71277985  0.36102400  0.76231942  1
  Bi2+  Bi92  1  0.68317979  0.64734128  0.29800301  1
  Bi2+  Bi93  1  0.74497669  0.58985709  0.79050055  1
  Bi2+  Bi94  1  0.77325463  0.87498833  0.28666045  1
  Bi2+  Bi95  1  0.78107657  0.87911989  0.78944650  1
  Bi2+  Bi96  1  0.12222618  -0.04378453  0.21090130  1
  Bi2+  Bi97  1  0.15012603  -0.01354705  0.70492470  1
  Bi2+  Bi98  1  0.13689525  0.25353246  0.21225809  1
  Bi2+  Bi99  1  0.15277147  0.25566863  0.70303647  1
  Bi2+  Bi100  1  0.10446195  0.58735444  0.21073813  1
  Bi2+  Bi101  1  0.11328256  0.47777431  0.71112913  1
  Bi2+  Bi102  1  0.06734762  0.77202725  0.18160798  1
  Bi2+  Bi103  1  0.11570127  0.67807755  0.69120442  1
  Bi2+  Bi104  1  0.36905633  0.03724280  0.19309151  1
  Bi2+  Bi105  1  0.39220386  0.06812922  0.73039497  1
  Bi2+  Bi106  1  0.45920988  0.22316868  0.30211849  1
  Bi2+  Bi107  1  0.39973278  0.26185381  0.73095222  1
  Bi2+  Bi108  1  0.36856887  0.49751239  0.19630853  1
  Bi2+  Bi109  1  0.29090867  0.54791744  0.74607996  1
  Bi2+  Bi110  1  0.29941238  0.78107429  0.21972061  1
  Bi2+  Bi111  1  0.37570144  0.76434853  0.69651103  1
  Bi2+  Bi112  1  0.61195586  0.01821783  0.20879321  1
  Bi2+  Bi113  1  0.60163283  0.00869684  0.73102188  1
  Bi2+  Bi114  1  0.60565658  0.21947063  0.21872385  1
  Bi2+  Bi115  1  0.61044371  0.23040313  0.70184384  1
  Bi2+  Bi116  1  0.67540033  0.49645409  0.20360799  1
  Bi2+  Bi117  1  0.55196354  0.48892586  0.70579929  1
  Bi2+  Bi118  1  0.65782394  0.78219481  0.20358762  1
  Bi2+  Bi119  1  0.61898780  0.73463494  0.68141371  1
  Bi2+  Bi120  1  0.84954397  -0.00470908  0.20859676  1
  Bi2+  Bi121  1  0.79067203  0.02133943  0.71388613  1
  Bi2+  Bi122  1  0.88623411  0.24489108  0.21078275  1
  Bi2+  Bi123  1  0.88409248  0.27804617  0.71086059  1
  Bi2+  Bi124  1  0.86693348  0.52091476  0.21905741  1
  Bi2+  Bi125  1  0.92302326  0.51271349  0.71296990  1
  Bi2+  Bi126  1  0.88096116  0.75793224  0.21106031  1
  Bi2+  Bi127  1  0.85841515  0.73325348  0.71551609  1
  S2-  S128  1  0.02834795  0.14814101  0.18611905  1
  S2-  S129  1  0.03014924  0.10509143  0.71525589  1
  S2-  S130  1  -0.00126282  0.33849650  0.17129851  1
  S2-  S131  1  0.01790552  0.28645999  0.64137059  1
  S2-  S132  1  -0.01273991  0.53423389  0.14368688  1
  S2-  S133  1  -0.09387587  0.62569831  0.63514397  1
  S2-  S134  1  -0.01739392  0.96655250  0.14488943  1
  S2-  S135  1  0.01567454  0.94031381  0.63971629  1
  S2-  S136  1  0.27277500  0.16911637  0.16822407  1
  S2-  S137  1  0.19808489  0.11827660  0.64333214  1
  S2-  S138  1  0.21898917  0.40138244  0.17393007  1
  S2-  S139  1  0.24079813  0.35962967  0.65292246  1
  S2-  S140  1  0.27686940  0.63921167  0.15996354  1
  S2-  S141  1  0.26994366  0.62918155  0.65246221  1
  S2-  S142  1  0.26354829  0.90634391  0.14921882  1
  S2-  S143  1  0.26402644  0.87621014  0.65320402  1
  S2-  S144  1  0.50848474  0.12411867  0.15114944  1
  S2-  S145  1  0.51416745  0.10588362  0.65431808  1
  S2-  S146  1  0.45466580  0.36919552  0.16420301  1
  S2-  S147  1  0.50027317  0.36342670  0.64984819  1
  S2-  S148  1  0.49571163  0.58655880  0.17536395  1
  S2-  S149  1  0.47879923  0.63719252  0.65849931  1
  S2-  S150  1  0.50505964  0.78763144  0.14155422  1
  S2-  S151  1  0.50104260  0.86038563  0.65608590  1
  S2-  S152  1  0.82917206  0.13500569  0.14486905  1
  S2-  S153  1  0.85451436  0.13365590  0.64702249  1
  S2-  S154  1  0.76807756  0.35595542  0.16694104  1
  S2-  S155  1  0.78337651  0.37078671  0.65848225  1
  S2-  S156  1  0.73093393  0.64893272  0.15704044  1
  S2-  S157  1  0.67241599  0.58784597  0.64859704  1
  S2-  S158  1  0.72276467  0.92020637  0.14580509  1
  S2-  S159  1  0.76394772  0.82460289  0.65198318  1
  S2-  S160  1  0.13654250  0.08665495  0.34849167  1
  S2-  S161  1  0.12526917  0.00117317  0.84385733  1
  S2-  S162  1  0.07378828  0.28400146  0.31423286  1
  S2-  S163  1  0.12999722  0.20667272  0.80452211  1
  S2-  S164  1  0.14265810  0.49606693  0.34648965  1
  S2-  S165  1  0.12210363  0.41414618  0.85707119  1
  S2-  S166  1  0.12869429  0.72719351  0.34328246  1
  S2-  S167  1  0.00767198  0.76049596  0.85876446  1
  S2-  S168  1  0.37370769  -0.06040987  0.34548269  1
  S2-  S169  1  0.37169636  -0.03078271  0.84287512  1
  S2-  S170  1  0.29052179  0.25229723  0.34781265  1
  S2-  S171  1  0.29562537  0.25063274  0.86363008  1
  S2-  S172  1  0.35298875  0.46013165  0.30475314  1
  S2-  S173  1  0.37518633  0.49563589  0.85742789  1
  S2-  S174  1  0.36295479  0.66028904  0.34710532  1
  S2-  S175  1  0.45551100  0.73830116  0.85164735  1
  S2-  S176  1  0.66727849  -0.01473122  0.34725350  1
  S2-  S177  1  0.62337440  -0.09974715  0.84683167  1
  S2-  S178  1  0.67741447  0.25295881  0.34648384  1
  S2-  S179  1  0.73587134  0.27547810  0.86013717  1
  S2-  S180  1  0.54148564  0.50981239  0.34487966  1
  S2-  S181  1  0.61814776  0.55319598  0.86003688  1
  S2-  S182  1  0.54023695  0.75950539  0.34874953  1
  S2-  S183  1  0.61879279  0.70242005  0.77657272  1
  S2-  S184  1  0.87931306  0.12473322  0.35235842  1
  S2-  S185  1  0.88035958  -0.02805838  0.84366683  1
  S2-  S186  1  0.88698078  0.36272380  0.35330167  1
  S2-  S187  1  0.95532927  0.24480344  0.85913460  1
  S2-  S188  1  0.76252485  0.52567332  0.35559052  1
  S2-  S189  1  0.86092635  0.48843858  0.84591710  1
  S2-  S190  1  0.78119236  0.75040538  0.35826131  1
  S2-  S191  1  0.78786290  0.72652312  0.84651973  1
  S2-  S192  1  0.02043570  0.12607733  0.44670362  1
  S2-  S193  1  -0.00570043  0.13194505  0.96235794  1
  S2-  S194  1  0.02258442  0.37210768  0.44794056  1
  S2-  S195  1  -0.00366187  0.37847208  0.96442596  1
  S2-  S196  1  0.01326741  0.62322740  0.45102089  1
  S2-  S197  1  -0.00339247  0.62401211  0.95679950  1
  S2-  S198  1  0.01680955  0.87582539  0.44299956  1
  S2-  S199  1  -0.00428868  0.88279248  0.95773921  1
  S2-  S200  1  0.26618269  0.12120764  0.44906382  1
  S2-  S201  1  0.24399024  0.13505125  0.96266265  1
  S2-  S202  1  0.26867308  0.38281200  0.44771422  1
  S2-  S203  1  0.24923457  0.37782025  0.96771087  1
  S2-  S204  1  0.26492696  0.62255839  0.45094340  1
  S2-  S205  1  0.24910236  0.62597747  0.95798078  1
  S2-  S206  1  0.26468019  0.87306536  0.45061300  1
  S2-  S207  1  0.24519724  0.87883525  0.94813905  1
  S2-  S208  1  0.51592973  0.12648903  0.45207997  1
  S2-  S209  1  0.49589445  0.13057658  0.94697772  1
  S2-  S210  1  0.51183511  0.37628584  0.44528435  1
  S2-  S211  1  0.49821001  0.37870613  0.96025101  1
  S2-  S212  1  0.51529322  0.62462034  0.45356065  1
  S2-  S213  1  0.49310922  0.62595736  0.96696067  1
  S2-  S214  1  0.52012851  0.87892184  0.45392513  1
  S2-  S215  1  0.49106563  0.88404944  0.95426570  1
  S2-  S216  1  0.76330136  0.12757828  0.45596279  1
  S2-  S217  1  0.74190168  0.12453146  0.95242006  1
  S2-  S218  1  0.76371213  0.37339812  0.45352686  1
  S2-  S219  1  0.73947016  0.38526603  0.96269047  1
  S2-  S220  1  0.77386086  0.62637597  0.46060096  1
  S2-  S221  1  0.74479950  0.62881228  0.95547122  1
  S2-  S222  1  0.77109818  0.88129002  0.45286579  1
  S2-  S223  1  0.75109585  0.88133543  0.94891833  1
  S2-  S224  1  0.12219775  0.00296324  0.05139661  1
  S2-  S225  1  0.14375629  -0.00116797  0.53869082  1
  S2-  S226  1  0.11865433  0.25297144  0.06670279  1
  S2-  S227  1  0.14586360  0.24923710  0.53604273  1
  S2-  S228  1  0.12807636  0.50436712  0.05234318  1
  S2-  S229  1  0.13804564  0.49791037  0.54991895  1
  S2-  S230  1  0.12651297  0.75301664  0.04410630  1
  S2-  S231  1  0.13854772  0.75224296  0.54754836  1
  S2-  S232  1  0.37262279  0.00213146  0.04695779  1
  S2-  S233  1  0.38852860  -0.00188878  0.54839891  1
  S2-  S234  1  0.37303177  0.25214285  0.05481904  1
  S2-  S235  1  0.38970016  0.24889614  0.54207230  1
  S2-  S236  1  0.37263038  0.50665372  0.05993774  1
  S2-  S237  1  0.39345600  0.49918692  0.54868349  1
  S2-  S238  1  0.36904162  0.75589401  0.04738304  1
  S2-  S239  1  0.39206794  0.75222902  0.54113422  1
  S2-  S240  1  0.62018522  0.00124085  0.03873809  1
  S2-  S241  1  0.64148373  0.00003104  0.55304323  1
  S2-  S242  1  0.62147710  0.25328478  0.04736066  1
  S2-  S243  1  0.64057700  0.25099775  0.54985287  1
  S2-  S244  1  0.61929728  0.50848738  0.05927789  1
  S2-  S245  1  0.64014702  0.49446807  0.53881313  1
  S2-  S246  1  0.62233995  0.75431054  0.04476010  1
  S2-  S247  1  0.64176745  0.75386203  0.54183101  1
  S2-  S248  1  0.86694114  0.00080426  0.04415640  1
  S2-  S249  1  0.89305979  0.00319907  0.53950842  1
  S2-  S250  1  0.86870112  0.25738523  0.04901914  1
  S2-  S251  1  0.88931016  0.25105141  0.53720438  1
  S2-  S252  1  0.86380133  0.50586917  0.05118855  1
  S2-  S253  1  0.89699851  0.49119727  0.53806497  1
  S2-  S254  1  0.87015227  0.75362478  0.04736957  1
  S2-  S255  1  0.89654310  0.75745170  0.53875936  1
