# generated using pymatgen
data_La6Ce7Pr13Nd19Sm19(BiS2)64
_symmetry_space_group_name_H-M   'P 1'
_cell_length_a   16.14476776
_cell_length_b   16.12885156
_cell_length_c   27.12916597
_cell_angle_alpha   89.95971547
_cell_angle_beta   90.07704881
_cell_angle_gamma   89.96531396
_symmetry_Int_Tables_number   1
_chemical_formula_structural   La6Ce7Pr13Nd19Sm19(BiS2)64
_chemical_formula_sum   'La6 Ce7 Pr13 Nd19 Sm19 Bi64 S128'
_cell_volume   7064.33213500
_cell_formula_units_Z   1
loop_
 _symmetry_equiv_pos_site_id
 _symmetry_equiv_pos_as_xyz
  1  'x, y, z'
loop_
 _atom_type_symbol
 _atom_type_oxidation_number
  La3+  3.0
  Ce3+  3.0
  Pr3+  3.0
  Nd3+  3.0
  Sm3+  3.0
  Bi2+  2.0
  S2-  -2.0
loop_
 _atom_site_type_symbol
 _atom_site_label
 _atom_site_symmetry_multiplicity
 _atom_site_fract_x
 _atom_site_fract_y
 _atom_site_fract_z
 _atom_site_occupancy
  La3+  La0  1  0.37001356  0.23636267  0.89849969  1
  La3+  La1  1  0.63591477  0.00406161  0.43147720  1
  La3+  La2  1  0.61830725  0.50484786  0.42539696  1
  La3+  La3  1  0.73771723  0.37457495  0.09950468  1
  La3+  La4  1  0.75528823  0.62085770  0.59817613  1
  La3+  La5  1  0.00876510  0.36920818  0.09742980  1
  Ce3+  Ce6  1  0.24836484  0.12701149  0.05710686  1
  Ce3+  Ce7  1  0.12573800  0.00366070  0.44302850  1
  Ce3+  Ce8  1  0.24670471  0.62008303  0.05778310  1
  Ce3+  Ce9  1  0.87492228  0.75565239  0.92658490  1
  Ce3+  Ce10  1  0.12458739  0.24901397  0.93297547  1
  Ce3+  Ce11  1  0.25190098  0.62806182  0.55293008  1
  Ce3+  Ce12  1  0.37651816  0.50701361  0.43930294  1
  Pr3+  Pr13  1  0.25109485  0.87736547  0.56226677  1
  Pr3+  Pr14  1  0.50357225  0.37950182  0.56641238  1
  Pr3+  Pr15  1  0.50462673  0.87977906  0.56661428  1
  Pr3+  Pr16  1  0.87633472  0.51688069  0.42293304  1
  Pr3+  Pr17  1  0.37281926  0.49790264  0.93835701  1
  Pr3+  Pr18  1  0.24114372  0.12779538  0.56929507  1
  Pr3+  Pr19  1  0.62010072  0.00142981  0.93524998  1
  Pr3+  Pr20  1  0.87321486  0.25282357  0.94555420  1
  Pr3+  Pr21  1  0.12667304  0.50561385  0.43280785  1
  Pr3+  Pr22  1  0.38481058  0.76087713  0.42505422  1
  Pr3+  Pr23  1  0.50249310  0.62146496  0.06370340  1
  Pr3+  Pr24  1  0.50230354  0.62761988  0.56459022  1
  Pr3+  Pr25  1  0.75435958  0.88557387  0.57877323  1
  Nd3+  Nd26  1  -0.00110816  0.13251225  0.56026594  1
  Nd3+  Nd27  1  -0.00499226  0.62130121  0.05778551  1
  Nd3+  Nd28  1  0.62571127  0.25591103  0.44691660  1
  Nd3+  Nd29  1  -0.00229139  0.87575893  0.55976580  1
  Nd3+  Nd30  1  0.37264810  -0.00316140  0.94247629  1
  Nd3+  Nd31  1  -0.00617490  0.87424434  0.06326853  1
  Nd3+  Nd32  1  0.62407328  0.24977288  0.94014171  1
  Nd3+  Nd33  1  0.87183387  0.00041087  0.93542303  1
  Nd3+  Nd34  1  0.12298209  -0.00261359  0.94544977  1
  Nd3+  Nd35  1  0.62267773  0.49768204  0.93510033  1
  Nd3+  Nd36  1  0.00067451  0.62422263  0.56652302  1
  Nd3+  Nd37  1  0.87455723  0.25618386  0.43062970  1
  Nd3+  Nd38  1  0.24844299  0.87227313  0.06235259  1
  Nd3+  Nd39  1  0.62836723  0.75426428  0.45271364  1
  Nd3+  Nd40  1  0.25046697  0.37962901  0.55811755  1
  Nd3+  Nd41  1  0.12553624  0.75496210  0.44344281  1
  Nd3+  Nd42  1  0.50259173  0.12798912  0.56124517  1
  Nd3+  Nd43  1  0.12742940  0.25242721  0.43816142  1
  Nd3+  Nd44  1  0.61855102  0.75175549  0.92836589  1
  Sm3+  Sm45  1  0.37613277  0.25246604  0.44694909  1
  Sm3+  Sm46  1  0.74796042  0.87345846  0.05031560  1
  Sm3+  Sm47  1  0.12137652  0.74892033  0.94487698  1
  Sm3+  Sm48  1  0.87276704  0.75065305  0.44739496  1
  Sm3+  Sm49  1  0.50152879  0.87256414  0.05969138  1
  Sm3+  Sm50  1  0.12298196  0.49718240  0.94200499  1
  Sm3+  Sm51  1  0.74896691  0.12767570  0.06181576  1
  Sm3+  Sm52  1  -0.00263603  0.38231533  0.54624629  1
  Sm3+  Sm53  1  0.87209367  0.49722906  0.94576608  1
  Sm3+  Sm54  1  0.75432758  0.38381596  0.55145655  1
  Sm3+  Sm55  1  0.49831027  0.12585843  0.05582935  1
  Sm3+  Sm56  1  -0.00337298  0.12700785  0.05716842  1
  Sm3+  Sm57  1  0.24844706  0.37087008  0.05518655  1
  Sm3+  Sm58  1  0.75477925  0.13117978  0.56376901  1
  Sm3+  Sm59  1  0.38050004  0.00335237  0.44054401  1
  Sm3+  Sm60  1  0.49971086  0.37192788  0.05298931  1
  Sm3+  Sm61  1  0.37237781  0.74774489  0.94698780  1
  Sm3+  Sm62  1  0.87601134  0.00323128  0.44163121  1
  Sm3+  Sm63  1  0.74973854  0.62167781  0.05220736  1
  Bi2+  Bi64  1  0.01094136  0.09963057  0.28636268  1
  Bi2+  Bi65  1  -0.02149628  0.13256161  0.79197369  1
  Bi2+  Bi66  1  -0.00200542  0.37675014  0.29498206  1
  Bi2+  Bi67  1  0.00969534  0.39976532  0.78204739  1
  Bi2+  Bi68  1  0.02412767  0.66289056  0.29393544  1
  Bi2+  Bi69  1  0.03054288  0.59991938  0.78089598  1
  Bi2+  Bi70  1  -0.04955456  0.91030086  0.29008647  1
  Bi2+  Bi71  1  0.02036206  0.91587972  0.79520139  1
  Bi2+  Bi72  1  0.21432036  0.09395402  0.28259759  1
  Bi2+  Bi73  1  0.17600985  0.12974567  0.77252265  1
  Bi2+  Bi74  1  0.26669274  0.33217815  0.29143827  1
  Bi2+  Bi75  1  0.20062086  0.37592637  0.77223475  1
  Bi2+  Bi76  1  0.27354049  0.59322429  0.27426001  1
  Bi2+  Bi77  1  0.23565587  0.62900947  0.78766441  1
  Bi2+  Bi78  1  0.24479731  0.89713398  0.28521310  1
  Bi2+  Bi79  1  0.22238669  0.86406926  0.79762386  1
  Bi2+  Bi80  1  0.47306686  0.13130296  0.28628686  1
  Bi2+  Bi81  1  0.54194480  0.13232060  0.80315694  1
  Bi2+  Bi82  1  0.50127130  0.35594911  0.29093700  1
  Bi2+  Bi83  1  0.51599223  0.38545403  0.78744943  1
  Bi2+  Bi84  1  0.52421744  0.62331055  0.30280164  1
  Bi2+  Bi85  1  0.50113907  0.61709090  0.80520582  1
  Bi2+  Bi86  1  0.49419994  0.88051512  0.29321853  1
  Bi2+  Bi87  1  0.46472950  0.93174271  0.80273668  1
  Bi2+  Bi88  1  0.74380311  0.11037815  0.27491535  1
  Bi2+  Bi89  1  0.77177360  0.09667921  0.80544083  1
  Bi2+  Bi90  1  0.74442503  0.37296757  0.30036401  1
  Bi2+  Bi91  1  0.81108535  0.35640249  0.77279978  1
  Bi2+  Bi92  1  0.76649616  0.68937271  0.28215821  1
  Bi2+  Bi93  1  0.76008350  0.60244552  0.80324108  1
  Bi2+  Bi94  1  0.75179091  0.87937818  0.30122377  1
  Bi2+  Bi95  1  0.75264919  0.91497588  0.77291298  1
  Bi2+  Bi96  1  0.08051905  -0.02370344  0.20408796  1
  Bi2+  Bi97  1  0.10407108  -0.05002774  0.68899196  1
  Bi2+  Bi98  1  0.14700895  0.24080933  0.21139973  1
  Bi2+  Bi99  1  0.05766104  0.24557845  0.70571880  1
  Bi2+  Bi100  1  0.14980125  0.51153441  0.20644278  1
  Bi2+  Bi101  1  0.13269676  0.54722341  0.68313123  1
  Bi2+  Bi102  1  0.14542764  0.76587712  0.22642922  1
  Bi2+  Bi103  1  0.12336622  0.74025947  0.70749838  1
  Bi2+  Bi104  1  0.36431972  0.01410053  0.22465157  1
  Bi2+  Bi105  1  0.32213033  0.00187611  0.73516194  1
  Bi2+  Bi106  1  0.39758911  0.23870784  0.19842940  1
  Bi2+  Bi107  1  0.38383898  0.25287546  0.69644181  1
  Bi2+  Bi108  1  0.36744040  0.44099467  0.22038342  1
  Bi2+  Bi109  1  0.31811694  0.49750116  0.71370345  1
  Bi2+  Bi110  1  0.38152818  0.74070327  0.19477678  1
  Bi2+  Bi111  1  0.37322603  0.76061070  0.75598041  1
  Bi2+  Bi112  1  0.68513542  -0.02181336  0.20294476  1
  Bi2+  Bi113  1  0.60084246  0.02971402  0.71004304  1
  Bi2+  Bi114  1  0.60128132  0.23861961  0.20893488  1
  Bi2+  Bi115  1  0.68560439  0.22471548  0.72492709  1
  Bi2+  Bi116  1  0.61791767  0.51851268  0.20392034  1
  Bi2+  Bi117  1  0.61056564  0.50928490  0.70005293  1
  Bi2+  Bi118  1  0.62316964  0.78654914  0.22101025  1
  Bi2+  Bi119  1  0.60133426  0.76864121  0.71237588  1
  Bi2+  Bi120  1  0.88655620  0.01022126  0.18872854  1
  Bi2+  Bi121  1  0.87762215  0.04108410  0.70608272  1
  Bi2+  Bi122  1  0.88223677  0.20047663  0.21506915  1
  Bi2+  Bi123  1  0.85814641  0.23170673  0.67241082  1
  Bi2+  Bi124  1  0.87707876  0.53697205  0.20823830  1
  Bi2+  Bi125  1  0.89202265  0.48601910  0.70178899  1
  Bi2+  Bi126  1  0.88267903  0.78506981  0.20843170  1
  Bi2+  Bi127  1  0.93474245  0.75153005  0.72987471  1
  S2-  S128  1  0.01621888  0.20496295  0.14430520  1
  S2-  S129  1  0.09887212  0.11230291  0.64069517  1
  S2-  S130  1  -0.04495598  0.39624233  0.19480075  1
  S2-  S131  1  -0.00888453  0.37882071  0.64395490  1
  S2-  S132  1  0.01556422  0.57955313  0.15416062  1
  S2-  S133  1  -0.09057261  0.63506040  0.65092323  1
  S2-  S134  1  0.02508038  0.81026047  0.15418281  1
  S2-  S135  1  -0.04988543  0.88265735  0.65563392  1
  S2-  S136  1  0.26003111  0.15244123  0.15354304  1
  S2-  S137  1  0.30075233  0.13064490  0.66424883  1
  S2-  S138  1  0.16975647  0.37674822  0.14403206  1
  S2-  S139  1  0.25893228  0.35466838  0.65687131  1
  S2-  S140  1  0.26230461  0.61832136  0.15499575  1
  S2-  S141  1  0.28381254  0.62762719  0.64814669  1
  S2-  S142  1  0.26637743  0.84324472  0.16005735  1
  S2-  S143  1  0.26539164  0.89813860  0.66153223  1
  S2-  S144  1  0.52270128  0.12167185  0.15299869  1
  S2-  S145  1  0.50861920  0.14548082  0.66021434  1
  S2-  S146  1  0.57292481  0.38416736  0.14234892  1
  S2-  S147  1  0.49963990  0.37947078  0.66721190  1
  S2-  S148  1  0.49944514  0.61333480  0.16474891  1
  S2-  S149  1  0.51391087  0.63186828  0.66586260  1
  S2-  S150  1  0.49048173  0.84589127  0.15712797  1
  S2-  S151  1  0.51481755  0.89398422  0.66681147  1
  S2-  S152  1  0.74757016  0.21577617  0.14704395  1
  S2-  S153  1  0.74142170  0.02834065  0.64211029  1
  S2-  S154  1  0.75770465  0.41444014  0.20156453  1
  S2-  S155  1  0.74561619  0.45600326  0.64015125  1
  S2-  S156  1  0.73981319  0.59634005  0.14904817  1
  S2-  S157  1  0.71332421  0.63350104  0.70231558  1
  S2-  S158  1  0.74246659  0.83707780  0.14582054  1
  S2-  S159  1  0.73631880  0.82309992  0.67521612  1
  S2-  S160  1  0.11670110  -0.01258290  0.34665381  1
  S2-  S161  1  0.14402685  0.01742535  0.84736152  1
  S2-  S162  1  0.12073947  0.28050837  0.34061929  1
  S2-  S163  1  0.21544570  0.24996208  0.84821868  1
  S2-  S164  1  0.07648512  0.51595722  0.33620272  1
  S2-  S165  1  0.16112297  0.49752819  0.84585808  1
  S2-  S166  1  0.13679615  0.74688177  0.34394105  1
  S2-  S167  1  0.10199973  0.77957147  0.84945812  1
  S2-  S168  1  0.36717410  -0.09932059  0.36119780  1
  S2-  S169  1  0.38615516  0.07002695  0.85258037  1
  S2-  S170  1  0.36533838  0.22922743  0.35000576  1
  S2-  S171  1  0.41618250  0.26063536  0.79990946  1
  S2-  S172  1  0.47051351  0.48704694  0.35865979  1
  S2-  S173  1  0.40332066  0.48254783  0.83956765  1
  S2-  S174  1  0.37096827  0.67682999  0.33383537  1
  S2-  S175  1  0.42288999  0.74974846  0.85396744  1
  S2-  S176  1  0.54530088  0.00920448  0.34493038  1
  S2-  S177  1  0.61881993  -0.07752026  0.84454269  1
  S2-  S178  1  0.61994429  0.27310328  0.34780288  1
  S2-  S179  1  0.61615212  0.27118118  0.84117940  1
  S2-  S180  1  0.66633936  0.52699429  0.32715537  1
  S2-  S181  1  0.62318889  0.49807067  0.83464005  1
  S2-  S182  1  0.56822758  0.75933188  0.35812489  1
  S2-  S183  1  0.63409847  0.71194747  0.83091698  1
  S2-  S184  1  0.77542747  0.02367362  0.36209471  1
  S2-  S185  1  0.87601450  -0.08996104  0.85067286  1
  S2-  S186  1  0.87420433  0.26448944  0.33096998  1
  S2-  S187  1  0.86121783  0.23522380  0.84512652  1
  S2-  S188  1  0.86967061  0.46800049  0.32431032  1
  S2-  S189  1  0.85264705  0.48194702  0.84818061  1
  S2-  S190  1  0.88351645  0.67148568  0.35925827  1
  S2-  S191  1  0.87159668  0.70780249  0.83069291  1
  S2-  S192  1  -0.00191913  0.12946939  0.44980789  1
  S2-  S193  1  -0.00209981  0.12269403  0.95129031  1
  S2-  S194  1  -0.00026264  0.38046517  0.44235116  1
  S2-  S195  1  -0.00054080  0.37679950  0.94270676  1
  S2-  S196  1  0.00367164  0.63075194  0.45900858  1
  S2-  S197  1  -0.00144957  0.62238925  0.94974353  1
  S2-  S198  1  -0.00388556  0.87672648  0.45153474  1
  S2-  S199  1  -0.00134787  0.87522450  0.95700494  1
  S2-  S200  1  0.25211434  0.12716851  0.45595145  1
  S2-  S201  1  0.24951384  0.12315952  0.95275057  1
  S2-  S202  1  0.25233772  0.37839640  0.44986433  1
  S2-  S203  1  0.24969849  0.37292925  0.95090602  1
  S2-  S204  1  0.25223313  0.63229047  0.44638895  1
  S2-  S205  1  0.24659705  0.62571521  0.95048317  1
  S2-  S206  1  0.24976622  0.87909948  0.45628450  1
  S2-  S207  1  0.24829092  0.87134023  0.95480164  1
  S2-  S208  1  0.50115422  0.12990582  0.45414542  1
  S2-  S209  1  0.49609678  0.12758665  0.95172588  1
  S2-  S210  1  0.49797826  0.37429194  0.45908995  1
  S2-  S211  1  0.49410720  0.36824909  0.94763004  1
  S2-  S212  1  0.49847498  0.63312882  0.45764589  1
  S2-  S213  1  0.49849210  0.62403352  0.95542787  1
  S2-  S214  1  0.50488643  0.88399084  0.46018579  1
  S2-  S215  1  0.49670519  0.87316473  0.95564328  1
  S2-  S216  1  0.75387402  0.13515344  0.45926276  1
  S2-  S217  1  0.74771540  0.12347944  0.95524114  1
  S2-  S218  1  0.75148445  0.38221625  0.44638614  1
  S2-  S219  1  0.74659188  0.37568446  0.94985224  1
  S2-  S220  1  0.74624846  0.62973817  0.45126908  1
  S2-  S221  1  0.74757641  0.62490122  0.94719611  1
  S2-  S222  1  0.75619240  0.87696450  0.46279972  1
  S2-  S223  1  0.74470059  0.87377390  0.94773679  1
  S2-  S224  1  0.12081580  -0.00061219  0.05267279  1
  S2-  S225  1  0.12180963  -0.00139792  0.54519907  1
  S2-  S226  1  0.12223102  0.24976993  0.03928998  1
  S2-  S227  1  0.12239868  0.25893176  0.54423268  1
  S2-  S228  1  0.12049543  0.49486596  0.04516917  1
  S2-  S229  1  0.12481620  0.50210808  0.54140957  1
  S2-  S230  1  0.12266722  0.74723810  0.04942195  1
  S2-  S231  1  0.12355999  0.75205590  0.55162966  1
  S2-  S232  1  0.37630080  -0.00309415  0.05078860  1
  S2-  S233  1  0.37603949  0.00571021  0.54800016  1
  S2-  S234  1  0.37604301  0.25106969  0.04940999  1
  S2-  S235  1  0.37511375  0.25224458  0.55137554  1
  S2-  S236  1  0.37445718  0.49443846  0.04781900  1
  S2-  S237  1  0.37705361  0.50173781  0.54753718  1
  S2-  S238  1  0.37512154  0.74827149  0.05005778  1
  S2-  S239  1  0.37899038  0.75556187  0.54626534  1
  S2-  S240  1  0.62381584  -0.00018587  0.04492171  1
  S2-  S241  1  0.62752459  0.00652616  0.54322617  1
  S2-  S242  1  0.62322853  0.24803816  0.04519098  1
  S2-  S243  1  0.63204904  0.25482840  0.55408818  1
  S2-  S244  1  0.62661979  0.49692561  0.04192842  1
  S2-  S245  1  0.62639453  0.50418009  0.54100547  1
  S2-  S246  1  0.62475225  0.74832591  0.04147512  1
  S2-  S247  1  0.63199558  0.75139672  0.55905506  1
  S2-  S248  1  0.87080892  0.00148001  0.04413315  1
  S2-  S249  1  0.87880162  0.00671413  0.54520109  1
  S2-  S250  1  0.87403534  0.25356277  0.05088993  1
  S2-  S251  1  0.87578978  0.25667040  0.53838286  1
  S2-  S252  1  0.87159739  0.49187421  0.05275277  1
  S2-  S253  1  0.87569350  0.50617689  0.53732700  1
  S2-  S254  1  0.87166320  0.74847176  0.04105393  1
  S2-  S255  1  0.87127168  0.75097782  0.55092265  1
