# generated using pymatgen
data_La6Ce7Pr13Nd19Sm19(BiS2)64
_symmetry_space_group_name_H-M   'P 1'
_cell_length_a   15.95805300
_cell_length_b   16.01733314
_cell_length_c   27.38715134
_cell_angle_alpha   90.20044436
_cell_angle_beta   89.42014833
_cell_angle_gamma   89.98412344
_symmetry_Int_Tables_number   1
_chemical_formula_structural   La6Ce7Pr13Nd19Sm19(BiS2)64
_chemical_formula_sum   'La6 Ce7 Pr13 Nd19 Sm19 Bi64 S128'
_cell_volume   6999.90351215
_cell_formula_units_Z   1
loop_
 _symmetry_equiv_pos_site_id
 _symmetry_equiv_pos_as_xyz
  1  'x, y, z'
loop_
 _atom_type_symbol
 _atom_type_oxidation_number
  La3+  3.0
  Ce3+  3.0
  Pr3+  3.0
  Nd3+  3.0
  Sm3+  3.0
  Bi2+  2.0
  S2-  -2.0
loop_
 _atom_site_type_symbol
 _atom_site_label
 _atom_site_symmetry_multiplicity
 _atom_site_fract_x
 _atom_site_fract_y
 _atom_site_fract_z
 _atom_site_occupancy
  La3+  La0  1  0.62121377  0.24456761  0.92791986  1
  La3+  La1  1  0.64985847  0.26072207  0.40269436  1
  La3+  La2  1  0.49317233  0.36825155  0.09704325  1
  La3+  La3  1  0.36327445  0.48364438  0.89491182  1
  La3+  La4  1  0.88544448  0.23973993  0.89464984  1
  La3+  La5  1  0.48691170  0.62855086  0.08095546  1
  Ce3+  Ce6  1  0.40949106  0.76403735  0.42716437  1
  Ce3+  Ce7  1  0.65565192  0.76336265  0.43448575  1
  Ce3+  Ce8  1  0.53063921  0.39428195  0.56877184  1
  Ce3+  Ce9  1  0.14847291  0.01310707  0.43178499  1
  Ce3+  Ce10  1  0.28140321  0.39141436  0.55328393  1
  Ce3+  Ce11  1  0.65990893  0.01681032  0.43525862  1
  Ce3+  Ce12  1  0.27513286  0.88558603  0.54734643  1
  Pr3+  Pr13  1  0.15718319  0.75220915  0.39955708  1
  Pr3+  Pr14  1  0.28052594  0.13914899  0.56840268  1
  Pr3+  Pr15  1  0.52804898  0.64281895  0.56510739  1
  Pr3+  Pr16  1  0.78090698  0.64070672  0.57574683  1
  Pr3+  Pr17  1  0.03294810  0.13570878  0.57411623  1
  Pr3+  Pr18  1  0.66026601  0.51197392  0.43653305  1
  Pr3+  Pr19  1  0.90359822  0.01344450  0.44348402  1
  Pr3+  Pr20  1  0.11818231  -0.00333121  0.93696235  1
  Pr3+  Pr21  1  0.87367839  0.74248885  0.92349962  1
  Pr3+  Pr22  1  0.27900940  0.64097833  0.55540599  1
  Pr3+  Pr23  1  0.89969808  0.76241331  0.43610992  1
  Pr3+  Pr24  1  0.74060550  0.61887075  0.05899439  1
  Pr3+  Pr25  1  0.41352779  0.51425523  0.42858760  1
  Nd3+  Nd26  1  0.49470006  0.12308665  0.06544325  1
  Nd3+  Nd27  1  0.90005413  0.51034991  0.44270734  1
  Nd3+  Nd28  1  0.37765297  0.74174766  0.92637950  1
  Nd3+  Nd29  1  0.12265489  0.24888038  0.94522495  1
  Nd3+  Nd30  1  0.90399607  0.26172224  0.44246152  1
  Nd3+  Nd31  1  0.77642430  0.13714945  0.57205005  1
  Nd3+  Nd32  1  0.74456187  0.86701560  0.05225325  1
  Nd3+  Nd33  1  -0.00712418  0.12369280  0.06310265  1
  Nd3+  Nd34  1  0.61482208  0.48925968  0.93587763  1
  Nd3+  Nd35  1  0.37364152  0.24010212  0.93562330  1
  Nd3+  Nd36  1  -0.00671393  0.37265409  0.05922942  1
  Nd3+  Nd37  1  0.15019587  0.26251165  0.43903693  1
  Nd3+  Nd38  1  0.49444711  0.87188128  0.05788259  1
  Nd3+  Nd39  1  0.24610201  0.87050298  0.05096994  1
  Nd3+  Nd40  1  0.74338864  0.12732479  0.06080975  1
  Nd3+  Nd41  1  0.77982264  0.38488377  0.57877328  1
  Nd3+  Nd42  1  -0.00700755  0.86930015  0.05605173  1
  Nd3+  Nd43  1  0.02701903  0.38842687  0.57220557  1
  Nd3+  Nd44  1  0.61830996  0.73327275  0.92740167  1
  Sm3+  Sm45  1  0.15246729  0.51524113  0.44493953  1
  Sm3+  Sm46  1  -0.00723726  0.62131529  0.05779325  1
  Sm3+  Sm47  1  0.12410551  0.49413668  0.94720285  1
  Sm3+  Sm48  1  0.52694884  0.88535055  0.55713566  1
  Sm3+  Sm49  1  0.74154357  0.37187254  0.05162993  1
  Sm3+  Sm50  1  0.40511318  0.26432686  0.44543822  1
  Sm3+  Sm51  1  0.37528672  -0.00319897  0.93647036  1
  Sm3+  Sm52  1  0.24627504  0.12169098  0.05728762  1
  Sm3+  Sm53  1  0.87213353  -0.00398539  0.94138828  1
  Sm3+  Sm54  1  0.02518155  0.64016496  0.56106511  1
  Sm3+  Sm55  1  0.25113963  0.37251143  0.06351720  1
  Sm3+  Sm56  1  0.77683588  0.89038007  0.57072052  1
  Sm3+  Sm57  1  0.12439673  0.74285978  0.94380321  1
  Sm3+  Sm58  1  0.40250504  0.01566092  0.44292801  1
  Sm3+  Sm59  1  0.87176306  0.49602667  0.93126929  1
  Sm3+  Sm60  1  0.02933299  0.88749496  0.55614805  1
  Sm3+  Sm61  1  0.25174970  0.61890812  0.05496434  1
  Sm3+  Sm62  1  0.62714309  0.00041998  0.94292315  1
  Sm3+  Sm63  1  0.53148676  0.14206924  0.55811205  1
  Bi2+  Bi64  1  0.01345348  0.15137546  0.29212719  1
  Bi2+  Bi65  1  0.03813107  0.09880501  0.78821293  1
  Bi2+  Bi66  1  0.03405711  0.42014981  0.30510216  1
  Bi2+  Bi67  1  0.02124311  0.36704434  0.78504222  1
  Bi2+  Bi68  1  -0.01028354  0.61716540  0.29723393  1
  Bi2+  Bi69  1  0.01172596  0.61511051  0.78543342  1
  Bi2+  Bi70  1  -0.02172704  0.90079705  0.28786346  1
  Bi2+  Bi71  1  -0.09812908  0.87517743  0.80883555  1
  Bi2+  Bi72  1  0.22342125  0.12455050  0.32316284  1
  Bi2+  Bi73  1  0.27831894  0.07832498  0.77513511  1
  Bi2+  Bi74  1  0.23365170  0.31635467  0.29482800  1
  Bi2+  Bi75  1  0.22079824  0.35696421  0.77898413  1
  Bi2+  Bi76  1  0.17874239  0.64465501  0.25907931  1
  Bi2+  Bi77  1  0.21171044  0.60483552  0.78232124  1
  Bi2+  Bi78  1  0.17815017  0.92302826  0.30983415  1
  Bi2+  Bi79  1  0.22070140  0.81412353  0.79576803  1
  Bi2+  Bi80  1  0.48995189  0.14182525  0.28360313  1
  Bi2+  Bi81  1  0.50602111  0.09673014  0.78384704  1
  Bi2+  Bi82  1  0.48966462  0.40749719  0.29834063  1
  Bi2+  Bi83  1  0.47913865  0.31247790  0.78558029  1
  Bi2+  Bi84  1  0.44704348  0.65489437  0.30411368  1
  Bi2+  Bi85  1  0.49913791  0.64383820  0.79311233  1
  Bi2+  Bi86  1  0.44834362  0.90133031  0.29257552  1
  Bi2+  Bi87  1  0.40023018  0.89752447  0.80852317  1
  Bi2+  Bi88  1  0.76639791  0.10537810  0.29159385  1
  Bi2+  Bi89  1  0.74548196  0.05232872  0.79695838  1
  Bi2+  Bi90  1  0.81686566  0.36663630  0.29164699  1
  Bi2+  Bi91  1  0.74189902  0.39207579  0.78650137  1
  Bi2+  Bi92  1  0.72098875  0.62158416  0.30053702  1
  Bi2+  Bi93  1  0.74773390  0.64529570  0.78485189  1
  Bi2+  Bi94  1  0.73821755  0.90072485  0.27926787  1
  Bi2+  Bi95  1  0.71077376  0.84250954  0.81414450  1
  Bi2+  Bi96  1  0.15854617  0.05184607  0.22336430  1
  Bi2+  Bi97  1  0.11478306  -0.13207070  0.71043058  1
  Bi2+  Bi98  1  0.09340781  0.28233293  0.21131737  1
  Bi2+  Bi99  1  0.12978956  0.22408247  0.71095617  1
  Bi2+  Bi100  1  0.17371594  0.46365685  0.21417061  1
  Bi2+  Bi101  1  0.10988881  0.47192108  0.70090139  1
  Bi2+  Bi102  1  0.11755903  0.81544128  0.21930599  1
  Bi2+  Bi103  1  0.10673954  0.67218978  0.68673205  1
  Bi2+  Bi104  1  0.36227017  -0.01229546  0.19906385  1
  Bi2+  Bi105  1  0.39091495  -0.03371828  0.70037964  1
  Bi2+  Bi106  1  0.36094906  0.23940667  0.21674508  1
  Bi2+  Bi107  1  0.33675264  0.21875307  0.70334738  1
  Bi2+  Bi108  1  0.36546972  0.52975739  0.20447830  1
  Bi2+  Bi109  1  0.38038429  0.49192944  0.70078347  1
  Bi2+  Bi110  1  0.36560572  0.79061561  0.20827171  1
  Bi2+  Bi111  1  0.36667150  0.76653200  0.70392164  1
  Bi2+  Bi112  1  0.56176050  -0.00838635  0.21256319  1
  Bi2+  Bi113  1  0.58993868  -0.07151086  0.73680474  1
  Bi2+  Bi114  1  0.64760135  0.25276269  0.20358966  1
  Bi2+  Bi115  1  0.61023490  0.18374236  0.69841184  1
  Bi2+  Bi116  1  0.66110564  0.50518093  0.21129696  1
  Bi2+  Bi117  1  0.62447954  0.46252881  0.71280975  1
  Bi2+  Bi118  1  0.62031509  0.80028655  0.21660621  1
  Bi2+  Bi119  1  0.61820546  0.73154457  0.71241621  1
  Bi2+  Bi120  1  0.87045990  -0.02086502  0.20429334  1
  Bi2+  Bi121  1  0.86810118  -0.00318898  0.71255408  1
  Bi2+  Bi122  1  0.89508798  0.22727289  0.21229609  1
  Bi2+  Bi123  1  0.87156428  0.25113931  0.71818400  1
  Bi2+  Bi124  1  0.91184487  0.49626344  0.22134975  1
  Bi2+  Bi125  1  0.88115774  0.51539480  0.71259148  1
  Bi2+  Bi126  1  0.86321213  0.73511735  0.19243550  1
  Bi2+  Bi127  1  0.87527700  0.76876451  0.71371926  1
  S2-  S128  1  -0.02674964  0.09506861  0.16005245  1
  S2-  S129  1  -0.05599408  0.13471706  0.66516889  1
  S2-  S130  1  -0.03559398  0.36770557  0.15694023  1
  S2-  S131  1  -0.08047955  0.38299002  0.65175331  1
  S2-  S132  1  -0.02743769  0.62552220  0.15460786  1
  S2-  S133  1  -0.06823908  0.64453356  0.64549815  1
  S2-  S134  1  -0.01724942  0.85542107  0.15367215  1
  S2-  S135  1  -0.01943174  0.88938385  0.65176207  1
  S2-  S136  1  0.25860912  0.13619342  0.15448249  1
  S2-  S137  1  0.16694353  0.10823818  0.64326250  1
  S2-  S138  1  0.33381977  0.37269864  0.15080795  1
  S2-  S139  1  0.31305760  0.37049696  0.64890111  1
  S2-  S140  1  0.32076202  0.65035381  0.14303975  1
  S2-  S141  1  0.32221226  0.62760254  0.65315903  1
  S2-  S142  1  0.24390581  0.87846861  0.14927201  1
  S2-  S143  1  0.26434592  0.87884472  0.64594093  1
  S2-  S144  1  0.50078304  0.20990263  0.15105154  1
  S2-  S145  1  0.46503301  0.12550537  0.65014267  1
  S2-  S146  1  0.53858150  0.39183155  0.19869880  1
  S2-  S147  1  0.54950314  0.32795252  0.66531649  1
  S2-  S148  1  0.51888291  0.58064847  0.17836426  1
  S2-  S149  1  0.51763078  0.52780770  0.64343765  1
  S2-  S150  1  0.50688854  0.78224886  0.14221459  1
  S2-  S151  1  0.50657789  0.77758416  0.63626808  1
  S2-  S152  1  0.72066049  0.12359207  0.15963035  1
  S2-  S153  1  0.75245031  0.01116766  0.64449903  1
  S2-  S154  1  0.72495867  0.37537525  0.15017698  1
  S2-  S155  1  0.75445313  0.25233078  0.65201359  1
  S2-  S156  1  0.74470145  0.63840143  0.15922848  1
  S2-  S157  1  0.74583311  0.51534694  0.64920636  1
  S2-  S158  1  0.75564356  0.86224740  0.15040944  1
  S2-  S159  1  0.75411107  0.77448155  0.64581890  1
  S2-  S160  1  0.01655647  0.02800792  0.36310651  1
  S2-  S161  1  0.14402334  0.00874421  0.83752006  1
  S2-  S162  1  0.02979802  0.27745245  0.36627435  1
  S2-  S163  1  0.05638731  0.23318272  0.85362025  1
  S2-  S164  1  0.14104758  0.59039584  0.35673100  1
  S2-  S165  1  0.18725467  0.48112930  0.85602270  1
  S2-  S166  1  0.00005606  0.76773827  0.35045137  1
  S2-  S167  1  0.08865457  0.74268737  0.84881444  1
  S2-  S168  1  0.38744765  0.04093812  0.34603748  1
  S2-  S169  1  0.37642734  0.10603883  0.85993909  1
  S2-  S170  1  0.46950835  0.26793425  0.35421505  1
  S2-  S171  1  0.34037785  0.31894731  0.84863926  1
  S2-  S172  1  0.35944265  0.50411349  0.33089678  1
  S2-  S173  1  0.44788316  0.47427094  0.79751116  1
  S2-  S174  1  0.31518448  0.73888951  0.34506475  1
  S2-  S175  1  0.34617371  0.63973465  0.84484941  1
  S2-  S176  1  0.62436036  0.10855401  0.35006598  1
  S2-  S177  1  0.62098380  0.09940492  0.86179649  1
  S2-  S178  1  0.65623666  0.34056485  0.30785234  1
  S2-  S179  1  0.60974058  0.35731696  0.84859017  1
  S2-  S180  1  0.56392489  0.53798895  0.35007644  1
  S2-  S181  1  0.63028449  0.59602373  0.85517444  1
  S2-  S182  1  0.53729606  0.76508298  0.35458969  1
  S2-  S183  1  0.50476690  0.77623416  0.85383466  1
  S2-  S184  1  0.79201694  -0.01305990  0.36361607  1
  S2-  S185  1  0.89987005  0.06810055  0.85402109  1
  S2-  S186  1  0.81302339  0.23407822  0.35689941  1
  S2-  S187  1  0.78130274  0.22667557  0.81044957  1
  S2-  S188  1  0.79496588  0.51391863  0.36032867  1
  S2-  S189  1  0.88743970  0.39999285  0.84842569  1
  S2-  S190  1  0.77297306  0.74145680  0.35899648  1
  S2-  S191  1  0.87685439  0.61530885  0.85462719  1
  S2-  S192  1  0.03185228  0.13931556  0.46654331  1
  S2-  S193  1  -0.00480697  0.12344995  0.95874342  1
  S2-  S194  1  0.03012653  0.39323384  0.46543736  1
  S2-  S195  1  -0.00293533  0.37231289  0.95474218  1
  S2-  S196  1  0.02649859  0.63592101  0.45815399  1
  S2-  S197  1  0.00158996  0.61906689  0.95415011  1
  S2-  S198  1  0.03525533  0.88169338  0.45365337  1
  S2-  S199  1  -0.00386553  0.86780540  0.95057158  1
  S2-  S200  1  0.27843478  0.14106178  0.45952965  1
  S2-  S201  1  0.24253296  0.11841146  0.95425944  1
  S2-  S202  1  0.27739854  0.38892357  0.44683246  1
  S2-  S203  1  0.24838512  0.37179059  0.96048203  1
  S2-  S204  1  0.27871320  0.63595732  0.45097938  1
  S2-  S205  1  0.24634342  0.61868214  0.95329362  1
  S2-  S206  1  0.27734003  0.88838461  0.44250552  1
  S2-  S207  1  0.24819279  0.87084628  0.94538961  1
  S2-  S208  1  0.52593944  0.13960887  0.45629683  1
  S2-  S209  1  0.49776412  0.11750503  0.96126884  1
  S2-  S210  1  0.53205904  0.38471840  0.45484933  1
  S2-  S211  1  0.48718590  0.37137708  0.94575035  1
  S2-  S212  1  0.53163488  0.64001979  0.45836988  1
  S2-  S213  1  0.49062648  0.61290467  0.95103798  1
  S2-  S214  1  0.52906548  0.89594942  0.45324258  1
  S2-  S215  1  0.50207134  0.87877213  0.95402929  1
  S2-  S216  1  0.77667373  0.13957697  0.46415529  1
  S2-  S217  1  0.75548393  0.12452502  0.95477349  1
  S2-  S218  1  0.77815771  0.38190862  0.45967440  1
  S2-  S219  1  0.75201414  0.36924818  0.94841879  1
  S2-  S220  1  0.78051435  0.63710405  0.46664177  1
  S2-  S221  1  0.74790693  0.61695606  0.95447023  1
  S2-  S222  1  0.77729604  0.88727929  0.46554494  1
  S2-  S223  1  0.74704710  0.87007355  0.94720968  1
  S2-  S224  1  0.11948919  -0.00275789  0.04654023  1
  S2-  S225  1  0.15373410  0.00998486  0.53889569  1
  S2-  S226  1  0.12266207  0.24772444  0.05198429  1
  S2-  S227  1  0.15518905  0.26731602  0.54792973  1
  S2-  S228  1  0.12267832  0.49795771  0.05331008  1
  S2-  S229  1  0.15124051  0.51474151  0.55026131  1
  S2-  S230  1  0.12158138  0.74268523  0.04942913  1
  S2-  S231  1  0.14918593  0.76108358  0.55077713  1
  S2-  S232  1  0.37008287  -0.00205389  0.04274139  1
  S2-  S233  1  0.40341388  0.01183175  0.54677512  1
  S2-  S234  1  0.37000336  0.24526452  0.04479122  1
  S2-  S235  1  0.40594859  0.26503742  0.54788663  1
  S2-  S236  1  0.37390624  0.49492279  0.05406003  1
  S2-  S237  1  0.40369695  0.51422434  0.53690141  1
  S2-  S238  1  0.37043603  0.74892512  0.03454313  1
  S2-  S239  1  0.40130503  0.76553767  0.53432255  1
  S2-  S240  1  0.62148752  -0.00329401  0.04803003  1
  S2-  S241  1  0.64553480  0.01202099  0.54374528  1
  S2-  S242  1  0.61679093  0.25040012  0.04192903  1
  S2-  S243  1  0.64939393  0.26491350  0.55085222  1
  S2-  S244  1  0.61247185  0.49360867  0.04934902  1
  S2-  S245  1  0.65454617  0.51382006  0.54327528  1
  S2-  S246  1  0.61823222  0.74489517  0.03683705  1
  S2-  S247  1  0.65302044  0.76748330  0.54120882  1
  S2-  S248  1  0.86862087  -0.00361846  0.04618520  1
  S2-  S249  1  0.90583530  0.01197067  0.54922327  1
  S2-  S250  1  0.86864470  0.24963510  0.05433548  1
  S2-  S251  1  0.90706287  0.26104944  0.54931534  1
  S2-  S252  1  0.86978037  0.49632441  0.04452008  1
  S2-  S253  1  0.90470869  0.51054977  0.54680827  1
  S2-  S254  1  0.87087029  0.74303785  0.03738317  1
  S2-  S255  1  0.90499033  0.76757126  0.54376498  1
