# generated using pymatgen
data_La6Ce7Pr13Nd19Sm19(BiS2)64
_symmetry_space_group_name_H-M   'P 1'
_cell_length_a   16.13186872
_cell_length_b   16.14228843
_cell_length_c   27.21898581
_cell_angle_alpha   90.03541734
_cell_angle_beta   90.06235191
_cell_angle_gamma   90.01646283
_symmetry_Int_Tables_number   1
_chemical_formula_structural   La6Ce7Pr13Nd19Sm19(BiS2)64
_chemical_formula_sum   'La6 Ce7 Pr13 Nd19 Sm19 Bi64 S128'
_cell_volume   7087.96171937
_cell_formula_units_Z   1
loop_
 _symmetry_equiv_pos_site_id
 _symmetry_equiv_pos_as_xyz
  1  'x, y, z'
loop_
 _atom_type_symbol
 _atom_type_oxidation_number
  La3+  3.0
  Ce3+  3.0
  Pr3+  3.0
  Nd3+  3.0
  Sm3+  3.0
  Bi2+  2.0
  S2-  -2.0
loop_
 _atom_site_type_symbol
 _atom_site_label
 _atom_site_symmetry_multiplicity
 _atom_site_fract_x
 _atom_site_fract_y
 _atom_site_fract_z
 _atom_site_occupancy
  La3+  La0  1  0.61729795  0.49112031  0.90126800  1
  La3+  La1  1  0.87727648  0.51248313  0.43266724  1
  La3+  La2  1  0.00785044  0.38193171  0.60426963  1
  La3+  La3  1  -0.00895612  0.35937043  0.11448136  1
  La3+  La4  1  0.50023994  0.63346188  0.58653970  1
  La3+  La5  1  0.89329757  0.23969863  0.90885193  1
  Ce3+  Ce6  1  0.50340830  0.12507182  0.06076226  1
  Ce3+  Ce7  1  0.00182816  0.87392003  0.06359883  1
  Ce3+  Ce8  1  0.25514814  0.86921687  0.06230020  1
  Ce3+  Ce9  1  0.75179491  0.61914359  0.05297274  1
  Ce3+  Ce10  1  0.87889792  -0.00450318  0.93710002  1
  Ce3+  Ce11  1  0.24900334  0.12793072  0.06406111  1
  Ce3+  Ce12  1  0.37753465  0.49622843  0.93906819  1
  Pr3+  Pr13  1  0.50379090  0.12795968  0.56223373  1
  Pr3+  Pr14  1  0.00486423  0.88119875  0.56970025  1
  Pr3+  Pr15  1  0.25775818  0.62736183  0.06225556  1
  Pr3+  Pr16  1  0.50496475  0.36562621  0.06920062  1
  Pr3+  Pr17  1  0.75392784  0.87877642  0.55866081  1
  Pr3+  Pr18  1  0.75501553  0.38100428  0.56513367  1
  Pr3+  Pr19  1  0.87441018  0.00577452  0.43613456  1
  Pr3+  Pr20  1  0.87941532  0.50637944  0.92391249  1
  Pr3+  Pr21  1  0.76098868  0.37475583  0.04508246  1
  Pr3+  Pr22  1  0.87673994  0.25919731  0.43683567  1
  Pr3+  Pr23  1  -0.00605655  0.11720717  0.07569823  1
  Pr3+  Pr24  1  0.62836904  0.24889284  0.93302503  1
  Pr3+  Pr25  1  0.37478483  0.00144664  0.94547144  1
  Nd3+  Nd26  1  0.00393708  0.62793673  0.56296852  1
  Nd3+  Nd27  1  0.37945166  0.75469221  0.44023578  1
  Nd3+  Nd28  1  0.50261733  0.88069065  0.56766664  1
  Nd3+  Nd29  1  0.75150790  0.87075362  0.05568188  1
  Nd3+  Nd30  1  0.25439354  0.38396299  0.08961441  1
  Nd3+  Nd31  1  0.00431810  0.12849168  0.56545555  1
  Nd3+  Nd32  1  0.12622653  0.49753081  0.94130743  1
  Nd3+  Nd33  1  0.12288726  0.00384588  0.43510364  1
  Nd3+  Nd34  1  0.25004072  0.37803294  0.55937942  1
  Nd3+  Nd35  1  0.62497457  0.50578080  0.44760398  1
  Nd3+  Nd36  1  0.12558516  -0.00062722  0.94700081  1
  Nd3+  Nd37  1  0.37831919  0.50476969  0.44633684  1
  Nd3+  Nd38  1  0.62517143  0.74745370  0.93781874  1
  Nd3+  Nd39  1  0.37829935  0.00548555  0.44440192  1
  Nd3+  Nd40  1  0.37820210  0.25533412  0.43942162  1
  Nd3+  Nd41  1  0.12260020  0.25340666  0.95478489  1
  Nd3+  Nd42  1  0.25094068  0.62730485  0.55443300  1
  Nd3+  Nd43  1  0.12480195  0.25521850  0.43590337  1
  Nd3+  Nd44  1  0.00450204  0.61722437  0.05981370  1
  Sm3+  Sm45  1  0.87805469  0.75385151  0.44526459  1
  Sm3+  Sm46  1  0.37648508  0.25146001  0.94484403  1
  Sm3+  Sm47  1  0.50489101  0.87636766  0.05229117  1
  Sm3+  Sm48  1  0.87545257  0.74550203  0.94104421  1
  Sm3+  Sm49  1  0.75896508  0.12774260  0.04894524  1
  Sm3+  Sm50  1  0.62664931  0.00420902  0.44152441  1
  Sm3+  Sm51  1  0.12835023  0.74933714  0.94125153  1
  Sm3+  Sm52  1  0.25064834  0.13020359  0.55243398  1
  Sm3+  Sm53  1  0.50456760  0.61976241  0.05481278  1
  Sm3+  Sm54  1  0.50252431  0.37702425  0.56450663  1
  Sm3+  Sm55  1  0.12649353  0.75529435  0.44276375  1
  Sm3+  Sm56  1  0.62690151  0.25676346  0.44741524  1
  Sm3+  Sm57  1  0.12632364  0.50402014  0.44024871  1
  Sm3+  Sm58  1  0.75525757  0.62676553  0.56291717  1
  Sm3+  Sm59  1  0.62781859  -0.00005820  0.94456968  1
  Sm3+  Sm60  1  0.75597570  0.13148718  0.55568950  1
  Sm3+  Sm61  1  0.37915669  0.74791369  0.93803249  1
  Sm3+  Sm62  1  0.62482955  0.75389787  0.45001373  1
  Sm3+  Sm63  1  0.25260229  0.87904916  0.55007444  1
  Bi2+  Bi64  1  0.00276459  0.11239594  0.30527499  1
  Bi2+  Bi65  1  0.03175833  0.11501041  0.79269978  1
  Bi2+  Bi66  1  -0.00677246  0.35903383  0.31659237  1
  Bi2+  Bi67  1  0.01851307  0.38139807  0.80736453  1
  Bi2+  Bi68  1  0.01188153  0.61364838  0.29844086  1
  Bi2+  Bi69  1  0.00587112  0.67409317  0.78429745  1
  Bi2+  Bi70  1  -0.00116834  0.86360539  0.27741125  1
  Bi2+  Bi71  1  -0.03277787  0.86923868  0.79826916  1
  Bi2+  Bi72  1  0.27540573  0.10174435  0.29151721  1
  Bi2+  Bi73  1  0.26581729  0.09596947  0.78845699  1
  Bi2+  Bi74  1  0.29567318  0.37578152  0.27902672  1
  Bi2+  Bi75  1  0.25450859  0.36348721  0.78774897  1
  Bi2+  Bi76  1  0.19084236  0.68031027  0.26906983  1
  Bi2+  Bi77  1  0.27457358  0.62613845  0.75999196  1
  Bi2+  Bi78  1  0.29663907  0.84651506  0.28747606  1
  Bi2+  Bi79  1  0.17193635  0.86259103  0.78545643  1
  Bi2+  Bi80  1  0.52226478  0.07672677  0.29652812  1
  Bi2+  Bi81  1  0.50478345  0.09056949  0.78783212  1
  Bi2+  Bi82  1  0.48281742  0.36560211  0.31828845  1
  Bi2+  Bi83  1  0.47122926  0.35884980  0.78490208  1
  Bi2+  Bi84  1  0.51590265  0.67156502  0.28686730  1
  Bi2+  Bi85  1  0.50066940  0.63420310  0.78944275  1
  Bi2+  Bi86  1  0.52596041  0.87403177  0.28395990  1
  Bi2+  Bi87  1  0.47140420  0.87949246  0.79099251  1
  Bi2+  Bi88  1  0.70146527  0.08669673  0.24914786  1
  Bi2+  Bi89  1  0.73341920  0.05887101  0.77404431  1
  Bi2+  Bi90  1  0.72128147  0.38215390  0.29639898  1
  Bi2+  Bi91  1  0.73747863  0.36946044  0.78293942  1
  Bi2+  Bi92  1  0.76704533  0.68517690  0.28530224  1
  Bi2+  Bi93  1  0.75517936  0.67408626  0.78284500  1
  Bi2+  Bi94  1  0.72186120  0.87598491  0.28838027  1
  Bi2+  Bi95  1  0.76978928  0.86828033  0.79885168  1
  Bi2+  Bi96  1  0.15692348  -0.04178933  0.22698958  1
  Bi2+  Bi97  1  0.14377692  -0.00887931  0.70001878  1
  Bi2+  Bi98  1  0.14886848  0.23104318  0.22598038  1
  Bi2+  Bi99  1  0.14706365  0.23959621  0.71867147  1
  Bi2+  Bi100  1  0.12958693  0.52313791  0.21458179  1
  Bi2+  Bi101  1  0.15288018  0.51127595  0.71003959  1
  Bi2+  Bi102  1  0.09802982  0.78452311  0.18037386  1
  Bi2+  Bi103  1  0.06640893  0.78692437  0.69266236  1
  Bi2+  Bi104  1  0.34864938  -0.01757561  0.20511493  1
  Bi2+  Bi105  1  0.36213180  -0.00989180  0.70761762  1
  Bi2+  Bi106  1  0.39988193  0.24980440  0.21090194  1
  Bi2+  Bi107  1  0.34204257  0.23427588  0.71336065  1
  Bi2+  Bi108  1  0.38619627  0.51527242  0.21557971  1
  Bi2+  Bi109  1  0.36537159  0.46991471  0.71477637  1
  Bi2+  Bi110  1  0.39672838  0.75820001  0.20136202  1
  Bi2+  Bi111  1  0.35262726  0.78895997  0.71543450  1
  Bi2+  Bi112  1  0.54298998  0.00762870  0.18859780  1
  Bi2+  Bi113  1  0.54875708  0.00727973  0.67545163  1
  Bi2+  Bi114  1  0.60507654  0.26250867  0.23533995  1
  Bi2+  Bi115  1  0.62064237  0.18243180  0.71221087  1
  Bi2+  Bi116  1  0.58152998  0.49525961  0.24558692  1
  Bi2+  Bi117  1  0.63363815  0.48996514  0.69713271  1
  Bi2+  Bi118  1  0.65871335  0.75906547  0.19941949  1
  Bi2+  Bi119  1  0.61397234  0.83786495  0.71598415  1
  Bi2+  Bi120  1  0.86317158  -0.01420490  0.20646162  1
  Bi2+  Bi121  1  0.88034588  -0.01748946  0.71413155  1
  Bi2+  Bi122  1  0.85857361  0.23892107  0.20967483  1
  Bi2+  Bi123  1  0.86865042  0.23832287  0.71025417  1
  Bi2+  Bi124  1  0.84393338  0.51190878  0.19931269  1
  Bi2+  Bi125  1  0.87447866  0.51883535  0.70881085  1
  Bi2+  Bi126  1  0.92145134  0.72225200  0.21263833  1
  Bi2+  Bi127  1  0.87594794  0.76641244  0.70090982  1
  S2-  S128  1  0.00585015  0.20103566  0.16581057  1
  S2-  S129  1  -0.00658622  0.22151663  0.64925284  1
  S2-  S130  1  -0.04564981  0.37590953  0.22496474  1
  S2-  S131  1  -0.03540457  0.38416307  0.70971949  1
  S2-  S132  1  -0.00714753  0.53141886  0.14626372  1
  S2-  S133  1  0.00224531  0.54824170  0.65101394  1
  S2-  S134  1  -0.01387413  0.97641407  0.14308819  1
  S2-  S135  1  0.00043598  1.00434657  0.64088989  1
  S2-  S136  1  0.26281381  0.17265023  0.15893098  1
  S2-  S137  1  0.21238234  0.13109659  0.64722636  1
  S2-  S138  1  0.14604031  0.36600818  0.16871664  1
  S2-  S139  1  0.16945073  0.37744126  0.64736172  1
  S2-  S140  1  0.25487473  0.53529658  0.14907129  1
  S2-  S141  1  0.25007765  0.62275146  0.65305463  1
  S2-  S142  1  0.26279202  0.75668015  0.13681395  1
  S2-  S143  1  0.25563513  0.87822911  0.64747228  1
  S2-  S144  1  0.52821605  0.22025686  0.14136498  1
  S2-  S145  1  0.46960338  0.18217558  0.65525795  1
  S2-  S146  1  0.39830739  0.38260946  0.14972129  1
  S2-  S147  1  0.53838546  0.38106810  0.65991030  1
  S2-  S148  1  0.47191273  0.62442098  0.15120971  1
  S2-  S149  1  0.49936199  0.58441595  0.68620423  1
  S2-  S150  1  0.52539048  0.84428824  0.14750723  1
  S2-  S151  1  0.49268822  0.77812966  0.64749950  1
  S2-  S152  1  0.80132252  0.12009654  0.14422973  1
  S2-  S153  1  0.76475198  0.13944485  0.65306468  1
  S2-  S154  1  0.80970681  0.36837803  0.14339773  1
  S2-  S155  1  0.77269456  0.37981507  0.66603559  1
  S2-  S156  1  0.74600949  0.61356326  0.15192389  1
  S2-  S157  1  0.74486950  0.61671920  0.66065964  1
  S2-  S158  1  0.76685966  0.87158708  0.15439440  1
  S2-  S159  1  0.75870032  0.88224319  0.65833422  1
  S2-  S160  1  0.14476430  0.01974027  0.33714667  1
  S2-  S161  1  0.14233113  0.00986494  0.84795020  1
  S2-  S162  1  0.12068728  0.23941324  0.33552216  1
  S2-  S163  1  0.06217640  0.23329838  0.85928890  1
  S2-  S164  1  0.10617568  0.49155056  0.34239169  1
  S2-  S165  1  0.09838660  0.50557971  0.84165283  1
  S2-  S166  1  0.09637593  0.76296537  0.34700688  1
  S2-  S167  1  0.14147950  0.72862734  0.84429574  1
  S2-  S168  1  0.38457372  0.00598820  0.34607899  1
  S2-  S169  1  0.37778699  0.00148397  0.84538914  1
  S2-  S170  1  0.35400874  0.24116851  0.34150299  1
  S2-  S171  1  0.36977076  0.26469246  0.84670851  1
  S2-  S172  1  0.37279766  0.48783032  0.34764649  1
  S2-  S173  1  0.45849897  0.50449615  0.85083301  1
  S2-  S174  1  0.38076299  0.72390025  0.34308658  1
  S2-  S175  1  0.39515712  0.73799837  0.84029355  1
  S2-  S176  1  0.67968291  0.01798119  0.34949947  1
  S2-  S177  1  0.62414648  0.01910497  0.84725612  1
  S2-  S178  1  0.62335190  0.25997265  0.34996918  1
  S2-  S179  1  0.60430070  0.33250030  0.84644452  1
  S2-  S180  1  0.63696406  0.50655766  0.34879541  1
  S2-  S181  1  0.66491197  0.53123388  0.80385890  1
  S2-  S182  1  0.63500281  0.74651887  0.35265995  1
  S2-  S183  1  0.61779138  0.72471754  0.83924888  1
  S2-  S184  1  0.92118464  -0.01574307  0.34070363  1
  S2-  S185  1  0.91441238  0.07734306  0.85585755  1
  S2-  S186  1  0.88622593  0.21712160  0.33772793  1
  S2-  S187  1  0.81626055  0.24266912  0.81461200  1
  S2-  S188  1  0.85802485  0.44283674  0.34066384  1
  S2-  S189  1  0.87017146  0.44617249  0.82723878  1
  S2-  S190  1  0.87546337  0.65742703  0.36492751  1
  S2-  S191  1  0.88010946  0.65666217  0.85619809  1
  S2-  S192  1  0.00158564  0.12946599  0.45385540  1
  S2-  S193  1  0.00468536  0.12058887  0.96611712  1
  S2-  S194  1  0.00402301  0.38185624  0.44690467  1
  S2-  S195  1  -0.00035898  0.37696095  0.94439327  1
  S2-  S196  1  0.00838384  0.63163602  0.45803705  1
  S2-  S197  1  0.00645537  0.62809023  0.95366994  1
  S2-  S198  1  0.00092503  0.87711599  0.45791255  1
  S2-  S199  1  0.00143748  0.86900380  0.95299372  1
  S2-  S200  1  0.25147169  0.12898429  0.44817095  1
  S2-  S201  1  0.24994572  0.12772976  0.95608180  1
  S2-  S202  1  0.25167221  0.37994023  0.45192152  1
  S2-  S203  1  0.25154352  0.37292728  0.94884823  1
  S2-  S204  1  0.25051904  0.62995006  0.44788465  1
  S2-  S205  1  0.25465411  0.62636480  0.95038354  1
  S2-  S206  1  0.25181533  0.87942015  0.44512547  1
  S2-  S207  1  0.25340861  0.87107726  0.95260233  1
  S2-  S208  1  0.50477590  0.12983056  0.45358827  1
  S2-  S209  1  0.50242588  0.12515806  0.95253076  1
  S2-  S210  1  0.50193348  0.37901194  0.45904364  1
  S2-  S211  1  0.50240358  0.37250770  0.95806876  1
  S2-  S212  1  0.50154392  0.63061621  0.46087994  1
  S2-  S213  1  0.50314443  0.62271627  0.95054809  1
  S2-  S214  1  0.50381775  0.88038997  0.45722789  1
  S2-  S215  1  0.50283416  0.87608201  0.94744497  1
  S2-  S216  1  0.74933965  0.13173209  0.45126159  1
  S2-  S217  1  0.75392983  0.12384611  0.94460237  1
  S2-  S218  1  0.74906596  0.38086042  0.45711686  1
  S2-  S219  1  0.75470757  0.37418518  0.93897861  1
  S2-  S220  1  0.74738688  0.63259322  0.45950317  1
  S2-  S221  1  0.74216653  0.61881785  0.94681266  1
  S2-  S222  1  0.75136948  0.87619500  0.45147718  1
  S2-  S223  1  0.75079945  0.87180761  0.94840096  1
  S2-  S224  1  0.13213083  -0.00403017  0.05293165  1
  S2-  S225  1  0.13116196  0.00283449  0.54108440  1
  S2-  S226  1  0.12600438  0.25604890  0.05763506  1
  S2-  S227  1  0.12711834  0.25431539  0.54232301  1
  S2-  S228  1  0.13324662  0.49917816  0.04607700  1
  S2-  S229  1  0.12583966  0.50206724  0.54467259  1
  S2-  S230  1  0.12455371  0.74807691  0.04390726  1
  S2-  S231  1  0.12895792  0.75463924  0.54793912  1
  S2-  S232  1  0.37779295  -0.00122380  0.05249513  1
  S2-  S233  1  0.37494867  0.00403995  0.55031224  1
  S2-  S234  1  0.37286931  0.24931700  0.04782793  1
  S2-  S235  1  0.37584372  0.25527551  0.54651844  1
  S2-  S236  1  0.38064852  0.49738216  0.04338204  1
  S2-  S237  1  0.37901368  0.50285462  0.55382057  1
  S2-  S238  1  0.38744489  0.75054284  0.04066787  1
  S2-  S239  1  0.37452745  0.75402568  0.54640486  1
  S2-  S240  1  0.63180208  0.00124684  0.04842587  1
  S2-  S241  1  0.63145750  0.00505013  0.54634038  1
  S2-  S242  1  0.63489217  0.24773996  0.03923996  1
  S2-  S243  1  0.62878600  0.25426869  0.55257414  1
  S2-  S244  1  0.62563204  0.49505202  0.05391882  1
  S2-  S245  1  0.62437902  0.50664546  0.55444145  1
  S2-  S246  1  0.62553947  0.74740748  0.04371371  1
  S2-  S247  1  0.63031026  0.75171903  0.55406779  1
  S2-  S248  1  0.87239428  -0.00560888  0.04059293  1
  S2-  S249  1  0.87557498  0.00556591  0.54347491  1
  S2-  S250  1  0.88301314  0.24820657  0.04217337  1
  S2-  S251  1  0.87778822  0.25641945  0.54490583  1
  S2-  S252  1  0.87801662  0.50347390  0.03395614  1
  S2-  S253  1  0.87941523  0.50468523  0.54603069  1
  S2-  S254  1  0.87804834  0.74598385  0.04639919  1
  S2-  S255  1  0.87920540  0.75224839  0.55047374  1
