# generated using pymatgen
data_La6Ce7Pr13Nd19Sm19(BiS2)64
_symmetry_space_group_name_H-M   'P 1'
_cell_length_a   16.06559382
_cell_length_b   16.12696466
_cell_length_c   27.28819180
_cell_angle_alpha   90.02885852
_cell_angle_beta   90.04234604
_cell_angle_gamma   90.03987657
_symmetry_Int_Tables_number   1
_chemical_formula_structural   La6Ce7Pr13Nd19Sm19(BiS2)64
_chemical_formula_sum   'La6 Ce7 Pr13 Nd19 Sm19 Bi64 S128'
_cell_volume   7070.07298099
_cell_formula_units_Z   1
loop_
 _symmetry_equiv_pos_site_id
 _symmetry_equiv_pos_as_xyz
  1  'x, y, z'
loop_
 _atom_type_symbol
 _atom_type_oxidation_number
  La3+  3.0
  Ce3+  3.0
  Pr3+  3.0
  Nd3+  3.0
  Sm3+  3.0
  Bi2+  2.0
  S2-  -2.0
loop_
 _atom_site_type_symbol
 _atom_site_label
 _atom_site_symmetry_multiplicity
 _atom_site_fract_x
 _atom_site_fract_y
 _atom_site_fract_z
 _atom_site_occupancy
  La3+  La0  1  0.73791552  0.86982496  0.59208903  1
  La3+  La1  1  0.88529007  0.21691421  0.87249159  1
  La3+  La2  1  0.00223436  0.86528494  0.58105624  1
  La3+  La3  1  0.77851762  0.13299893  0.09503394  1
  La3+  La4  1  0.12676988  0.75593622  0.41850687  1
  La3+  La5  1  0.14936409  0.76137481  0.92291094  1
  Ce3+  Ce6  1  0.87547331  0.75177079  0.44424667  1
  Ce3+  Ce7  1  0.24470759  0.12392830  0.56406285  1
  Ce3+  Ce8  1  0.87222004  -0.00620335  0.44893138  1
  Ce3+  Ce9  1  -0.00197830  0.36889814  0.55813921  1
  Ce3+  Ce10  1  0.62674838  -0.00240136  0.43828966  1
  Ce3+  Ce11  1  0.51860340  0.63289247  0.05670216  1
  Ce3+  Ce12  1  0.00164493  0.62771393  0.55781141  1
  Pr3+  Pr13  1  0.89095315  -0.00562725  0.93455061  1
  Pr3+  Pr14  1  0.39792755  0.76603476  0.92574557  1
  Pr3+  Pr15  1  0.62473383  0.49943429  0.43457869  1
  Pr3+  Pr16  1  0.74852579  0.37175558  0.55657339  1
  Pr3+  Pr17  1  0.74673041  0.62415118  0.56362133  1
  Pr3+  Pr18  1  0.02233726  0.87652473  0.06928745  1
  Pr3+  Pr19  1  0.88039605  0.24135357  0.42743348  1
  Pr3+  Pr20  1  0.65066868  0.00655300  0.94305747  1
  Pr3+  Pr21  1  0.52779261  0.88381248  0.07263132  1
  Pr3+  Pr22  1  0.14256093  0.25807652  0.93337548  1
  Pr3+  Pr23  1  0.39671831  0.50438160  0.94512589  1
  Pr3+  Pr24  1  0.27119435  0.13283321  0.06103245  1
  Pr3+  Pr25  1  0.14165696  0.00713767  0.93983201  1
  Nd3+  Nd26  1  0.77472216  0.87489631  0.07182050  1
  Nd3+  Nd27  1  0.24553484  0.37053488  0.56022905  1
  Nd3+  Nd28  1  0.39497996  0.25504791  0.93125204  1
  Nd3+  Nd29  1  0.26891285  0.87969047  0.06557631  1
  Nd3+  Nd30  1  -0.01294481  0.11713312  0.57367913  1
  Nd3+  Nd31  1  0.01829254  0.37734693  0.06337852  1
  Nd3+  Nd32  1  0.89599186  0.49561856  0.93677085  1
  Nd3+  Nd33  1  0.24815993  0.62311770  0.55299066  1
  Nd3+  Nd34  1  0.26728210  0.37792682  0.07014763  1
  Nd3+  Nd35  1  0.49673189  0.62315544  0.54968663  1
  Nd3+  Nd36  1  0.62624144  0.75072746  0.43555156  1
  Nd3+  Nd37  1  0.77606714  0.38098723  0.07417332  1
  Nd3+  Nd38  1  0.62811461  0.24818052  0.43205511  1
  Nd3+  Nd39  1  0.37057351  0.49475624  0.43668217  1
  Nd3+  Nd40  1  0.77407882  0.63113307  0.06164651  1
  Nd3+  Nd41  1  0.24912969  0.87077936  0.56615332  1
  Nd3+  Nd42  1  0.65015765  0.75594869  0.93966471  1
  Nd3+  Nd43  1  0.49564725  0.87147182  0.56086191  1
  Nd3+  Nd44  1  0.74198600  0.12372101  0.56433390  1
  Sm3+  Sm45  1  0.37336483  0.24539757  0.44895018  1
  Sm3+  Sm46  1  0.12323572  -0.00335698  0.44836663  1
  Sm3+  Sm47  1  0.12268821  0.24266161  0.43987500  1
  Sm3+  Sm48  1  0.39947617  0.00449438  0.94600900  1
  Sm3+  Sm49  1  0.65752110  0.25739553  0.94446661  1
  Sm3+  Sm50  1  0.90273472  0.75280947  0.93369176  1
  Sm3+  Sm51  1  0.52304475  0.37827412  0.05422380  1
  Sm3+  Sm52  1  0.64655551  0.50710011  0.94843039  1
  Sm3+  Sm53  1  0.52287207  0.13208240  0.05396847  1
  Sm3+  Sm54  1  0.27187543  0.63306932  0.05619030  1
  Sm3+  Sm55  1  0.14929510  0.50443162  0.94558152  1
  Sm3+  Sm56  1  0.37556995  -0.00143547  0.44749026  1
  Sm3+  Sm57  1  0.49772304  0.37412994  0.55177453  1
  Sm3+  Sm58  1  0.37317194  0.75238289  0.43586158  1
  Sm3+  Sm59  1  0.50281680  0.12289376  0.56134229  1
  Sm3+  Sm60  1  0.12316225  0.49691782  0.44161650  1
  Sm3+  Sm61  1  0.01273966  0.13164308  0.05230732  1
  Sm3+  Sm62  1  0.87509204  0.49925466  0.44572248  1
  Sm3+  Sm63  1  0.02436012  0.63256716  0.05396365  1
  Bi2+  Bi64  1  0.01131195  0.11495428  0.28433153  1
  Bi2+  Bi65  1  0.06124380  0.13680258  0.77843580  1
  Bi2+  Bi66  1  0.04643828  0.38572598  0.27185969  1
  Bi2+  Bi67  1  0.01978243  0.40477637  0.78961898  1
  Bi2+  Bi68  1  -0.01877310  0.57169939  0.27217757  1
  Bi2+  Bi69  1  -0.06428936  0.60065511  0.81057396  1
  Bi2+  Bi70  1  -0.01186729  0.83630512  0.30273720  1
  Bi2+  Bi71  1  -0.00540346  0.88748060  0.80664220  1
  Bi2+  Bi72  1  0.18992581  0.13848077  0.32451418  1
  Bi2+  Bi73  1  0.25775263  0.12976243  0.77511058  1
  Bi2+  Bi74  1  0.23949352  0.31900856  0.29338590  1
  Bi2+  Bi75  1  0.29160089  0.35949318  0.78612839  1
  Bi2+  Bi76  1  0.25827321  0.56426954  0.28469784  1
  Bi2+  Bi77  1  0.31997246  0.61868829  0.77900739  1
  Bi2+  Bi78  1  0.24000954  0.87970405  0.28858345  1
  Bi2+  Bi79  1  0.27060292  0.87646375  0.79087390  1
  Bi2+  Bi80  1  0.47066062  0.15454468  0.27989444  1
  Bi2+  Bi81  1  0.43943758  0.09449031  0.81534756  1
  Bi2+  Bi82  1  0.44471286  0.35748598  0.27602022  1
  Bi2+  Bi83  1  0.48695583  0.28825449  0.80179858  1
  Bi2+  Bi84  1  0.52121539  0.60708090  0.29605749  1
  Bi2+  Bi85  1  0.51102863  0.56572808  0.78844305  1
  Bi2+  Bi86  1  0.48898575  0.86873340  0.30277492  1
  Bi2+  Bi87  1  0.48192840  0.83619722  0.77736439  1
  Bi2+  Bi88  1  0.74526755  0.14136857  0.29460462  1
  Bi2+  Bi89  1  0.63087596  0.13774280  0.79315507  1
  Bi2+  Bi90  1  0.74933401  0.41866571  0.28272576  1
  Bi2+  Bi91  1  0.75065039  0.40456071  0.78845962  1
  Bi2+  Bi92  1  0.79099609  0.62617529  0.28107130  1
  Bi2+  Bi93  1  0.74015587  0.63297888  0.79741957  1
  Bi2+  Bi94  1  0.75876806  0.90500940  0.29749463  1
  Bi2+  Bi95  1  0.72560384  0.87422332  0.79035948  1
  Bi2+  Bi96  1  0.07859017  -0.04878193  0.22693736  1
  Bi2+  Bi97  1  0.11581152  0.00851159  0.70343123  1
  Bi2+  Bi98  1  0.12679350  0.23169417  0.21056268  1
  Bi2+  Bi99  1  0.17029741  0.29753721  0.69399583  1
  Bi2+  Bi100  1  0.14293515  0.50892873  0.19717477  1
  Bi2+  Bi101  1  0.12698660  0.56286877  0.75666050  1
  Bi2+  Bi102  1  0.13331975  0.73339438  0.20236444  1
  Bi2+  Bi103  1  0.12352172  0.73974473  0.71392895  1
  Bi2+  Bi104  1  0.31556826  0.04965687  0.25039807  1
  Bi2+  Bi105  1  0.35634011  -0.08045868  0.68822358  1
  Bi2+  Bi106  1  0.32195417  0.24895491  0.18348440  1
  Bi2+  Bi107  1  0.41785741  0.18543002  0.70724267  1
  Bi2+  Bi108  1  0.33235019  0.44632506  0.19653813  1
  Bi2+  Bi109  1  0.41590831  0.44697450  0.71450002  1
  Bi2+  Bi110  1  0.36940212  0.72661823  0.26562277  1
  Bi2+  Bi111  1  0.37482728  0.72713222  0.68826821  1
  Bi2+  Bi112  1  0.56832335  0.00424617  0.20646858  1
  Bi2+  Bi113  1  0.53248496  -0.00333419  0.70838356  1
  Bi2+  Bi114  1  0.58954107  0.26695285  0.21088158  1
  Bi2+  Bi115  1  0.61630103  0.25792909  0.70304808  1
  Bi2+  Bi116  1  0.59947436  0.52477784  0.20685191  1
  Bi2+  Bi117  1  0.66781565  0.52386563  0.70731446  1
  Bi2+  Bi118  1  0.59605585  0.77117536  0.19720371  1
  Bi2+  Bi119  1  0.60639347  0.71734617  0.70534185  1
  Bi2+  Bi120  1  0.88614770  0.01235180  0.21486862  1
  Bi2+  Bi121  1  0.86073172  0.03927648  0.72581286  1
  Bi2+  Bi122  1  0.88926123  0.27480491  0.20550141  1
  Bi2+  Bi123  1  0.90869270  0.27705406  0.68657172  1
  Bi2+  Bi124  1  0.78867348  0.51874131  0.18414442  1
  Bi2+  Bi125  1  0.86379111  0.51430027  0.71125438  1
  Bi2+  Bi126  1  0.87750513  0.75829587  0.20960700  1
  Bi2+  Bi127  1  0.87669481  0.71351934  0.72256102  1
  S2-  S128  1  -0.05787318  0.13943666  0.14523863  1
  S2-  S129  1  0.05371980  0.16555891  0.66402114  1
  S2-  S130  1  -0.08665317  0.40122215  0.14617142  1
  S2-  S131  1  0.03844274  0.38873228  0.65304845  1
  S2-  S132  1  0.00229220  0.67734232  0.14860299  1
  S2-  S133  1  -0.00120705  0.71327961  0.64384047  1
  S2-  S134  1  -0.09923223  0.88965423  0.14328927  1
  S2-  S135  1  -0.03316620  0.95358419  0.67039093  1
  S2-  S136  1  0.25285133  0.09256075  0.15835528  1
  S2-  S137  1  0.27021828  0.15380223  0.65945864  1
  S2-  S138  1  0.13730305  0.36515715  0.13937207  1
  S2-  S139  1  0.26956365  0.41080037  0.65561239  1
  S2-  S140  1  0.24910440  0.65811846  0.15292433  1
  S2-  S141  1  0.22963884  0.65147948  0.64991792  1
  S2-  S142  1  0.15433500  0.87021427  0.14125601  1
  S2-  S143  1  0.15017207  0.86840907  0.64806792  1
  S2-  S144  1  0.51536923  0.13492440  0.15216499  1
  S2-  S145  1  0.61304944  0.12020648  0.63810426  1
  S2-  S146  1  0.53754570  0.38469158  0.15217836  1
  S2-  S147  1  0.51906082  0.37347545  0.64847196  1
  S2-  S148  1  0.50972692  0.65164775  0.15400268  1
  S2-  S149  1  0.49333467  0.62083507  0.64793768  1
  S2-  S150  1  0.46292263  0.87882397  0.16892803  1
  S2-  S151  1  0.57982765  0.86478135  0.64720564  1
  S2-  S152  1  0.72915086  0.07626926  0.19367704  1
  S2-  S153  1  0.85147071  0.13189758  0.64213750  1
  S2-  S154  1  0.74421807  0.27581824  0.15685498  1
  S2-  S155  1  0.75307004  0.32513099  0.65270691  1
  S2-  S156  1  0.75573523  0.72495092  0.14568262  1
  S2-  S157  1  0.75369208  0.72042996  0.64799313  1
  S2-  S158  1  0.65663261  0.90050506  0.14626719  1
  S2-  S159  1  0.75687819  0.93415959  0.69263194  1
  S2-  S160  1  0.11647260  -0.08826426  0.36277637  1
  S2-  S161  1  0.14746882  -0.08288786  0.85305972  1
  S2-  S162  1  0.01997152  0.23115320  0.36175809  1
  S2-  S163  1  0.05169827  0.26313366  0.84464724  1
  S2-  S164  1  0.14620660  0.47097318  0.34613049  1
  S2-  S165  1  0.14081957  0.48561339  0.84800335  1
  S2-  S166  1  0.06050241  0.69149010  0.32648670  1
  S2-  S167  1  0.02044155  0.74705073  0.85262063  1
  S2-  S168  1  0.37718460  -0.03417239  0.35106470  1
  S2-  S169  1  0.40196848  -0.08847502  0.86268921  1
  S2-  S170  1  0.38065325  0.24886666  0.35202204  1
  S2-  S171  1  0.27085532  0.25701365  0.86055965  1
  S2-  S172  1  0.39068718  0.50209327  0.33879341  1
  S2-  S173  1  0.37986769  0.49092602  0.84603747  1
  S2-  S174  1  0.27617465  0.74723318  0.35548671  1
  S2-  S175  1  0.27645767  0.73444141  0.85113198  1
  S2-  S176  1  0.61834270  -0.02984415  0.33997237  1
  S2-  S177  1  0.69926482  0.00530994  0.84448753  1
  S2-  S178  1  0.61312792  0.20197369  0.33691553  1
  S2-  S179  1  0.71134025  0.26725743  0.85066053  1
  S2-  S180  1  0.62017236  0.46489280  0.33667663  1
  S2-  S181  1  0.64513502  0.50592694  0.85007308  1
  S2-  S182  1  0.59650700  0.73871042  0.33699919  1
  S2-  S183  1  0.60419462  0.79106139  0.84555205  1
  S2-  S184  1  0.84761647  0.02664343  0.35213619  1
  S2-  S185  1  0.94693900  0.04833786  0.84128078  1
  S2-  S186  1  0.80990173  0.27189559  0.33462905  1
  S2-  S187  1  0.86776321  0.20579478  0.76728200  1
  S2-  S188  1  0.86865417  0.50722534  0.34835136  1
  S2-  S189  1  0.88410926  0.39577991  0.85436572  1
  S2-  S190  1  0.83074593  0.78892475  0.35129504  1
  S2-  S191  1  0.85335842  0.85833958  0.85878127  1
  S2-  S192  1  -0.00001948  0.11580520  0.46367045  1
  S2-  S193  1  0.01585756  0.13215662  0.94933206  1
  S2-  S194  1  -0.00088445  0.37594779  0.45199226  1
  S2-  S195  1  0.02737569  0.38636309  0.95878489  1
  S2-  S196  1  0.00070144  0.62173879  0.45074765  1
  S2-  S197  1  0.02325442  0.62395354  0.95103053  1
  S2-  S198  1  -0.00132563  0.87368484  0.46326679  1
  S2-  S199  1  0.02060986  0.87883197  0.96031390  1
  S2-  S200  1  0.24951973  0.12083225  0.45765861  1
  S2-  S201  1  0.27486959  0.12489612  0.95388706  1
  S2-  S202  1  0.24652739  0.36824525  0.45290661  1
  S2-  S203  1  0.27199595  0.38062047  0.96271246  1
  S2-  S204  1  0.24837496  0.61993199  0.44810545  1
  S2-  S205  1  0.27388906  0.62945754  0.95306193  1
  S2-  S206  1  0.25347746  0.87727533  0.46043973  1
  S2-  S207  1  0.27251615  0.88572554  0.96122720  1
  S2-  S208  1  0.49906660  0.12355504  0.45516587  1
  S2-  S209  1  0.52295613  0.13337774  0.94919210  1
  S2-  S210  1  0.49812909  0.37076584  0.44692109  1
  S2-  S211  1  0.52454153  0.37777419  0.94952213  1
  S2-  S212  1  0.49483997  0.62456155  0.44432972  1
  S2-  S213  1  0.51936931  0.63378312  0.94892254  1
  S2-  S214  1  0.49741230  0.87203152  0.45396961  1
  S2-  S215  1  0.52475085  0.88206031  0.96317630  1
  S2-  S216  1  0.74803513  0.12417695  0.45636642  1
  S2-  S217  1  0.77538022  0.13202617  0.94365841  1
  S2-  S218  1  0.75126386  0.37453093  0.44930464  1
  S2-  S219  1  0.76372495  0.38823012  0.96594694  1
  S2-  S220  1  0.74941707  0.62333593  0.45361900  1
  S2-  S221  1  0.77376725  0.62971832  0.95196668  1
  S2-  S222  1  0.74604123  0.87208326  0.45800733  1
  S2-  S223  1  0.76803602  0.87556779  0.96465755  1
  S2-  S224  1  0.14222183  0.00994981  0.04612952  1
  S2-  S225  1  0.12170884  -0.00045331  0.55212260  1
  S2-  S226  1  0.14377597  0.24967052  0.04125962  1
  S2-  S227  1  0.12103229  0.24529231  0.54486615  1
  S2-  S228  1  0.14882785  0.50961928  0.04913420  1
  S2-  S229  1  0.12374545  0.49808356  0.54655123  1
  S2-  S230  1  0.14878182  0.75249300  0.03656385  1
  S2-  S231  1  0.12810069  0.74773936  0.53650196  1
  S2-  S232  1  0.39686045  0.00572714  0.05084176  1
  S2-  S233  1  0.37520971  0.00113335  0.55238018  1
  S2-  S234  1  0.39804506  0.25715230  0.04164240  1
  S2-  S235  1  0.37695562  0.24772518  0.55276728  1
  S2-  S236  1  0.39472175  0.50248781  0.05224584  1
  S2-  S237  1  0.37243132  0.49567181  0.54316036  1
  S2-  S238  1  0.39323088  0.75893010  0.04530078  1
  S2-  S239  1  0.37209472  0.74802242  0.54121487  1
  S2-  S240  1  0.65219787  0.01826003  0.04899013  1
  S2-  S241  1  0.62052392  -0.00699082  0.54317999  1
  S2-  S242  1  0.64586557  0.25350588  0.04800180  1
  S2-  S243  1  0.61927061  0.25173730  0.53878350  1
  S2-  S244  1  0.64454706  0.50673367  0.05270532  1
  S2-  S245  1  0.62219508  0.49807958  0.54259808  1
  S2-  S246  1  0.64359808  0.75261066  0.04404827  1
  S2-  S247  1  0.62110469  0.74651180  0.54188544  1
  S2-  S248  1  0.89218544  0.00861656  0.04309554  1
  S2-  S249  1  0.86374827  -0.01199147  0.55357056  1
  S2-  S250  1  0.89226828  0.25515180  0.04883220  1
  S2-  S251  1  0.87286444  0.24775683  0.53811004  1
  S2-  S252  1  0.89927038  0.51153473  0.04281156  1
  S2-  S253  1  0.87430887  0.50023661  0.55110723  1
  S2-  S254  1  0.89880061  0.75081136  0.03867229  1
  S2-  S255  1  0.87056994  0.74924297  0.54740138  1
