# generated using pymatgen
data_La6Ce7Pr13Nd19Sm19(BiS2)64
_symmetry_space_group_name_H-M   'P 1'
_cell_length_a   15.96943045
_cell_length_b   16.02975442
_cell_length_c   27.52643431
_cell_angle_alpha   90.17440525
_cell_angle_beta   90.35628940
_cell_angle_gamma   90.02897926
_symmetry_Int_Tables_number   1
_chemical_formula_structural   La6Ce7Pr13Nd19Sm19(BiS2)64
_chemical_formula_sum   'La6 Ce7 Pr13 Nd19 Sm19 Bi64 S128'
_cell_volume   7046.21328841
_cell_formula_units_Z   1
loop_
 _symmetry_equiv_pos_site_id
 _symmetry_equiv_pos_as_xyz
  1  'x, y, z'
loop_
 _atom_type_symbol
 _atom_type_oxidation_number
  La3+  3.0
  Ce3+  3.0
  Pr3+  3.0
  Nd3+  3.0
  Sm3+  3.0
  Bi2+  2.0
  S2-  -2.0
loop_
 _atom_site_type_symbol
 _atom_site_label
 _atom_site_symmetry_multiplicity
 _atom_site_fract_x
 _atom_site_fract_y
 _atom_site_fract_z
 _atom_site_occupancy
  La3+  La0  1  0.62210397  0.50799681  0.93232902  1
  La3+  La1  1  0.71263757  0.86763982  0.58194067  1
  La3+  La2  1  0.86877951  0.25883661  0.90853343  1
  La3+  La3  1  0.84030594  0.75946532  0.43032419  1
  La3+  La4  1  -0.02373267  0.36040014  0.11263556  1
  La3+  La5  1  0.13512061  0.00072968  0.89342992  1
  Ce3+  Ce6  1  0.34249658  0.25080830  0.44595401  1
  Ce3+  Ce7  1  0.58654593  0.75322094  0.42844660  1
  Ce3+  Ce8  1  -0.00086909  0.62491406  0.07235726  1
  Ce3+  Ce9  1  0.37367154  0.00292916  0.93966180  1
  Ce3+  Ce10  1  0.21135561  0.37499856  0.55823823  1
  Ce3+  Ce11  1  -0.02858054  0.88010538  0.57363604  1
  Ce3+  Ce12  1  0.21398639  0.87686509  0.55749475  1
  Pr3+  Pr13  1  0.46396116  0.62338943  0.54855796  1
  Pr3+  Pr14  1  0.62491979  0.75919099  0.94105486  1
  Pr3+  Pr15  1  0.59205503  0.49804907  0.42807214  1
  Pr3+  Pr16  1  0.72010732  0.12994893  0.58045797  1
  Pr3+  Pr17  1  0.12865706  0.26163181  0.91995828  1
  Pr3+  Pr18  1  0.75051520  0.87615836  0.07422324  1
  Pr3+  Pr19  1  0.86713795  -0.00784238  0.90944254  1
  Pr3+  Pr20  1  0.00043787  0.12995080  0.03397355  1
  Pr3+  Pr21  1  0.33550963  0.48588372  0.40307235  1
  Pr3+  Pr22  1  0.83635769  0.24986358  0.44132027  1
  Pr3+  Pr23  1  0.34261277  0.00308144  0.44758321  1
  Pr3+  Pr24  1  0.62344623  0.25131015  0.93430388  1
  Pr3+  Pr25  1  -0.03902279  0.38614427  0.57963397  1
  Nd3+  Nd26  1  0.46270896  0.87157032  0.56591734  1
  Nd3+  Nd27  1  0.59291842  -0.00046302  0.45409017  1
  Nd3+  Nd28  1  0.11929266  0.75756632  0.93913372  1
  Nd3+  Nd29  1  0.84722159  0.49285512  0.42483572  1
  Nd3+  Nd30  1  0.87902190  0.50437623  0.93820094  1
  Nd3+  Nd31  1  -0.00253667  0.87643451  0.07107393  1
  Nd3+  Nd32  1  0.33641565  0.74965124  0.42693127  1
  Nd3+  Nd33  1  0.11974509  0.50350991  0.94278303  1
  Nd3+  Nd34  1  0.08746673  0.50223633  0.43407378  1
  Nd3+  Nd35  1  0.08925319  0.75059303  0.43229148  1
  Nd3+  Nd36  1  0.46972948  0.12768421  0.57701351  1
  Nd3+  Nd37  1  0.24428744  0.12904905  0.05322635  1
  Nd3+  Nd38  1  0.46939018  0.37939821  0.56817302  1
  Nd3+  Nd39  1  0.37209007  0.50315573  0.94340020  1
  Nd3+  Nd40  1  0.08560338  0.25303805  0.44289126  1
  Nd3+  Nd41  1  0.24880724  0.62984020  0.05747966  1
  Nd3+  Nd42  1  0.75938659  0.13242793  0.05422689  1
  Nd3+  Nd43  1  0.50169714  0.12950388  0.05758250  1
  Nd3+  Nd44  1  0.37080595  0.75662116  0.93825466  1
  Sm3+  Sm45  1  0.37209105  0.25217910  0.94667756  1
  Sm3+  Sm46  1  0.50020378  0.38045735  0.05706231  1
  Sm3+  Sm47  1  0.21602392  0.62414116  0.55257433  1
  Sm3+  Sm48  1  0.71775041  0.38011729  0.56389100  1
  Sm3+  Sm49  1  0.08748044  0.00260743  0.44566451  1
  Sm3+  Sm50  1  -0.03469212  0.63151124  0.56209959  1
  Sm3+  Sm51  1  0.62820943  0.00342015  0.94468361  1
  Sm3+  Sm52  1  0.49904388  0.87763541  0.07327162  1
  Sm3+  Sm53  1  0.74920525  0.37892042  0.05193647  1
  Sm3+  Sm54  1  0.49903687  0.62895026  0.05864387  1
  Sm3+  Sm55  1  0.24023456  0.37691236  0.06405736  1
  Sm3+  Sm56  1  0.75151124  0.62911611  0.05211475  1
  Sm3+  Sm57  1  0.71786869  0.62633197  0.54467742  1
  Sm3+  Sm58  1  0.21547060  0.12832964  0.56036943  1
  Sm3+  Sm59  1  0.84036256  0.00281197  0.45994328  1
  Sm3+  Sm60  1  0.59240836  0.25027887  0.44774865  1
  Sm3+  Sm61  1  0.25250070  0.88148821  0.06198522  1
  Sm3+  Sm62  1  0.87914792  0.75779319  0.94106899  1
  Sm3+  Sm63  1  -0.03362139  0.13680511  0.60066656  1
  Bi2+  Bi64  1  0.02299243  0.10445315  0.28486831  1
  Bi2+  Bi65  1  0.01368563  0.12943610  0.75639106  1
  Bi2+  Bi66  1  0.03698533  0.38324732  0.31080097  1
  Bi2+  Bi67  1  0.01741671  0.36915236  0.80579476  1
  Bi2+  Bi68  1  0.07016161  0.65011331  0.30278268  1
  Bi2+  Bi69  1  0.00650595  0.61535993  0.84992777  1
  Bi2+  Bi70  1  -0.00028048  0.88083063  0.28937521  1
  Bi2+  Bi71  1  0.00537289  0.78348961  0.79046085  1
  Bi2+  Bi72  1  0.27631227  0.17981076  0.30565984  1
  Bi2+  Bi73  1  0.35519401  0.14805216  0.79250718  1
  Bi2+  Bi74  1  0.30343694  0.38571407  0.19647609  1
  Bi2+  Bi75  1  0.26734897  0.46454985  0.78564827  1
  Bi2+  Bi76  1  0.36601804  0.60680162  0.28012843  1
  Bi2+  Bi77  1  0.18427013  0.64877835  0.79587813  1
  Bi2+  Bi78  1  0.27155894  0.87017984  0.29534566  1
  Bi2+  Bi79  1  0.29365963  0.84998532  0.79462342  1
  Bi2+  Bi80  1  0.46458605  0.11405822  0.30790046  1
  Bi2+  Bi81  1  0.55284953  0.16625122  0.81554571  1
  Bi2+  Bi82  1  0.46347976  0.34948798  0.28381880  1
  Bi2+  Bi83  1  0.48282963  0.36052902  0.79195897  1
  Bi2+  Bi84  1  0.56683415  0.61037877  0.28450586  1
  Bi2+  Bi85  1  0.50239683  0.62932119  0.80693379  1
  Bi2+  Bi86  1  0.55112073  0.86081375  0.29551490  1
  Bi2+  Bi87  1  0.45609935  0.86918676  0.72535035  1
  Bi2+  Bi88  1  0.73382010  0.07964673  0.30982232  1
  Bi2+  Bi89  1  0.76626729  0.11295960  0.79031334  1
  Bi2+  Bi90  1  0.74390670  0.34380051  0.30025927  1
  Bi2+  Bi91  1  0.74855259  0.46279341  0.77564166  1
  Bi2+  Bi92  1  0.76793875  0.60706839  0.27820774  1
  Bi2+  Bi93  1  0.76335699  0.65083919  0.79967357  1
  Bi2+  Bi94  1  0.76501993  0.87418541  0.28335807  1
  Bi2+  Bi95  1  0.73489361  0.86582063  0.78674181  1
  Bi2+  Bi96  1  0.15542394  0.00472290  0.21802513  1
  Bi2+  Bi97  1  0.18081064  0.00208966  0.70086654  1
  Bi2+  Bi98  1  0.11639765  0.19852298  0.19788516  1
  Bi2+  Bi99  1  0.17174445  0.27768703  0.72161538  1
  Bi2+  Bi100  1  0.19390105  0.53282722  0.24690517  1
  Bi2+  Bi101  1  0.12749734  0.53478401  0.70508829  1
  Bi2+  Bi102  1  0.13928146  0.80785601  0.21646448  1
  Bi2+  Bi103  1  0.13502995  0.76641847  0.69976769  1
  Bi2+  Bi104  1  0.41390594  -0.05792579  0.23056687  1
  Bi2+  Bi105  1  0.39596543  0.05463145  0.69440977  1
  Bi2+  Bi106  1  0.38164705  0.20485447  0.20778605  1
  Bi2+  Bi107  1  0.40204399  0.26417610  0.69237848  1
  Bi2+  Bi108  1  0.45774808  0.51055940  0.18415490  1
  Bi2+  Bi109  1  0.40332229  0.46777734  0.70283501  1
  Bi2+  Bi110  1  0.33552198  0.73794834  0.19846280  1
  Bi2+  Bi111  1  0.37604644  0.66544734  0.71960025  1
  Bi2+  Bi112  1  0.62024544  0.02550804  0.20708102  1
  Bi2+  Bi113  1  0.58059691  0.02252983  0.73660857  1
  Bi2+  Bi114  1  0.60288629  0.22675845  0.25299397  1
  Bi2+  Bi115  1  0.59820808  0.26558617  0.71625077  1
  Bi2+  Bi116  1  0.65700062  0.49456896  0.20389518  1
  Bi2+  Bi117  1  0.62041032  0.52789526  0.69744929  1
  Bi2+  Bi118  1  0.62578295  0.74828412  0.20826492  1
  Bi2+  Bi119  1  0.65045845  0.74014038  0.71307499  1
  Bi2+  Bi120  1  0.88869406  0.00312115  0.22449066  1
  Bi2+  Bi121  1  0.91292353  -0.08285478  0.72329370  1
  Bi2+  Bi122  1  0.85070854  0.20991278  0.20102761  1
  Bi2+  Bi123  1  0.85095351  0.28724054  0.70709918  1
  Bi2+  Bi124  1  0.86178525  0.48262380  0.21432761  1
  Bi2+  Bi125  1  0.94004553  0.52196649  0.74415707  1
  Bi2+  Bi126  1  0.88043225  0.74170998  0.20162790  1
  Bi2+  Bi127  1  0.86687557  0.69958777  0.70826176  1
  S2-  S128  1  -0.01728175  0.17809594  0.13258772  1
  S2-  S129  1  0.00832574  -0.00569597  0.65413467  1
  S2-  S130  1  -0.02690319  0.34636379  0.22401079  1
  S2-  S131  1  -0.00260077  0.27487802  0.66150643  1
  S2-  S132  1  -0.02135646  0.52683645  0.15238642  1
  S2-  S133  1  -0.01272932  0.52845542  0.64197206  1
  S2-  S134  1  0.02128771  0.74734403  0.14340410  1
  S2-  S135  1  -0.01373299  0.75185759  0.63994959  1
  S2-  S136  1  0.24774525  0.11613741  0.15212365  1
  S2-  S137  1  0.18874200  0.15657091  0.65643694  1
  S2-  S138  1  0.14897629  0.34913087  0.14486980  1
  S2-  S139  1  0.19826270  0.39206773  0.65514155  1
  S2-  S140  1  0.23714353  0.61704610  0.15549623  1
  S2-  S141  1  0.23291225  0.64753451  0.65000682  1
  S2-  S142  1  0.36612977  0.88797508  0.13921812  1
  S2-  S143  1  0.25392897  0.86714822  0.65198367  1
  S2-  S144  1  0.50118722  0.10680235  0.15454745  1
  S2-  S145  1  0.59264005  0.12679033  0.65214834  1
  S2-  S146  1  0.55797969  0.37954026  0.14839916  1
  S2-  S147  1  0.59701223  0.38991381  0.63958347  1
  S2-  S148  1  0.49294871  0.69025426  0.14953235  1
  S2-  S149  1  0.48417955  0.61124935  0.64871034  1
  S2-  S150  1  0.62145181  0.88894762  0.14496461  1
  S2-  S151  1  0.56541119  0.84220016  0.64468967  1
  S2-  S152  1  0.75011934  0.10927035  0.15286061  1
  S2-  S153  1  0.82741182  0.14288968  0.66277666  1
  S2-  S154  1  0.80306065  0.33667345  0.14189647  1
  S2-  S155  1  0.81688616  0.40024665  0.64393188  1
  S2-  S156  1  0.75860217  0.68951788  0.14393211  1
  S2-  S157  1  0.73239523  0.63591701  0.64319553  1
  S2-  S158  1  0.87523850  0.89023037  0.14757846  1
  S2-  S159  1  0.77221960  0.91219594  0.67646926  1
  S2-  S160  1  0.08992740  -0.01367772  0.34815856  1
  S2-  S161  1  0.11943858  0.01898999  0.78875284  1
  S2-  S162  1  0.11688938  0.23787735  0.34450459  1
  S2-  S163  1  0.11841237  0.22162766  0.81926153  1
  S2-  S164  1  0.18317200  0.47680493  0.34745953  1
  S2-  S165  1  0.15126816  0.41617969  0.85700944  1
  S2-  S166  1  0.20527310  0.74271748  0.35411367  1
  S2-  S167  1  0.14249831  0.83940570  0.85234391  1
  S2-  S168  1  0.32740472  0.02167266  0.34878186  1
  S2-  S169  1  0.30684657  0.00087221  0.84978348  1
  S2-  S170  1  0.34107294  0.32107110  0.35616456  1
  S2-  S171  1  0.35106606  0.28437646  0.85211654  1
  S2-  S172  1  0.48411913  0.48458417  0.34664035  1
  S2-  S173  1  0.37810775  0.55266358  0.84915480  1
  S2-  S174  1  0.46057395  0.76604460  0.35646747  1
  S2-  S175  1  0.41628960  0.78239299  0.84428838  1
  S2-  S176  1  0.58484665  0.01029150  0.35500956  1
  S2-  S177  1  0.70385863  -0.01111096  0.85648289  1
  S2-  S178  1  0.69814061  0.22558443  0.37126126  1
  S2-  S179  1  0.71134585  0.24156044  0.84865178  1
  S2-  S180  1  0.71879746  0.48045808  0.35299561  1
  S2-  S181  1  0.59453617  0.48011897  0.83491913  1
  S2-  S182  1  0.70815720  0.77926402  0.35879112  1
  S2-  S183  1  0.63243331  0.74594606  0.84190326  1
  S2-  S184  1  0.82780119  -0.02299384  0.36187471  1
  S2-  S185  1  0.91236935  0.02811429  0.81119899  1
  S2-  S186  1  0.88930440  0.33198329  0.35512468  1
  S2-  S187  1  0.90061681  0.22687257  0.80670668  1
  S2-  S188  1  0.97411233  0.52812712  0.35309839  1
  S2-  S189  1  0.85943888  0.41880628  0.85086737  1
  S2-  S190  1  0.96754588  0.75240174  0.35749352  1
  S2-  S191  1  0.86513974  0.83580419  0.85413985  1
  S2-  S192  1  -0.03649218  0.12409335  0.44601945  1
  S2-  S193  1  0.00227778  0.12301388  0.92862168  1
  S2-  S194  1  -0.03317247  0.37679482  0.46387854  1
  S2-  S195  1  -0.00167907  0.37651049  0.94321044  1
  S2-  S196  1  -0.03600071  0.62853322  0.45894198  1
  S2-  S197  1  -0.00105753  0.63179527  0.96510214  1
  S2-  S198  1  -0.03275171  0.88107030  0.46365084  1
  S2-  S199  1  0.00107742  0.88650257  0.95234654  1
  S2-  S200  1  0.21360917  0.12716730  0.45667726  1
  S2-  S201  1  0.24559751  0.12764477  0.94681137  1
  S2-  S202  1  0.21627268  0.37476885  0.45550297  1
  S2-  S203  1  0.25295626  0.37906168  0.96023419  1
  S2-  S204  1  0.22322525  0.61601012  0.45008920  1
  S2-  S205  1  0.24736599  0.63068040  0.95133407  1
  S2-  S206  1  0.21510902  0.87965915  0.45309879  1
  S2-  S207  1  0.24680460  0.88299136  0.95841342  1
  S2-  S208  1  0.46922814  0.12769804  0.46542813  1
  S2-  S209  1  0.49870604  0.12658576  0.95189733  1
  S2-  S210  1  0.46744067  0.37407566  0.46012167  1
  S2-  S211  1  0.49724669  0.37729479  0.95195901  1
  S2-  S212  1  0.45657265  0.61766929  0.44521913  1
  S2-  S213  1  0.49685942  0.63257852  0.95450344  1
  S2-  S214  1  0.46378997  0.87697175  0.46088349  1
  S2-  S215  1  0.50046205  0.88225752  0.95834668  1
  S2-  S216  1  0.71474582  0.12289478  0.47302299  1
  S2-  S217  1  0.75472699  0.12542295  0.94997746  1
  S2-  S218  1  0.71420267  0.37627212  0.46089540  1
  S2-  S219  1  0.74492701  0.38208571  0.95021951  1
  S2-  S220  1  0.71801163  0.62527682  0.44417360  1
  S2-  S221  1  0.75276147  0.63214295  0.94798815  1
  S2-  S222  1  0.71591282  0.87916236  0.46919776  1
  S2-  S223  1  0.75149344  0.87870345  0.96215263  1
  S2-  S224  1  0.12359096  0.00046966  0.05605026  1
  S2-  S225  1  0.09269216  0.00850058  0.54805065  1
  S2-  S226  1  0.12757778  0.25314110  0.03056822  1
  S2-  S227  1  0.08596490  0.24555744  0.54884851  1
  S2-  S228  1  0.12593644  0.50387138  0.04675866  1
  S2-  S229  1  0.09284308  0.50360662  0.54103936  1
  S2-  S230  1  0.13025404  0.75874641  0.04403737  1
  S2-  S231  1  0.09635205  0.75043921  0.53825388  1
  S2-  S232  1  0.37626155  0.00668913  0.04356178  1
  S2-  S233  1  0.34275590  0.00379780  0.55374705  1
  S2-  S234  1  0.37431761  0.25579455  0.05112408  1
  S2-  S235  1  0.34354129  0.25101175  0.55265409  1
  S2-  S236  1  0.37348533  0.50221515  0.04901814  1
  S2-  S237  1  0.33913845  0.49766030  0.55386503  1
  S2-  S238  1  0.37567392  0.75430476  0.04308349  1
  S2-  S239  1  0.33861128  0.75034046  0.53955954  1
  S2-  S240  1  0.62659517  0.00657495  0.04569133  1
  S2-  S241  1  0.58877036  -0.00197756  0.55741425  1
  S2-  S242  1  0.62484981  0.25470686  0.04193718  1
  S2-  S243  1  0.59190565  0.25109411  0.54888067  1
  S2-  S244  1  0.62402069  0.50639104  0.04160436  1
  S2-  S245  1  0.59324008  0.50299638  0.53662673  1
  S2-  S246  1  0.62231366  0.75187727  0.04504207  1
  S2-  S247  1  0.58945359  0.74745006  0.53660751  1
  S2-  S248  1  0.87680988  0.00374702  0.04414224  1
  S2-  S249  1  0.84518376  0.00440812  0.56104178  1
  S2-  S250  1  0.87560214  0.25939668  0.03142200  1
  S2-  S251  1  0.84513379  0.25033597  0.54979727  1
  S2-  S252  1  0.87030502  0.50164335  0.04366797  1
  S2-  S253  1  0.84051604  0.50703926  0.53719782  1
  S2-  S254  1  0.87520707  0.75216832  0.04256174  1
  S2-  S255  1  0.83952548  0.75481852  0.54397744  1
