# generated using pymatgen
data_La6Ce7Pr13Nd19Sm19(BiS2)64
_symmetry_space_group_name_H-M   'P 1'
_cell_length_a   16.02619805
_cell_length_b   16.07631277
_cell_length_c   27.36258646
_cell_angle_alpha   90.30818695
_cell_angle_beta   89.86746478
_cell_angle_gamma   89.95547478
_symmetry_Int_Tables_number   1
_chemical_formula_structural   La6Ce7Pr13Nd19Sm19(BiS2)64
_chemical_formula_sum   'La6 Ce7 Pr13 Nd19 Sm19 Bi64 S128'
_cell_volume   7049.63317653
_cell_formula_units_Z   1
loop_
 _symmetry_equiv_pos_site_id
 _symmetry_equiv_pos_as_xyz
  1  'x, y, z'
loop_
 _atom_type_symbol
 _atom_type_oxidation_number
  La3+  3.0
  Ce3+  3.0
  Pr3+  3.0
  Nd3+  3.0
  Sm3+  3.0
  Bi2+  2.0
  S2-  -2.0
loop_
 _atom_site_type_symbol
 _atom_site_label
 _atom_site_symmetry_multiplicity
 _atom_site_fract_x
 _atom_site_fract_y
 _atom_site_fract_z
 _atom_site_occupancy
  La3+  La0  1  0.50716594  0.12887900  0.06577434  1
  La3+  La1  1  0.38209559  0.49412281  0.89237170  1
  La3+  La2  1  0.62302834  0.50491786  0.41052970  1
  La3+  La3  1  0.63379983  0.23958773  0.91700273  1
  La3+  La4  1  0.23107331  0.12746222  0.12250566  1
  La3+  La5  1  -0.01246186  0.14140336  0.60230058  1
  Ce3+  Ce6  1  0.14274418  0.49395095  0.94454773  1
  Ce3+  Ce7  1  0.37441928  0.00657415  0.44207287  1
  Ce3+  Ce8  1  0.87629261  0.50562180  0.43566243  1
  Ce3+  Ce9  1  0.26704493  0.36166643  0.05138267  1
  Ce3+  Ce10  1  0.62310682  0.00892964  0.43319798  1
  Ce3+  Ce11  1  0.49916033  0.13151445  0.55739231  1
  Ce3+  Ce12  1  0.51330145  0.61349064  0.05814859  1
  Pr3+  Pr13  1  0.89238761  0.73901148  0.93418870  1
  Pr3+  Pr14  1  0.88924378  0.49390097  0.92988827  1
  Pr3+  Pr15  1  0.01324466  0.86888187  0.06107234  1
  Pr3+  Pr16  1  0.64094627  0.49294701  0.91390677  1
  Pr3+  Pr17  1  0.00100477  0.62987442  0.56458025  1
  Pr3+  Pr18  1  0.63816315  -0.00891940  0.93421321  1
  Pr3+  Pr19  1  0.63050531  0.75460854  0.43053157  1
  Pr3+  Pr20  1  0.00855910  0.61411832  0.07251031  1
  Pr3+  Pr21  1  0.38395378  0.23165993  0.92186193  1
  Pr3+  Pr22  1  0.75884187  0.36958432  0.05406920  1
  Pr3+  Pr23  1  0.24468283  0.63183638  0.56622385  1
  Pr3+  Pr24  1  0.37428991  0.75256884  0.43347098  1
  Pr3+  Pr25  1  0.26497195  0.87213759  0.07333996  1
  Nd3+  Nd26  1  0.37373975  0.26237935  0.44213330  1
  Nd3+  Nd27  1  0.62004862  0.25627397  0.43116267  1
  Nd3+  Nd28  1  0.51005562  0.38792224  0.57499038  1
  Nd3+  Nd29  1  0.38853932  0.73917218  0.93943762  1
  Nd3+  Nd30  1  0.12119181  0.75502720  0.43014591  1
  Nd3+  Nd31  1  0.37181328  0.50504696  0.44326000  1
  Nd3+  Nd32  1  0.74988557  0.88155206  0.55755350  1
  Nd3+  Nd33  1  0.87708743  0.00979396  0.44515369  1
  Nd3+  Nd34  1  0.75802253  0.61552879  0.06451998  1
  Nd3+  Nd35  1  0.88844180  0.24142292  0.94289747  1
  Nd3+  Nd36  1  0.13942968  -0.00728957  0.94369821  1
  Nd3+  Nd37  1  0.49376334  0.63316583  0.57147105  1
  Nd3+  Nd38  1  0.51216360  0.87006719  0.06091597  1
  Nd3+  Nd39  1  0.24823827  0.12975373  0.56396226  1
  Nd3+  Nd40  1  0.87824802  0.75607019  0.43349007  1
  Nd3+  Nd41  1  0.27023463  0.61909076  0.07381285  1
  Nd3+  Nd42  1  0.12300041  0.00990870  0.44361996  1
  Nd3+  Nd43  1  0.76262221  0.86720277  0.05910412  1
  Nd3+  Nd44  1  0.14092836  0.73893956  0.94629199  1
  Sm3+  Sm45  1  0.13906055  0.23918008  0.94140284  1
  Sm3+  Sm46  1  -0.00116410  0.88208508  0.56002580  1
  Sm3+  Sm47  1  0.01179360  0.36757105  0.05472072  1
  Sm3+  Sm48  1  0.38611258  -0.00766240  0.94379243  1
  Sm3+  Sm49  1  0.88854905  -0.00752500  0.94554882  1
  Sm3+  Sm50  1  0.75530505  0.12058857  0.06114836  1
  Sm3+  Sm51  1  0.87340404  0.25738637  0.44447826  1
  Sm3+  Sm52  1  0.63861545  0.74016936  0.94177746  1
  Sm3+  Sm53  1  0.51073335  0.36915753  0.03772497  1
  Sm3+  Sm54  1  0.12779532  0.50141751  0.44164539  1
  Sm3+  Sm55  1  0.12385488  0.25488211  0.44914336  1
  Sm3+  Sm56  1  0.74528291  0.13226925  0.55760611  1
  Sm3+  Sm57  1  0.49937123  0.87591397  0.55635928  1
  Sm3+  Sm58  1  0.24420302  0.88277714  0.55159620  1
  Sm3+  Sm59  1  0.74690271  0.38229305  0.55372830  1
  Sm3+  Sm60  1  0.00021607  0.38043765  0.55879069  1
  Sm3+  Sm61  1  0.25925333  0.37592638  0.57645388  1
  Sm3+  Sm62  1  0.01049785  0.11833839  0.06112140  1
  Sm3+  Sm63  1  0.74834023  0.63182413  0.55625131  1
  Bi2+  Bi64  1  0.00080255  0.25223989  0.28755427  1
  Bi2+  Bi65  1  0.00134854  0.09308724  0.80989912  1
  Bi2+  Bi66  1  0.01781672  0.47271001  0.32678473  1
  Bi2+  Bi67  1  -0.03277873  0.38603142  0.81213668  1
  Bi2+  Bi68  1  -0.03027970  0.63875247  0.27400413  1
  Bi2+  Bi69  1  -0.00442037  0.58449039  0.81747694  1
  Bi2+  Bi70  1  0.04689521  0.89591281  0.30897941  1
  Bi2+  Bi71  1  -0.08090242  0.84068928  0.74887700  1
  Bi2+  Bi72  1  0.26565816  0.14252689  0.32548950  1
  Bi2+  Bi73  1  0.24362323  0.04930246  0.78709496  1
  Bi2+  Bi74  1  0.25226875  0.38183736  0.28997699  1
  Bi2+  Bi75  1  0.27142504  0.25262409  0.79023272  1
  Bi2+  Bi76  1  0.19818086  0.60914044  0.29693841  1
  Bi2+  Bi77  1  0.22327943  0.64684944  0.79607925  1
  Bi2+  Bi78  1  0.22614109  0.80263061  0.30982912  1
  Bi2+  Bi79  1  0.26560465  0.84507086  0.79795892  1
  Bi2+  Bi80  1  0.50869269  0.08332631  0.28261396  1
  Bi2+  Bi81  1  0.50417562  0.10068442  0.78996219  1
  Bi2+  Bi82  1  0.51129009  0.36206794  0.29266939  1
  Bi2+  Bi83  1  0.53308227  0.36568685  0.78176296  1
  Bi2+  Bi84  1  0.46823873  0.60547014  0.28719075  1
  Bi2+  Bi85  1  0.50110335  0.66690888  0.78299033  1
  Bi2+  Bi86  1  0.59788199  0.90677483  0.31245728  1
  Bi2+  Bi87  1  0.45824520  0.88155742  0.81105220  1
  Bi2+  Bi88  1  0.74086362  0.14682155  0.28423136  1
  Bi2+  Bi89  1  0.75624582  0.15789833  0.78529022  1
  Bi2+  Bi90  1  0.84857304  0.38757773  0.29866900  1
  Bi2+  Bi91  1  0.78337746  0.42374228  0.77198808  1
  Bi2+  Bi92  1  0.72631401  0.64980330  0.28837155  1
  Bi2+  Bi93  1  0.78020388  0.67005732  0.78384297  1
  Bi2+  Bi94  1  0.79821231  0.90099646  0.29093852  1
  Bi2+  Bi95  1  0.65567345  0.88746166  0.80998589  1
  Bi2+  Bi96  1  0.02846574  -0.00446343  0.21130111  1
  Bi2+  Bi97  1  0.14459622  -0.08208899  0.71501261  1
  Bi2+  Bi98  1  0.09005458  0.38795289  0.22400152  1
  Bi2+  Bi99  1  0.12160268  0.23996900  0.71767122  1
  Bi2+  Bi100  1  0.13660716  0.56940559  0.18436590  1
  Bi2+  Bi101  1  0.12549361  0.46732053  0.75876337  1
  Bi2+  Bi102  1  0.11662635  0.75663024  0.21627504  1
  Bi2+  Bi103  1  0.07831389  0.72326052  0.72152181  1
  Bi2+  Bi104  1  0.35751332  -0.00323875  0.22104374  1
  Bi2+  Bi105  1  0.37978378  -0.02636167  0.70919190  1
  Bi2+  Bi106  1  0.39006792  0.25500424  0.20185094  1
  Bi2+  Bi107  1  0.38877917  0.19459875  0.70206560  1
  Bi2+  Bi108  1  0.32483877  0.51095451  0.21627227  1
  Bi2+  Bi109  1  0.35986985  0.48431276  0.70225964  1
  Bi2+  Bi110  1  0.37841970  0.73783675  0.20913834  1
  Bi2+  Bi111  1  0.38336964  0.76174178  0.70650837  1
  Bi2+  Bi112  1  0.63216263  -0.00525321  0.20910630  1
  Bi2+  Bi113  1  0.57963952  -0.02436424  0.70781277  1
  Bi2+  Bi114  1  0.67057089  0.25712301  0.20021789  1
  Bi2+  Bi115  1  0.65851713  0.23296685  0.70226892  1
  Bi2+  Bi116  1  0.56682692  0.47157638  0.16960136  1
  Bi2+  Bi117  1  0.64341743  0.50776017  0.70888405  1
  Bi2+  Bi118  1  0.58377270  0.80109008  0.21593339  1
  Bi2+  Bi119  1  0.63932377  0.77671803  0.71039213  1
  Bi2+  Bi120  1  0.83885359  0.03262776  0.20264843  1
  Bi2+  Bi121  1  0.77671317  -0.02186292  0.73367022  1
  Bi2+  Bi122  1  0.86296753  0.22763922  0.20295854  1
  Bi2+  Bi123  1  0.89137751  0.24222188  0.71798208  1
  Bi2+  Bi124  1  0.86504639  0.49899662  0.20542348  1
  Bi2+  Bi125  1  0.94362662  0.49608220  0.70890829  1
  Bi2+  Bi126  1  0.85288425  0.76281773  0.21181274  1
  Bi2+  Bi127  1  0.89507428  0.67809726  0.68078384  1
  S2-  S128  1  0.06008205  0.13157734  0.15449644  1
  S2-  S129  1  0.01070710  0.10908296  0.70292150  1
  S2-  S130  1  -0.02747813  0.39982151  0.14807526  1
  S2-  S131  1  -0.00094374  0.30323909  0.64634331  1
  S2-  S132  1  -0.12425286  0.62460171  0.14066755  1
  S2-  S133  1  0.11797443  0.64816317  0.63853088  1
  S2-  S134  1  -0.00878426  0.84311636  0.15933136  1
  S2-  S135  1  0.00481785  0.89074635  0.65724849  1
  S2-  S136  1  0.25768481  0.14446781  0.22989050  1
  S2-  S137  1  0.22749846  0.15572600  0.66172442  1
  S2-  S138  1  0.26471467  0.30323205  0.14351641  1
  S2-  S139  1  0.21341776  0.43566609  0.66643317  1
  S2-  S140  1  0.25366106  0.74839173  0.14707431  1
  S2-  S141  1  0.34682376  0.62901558  0.64873017  1
  S2-  S142  1  0.23541726  0.96306056  0.16115226  1
  S2-  S143  1  0.26608906  0.86949672  0.64792184  1
  S2-  S144  1  0.40742229  0.11195304  0.15006257  1
  S2-  S145  1  0.54301029  0.14028572  0.65177671  1
  S2-  S146  1  0.50491651  0.31295410  0.13337024  1
  S2-  S147  1  0.39242239  0.34153644  0.64761115  1
  S2-  S148  1  0.40938669  0.60816919  0.14310897  1
  S2-  S149  1  0.51391305  0.51843936  0.64966107  1
  S2-  S150  1  0.45503365  0.87130523  0.15607713  1
  S2-  S151  1  0.51522409  0.77328548  0.63568923  1
  S2-  S152  1  0.64259181  0.12662208  0.13709526  1
  S2-  S153  1  0.80844914  0.14763322  0.64771886  1
  S2-  S154  1  0.72836313  0.40718582  0.15120322  1
  S2-  S155  1  0.66867710  0.36870417  0.64218920  1
  S2-  S156  1  0.62838006  0.61018934  0.13455833  1
  S2-  S157  1  0.72937529  0.61807931  0.65458188  1
  S2-  S158  1  0.72881553  0.83340262  0.15470011  1
  S2-  S159  1  0.75961703  0.86355476  0.65578964  1
  S2-  S160  1  0.14309794  0.03814105  0.34588347  1
  S2-  S161  1  0.10711691  -0.01791876  0.84505306  1
  S2-  S162  1  0.15154813  0.27218198  0.35226315  1
  S2-  S163  1  0.12588233  0.21876401  0.84302040  1
  S2-  S164  1  0.24679693  0.49224260  0.36715856  1
  S2-  S165  1  0.20852719  0.50308484  0.85422335  1
  S2-  S166  1  -0.00221974  0.74728368  0.35768317  1
  S2-  S167  1  0.08796336  0.71913682  0.85183989  1
  S2-  S168  1  0.38042389  0.01125084  0.34391924  1
  S2-  S169  1  0.37081781  0.07744223  0.85650078  1
  S2-  S170  1  0.40115809  0.26215930  0.34250536  1
  S2-  S171  1  0.49905282  0.24221110  0.84323707  1
  S2-  S172  1  0.46321803  0.48409045  0.35728184  1
  S2-  S173  1  0.36802481  0.40481763  0.79895634  1
  S2-  S174  1  0.38851411  0.74509976  0.33270517  1
  S2-  S175  1  0.37231287  0.65692599  0.85102867  1
  S2-  S176  1  0.62034813  0.12510408  0.35889509  1
  S2-  S177  1  0.64820040  0.09513702  0.85335113  1
  S2-  S178  1  0.63621782  0.35539582  0.34969037  1
  S2-  S179  1  0.67226868  0.35441864  0.84103150  1
  S2-  S180  1  0.61349755  0.51576754  0.25486627  1
  S2-  S181  1  0.53271977  0.51855817  0.83255928  1
  S2-  S182  1  0.59282297  0.65173985  0.35152032  1
  S2-  S183  1  0.63800996  0.71353222  0.84451406  1
  S2-  S184  1  0.90750020  -0.01530867  0.34800504  1
  S2-  S185  1  0.88563746  0.00610728  0.84835394  1
  S2-  S186  1  0.86622155  0.22219029  0.34898474  1
  S2-  S187  1  0.89344815  0.22747106  0.84424077  1
  S2-  S188  1  0.78304152  0.52454100  0.35290966  1
  S2-  S189  1  0.78191582  0.53767179  0.85198356  1
  S2-  S190  1  0.76684704  0.76094225  0.35575267  1
  S2-  S191  1  0.86429054  0.77833030  0.83719503  1
  S2-  S192  1  -0.00056343  0.13502780  0.45136959  1
  S2-  S193  1  0.01232714  0.11602949  0.95612408  1
  S2-  S194  1  -0.00010377  0.37815367  0.45537110  1
  S2-  S195  1  0.01593424  0.36667322  0.95082381  1
  S2-  S196  1  0.00329644  0.62427676  0.45820593  1
  S2-  S197  1  0.01426243  0.61497620  0.96173275  1
  S2-  S198  1  0.00107123  0.88429728  0.45645375  1
  S2-  S199  1  0.01248587  0.86775347  0.95449081  1
  S2-  S200  1  0.24992933  0.13289030  0.45834319  1
  S2-  S201  1  0.25771042  0.11570667  0.95248192  1
  S2-  S202  1  0.24608376  0.37616107  0.46807577  1
  S2-  S203  1  0.26273680  0.36300903  0.94480173  1
  S2-  S204  1  0.24412957  0.63424619  0.45664295  1
  S2-  S205  1  0.26482850  0.61773444  0.96259593  1
  S2-  S206  1  0.24593439  0.88165311  0.44766644  1
  S2-  S207  1  0.26332815  0.86657930  0.95539153  1
  S2-  S208  1  0.49447506  0.13168143  0.45424884  1
  S2-  S209  1  0.51147157  0.11205301  0.95521232  1
  S2-  S210  1  0.49954138  0.37970300  0.46297418  1
  S2-  S211  1  0.50368760  0.37491174  0.93656902  1
  S2-  S212  1  0.49527172  0.63150175  0.46030891  1
  S2-  S213  1  0.51431360  0.61785473  0.95004387  1
  S2-  S214  1  0.49942419  0.87994665  0.45161587  1
  S2-  S215  1  0.51265602  0.86662126  0.95203605  1
  S2-  S216  1  0.75093754  0.13230151  0.45542327  1
  S2-  S217  1  0.76663011  0.11570407  0.95718039  1
  S2-  S218  1  0.75060757  0.38062474  0.45228564  1
  S2-  S219  1  0.76788965  0.36672664  0.94773583  1
  S2-  S220  1  0.75451052  0.63034814  0.45539670  1
  S2-  S221  1  0.76393878  0.62280886  0.95776489  1
  S2-  S222  1  0.75099040  0.88720533  0.45305727  1
  S2-  S223  1  0.76546951  0.86623995  0.95200702  1
  S2-  S224  1  0.13595406  -0.00319147  0.05014470  1
  S2-  S225  1  0.11806829  0.01089175  0.55325167  1
  S2-  S226  1  0.13278327  0.24132895  0.04599226  1
  S2-  S227  1  0.12453504  0.25547621  0.55305121  1
  S2-  S228  1  0.13801339  0.49007019  0.05108054  1
  S2-  S229  1  0.12571536  0.49753142  0.54548641  1
  S2-  S230  1  0.13400474  0.73933224  0.05083731  1
  S2-  S231  1  0.12073003  0.76224235  0.53798531  1
  S2-  S232  1  0.38839718  -0.00931887  0.04518130  1
  S2-  S233  1  0.37439471  0.00220962  0.55001454  1
  S2-  S234  1  0.38955117  0.24648022  0.02934838  1
  S2-  S235  1  0.37384947  0.25059377  0.54621025  1
  S2-  S236  1  0.38570093  0.48748359  0.04436196  1
  S2-  S237  1  0.37232213  0.50162379  0.54812895  1
  S2-  S238  1  0.38914265  0.74626651  0.04377883  1
  S2-  S239  1  0.36829943  0.76132843  0.54014215  1
  S2-  S240  1  0.63871687  -0.00875669  0.04197665  1
  S2-  S241  1  0.62388554  0.00376236  0.54472032  1
  S2-  S242  1  0.63933263  0.24515897  0.02996019  1
  S2-  S243  1  0.62586041  0.25409868  0.53988487  1
  S2-  S244  1  0.63684272  0.49058916  0.02885196  1
  S2-  S245  1  0.63019374  0.51038738  0.54228378  1
  S2-  S246  1  0.63633902  0.74691727  0.04365207  1
  S2-  S247  1  0.62924119  0.75698431  0.53803715  1
  S2-  S248  1  0.88416585  -0.00332189  0.05180681  1
  S2-  S249  1  0.87701418  0.01015573  0.55277658  1
  S2-  S250  1  0.88591341  0.24131329  0.04932455  1
  S2-  S251  1  0.87269103  0.25654015  0.54688223  1
  S2-  S252  1  0.88791004  0.49083164  0.03795841  1
  S2-  S253  1  0.87357723  0.50391753  0.54861498  1
  S2-  S254  1  0.88807049  0.74464384  0.04209987  1
  S2-  S255  1  0.87616671  0.75761870  0.54271831  1
