# generated using pymatgen
data_La6Ce7Pr13Nd19Sm19(BiS2)64
_symmetry_space_group_name_H-M   'P 1'
_cell_length_a   16.12907136
_cell_length_b   16.13268827
_cell_length_c   27.35336286
_cell_angle_alpha   89.91862623
_cell_angle_beta   90.03172367
_cell_angle_gamma   90.10231482
_symmetry_Int_Tables_number   1
_chemical_formula_structural   La6Ce7Pr13Nd19Sm19(BiS2)64
_chemical_formula_sum   'La6 Ce7 Pr13 Nd19 Sm19 Bi64 S128'
_cell_volume   7117.46984510
_cell_formula_units_Z   1
loop_
 _symmetry_equiv_pos_site_id
 _symmetry_equiv_pos_as_xyz
  1  'x, y, z'
loop_
 _atom_type_symbol
 _atom_type_oxidation_number
  La3+  3.0
  Ce3+  3.0
  Pr3+  3.0
  Nd3+  3.0
  Sm3+  3.0
  Bi2+  2.0
  S2-  -2.0
loop_
 _atom_site_type_symbol
 _atom_site_label
 _atom_site_symmetry_multiplicity
 _atom_site_fract_x
 _atom_site_fract_y
 _atom_site_fract_z
 _atom_site_occupancy
  La3+  La0  1  0.11103884  0.25707790  0.42363537  1
  La3+  La1  1  -0.01773666  0.14511177  0.57598253  1
  La3+  La2  1  0.64388142  0.74824724  0.89252731  1
  La3+  La3  1  0.25008008  0.88670312  0.59269513  1
  La3+  La4  1  0.60863612  0.76802611  0.41634251  1
  La3+  La5  1  0.23204096  0.62540248  0.58447775  1
  Ce3+  Ce6  1  0.38318783  0.49369161  0.94083067  1
  Ce3+  Ce7  1  0.86481141  0.76179516  0.44588746  1
  Ce3+  Ce8  1  0.62780517  -0.01220881  0.93997432  1
  Ce3+  Ce9  1  0.50597647  0.36512935  0.05622600  1
  Ce3+  Ce10  1  0.73658192  0.88121059  0.56348657  1
  Ce3+  Ce11  1  0.23652667  0.13406322  0.57021903  1
  Ce3+  Ce12  1  0.50680092  0.86078214  0.05041371  1
  Pr3+  Pr13  1  0.49218509  0.38396022  0.55841992  1
  Pr3+  Pr14  1  -0.00684864  0.63475649  0.55887038  1
  Pr3+  Pr15  1  0.12855953  -0.01278063  0.93115678  1
  Pr3+  Pr16  1  0.00641192  0.86660539  0.06202783  1
  Pr3+  Pr17  1  0.61438283  0.26075570  0.43920175  1
  Pr3+  Pr18  1  0.87932816  0.23998590  0.93627184  1
  Pr3+  Pr19  1  0.73851739  0.63603287  0.55633783  1
  Pr3+  Pr20  1  0.86254669  0.25660377  0.42488798  1
  Pr3+  Pr21  1  0.49466828  0.87961455  0.57183096  1
  Pr3+  Pr22  1  0.00656932  0.61435439  0.06346775  1
  Pr3+  Pr23  1  0.86450898  0.51627749  0.43432175  1
  Pr3+  Pr24  1  0.25639248  0.11257799  0.05751016  1
  Pr3+  Pr25  1  0.36248623  0.25836967  0.44445222  1
  Nd3+  Nd26  1  0.11796639  0.51041143  0.43182449  1
  Nd3+  Nd27  1  0.49213511  0.13406975  0.55470602  1
  Nd3+  Nd28  1  0.11961787  0.76733162  0.44314916  1
  Nd3+  Nd29  1  0.00811879  0.11570329  0.06067089  1
  Nd3+  Nd30  1  0.25823949  0.86448503  0.05312363  1
  Nd3+  Nd31  1  0.75561616  0.35639294  0.06869568  1
  Nd3+  Nd32  1  0.61581098  0.00685657  0.43964233  1
  Nd3+  Nd33  1  0.75402196  0.60664024  0.07488836  1
  Nd3+  Nd34  1  0.35986637  0.76070404  0.44581627  1
  Nd3+  Nd35  1  0.61146369  0.51382070  0.43493055  1
  Nd3+  Nd36  1  0.75147439  0.11798370  0.06126437  1
  Nd3+  Nd37  1  0.75102916  0.86341676  0.06443545  1
  Nd3+  Nd38  1  0.87822184  0.49181389  0.94650537  1
  Nd3+  Nd39  1  0.25624164  0.61632569  0.05572591  1
  Nd3+  Nd40  1  0.87699581  -0.01205020  0.94787311  1
  Nd3+  Nd41  1  0.12933249  0.49162744  0.93793684  1
  Nd3+  Nd42  1  0.36190140  0.00644012  0.44863855  1
  Nd3+  Nd43  1  0.38309337  0.73237904  0.92296179  1
  Nd3+  Nd44  1  0.11602857  0.01406433  0.44084177  1
  Sm3+  Sm45  1  -0.01111011  0.38278179  0.54734135  1
  Sm3+  Sm46  1  0.74080517  0.38700242  0.54683244  1
  Sm3+  Sm47  1  0.63295583  0.49484305  0.93995758  1
  Sm3+  Sm48  1  0.50901397  0.61650554  0.05654199  1
  Sm3+  Sm49  1  0.87497578  0.73816607  0.95066849  1
  Sm3+  Sm50  1  0.37998616  0.24107509  0.94280335  1
  Sm3+  Sm51  1  0.23811951  0.38018239  0.55949325  1
  Sm3+  Sm52  1  0.48973655  0.63658883  0.56067811  1
  Sm3+  Sm53  1  0.00764868  0.36414083  0.05329070  1
  Sm3+  Sm54  1  -0.00519491  0.88816051  0.56239795  1
  Sm3+  Sm55  1  0.38047211  -0.01304835  0.93659160  1
  Sm3+  Sm56  1  0.86730720  0.00901431  0.44939587  1
  Sm3+  Sm57  1  0.62765667  0.24052003  0.93799796  1
  Sm3+  Sm58  1  0.36216015  0.51257274  0.44939932  1
  Sm3+  Sm59  1  0.50389349  0.11463171  0.05114253  1
  Sm3+  Sm60  1  0.12824503  0.73911640  0.93953917  1
  Sm3+  Sm61  1  0.74206144  0.13593855  0.55544196  1
  Sm3+  Sm62  1  0.13109197  0.23865002  0.94213613  1
  Sm3+  Sm63  1  0.25604655  0.36489926  0.05381670  1
  Bi2+  Bi64  1  0.01752849  0.07268541  0.30802629  1
  Bi2+  Bi65  1  -0.01918847  0.12325591  0.80998734  1
  Bi2+  Bi66  1  0.02682871  0.36927041  0.27823466  1
  Bi2+  Bi67  1  -0.04062697  0.38498599  0.79032012  1
  Bi2+  Bi68  1  0.05762657  0.64321236  0.30171986  1
  Bi2+  Bi69  1  -0.01526160  0.61490509  0.79195090  1
  Bi2+  Bi70  1  0.02633920  0.83333521  0.26534797  1
  Bi2+  Bi71  1  -0.01719726  0.87183181  0.80964673  1
  Bi2+  Bi72  1  0.28514861  0.11713101  0.29113032  1
  Bi2+  Bi73  1  0.24963435  0.17584727  0.78432508  1
  Bi2+  Bi74  1  0.27008099  0.36346337  0.29015239  1
  Bi2+  Bi75  1  0.23320541  0.37676946  0.78945225  1
  Bi2+  Bi76  1  0.24379185  0.60059150  0.32966212  1
  Bi2+  Bi77  1  0.26364857  0.56680326  0.79034903  1
  Bi2+  Bi78  1  0.22695467  0.88347636  0.29790825  1
  Bi2+  Bi79  1  0.24443625  0.88789321  0.80205701  1
  Bi2+  Bi80  1  0.47140831  0.13181344  0.25198913  1
  Bi2+  Bi81  1  0.55632707  0.15103096  0.80753415  1
  Bi2+  Bi82  1  0.49532589  0.34817767  0.25436588  1
  Bi2+  Bi83  1  0.49563199  0.34488581  0.79872623  1
  Bi2+  Bi84  1  0.51451159  0.61248193  0.30293679  1
  Bi2+  Bi85  1  0.52062861  0.53687516  0.78529648  1
  Bi2+  Bi86  1  0.47335114  0.88468646  0.29170536  1
  Bi2+  Bi87  1  0.51079234  0.92969372  0.80535050  1
  Bi2+  Bi88  1  0.74181603  0.11898238  0.29275229  1
  Bi2+  Bi89  1  0.72097895  0.12124909  0.75092494  1
  Bi2+  Bi90  1  0.69359006  0.35356758  0.28381971  1
  Bi2+  Bi91  1  0.74399728  0.41838971  0.74892652  1
  Bi2+  Bi92  1  0.78976440  0.60504559  0.30219984  1
  Bi2+  Bi93  1  0.78783700  0.62705820  0.79245552  1
  Bi2+  Bi94  1  0.74187059  0.85498019  0.29471066  1
  Bi2+  Bi95  1  0.76889135  0.89950104  0.72079502  1
  Bi2+  Bi96  1  0.12358519  0.01048020  0.18807006  1
  Bi2+  Bi97  1  0.11929705  -0.01461479  0.71308472  1
  Bi2+  Bi98  1  0.11019848  0.25730988  0.19484916  1
  Bi2+  Bi99  1  0.09436678  0.26641812  0.71430707  1
  Bi2+  Bi100  1  0.16295412  0.52658468  0.23193595  1
  Bi2+  Bi101  1  0.10269917  0.47636340  0.70567604  1
  Bi2+  Bi102  1  0.18607192  0.76014971  0.20626694  1
  Bi2+  Bi103  1  0.15549206  0.69544145  0.72914497  1
  Bi2+  Bi104  1  0.38520666  -0.02557542  0.20659380  1
  Bi2+  Bi105  1  0.38312552  0.10904423  0.71125497  1
  Bi2+  Bi106  1  0.33940697  0.26323965  0.19912971  1
  Bi2+  Bi107  1  0.28355036  0.26677836  0.67704458  1
  Bi2+  Bi108  1  0.36759498  0.52365851  0.24314680  1
  Bi2+  Bi109  1  0.37580165  0.43374252  0.71553966  1
  Bi2+  Bi110  1  0.36304382  0.73129838  0.25457554  1
  Bi2+  Bi111  1  0.40978106  0.75338119  0.72202533  1
  Bi2+  Bi112  1  0.67942359  -0.00139150  0.21084668  1
  Bi2+  Bi113  1  0.57858948  0.00245682  0.70936432  1
  Bi2+  Bi114  1  0.62379205  0.24846098  0.18814549  1
  Bi2+  Bi115  1  0.60378581  0.27036038  0.71130896  1
  Bi2+  Bi116  1  0.63075587  0.52289277  0.19626345  1
  Bi2+  Bi117  1  0.62643239  0.53517155  0.68809402  1
  Bi2+  Bi118  1  0.59859589  0.76319248  0.19042039  1
  Bi2+  Bi119  1  0.64981976  0.74618475  0.71800590  1
  Bi2+  Bi120  1  0.86891871  -0.00863716  0.24427997  1
  Bi2+  Bi121  1  0.89553740  0.04583895  0.71315335  1
  Bi2+  Bi122  1  0.86313974  0.26574438  0.26316258  1
  Bi2+  Bi123  1  0.86223743  0.28453385  0.70252316  1
  Bi2+  Bi124  1  0.89893725  0.46061626  0.21030003  1
  Bi2+  Bi125  1  0.90828298  0.51037649  0.70364633  1
  Bi2+  Bi126  1  0.91075858  0.68702002  0.22756834  1
  Bi2+  Bi127  1  0.92103772  0.77484509  0.72049823  1
  S2-  S128  1  0.01083686  0.12271446  0.15998483  1
  S2-  S129  1  0.05360018  0.11573551  0.66900147  1
  S2-  S130  1  -0.00748676  0.34880456  0.15004204  1
  S2-  S131  1  -0.01124947  0.30563419  0.63443499  1
  S2-  S132  1  -0.01207157  0.58521161  0.16145188  1
  S2-  S133  1  0.08109441  0.63395985  0.64470356  1
  S2-  S134  1  0.01943189  0.88836324  0.16057726  1
  S2-  S135  1  -0.00692785  0.89535631  0.66083250  1
  S2-  S136  1  0.23443888  0.13448738  0.15585111  1
  S2-  S137  1  0.24894169  0.03728979  0.65217976  1
  S2-  S138  1  0.22729182  0.36588729  0.14992406  1
  S2-  S139  1  0.22826209  0.46966992  0.64227456  1
  S2-  S140  1  0.23307588  0.62393861  0.15311309  1
  S2-  S141  1  0.30453678  0.66240638  0.67707081  1
  S2-  S142  1  0.25239246  0.90702598  0.14894019  1
  S2-  S143  1  0.19702435  0.84034491  0.69110601  1
  S2-  S144  1  0.51103064  0.12635635  0.14748426  1
  S2-  S145  1  0.51972989  0.14570795  0.65201069  1
  S2-  S146  1  0.52868839  0.39402262  0.15149740  1
  S2-  S147  1  0.51786818  0.39824855  0.65628879  1
  S2-  S148  1  0.50955173  0.63267307  0.15524718  1
  S2-  S149  1  0.51848581  0.66771529  0.65621515  1
  S2-  S150  1  0.49295797  0.87279779  0.14748886  1
  S2-  S151  1  0.39875505  0.86969670  0.65655024  1
  S2-  S152  1  0.76453750  0.22388537  0.13885112  1
  S2-  S153  1  0.82919037  0.14770465  0.63861761  1
  S2-  S154  1  0.76131818  0.46682421  0.14626892  1
  S2-  S155  1  0.75420948  0.38370748  0.64334703  1
  S2-  S156  1  0.72191350  0.65582684  0.17118512  1
  S2-  S157  1  0.75030362  0.64316214  0.65632929  1
  S2-  S158  1  0.74223223  0.86562700  0.16363369  1
  S2-  S159  1  0.63038243  0.87413734  0.64123947  1
  S2-  S160  1  0.08672270  -0.07789294  0.35383922  1
  S2-  S161  1  0.10829152  -0.00569273  0.83081383  1
  S2-  S162  1  0.14794907  0.12522297  0.35825001  1
  S2-  S163  1  0.10805407  0.21579981  0.84725086  1
  S2-  S164  1  0.13513769  0.39339339  0.35622281  1
  S2-  S165  1  0.11843294  0.55626132  0.84668498  1
  S2-  S166  1  0.23893248  0.76419916  0.37088701  1
  S2-  S167  1  0.12273856  0.78453208  0.84537301  1
  S2-  S168  1  0.35317792  -0.01350918  0.34940222  1
  S2-  S169  1  0.35381374  0.00000511  0.84071832  1
  S2-  S170  1  0.35145625  0.24699188  0.34524097  1
  S2-  S171  1  0.36457494  0.25124381  0.84633085  1
  S2-  S172  1  0.39432110  0.50607433  0.35287040  1
  S2-  S173  1  0.39762784  0.58069675  0.85720240  1
  S2-  S174  1  0.45699755  0.75850578  0.35978584  1
  S2-  S175  1  0.34892834  0.77844662  0.82642174  1
  S2-  S176  1  0.61369751  -0.07819378  0.35340753  1
  S2-  S177  1  0.65547704  -0.07972447  0.85287644  1
  S2-  S178  1  0.63131550  0.22406889  0.34262658  1
  S2-  S179  1  0.64654047  0.28878677  0.84591380  1
  S2-  S180  1  0.63539437  0.50280407  0.33696320  1
  S2-  S181  1  0.64508920  0.57649864  0.85369003  1
  S2-  S182  1  0.65347647  0.71772917  0.31864938  1
  S2-  S183  1  0.55630124  0.76267696  0.80189589  1
  S2-  S184  1  0.86394303  0.01583770  0.35157020  1
  S2-  S185  1  0.88591017  -0.01366140  0.84929651  1
  S2-  S186  1  0.97066549  0.23378151  0.34797902  1
  S2-  S187  1  0.87963007  0.24153225  0.83632846  1
  S2-  S188  1  0.88391374  0.48888336  0.33570365  1
  S2-  S189  1  0.86902500  0.49161808  0.84859185  1
  S2-  S190  1  0.85591274  0.76033579  0.34876403  1
  S2-  S191  1  0.81188493  0.74558551  0.85899805  1
  S2-  S192  1  -0.01497211  0.13366015  0.46066472  1
  S2-  S193  1  0.00537728  0.11375241  0.95387266  1
  S2-  S194  1  -0.01476190  0.38670115  0.44575890  1
  S2-  S195  1  0.00681028  0.36511202  0.94814231  1
  S2-  S196  1  -0.00515853  0.63767511  0.45112651  1
  S2-  S197  1  0.00368882  0.61750180  0.95607200  1
  S2-  S198  1  -0.01127478  0.88542013  0.45885682  1
  S2-  S199  1  0.00207958  0.86162210  0.95515796  1
  S2-  S200  1  0.24272396  0.13428061  0.46336085  1
  S2-  S201  1  0.25612951  0.11455838  0.94984815  1
  S2-  S202  1  0.24338815  0.38585918  0.45648771  1
  S2-  S203  1  0.25458095  0.36564424  0.94905950  1
  S2-  S204  1  0.23696709  0.62979232  0.46750955  1
  S2-  S205  1  0.25249762  0.61745444  0.95076146  1
  S2-  S206  1  0.23761960  0.89075179  0.46983421  1
  S2-  S207  1  0.25616079  0.86192522  0.94783470  1
  S2-  S208  1  0.49077791  0.13230224  0.44841633  1
  S2-  S209  1  0.50217461  0.11553656  0.94651019  1
  S2-  S210  1  0.48876639  0.38629322  0.45146786  1
  S2-  S211  1  0.50593613  0.36692219  0.94937483  1
  S2-  S212  1  0.48842190  0.63355938  0.45655656  1
  S2-  S213  1  0.51361786  0.62062700  0.95353413  1
  S2-  S214  1  0.48831863  0.88685387  0.46290084  1
  S2-  S215  1  0.50329865  0.85975474  0.94377242  1
  S2-  S216  1  0.74055022  0.13182263  0.45158779  1
  S2-  S217  1  0.75167142  0.11574973  0.95271177  1
  S2-  S218  1  0.74004493  0.38720214  0.44220966  1
  S2-  S219  1  0.75332085  0.36538524  0.95623226  1
  S2-  S220  1  0.73599868  0.63847639  0.44874950  1
  S2-  S221  1  0.75678329  0.61344089  0.96457670  1
  S2-  S222  1  0.74165418  0.88533186  0.45697600  1
  S2-  S223  1  0.75318415  0.86270219  0.96007197  1
  S2-  S224  1  0.13062585  -0.01046133  0.03955642  1
  S2-  S225  1  0.10949691  0.01434628  0.55033986  1
  S2-  S226  1  0.13187557  0.24120910  0.04552840  1
  S2-  S227  1  0.11651669  0.26163874  0.53909971  1
  S2-  S228  1  0.13148233  0.48870748  0.04500093  1
  S2-  S229  1  0.11048035  0.50231390  0.53819343  1
  S2-  S230  1  0.13093852  0.74127840  0.04618972  1
  S2-  S231  1  0.11648106  0.76590304  0.55050262  1
  S2-  S232  1  0.38264791  -0.01017618  0.04148186  1
  S2-  S233  1  0.37116491  0.01098741  0.55279316  1
  S2-  S234  1  0.38001658  0.24065282  0.04718872  1
  S2-  S235  1  0.36705241  0.25912935  0.55025412  1
  S2-  S236  1  0.37994567  0.49157858  0.04802944  1
  S2-  S237  1  0.36917774  0.50924563  0.55303053  1
  S2-  S238  1  0.38093627  0.73741473  0.03949323  1
  S2-  S239  1  0.36292560  0.75279190  0.55231705  1
  S2-  S240  1  0.62934053  -0.00768986  0.04755979  1
  S2-  S241  1  0.61904028  0.01295174  0.54518727  1
  S2-  S242  1  0.62641338  0.23946142  0.04160170  1
  S2-  S243  1  0.62017957  0.25919603  0.54586429  1
  S2-  S244  1  0.62921199  0.48935692  0.04415764  1
  S2-  S245  1  0.61497347  0.51073494  0.54209496  1
  S2-  S246  1  0.63214996  0.73685799  0.05364187  1
  S2-  S247  1  0.61374842  0.75549854  0.53832763  1
  S2-  S248  1  0.87771105  -0.00727304  0.05459638  1
  S2-  S249  1  0.86257028  0.00474800  0.55266921  1
  S2-  S250  1  0.88572851  0.24012472  0.04205432  1
  S2-  S251  1  0.85858181  0.26392662  0.53170102  1
  S2-  S252  1  0.88445188  0.48551677  0.04960076  1
  S2-  S253  1  0.86635386  0.50997246  0.54211207  1
  S2-  S254  1  0.87876772  0.73909927  0.05672255  1
  S2-  S255  1  0.86867797  0.76197978  0.55328216  1
