# generated using pymatgen
data_La6Ce7Pr13Nd19Sm19(BiS2)64
_symmetry_space_group_name_H-M   'P 1'
_cell_length_a   16.07495645
_cell_length_b   16.06336335
_cell_length_c   27.36848261
_cell_angle_alpha   90.40835712
_cell_angle_beta   89.99737711
_cell_angle_gamma   89.97044658
_symmetry_Int_Tables_number   1
_chemical_formula_structural   La6Ce7Pr13Nd19Sm19(BiS2)64
_chemical_formula_sum   'La6 Ce7 Pr13 Nd19 Sm19 Bi64 S128'
_cell_volume   7066.85074435
_cell_formula_units_Z   1
loop_
 _symmetry_equiv_pos_site_id
 _symmetry_equiv_pos_as_xyz
  1  'x, y, z'
loop_
 _atom_type_symbol
 _atom_type_oxidation_number
  La3+  3.0
  Ce3+  3.0
  Pr3+  3.0
  Nd3+  3.0
  Sm3+  3.0
  Bi2+  2.0
  S2-  -2.0
loop_
 _atom_site_type_symbol
 _atom_site_label
 _atom_site_symmetry_multiplicity
 _atom_site_fract_x
 _atom_site_fract_y
 _atom_site_fract_z
 _atom_site_occupancy
  La3+  La0  1  0.22179997  0.13594066  0.08829282  1
  La3+  La1  1  0.59985294  0.24778276  0.91570193  1
  La3+  La2  1  0.10715272  0.01168308  0.93094399  1
  La3+  La3  1  0.48667384  0.14085417  0.08484683  1
  La3+  La4  1  0.85316234  0.51292112  0.93246377  1
  La3+  La5  1  0.24455164  0.86015647  0.61825373  1
  Ce3+  Ce6  1  -0.01804592  0.63602553  0.06570468  1
  Ce3+  Ce7  1  0.35575215  0.25711366  0.94403058  1
  Ce3+  Ce8  1  -0.02061879  0.13845497  0.05747608  1
  Ce3+  Ce9  1  0.50278350  0.88241112  0.57688723  1
  Ce3+  Ce10  1  0.50608214  0.62500413  0.56693933  1
  Ce3+  Ce11  1  0.35609838  0.01319173  0.95131816  1
  Ce3+  Ce12  1  0.10703482  0.76062708  0.92792069  1
  Pr3+  Pr13  1  0.75285691  0.86690094  0.57034532  1
  Pr3+  Pr14  1  0.73020306  0.13949055  0.05997906  1
  Pr3+  Pr15  1  0.22933385  0.88460060  0.05548081  1
  Pr3+  Pr16  1  0.13236347  -0.01258405  0.43268092  1
  Pr3+  Pr17  1  0.38344790  -0.01884225  0.43045040  1
  Pr3+  Pr18  1  0.13574755  0.74008709  0.44274648  1
  Pr3+  Pr19  1  0.62805253  0.74282554  0.43550000  1
  Pr3+  Pr20  1  0.73045248  0.63231510  0.07243872  1
  Pr3+  Pr21  1  0.22883167  0.38210473  0.06650004  1
  Pr3+  Pr22  1  0.88092298  -0.00902658  0.44638587  1
  Pr3+  Pr23  1  0.47717929  0.88541631  0.05936604  1
  Pr3+  Pr24  1  0.88052424  0.74499396  0.43132616  1
  Pr3+  Pr25  1  0.35447857  0.74778596  0.91813491  1
  Nd3+  Nd26  1  0.14116263  0.49044731  0.43271072  1
  Nd3+  Nd27  1  0.48120596  0.38380829  0.05968861  1
  Nd3+  Nd28  1  0.75840486  0.61841807  0.55264279  1
  Nd3+  Nd29  1  0.47853217  0.63795011  0.07003063  1
  Nd3+  Nd30  1  0.72700242  0.38431417  0.04496952  1
  Nd3+  Nd31  1  -0.01726223  0.88583226  0.06006522  1
  Nd3+  Nd32  1  0.63006865  0.23197811  0.41682288  1
  Nd3+  Nd33  1  0.72684606  0.88592018  0.06148990  1
  Nd3+  Nd34  1  0.85412236  0.25292199  0.92227377  1
  Nd3+  Nd35  1  0.50999451  0.36122516  0.55399529  1
  Nd3+  Nd36  1  0.60149140  0.00210740  0.93504471  1
  Nd3+  Nd37  1  -0.02186106  0.38389544  0.05365435  1
  Nd3+  Nd38  1  0.23040232  0.63907810  0.06637161  1
  Nd3+  Nd39  1  0.00853793  0.36839852  0.55917483  1
  Nd3+  Nd40  1  0.25401933  0.61234435  0.57464984  1
  Nd3+  Nd41  1  0.13387449  0.24101744  0.44342945  1
  Nd3+  Nd42  1  0.63054319  -0.01265363  0.43637723  1
  Nd3+  Nd43  1  0.85424020  0.75831420  0.94809213  1
  Nd3+  Nd44  1  0.62906339  0.49122424  0.44234909  1
  Sm3+  Sm45  1  0.85317814  0.00994782  0.94714020  1
  Sm3+  Sm46  1  0.00803371  0.11717572  0.55649964  1
  Sm3+  Sm47  1  0.38029942  0.23827634  0.43600598  1
  Sm3+  Sm48  1  0.50969760  0.12363148  0.55753262  1
  Sm3+  Sm49  1  0.60293294  0.75570615  0.93696821  1
  Sm3+  Sm50  1  0.88350592  0.48985544  0.43789988  1
  Sm3+  Sm51  1  0.10229168  0.25513658  0.92806673  1
  Sm3+  Sm52  1  0.10658880  0.50874719  0.94447015  1
  Sm3+  Sm53  1  0.75666705  0.36764348  0.54965034  1
  Sm3+  Sm54  1  0.25808407  0.10960014  0.55410411  1
  Sm3+  Sm55  1  0.88244005  0.24373606  0.44144962  1
  Sm3+  Sm56  1  0.35100172  0.50598787  0.94346821  1
  Sm3+  Sm57  1  0.25726323  0.36856494  0.56526250  1
  Sm3+  Sm58  1  0.00816371  0.61766080  0.55108818  1
  Sm3+  Sm59  1  0.37993662  0.74463358  0.45382628  1
  Sm3+  Sm60  1  0.38285423  0.49032151  0.44972713  1
  Sm3+  Sm61  1  0.59863085  0.51587311  0.93722457  1
  Sm3+  Sm62  1  0.75615675  0.12014483  0.55544501  1
  Sm3+  Sm63  1  0.00904671  0.86719493  0.55715946  1
  Bi2+  Bi64  1  -0.00914598  0.13815281  0.23818325  1
  Bi2+  Bi65  1  0.01684557  0.03064988  0.79872232  1
  Bi2+  Bi66  1  -0.03130961  0.33300856  0.30269062  1
  Bi2+  Bi67  1  0.10800021  0.37588868  0.80269618  1
  Bi2+  Bi68  1  0.06437772  0.57621634  0.25795504  1
  Bi2+  Bi69  1  -0.03506568  0.61411005  0.74354590  1
  Bi2+  Bi70  1  -0.01299231  0.83182863  0.29284955  1
  Bi2+  Bi71  1  -0.04871600  0.81021965  0.77387794  1
  Bi2+  Bi72  1  0.24609073  0.13748342  0.29336643  1
  Bi2+  Bi73  1  0.25278546  0.18639439  0.78980226  1
  Bi2+  Bi74  1  0.21821164  0.38516634  0.29991979  1
  Bi2+  Bi75  1  0.30054043  0.37565813  0.82572860  1
  Bi2+  Bi76  1  0.24769791  0.61372454  0.29787351  1
  Bi2+  Bi77  1  0.23985555  0.58082677  0.79967420  1
  Bi2+  Bi78  1  0.25073994  0.89229297  0.31291130  1
  Bi2+  Bi79  1  0.25295697  0.89261580  0.81833177  1
  Bi2+  Bi80  1  0.49409894  0.14028230  0.29335319  1
  Bi2+  Bi81  1  0.47012701  0.18563720  0.75662837  1
  Bi2+  Bi82  1  0.47328926  0.46513786  0.28680156  1
  Bi2+  Bi83  1  0.52081858  0.36770434  0.80150721  1
  Bi2+  Bi84  1  0.57171573  0.64354736  0.31626452  1
  Bi2+  Bi85  1  0.50280287  0.56250623  0.78956339  1
  Bi2+  Bi86  1  0.57452054  0.83339289  0.26803878  1
  Bi2+  Bi87  1  0.49379493  0.94571384  0.80169966  1
  Bi2+  Bi88  1  0.73487596  0.16461876  0.28639278  1
  Bi2+  Bi89  1  0.73631932  0.11872804  0.79373754  1
  Bi2+  Bi90  1  0.74531378  0.43004672  0.27100570  1
  Bi2+  Bi91  1  0.84315927  0.35099340  0.77876289  1
  Bi2+  Bi92  1  0.76975223  0.63809064  0.29205350  1
  Bi2+  Bi93  1  0.75148594  0.61687830  0.79853049  1
  Bi2+  Bi94  1  0.78564592  0.84464720  0.30351420  1
  Bi2+  Bi95  1  0.74346632  0.87041745  0.79318692  1
  Bi2+  Bi96  1  0.11746974  -0.01695407  0.20277593  1
  Bi2+  Bi97  1  0.10750591  0.02772564  0.70022681  1
  Bi2+  Bi98  1  0.08954550  0.30983874  0.21245429  1
  Bi2+  Bi99  1  0.13919057  0.25474150  0.70669548  1
  Bi2+  Bi100  1  0.20726235  0.47675037  0.19403859  1
  Bi2+  Bi101  1  0.09807311  0.47128437  0.70118797  1
  Bi2+  Bi102  1  0.22550204  0.72482035  0.20628328  1
  Bi2+  Bi103  1  0.11377575  0.73955256  0.71569959  1
  Bi2+  Bi104  1  0.36983074  -0.04806027  0.20866658  1
  Bi2+  Bi105  1  0.39367867  0.01620801  0.71169766  1
  Bi2+  Bi106  1  0.35970500  0.32782185  0.21852373  1
  Bi2+  Bi107  1  0.33278061  0.26568178  0.68688595  1
  Bi2+  Bi108  1  0.40701370  0.50643244  0.18129886  1
  Bi2+  Bi109  1  0.36139064  0.44940828  0.72476643  1
  Bi2+  Bi110  1  0.40420140  0.72777113  0.27759154  1
  Bi2+  Bi111  1  0.39777743  0.72935771  0.72187884  1
  Bi2+  Bi112  1  0.60574267  -0.00803821  0.20068837  1
  Bi2+  Bi113  1  0.65620473  0.00308240  0.69919764  1
  Bi2+  Bi114  1  0.62967788  0.28203069  0.19996911  1
  Bi2+  Bi115  1  0.63705940  0.25248047  0.70171345  1
  Bi2+  Bi116  1  0.60789077  0.50934288  0.20191194  1
  Bi2+  Bi117  1  0.65998253  0.46394085  0.74460857  1
  Bi2+  Bi118  1  0.72319967  0.74952832  0.20406272  1
  Bi2+  Bi119  1  0.66499626  0.73801883  0.72039019  1
  Bi2+  Bi120  1  0.83082915  0.02091952  0.22582616  1
  Bi2+  Bi121  1  0.85105546  -0.04588156  0.71133856  1
  Bi2+  Bi122  1  0.83006224  0.20200065  0.18385354  1
  Bi2+  Bi123  1  0.96152759  0.20334110  0.75318748  1
  Bi2+  Bi124  1  0.89785434  0.50300891  0.21455413  1
  Bi2+  Bi125  1  0.84290971  0.48203578  0.68947131  1
  Bi2+  Bi126  1  0.97223127  0.73176768  0.19947602  1
  Bi2+  Bi127  1  0.84626352  0.76539552  0.67699154  1
  S2-  S128  1  0.06251644  0.11533053  0.14146942  1
  S2-  S129  1  -0.00530703  0.12327868  0.65384632  1
  S2-  S130  1  -0.02814986  0.38362255  0.15353222  1
  S2-  S131  1  -0.02648750  0.37947356  0.65558615  1
  S2-  S132  1  0.10235641  0.66054154  0.13717661  1
  S2-  S133  1  0.03679072  0.61697873  0.64731623  1
  S2-  S134  1  -0.01445164  0.88589616  0.15963238  1
  S2-  S135  1  0.07004561  0.87526759  0.64749304  1
  S2-  S136  1  0.24900544  0.07856501  0.19080442  1
  S2-  S137  1  0.25660140  0.03764052  0.64336535  1
  S2-  S138  1  0.23571508  0.28073576  0.14896486  1
  S2-  S139  1  0.24218926  0.47730890  0.64215500  1
  S2-  S140  1  0.35211765  0.66132036  0.14048682  1
  S2-  S141  1  0.25543973  0.69781637  0.66319533  1
  S2-  S142  1  0.22927011  0.87168848  0.15646601  1
  S2-  S143  1  0.22083952  0.87585928  0.72719836  1
  S2-  S144  1  0.45546229  0.08253287  0.18656393  1
  S2-  S145  1  0.50984866  0.03310448  0.64200497  1
  S2-  S146  1  0.48544598  0.29317966  0.14606171  1
  S2-  S147  1  0.52287815  0.25260802  0.62980156  1
  S2-  S148  1  0.60341947  0.65073427  0.14373801  1
  S2-  S149  1  0.48614811  0.63270362  0.66503230  1
  S2-  S150  1  0.49176949  0.86979550  0.15942433  1
  S2-  S151  1  0.40763027  0.85789024  0.66227392  1
  S2-  S152  1  0.63795620  0.13078131  0.14483136  1
  S2-  S153  1  0.73648294  0.13263860  0.65286722  1
  S2-  S154  1  0.71294332  0.39625105  0.14386832  1
  S2-  S155  1  0.73457497  0.36296344  0.64577448  1
  S2-  S156  1  0.86385590  0.61872853  0.14198061  1
  S2-  S157  1  0.74333144  0.62095336  0.65089738  1
  S2-  S158  1  0.74593130  0.90824779  0.15977935  1
  S2-  S159  1  0.63307526  0.85300351  0.64487967  1
  S2-  S160  1  0.14282049  0.01857569  0.33286373  1
  S2-  S161  1  0.08877206  -0.10673017  0.85434106  1
  S2-  S162  1  0.14741624  0.23911670  0.34403441  1
  S2-  S163  1  0.13703214  0.13212716  0.85520870  1
  S2-  S164  1  0.07754195  0.46958440  0.34167399  1
  S2-  S165  1  0.10083312  0.53877256  0.84748956  1
  S2-  S166  1  0.13432153  0.79283447  0.34628664  1
  S2-  S167  1  0.21393946  0.73029026  0.85018832  1
  S2-  S168  1  0.37652876  0.02737977  0.32994169  1
  S2-  S169  1  0.36396158  0.01821437  0.85275833  1
  S2-  S170  1  0.37698466  0.23674236  0.33789454  1
  S2-  S171  1  0.44701237  0.24028882  0.86009608  1
  S2-  S172  1  0.33257685  0.48732927  0.35651246  1
  S2-  S173  1  0.37804607  0.59397303  0.86071645  1
  S2-  S174  1  0.38769112  0.82402855  0.36614133  1
  S2-  S175  1  0.41155493  0.80535525  0.82082741  1
  S2-  S176  1  0.62684310  0.08213133  0.35147747  1
  S2-  S177  1  0.60596690  0.09404463  0.84947594  1
  S2-  S178  1  0.59959863  0.26522346  0.31832392  1
  S2-  S179  1  0.73797921  0.26103514  0.84548267  1
  S2-  S180  1  0.61987715  0.47323744  0.34478843  1
  S2-  S181  1  0.61075142  0.63265254  0.86389852  1
  S2-  S182  1  0.63471935  0.86393435  0.36294899  1
  S2-  S183  1  0.61401947  0.87033962  0.86147860  1
  S2-  S184  1  0.89432955  -0.04551306  0.34921692  1
  S2-  S185  1  0.86408402  0.04793727  0.85190576  1
  S2-  S186  1  0.88034890  0.21365974  0.34561175  1
  S2-  S187  1  0.97855547  0.27241986  0.85105868  1
  S2-  S188  1  0.86285213  0.44395019  0.34482748  1
  S2-  S189  1  0.86176689  0.49101470  0.83296758  1
  S2-  S190  1  0.91783295  0.68991471  0.33832673  1
  S2-  S191  1  0.84165625  0.74533227  0.84907782  1
  S2-  S192  1  0.00648953  0.11849396  0.45093708  1
  S2-  S193  1  -0.02214045  0.13504225  0.95361894  1
  S2-  S194  1  0.00814190  0.36680277  0.45270399  1
  S2-  S195  1  -0.01927654  0.38620008  0.94933890  1
  S2-  S196  1  0.00816039  0.61259132  0.44724035  1
  S2-  S197  1  -0.01785215  0.63434865  0.95337069  1
  S2-  S198  1  0.00744978  0.86431072  0.45325201  1
  S2-  S199  1  -0.02530332  0.88549027  0.95461618  1
  S2-  S200  1  0.25780183  0.11476741  0.44924887  1
  S2-  S201  1  0.23163255  0.13838634  0.96202023  1
  S2-  S202  1  0.25941612  0.36478128  0.45895971  1
  S2-  S203  1  0.22591782  0.38150142  0.95610224  1
  S2-  S204  1  0.26038554  0.61514894  0.46125962  1
  S2-  S205  1  0.22864911  0.62944663  0.95983070  1
  S2-  S206  1  0.25438775  0.86643813  0.45683204  1
  S2-  S207  1  0.23595462  0.88309139  0.95058909  1
  S2-  S208  1  0.50370414  0.11838174  0.45077947  1
  S2-  S209  1  0.48127317  0.13114738  0.96400443  1
  S2-  S210  1  0.50475040  0.36278998  0.44802997  1
  S2-  S211  1  0.48048826  0.38907992  0.95296406  1
  S2-  S212  1  0.50266546  0.61642886  0.45762817  1
  S2-  S213  1  0.47795412  0.63414839  0.96333149  1
  S2-  S214  1  0.50704398  0.86487287  0.46668547  1
  S2-  S215  1  0.47454102  0.87847831  0.95379243  1
  S2-  S216  1  0.75949518  0.11887476  0.45051900  1
  S2-  S217  1  0.72992908  0.13128197  0.95442487  1
  S2-  S218  1  0.75455987  0.36439105  0.44534841  1
  S2-  S219  1  0.72314880  0.38978432  0.94086862  1
  S2-  S220  1  0.75726657  0.61412554  0.44642493  1
  S2-  S221  1  0.72945385  0.63490940  0.96325633  1
  S2-  S222  1  0.75865029  0.86513746  0.46261356  1
  S2-  S223  1  0.73323300  0.88413533  0.95752764  1
  S2-  S224  1  0.10531783  0.00997434  0.04089626  1
  S2-  S225  1  0.12645332  -0.00530878  0.54022938  1
  S2-  S226  1  0.10320040  0.26044378  0.04054867  1
  S2-  S227  1  0.13442618  0.24162181  0.55010893  1
  S2-  S228  1  0.10489224  0.50669649  0.04827942  1
  S2-  S229  1  0.13008323  0.49146573  0.53956892  1
  S2-  S230  1  0.10396152  0.76397756  0.03579241  1
  S2-  S231  1  0.13184212  0.74119190  0.54881570  1
  S2-  S232  1  0.35339590  0.01510962  0.05893120  1
  S2-  S233  1  0.38637454  0.00219794  0.53806780  1
  S2-  S234  1  0.35578450  0.25722802  0.04799345  1
  S2-  S235  1  0.37475998  0.24250420  0.54063335  1
  S2-  S236  1  0.35325489  0.50630664  0.04624943  1
  S2-  S237  1  0.38711701  0.48897298  0.55268666  1
  S2-  S238  1  0.35418565  0.76099467  0.03858493  1
  S2-  S239  1  0.37531543  0.74313649  0.55548853  1
  S2-  S240  1  0.60400744  0.00872228  0.04395979  1
  S2-  S241  1  0.63648198  -0.00101051  0.54224646  1
  S2-  S242  1  0.60484486  0.26134462  0.03588983  1
  S2-  S243  1  0.63892095  0.24260609  0.52809860  1
  S2-  S244  1  0.60279795  0.50984315  0.04138968  1
  S2-  S245  1  0.63070530  0.49204715  0.54808455  1
  S2-  S246  1  0.60518634  0.76307042  0.04206306  1
  S2-  S247  1  0.63278099  0.73920897  0.54273274  1
  S2-  S248  1  0.85514591  0.01073153  0.05226108  1
  S2-  S249  1  0.88213734  -0.00702622  0.55305200  1
  S2-  S250  1  0.85368496  0.26160203  0.03509881  1
  S2-  S251  1  0.88227801  0.24337876  0.54678809  1
  S2-  S252  1  0.85477727  0.50710992  0.03988851  1
  S2-  S253  1  0.88306530  0.49195552  0.54244302  1
  S2-  S254  1  0.85417249  0.76367807  0.05226528  1
  S2-  S255  1  0.88513104  0.74223127  0.54041667  1
