# generated using pymatgen
data_La6Ce7Pr13Nd19Sm19(BiS2)64
_symmetry_space_group_name_H-M   'P 1'
_cell_length_a   16.10289082
_cell_length_b   16.09005261
_cell_length_c   27.26541149
_cell_angle_alpha   89.97089023
_cell_angle_beta   90.00103040
_cell_angle_gamma   89.96455548
_symmetry_Int_Tables_number   1
_chemical_formula_structural   La6Ce7Pr13Nd19Sm19(BiS2)64
_chemical_formula_sum   'La6 Ce7 Pr13 Nd19 Sm19 Bi64 S128'
_cell_volume   7064.36661840
_cell_formula_units_Z   1
loop_
 _symmetry_equiv_pos_site_id
 _symmetry_equiv_pos_as_xyz
  1  'x, y, z'
loop_
 _atom_type_symbol
 _atom_type_oxidation_number
  La3+  3.0
  Ce3+  3.0
  Pr3+  3.0
  Nd3+  3.0
  Sm3+  3.0
  Bi2+  2.0
  S2-  -2.0
loop_
 _atom_site_type_symbol
 _atom_site_label
 _atom_site_symmetry_multiplicity
 _atom_site_fract_x
 _atom_site_fract_y
 _atom_site_fract_z
 _atom_site_occupancy
  La3+  La0  1  0.86048988  0.25303552  0.91296915  1
  La3+  La1  1  0.51012543  0.62825178  0.60985757  1
  La3+  La2  1  0.49466740  0.11983617  0.10915370  1
  La3+  La3  1  0.88563371  0.26431198  0.41005234  1
  La3+  La4  1  0.76058512  0.13599354  0.09755210  1
  La3+  La5  1  0.00319507  0.13336223  0.60935383  1
  Ce3+  Ce6  1  -0.00142877  0.37878911  0.04154298  1
  Ce3+  Ce7  1  0.24965531  0.14209402  0.06990623  1
  Ce3+  Ce8  1  0.88006320  0.75356964  0.43864662  1
  Ce3+  Ce9  1  -0.00102250  0.13736394  0.05025577  1
  Ce3+  Ce10  1  0.75112236  0.88653229  0.06008976  1
  Ce3+  Ce11  1  0.37897274  0.01368203  0.93942547  1
  Ce3+  Ce12  1  0.87326124  0.75787204  0.93539666  1
  Pr3+  Pr13  1  0.13974497  0.25354062  0.91585185  1
  Pr3+  Pr14  1  0.13020324  0.75795273  0.93046221  1
  Pr3+  Pr15  1  0.12819704  0.51084217  0.44123273  1
  Pr3+  Pr16  1  0.50278448  0.87978037  0.56794665  1
  Pr3+  Pr17  1  0.50617657  0.38198215  0.07218432  1
  Pr3+  Pr18  1  0.38012254  0.75684532  0.43598436  1
  Pr3+  Pr19  1  0.25491368  0.38563079  0.56487185  1
  Pr3+  Pr20  1  0.25142725  0.13339175  0.56147844  1
  Pr3+  Pr21  1  -0.00101245  0.38686838  0.56738676  1
  Pr3+  Pr22  1  0.50649103  0.13156459  0.56949812  1
  Pr3+  Pr23  1  0.62549376  0.50814761  0.93680096  1
  Pr3+  Pr24  1  0.62597607  0.75858222  0.44063385  1
  Pr3+  Pr25  1  0.87853226  0.01332845  0.43588663  1
  Nd3+  Nd26  1  0.38016421  0.01149990  0.43752566  1
  Nd3+  Nd27  1  0.24914618  0.38496993  0.06127552  1
  Nd3+  Nd28  1  0.87474930  0.51448892  0.92781783  1
  Nd3+  Nd29  1  0.75395682  0.63384041  0.56344593  1
  Nd3+  Nd30  1  0.25309926  0.88361438  0.05373500  1
  Nd3+  Nd31  1  0.50719537  0.38235885  0.56110835  1
  Nd3+  Nd32  1  0.50484213  0.63018030  0.07082047  1
  Nd3+  Nd33  1  0.75355446  0.13529955  0.55929131  1
  Nd3+  Nd34  1  0.12654189  0.26182256  0.44315127  1
  Nd3+  Nd35  1  0.62160283  0.26294687  0.42435897  1
  Nd3+  Nd36  1  0.25617598  0.63739492  0.56364717  1
  Nd3+  Nd37  1  0.87823911  0.51111653  0.43346384  1
  Nd3+  Nd38  1  0.75496127  0.38059907  0.55695215  1
  Nd3+  Nd39  1  0.37924585  0.25962959  0.44288358  1
  Nd3+  Nd40  1  0.75383256  0.63163761  0.06450137  1
  Nd3+  Nd41  1  0.76163682  0.38693817  0.06682102  1
  Nd3+  Nd42  1  0.12813911  0.51138749  0.92826710  1
  Nd3+  Nd43  1  0.24940679  0.62719805  0.06570580  1
  Nd3+  Nd44  1  0.87464550  0.00764358  0.93871885  1
  Sm3+  Sm45  1  0.62975794  0.25671456  0.95663781  1
  Sm3+  Sm46  1  0.12894270  0.75997038  0.44501505  1
  Sm3+  Sm47  1  0.00213385  0.63352727  0.05117657  1
  Sm3+  Sm48  1  0.62613599  0.01330168  0.94909757  1
  Sm3+  Sm49  1  0.62874071  0.01204196  0.44041057  1
  Sm3+  Sm50  1  0.25482467  0.88402726  0.55134517  1
  Sm3+  Sm51  1  0.62540629  0.75782637  0.94397887  1
  Sm3+  Sm52  1  0.37855466  0.75586686  0.94336436  1
  Sm3+  Sm53  1  0.50145507  0.88406628  0.05419282  1
  Sm3+  Sm54  1  0.00197531  0.88692402  0.55590805  1
  Sm3+  Sm55  1  0.12819518  0.01057319  0.94392587  1
  Sm3+  Sm56  1  0.62833221  0.50932906  0.44473771  1
  Sm3+  Sm57  1  0.00278249  0.88177161  0.05027563  1
  Sm3+  Sm58  1  0.37836972  0.50760628  0.94545738  1
  Sm3+  Sm59  1  0.00390025  0.63310406  0.56930704  1
  Sm3+  Sm60  1  0.75393453  0.88302265  0.55255733  1
  Sm3+  Sm61  1  0.12563785  0.01221480  0.44295178  1
  Sm3+  Sm62  1  0.37896910  0.25904341  0.94586519  1
  Sm3+  Sm63  1  0.37993653  0.51147911  0.44854054  1
  Bi2+  Bi64  1  0.00473008  0.11740375  0.29904594  1
  Bi2+  Bi65  1  -0.00025039  0.11401440  0.81290294  1
  Bi2+  Bi66  1  0.02048263  0.39708106  0.29033418  1
  Bi2+  Bi67  1  -0.00041333  0.39096952  0.78719143  1
  Bi2+  Bi68  1  -0.00352802  0.65253596  0.28267099  1
  Bi2+  Bi69  1  -0.00616375  0.63767439  0.77705045  1
  Bi2+  Bi70  1  -0.06192686  0.84496651  0.28267386  1
  Bi2+  Bi71  1  -0.00370838  0.89836679  0.80364798  1
  Bi2+  Bi72  1  0.24670035  0.15330899  0.29314209  1
  Bi2+  Bi73  1  0.25729908  0.05678129  0.77426207  1
  Bi2+  Bi74  1  0.24234064  0.35178889  0.29989261  1
  Bi2+  Bi75  1  0.28237121  0.38766879  0.79453488  1
  Bi2+  Bi76  1  0.26629903  0.69899098  0.29029711  1
  Bi2+  Bi77  1  0.26142620  0.64410342  0.78386968  1
  Bi2+  Bi78  1  0.15263151  0.87353882  0.28888075  1
  Bi2+  Bi79  1  0.17303778  0.81462672  0.80426847  1
  Bi2+  Bi80  1  0.48889606  0.11250340  0.30712207  1
  Bi2+  Bi81  1  0.49912171  0.09142125  0.81150815  1
  Bi2+  Bi82  1  0.43374201  0.39780543  0.29296476  1
  Bi2+  Bi83  1  0.45220788  0.28202202  0.80205647  1
  Bi2+  Bi84  1  0.48697765  0.64493891  0.29732723  1
  Bi2+  Bi85  1  0.49745344  0.60831028  0.80665033  1
  Bi2+  Bi86  1  0.48549870  0.79599863  0.22011689  1
  Bi2+  Bi87  1  0.47622365  0.89282526  0.77757505  1
  Bi2+  Bi88  1  0.74162787  0.09185245  0.30038093  1
  Bi2+  Bi89  1  0.71019293  0.12014501  0.79301918  1
  Bi2+  Bi90  1  0.73171590  0.40937567  0.29078385  1
  Bi2+  Bi91  1  0.72768108  0.38037838  0.79384707  1
  Bi2+  Bi92  1  0.75798082  0.62587697  0.29026982  1
  Bi2+  Bi93  1  0.73908833  0.66713174  0.78686370  1
  Bi2+  Bi94  1  0.73520934  0.83246979  0.28677828  1
  Bi2+  Bi95  1  0.80466526  0.85804112  0.80103639  1
  Bi2+  Bi96  1  0.11575783  0.06978972  0.20831093  1
  Bi2+  Bi97  1  0.13343825  -0.06636626  0.71631361  1
  Bi2+  Bi98  1  0.11525898  0.27051426  0.21839515  1
  Bi2+  Bi99  1  0.14180275  0.24513871  0.71308688  1
  Bi2+  Bi100  1  0.13587717  0.58056529  0.21296774  1
  Bi2+  Bi101  1  0.12211978  0.54750302  0.70369679  1
  Bi2+  Bi102  1  0.12068749  0.77440445  0.19013026  1
  Bi2+  Bi103  1  0.08919873  0.73460090  0.68476153  1
  Bi2+  Bi104  1  0.28865438  -0.00995528  0.23065759  1
  Bi2+  Bi105  1  0.42464532  -0.00837229  0.67406010  1
  Bi2+  Bi106  1  0.34881484  0.25343449  0.21184942  1
  Bi2+  Bi107  1  0.38451369  0.16790317  0.71228049  1
  Bi2+  Bi108  1  0.37054376  0.52790778  0.21357490  1
  Bi2+  Bi109  1  0.31675738  0.50343215  0.70406982  1
  Bi2+  Bi110  1  0.32055836  0.71194177  0.17897752  1
  Bi2+  Bi111  1  0.36217470  0.78739296  0.71234497  1
  Bi2+  Bi112  1  0.62703009  -0.06761663  0.20872304  1
  Bi2+  Bi113  1  0.61308487  0.01064882  0.70263426  1
  Bi2+  Bi114  1  0.61830959  0.25588625  0.22335331  1
  Bi2+  Bi115  1  0.59291387  0.23906103  0.72261412  1
  Bi2+  Bi116  1  0.63147916  0.53859732  0.21762504  1
  Bi2+  Bi117  1  0.63484126  0.47190083  0.69930172  1
  Bi2+  Bi118  1  0.63881049  0.71695620  0.16680454  1
  Bi2+  Bi119  1  0.63889759  0.81981408  0.72787045  1
  Bi2+  Bi120  1  0.91419633  -0.01162801  0.20296149  1
  Bi2+  Bi121  1  0.86167730  -0.02230792  0.70962431  1
  Bi2+  Bi122  1  0.87381756  0.26021628  0.20577170  1
  Bi2+  Bi123  1  0.86455868  0.25222356  0.70527508  1
  Bi2+  Bi124  1  0.89880987  0.50159781  0.19948518  1
  Bi2+  Bi125  1  0.84856972  0.57930519  0.70269548  1
  Bi2+  Bi126  1  0.82830604  0.73882337  0.20122539  1
  Bi2+  Bi127  1  0.89778627  0.76749521  0.70509054  1
  S2-  S128  1  -0.07397421  0.13717174  0.14030267  1
  S2-  S129  1  0.00117015  0.13792705  0.71833346  1
  S2-  S130  1  -0.04809986  0.37474961  0.13778321  1
  S2-  S131  1  0.00944116  0.30035888  0.65568893  1
  S2-  S132  1  -0.00733167  0.60887177  0.14904933  1
  S2-  S133  1  -0.02043203  0.51856400  0.64212250  1
  S2-  S134  1  -0.00599656  0.87926572  0.14829450  1
  S2-  S135  1  -0.00258656  0.95794636  0.64548115  1
  S2-  S136  1  0.33857111  0.10418429  0.15379688  1
  S2-  S137  1  0.17200679  0.12692313  0.64996035  1
  S2-  S138  1  0.22303775  0.27627151  0.13791914  1
  S2-  S139  1  0.25884361  0.35536617  0.66439113  1
  S2-  S140  1  0.23871219  0.50523348  0.14037329  1
  S2-  S141  1  0.34114541  0.65461687  0.64865235  1
  S2-  S142  1  0.24731923  0.87781845  0.15258875  1
  S2-  S143  1  0.26696448  0.89177997  0.64923144  1
  S2-  S144  1  0.54826318  0.10385281  0.21052422  1
  S2-  S145  1  0.63166968  0.14872367  0.63936933  1
  S2-  S146  1  0.49259084  0.28493581  0.15682025  1
  S2-  S147  1  0.52214271  0.36649435  0.65912555  1
  S2-  S148  1  0.50472131  0.51424030  0.14696757  1
  S2-  S149  1  0.49920345  0.56170614  0.70945152  1
  S2-  S150  1  0.49005878  0.93295695  0.14748799  1
  S2-  S151  1  0.51441951  0.78643045  0.65429139  1
  S2-  S152  1  0.74716685  0.14011768  0.20788346  1
  S2-  S153  1  0.83778286  0.11896472  0.64839979  1
  S2-  S154  1  0.74023595  0.30311374  0.15363517  1
  S2-  S155  1  0.77070825  0.37372773  0.65776282  1
  S2-  S156  1  0.76268586  0.51722495  0.14080573  1
  S2-  S157  1  0.67774718  0.62188425  0.65201028  1
  S2-  S158  1  0.76416399  0.96584914  0.14633538  1
  S2-  S159  1  0.73830261  0.89732946  0.65025961  1
  S2-  S160  1  0.12901553  0.01396749  0.34494302  1
  S2-  S161  1  0.15624603  0.07042156  0.85396674  1
  S2-  S162  1  0.04527848  0.26053723  0.35438023  1
  S2-  S163  1  0.09173955  0.25731312  0.81629494  1
  S2-  S164  1  0.13857742  0.47753824  0.34251108  1
  S2-  S165  1  0.14222329  0.43898122  0.83734519  1
  S2-  S166  1  0.12123531  0.71678095  0.35081485  1
  S2-  S167  1  0.13317620  0.64358600  0.85421913  1
  S2-  S168  1  0.36779369  0.02101341  0.33850425  1
  S2-  S169  1  0.36509846  -0.02111750  0.84212535  1
  S2-  S170  1  0.47371098  0.26223500  0.35979367  1
  S2-  S171  1  0.29607620  0.25444033  0.85892296  1
  S2-  S172  1  0.38099240  0.53169029  0.35045236  1
  S2-  S173  1  0.39725250  0.49366465  0.84814367  1
  S2-  S174  1  0.39759714  0.77914416  0.33677831  1
  S2-  S175  1  0.38434798  0.71731455  0.84771094  1
  S2-  S176  1  0.60146126  0.00197845  0.34374853  1
  S2-  S177  1  0.63177077  0.00130081  0.84966534  1
  S2-  S178  1  0.67311933  0.24986658  0.32725139  1
  S2-  S179  1  0.69356760  0.25724201  0.86253655  1
  S2-  S180  1  0.62264943  0.47655189  0.34823568  1
  S2-  S181  1  0.62294524  0.48849641  0.83566632  1
  S2-  S182  1  0.63003458  0.72636532  0.34092890  1
  S2-  S183  1  0.61345936  0.71997704  0.84902802  1
  S2-  S184  1  0.86962593  -0.01259545  0.33634480  1
  S2-  S185  1  0.84007673  0.08722052  0.85330730  1
  S2-  S186  1  0.86610900  0.20311352  0.31071621  1
  S2-  S187  1  0.89792569  0.26319599  0.80909414  1
  S2-  S188  1  0.88040570  0.41241978  0.34987787  1
  S2-  S189  1  0.85727649  0.44892573  0.83596191  1
  S2-  S190  1  0.88799241  0.63993852  0.36288929  1
  S2-  S191  1  0.87026011  0.65637547  0.85638311  1
  S2-  S192  1  0.00332235  0.13466644  0.44858783  1
  S2-  S193  1  0.00143888  0.13439892  0.94501157  1
  S2-  S194  1  0.00355396  0.38723686  0.45857264  1
  S2-  S195  1  -0.00124628  0.38052430  0.93692045  1
  S2-  S196  1  0.00847788  0.63607706  0.46432309  1
  S2-  S197  1  0.00195152  0.63612307  0.95008067  1
  S2-  S198  1  0.00468924  0.88290363  0.44909407  1
  S2-  S199  1  0.00386045  0.88358767  0.94570208  1
  S2-  S200  1  0.25216965  0.13505763  0.45297115  1
  S2-  S201  1  0.25467291  0.13190819  0.96189255  1
  S2-  S202  1  0.25633827  0.38523356  0.45673669  1
  S2-  S203  1  0.25403058  0.38681947  0.95459975  1
  S2-  S204  1  0.25363043  0.63537434  0.45637831  1
  S2-  S205  1  0.25713597  0.63222909  0.95802156  1
  S2-  S206  1  0.25211260  0.88580207  0.44599897  1
  S2-  S207  1  0.25377627  0.88385335  0.94776093  1
  S2-  S208  1  0.50467070  0.13249974  0.46008444  1
  S2-  S209  1  0.50406239  0.13787573  0.94817769  1
  S2-  S210  1  0.50133560  0.38885760  0.45587246  1
  S2-  S211  1  0.50280328  0.38104700  0.95797469  1
  S2-  S212  1  0.50409353  0.63089455  0.45031325  1
  S2-  S213  1  0.50137985  0.63341521  0.96138696  1
  S2-  S214  1  0.50383778  0.88789501  0.45376264  1
  S2-  S215  1  0.50207951  0.88222229  0.94889800  1
  S2-  S216  1  0.75198727  0.13892029  0.44639177  1
  S2-  S217  1  0.74840081  0.12976204  0.96246607  1
  S2-  S218  1  0.75137821  0.38220781  0.45029357  1
  S2-  S219  1  0.75159955  0.38646158  0.95743652  1
  S2-  S220  1  0.74950238  0.63335833  0.45703940  1
  S2-  S221  1  0.74713216  0.63487740  0.95764273  1
  S2-  S222  1  0.75289602  0.88356863  0.44715496  1
  S2-  S223  1  0.74756091  0.88362524  0.95242709  1
  S2-  S224  1  0.12567771  0.00799362  0.04889874  1
  S2-  S225  1  0.12865114  0.00542829  0.54566698  1
  S2-  S226  1  0.12336030  0.25928413  0.03048652  1
  S2-  S227  1  0.12904771  0.26150733  0.54767818  1
  S2-  S228  1  0.12186638  0.50854385  0.03660028  1
  S2-  S229  1  0.13168251  0.51269399  0.54911129  1
  S2-  S230  1  0.12796190  0.75651648  0.04082101  1
  S2-  S231  1  0.12760071  0.76128935  0.54982245  1
  S2-  S232  1  0.37801457  0.00716144  0.04498863  1
  S2-  S233  1  0.37826753  0.00879239  0.54351702  1
  S2-  S234  1  0.38054274  0.25740807  0.04811224  1
  S2-  S235  1  0.38070628  0.25723901  0.55023017  1
  S2-  S236  1  0.37936396  0.50772925  0.04779344  1
  S2-  S237  1  0.38446575  0.51181102  0.55369379  1
  S2-  S238  1  0.37903700  0.75576838  0.04847355  1
  S2-  S239  1  0.37775561  0.76208071  0.54243284  1
  S2-  S240  1  0.62227745  0.01150549  0.05313807  1
  S2-  S241  1  0.62820192  0.00358919  0.54445971  1
  S2-  S242  1  0.62548863  0.24758623  0.05761610  1
  S2-  S243  1  0.62754044  0.26046145  0.53631813  1
  S2-  S244  1  0.62833776  0.50685081  0.04402867  1
  S2-  S245  1  0.62680375  0.50933932  0.54954410  1
  S2-  S246  1  0.62605602  0.75897654  0.04761578  1
  S2-  S247  1  0.62959131  0.75792709  0.54728787  1
  S2-  S248  1  0.88071168  0.00542537  0.04246895  1
  S2-  S249  1  0.87562472  0.00500613  0.54126281  1
  S2-  S250  1  0.87265899  0.25626278  0.03632332  1
  S2-  S251  1  0.87878698  0.25750869  0.54772571  1
  S2-  S252  1  0.88100745  0.51259275  0.03537616  1
  S2-  S253  1  0.87416412  0.51129241  0.54055914  1
  S2-  S254  1  0.87701385  0.75815962  0.04377131  1
  S2-  S255  1  0.88041001  0.75864654  0.54840495  1
