# generated using pymatgen
data_La6Ce7Pr13Nd19Sm19(BiS2)64
_symmetry_space_group_name_H-M   'P 1'
_cell_length_a   16.12330477
_cell_length_b   16.11142115
_cell_length_c   27.22508583
_cell_angle_alpha   89.93055873
_cell_angle_beta   89.99019605
_cell_angle_gamma   90.07405835
_symmetry_Int_Tables_number   1
_chemical_formula_structural   La6Ce7Pr13Nd19Sm19(BiS2)64
_chemical_formula_sum   'La6 Ce7 Pr13 Nd19 Sm19 Bi64 S128'
_cell_volume   7072.23173359
_cell_formula_units_Z   1
loop_
 _symmetry_equiv_pos_site_id
 _symmetry_equiv_pos_as_xyz
  1  'x, y, z'
loop_
 _atom_type_symbol
 _atom_type_oxidation_number
  La3+  3.0
  Ce3+  3.0
  Pr3+  3.0
  Nd3+  3.0
  Sm3+  3.0
  Bi2+  2.0
  S2-  -2.0
loop_
 _atom_site_type_symbol
 _atom_site_label
 _atom_site_symmetry_multiplicity
 _atom_site_fract_x
 _atom_site_fract_y
 _atom_site_fract_z
 _atom_site_occupancy
  La3+  La0  1  -0.00673989  0.62326798  0.58035759  1
  La3+  La1  1  0.50103941  0.36752299  0.60662474  1
  La3+  La2  1  0.24443995  0.61572172  0.58262658  1
  La3+  La3  1  0.11581592  0.74851939  0.39728461  1
  La3+  La4  1  0.61764895  0.48795658  0.42098971  1
  La3+  La5  1  0.24534180  0.61355299  0.08414889  1
  Ce3+  Ce6  1  0.00502291  0.37587170  0.05088613  1
  Ce3+  Ce7  1  0.73856845  0.37208894  0.55725305  1
  Ce3+  Ce8  1  0.75395650  0.87263565  0.05963072  1
  Ce3+  Ce9  1  0.87956292  0.49817621  0.93914446  1
  Ce3+  Ce10  1  0.38223027  -0.00040056  0.94183379  1
  Ce3+  Ce11  1  0.74571643  0.87189036  0.55340729  1
  Ce3+  Ce12  1  0.26205553  0.87260584  0.06749819  1
  Pr3+  Pr13  1  0.12982703  0.75561148  0.93921603  1
  Pr3+  Pr14  1  0.37860049  0.74550803  0.94494516  1
  Pr3+  Pr15  1  0.62712527  0.74776486  0.94455564  1
  Pr3+  Pr16  1  0.50366826  0.61192262  0.07483404  1
  Pr3+  Pr17  1  0.75570336  0.37090443  0.06491083  1
  Pr3+  Pr18  1  0.49470913  0.86825592  0.57163130  1
  Pr3+  Pr19  1  0.62951024  0.49656713  0.93443083  1
  Pr3+  Pr20  1  0.37040033  0.49738171  0.44341679  1
  Pr3+  Pr21  1  0.36766013  -0.00513604  0.44187482  1
  Pr3+  Pr22  1  0.38049440  0.24703421  0.93491459  1
  Pr3+  Pr23  1  0.00561299  0.12260491  0.05953984  1
  Pr3+  Pr24  1  0.24118975  0.11965434  0.56218806  1
  Pr3+  Pr25  1  0.01530144  0.87984504  0.08675282  1
  Nd3+  Nd26  1  0.87379076  -0.00553939  0.43759497  1
  Nd3+  Nd27  1  0.12135465  0.50101894  0.44212197  1
  Nd3+  Nd28  1  0.61545607  0.24175836  0.43270740  1
  Nd3+  Nd29  1  0.49757862  0.62032250  0.56615389  1
  Nd3+  Nd30  1  0.61687685  -0.00356679  0.43549137  1
  Nd3+  Nd31  1  0.74142373  0.62003540  0.55351183  1
  Nd3+  Nd32  1  0.23823199  0.86736673  0.55303277  1
  Nd3+  Nd33  1  0.49342438  0.11880068  0.56902257  1
  Nd3+  Nd34  1  -0.00640358  0.11979111  0.56769147  1
  Nd3+  Nd35  1  0.74235530  0.12143427  0.55477394  1
  Nd3+  Nd36  1  0.50324223  0.12545715  0.07128693  1
  Nd3+  Nd37  1  0.11690544  0.00301689  0.43012433  1
  Nd3+  Nd38  1  0.37828453  0.49827682  0.93314464  1
  Nd3+  Nd39  1  0.87294534  0.49844077  0.44257126  1
  Nd3+  Nd40  1  0.87070471  0.24754812  0.44334090  1
  Nd3+  Nd41  1  0.87984997  0.74997864  0.94378415  1
  Nd3+  Nd42  1  0.12865840  -0.00176733  0.93558022  1
  Nd3+  Nd43  1  0.24347137  0.37104631  0.56426070  1
  Nd3+  Nd44  1  0.87439497  0.74581734  0.43655145  1
  Sm3+  Sm45  1  0.12869107  0.24918805  0.94152576  1
  Sm3+  Sm46  1  0.12901697  0.50572706  0.92819536  1
  Sm3+  Sm47  1  0.61780999  0.74611140  0.44027448  1
  Sm3+  Sm48  1  0.75487496  0.11950654  0.05616132  1
  Sm3+  Sm49  1  0.75175538  0.62217246  0.05591969  1
  Sm3+  Sm50  1  -0.00489324  0.37229877  0.56568334  1
  Sm3+  Sm51  1  0.62931418  0.24718879  0.94151287  1
  Sm3+  Sm52  1  0.00375915  0.62705184  0.05862867  1
  Sm3+  Sm53  1  0.87884572  -0.00160223  0.94282902  1
  Sm3+  Sm54  1  0.25321500  0.37570271  0.05219923  1
  Sm3+  Sm55  1  -0.00142657  0.87055870  0.56630994  1
  Sm3+  Sm56  1  0.37236550  0.24840637  0.45346550  1
  Sm3+  Sm57  1  0.50263499  0.36910561  0.06155007  1
  Sm3+  Sm58  1  0.87926366  0.24806273  0.93889461  1
  Sm3+  Sm59  1  0.50128432  0.87024917  0.06486771  1
  Sm3+  Sm60  1  0.25407253  0.12231472  0.05395665  1
  Sm3+  Sm61  1  0.62794291  -0.00077677  0.94744908  1
  Sm3+  Sm62  1  0.36833312  0.74305220  0.44642103  1
  Sm3+  Sm63  1  0.11964907  0.24583899  0.43879035  1
  Bi2+  Bi64  1  -0.00991392  0.16682501  0.29529622  1
  Bi2+  Bi65  1  -0.00565878  0.10796590  0.78516625  1
  Bi2+  Bi66  1  0.03518601  0.36341094  0.29944361  1
  Bi2+  Bi67  1  0.00644535  0.32344990  0.77888842  1
  Bi2+  Bi68  1  -0.06906964  0.61230755  0.27571125  1
  Bi2+  Bi69  1  0.00501264  0.58202103  0.80604548  1
  Bi2+  Bi70  1  -0.02553386  0.89056908  0.28764575  1
  Bi2+  Bi71  1  0.01073985  0.90584051  0.78370581  1
  Bi2+  Bi72  1  0.24509549  0.18554905  0.29217039  1
  Bi2+  Bi73  1  0.18646606  0.10175431  0.80987535  1
  Bi2+  Bi74  1  0.22830106  0.38930082  0.30181680  1
  Bi2+  Bi75  1  0.25431859  0.26756538  0.76568463  1
  Bi2+  Bi76  1  0.26572082  0.61277488  0.30915377  1
  Bi2+  Bi77  1  0.25314118  0.62671840  0.80157664  1
  Bi2+  Bi78  1  0.24594363  0.92115447  0.27578415  1
  Bi2+  Bi79  1  0.20971800  0.91539519  0.77072440  1
  Bi2+  Bi80  1  0.45872237  0.10952755  0.29760550  1
  Bi2+  Bi81  1  0.51610808  0.12350520  0.82170994  1
  Bi2+  Bi82  1  0.49607722  0.30969303  0.27981722  1
  Bi2+  Bi83  1  0.50467484  0.36841720  0.79602615  1
  Bi2+  Bi84  1  0.48967101  0.63754184  0.30008044  1
  Bi2+  Bi85  1  0.50861969  0.64140862  0.81303646  1
  Bi2+  Bi86  1  0.57456870  0.90817520  0.30775879  1
  Bi2+  Bi87  1  0.49769957  0.91415807  0.78807851  1
  Bi2+  Bi88  1  0.71410316  0.07656526  0.28589333  1
  Bi2+  Bi89  1  0.79731195  0.15473969  0.78947303  1
  Bi2+  Bi90  1  0.76188105  0.34581681  0.28670117  1
  Bi2+  Bi91  1  0.76520689  0.36060255  0.73486496  1
  Bi2+  Bi92  1  0.74964837  0.64225374  0.30687109  1
  Bi2+  Bi93  1  0.77394957  0.65963130  0.79738182  1
  Bi2+  Bi94  1  0.77381477  0.88695411  0.29431285  1
  Bi2+  Bi95  1  0.75260082  0.92710548  0.78346321  1
  Bi2+  Bi96  1  0.13455959  0.02010156  0.20813534  1
  Bi2+  Bi97  1  0.14189516  0.04582262  0.69305363  1
  Bi2+  Bi98  1  0.12220268  0.26444437  0.21013298  1
  Bi2+  Bi99  1  0.10331438  0.27977991  0.67717953  1
  Bi2+  Bi100  1  0.12632365  0.47188604  0.21218303  1
  Bi2+  Bi101  1  0.11626934  0.47308142  0.70815069  1
  Bi2+  Bi102  1  0.11910308  0.73559311  0.20220718  1
  Bi2+  Bi103  1  0.12241186  0.76445521  0.70545228  1
  Bi2+  Bi104  1  0.40877550  0.04178572  0.19222932  1
  Bi2+  Bi105  1  0.41867985  -0.03613675  0.68115595  1
  Bi2+  Bi106  1  0.33218394  0.30356134  0.21658970  1
  Bi2+  Bi107  1  0.40145019  0.14703306  0.72786204  1
  Bi2+  Bi108  1  0.37411006  0.54052216  0.20111368  1
  Bi2+  Bi109  1  0.37477682  0.51625889  0.71562543  1
  Bi2+  Bi110  1  0.41877174  0.85388710  0.23932772  1
  Bi2+  Bi111  1  0.40537406  0.77682011  0.72386155  1
  Bi2+  Bi112  1  0.59997743  0.00431084  0.19159308  1
  Bi2+  Bi113  1  0.61204558  -0.04082698  0.69361094  1
  Bi2+  Bi114  1  0.60716179  0.20213377  0.21117521  1
  Bi2+  Bi115  1  0.62974050  0.15536170  0.72611816  1
  Bi2+  Bi116  1  0.63600403  0.52663025  0.20028296  1
  Bi2+  Bi117  1  0.64632070  0.51361051  0.71307655  1
  Bi2+  Bi118  1  0.60503058  0.80481198  0.20643442  1
  Bi2+  Bi119  1  0.64962078  0.75630780  0.70429818  1
  Bi2+  Bi120  1  0.84750018  0.04004386  0.20393938  1
  Bi2+  Bi121  1  0.86441543  0.02202694  0.70484721  1
  Bi2+  Bi122  1  0.88481055  0.25237326  0.21020084  1
  Bi2+  Bi123  1  0.91044408  0.24444362  0.68912411  1
  Bi2+  Bi124  1  0.87730401  0.44839086  0.21378500  1
  Bi2+  Bi125  1  0.88129874  0.51661791  0.72747732  1
  Bi2+  Bi126  1  0.81633206  0.74270267  0.21630952  1
  Bi2+  Bi127  1  0.87431749  0.78738597  0.72994821  1
  S2-  S128  1  0.00307846  0.03442140  0.14708117  1
  S2-  S129  1  -0.00519881  -0.00211852  0.63923161  1
  S2-  S130  1  0.00565879  0.38535513  0.14802458  1
  S2-  S131  1  -0.02581272  0.47463473  0.64566402  1
  S2-  S132  1  0.08790571  0.60239536  0.14260525  1
  S2-  S133  1  0.11640056  0.61999717  0.65747795  1
  S2-  S134  1  -0.02569892  0.79185567  0.17334775  1
  S2-  S135  1  -0.02379650  0.76728011  0.64860338  1
  S2-  S136  1  0.25896124  0.10207192  0.15144787  1
  S2-  S137  1  0.27272483  0.14419409  0.66009410  1
  S2-  S138  1  0.25968239  0.45735152  0.13979877  1
  S2-  S139  1  0.25331986  0.46320357  0.64876530  1
  S2-  S140  1  0.28745314  0.67020984  0.17923586  1
  S2-  S141  1  0.31186545  0.67358606  0.67719902  1
  S2-  S142  1  0.16325434  0.87787903  0.14843773  1
  S2-  S143  1  0.18899811  0.88126273  0.64975094  1
  S2-  S144  1  0.50407779  0.25292766  0.13875878  1
  S2-  S145  1  0.51622276  0.20533590  0.65362958  1
  S2-  S146  1  0.50172515  0.47275122  0.14108320  1
  S2-  S147  1  0.42619553  0.36594955  0.70496409  1
  S2-  S148  1  0.52829858  0.66773517  0.17425491  1
  S2-  S149  1  0.50868870  0.52836049  0.65248609  1
  S2-  S150  1  0.38982561  0.88145929  0.13994136  1
  S2-  S151  1  0.51815718  0.74252086  0.64415476  1
  S2-  S152  1  0.77124913  0.17755407  0.14817768  1
  S2-  S153  1  0.75723121  0.12993882  0.65345724  1
  S2-  S154  1  0.71962241  0.40349275  0.16280547  1
  S2-  S155  1  0.66781147  0.37671446  0.64759339  1
  S2-  S156  1  0.74747940  0.61716155  0.15349675  1
  S2-  S157  1  0.73059059  0.62231717  0.65440361  1
  S2-  S158  1  0.77586051  0.92742326  0.15034649  1
  S2-  S159  1  0.76465640  0.85570010  0.65008930  1
  S2-  S160  1  0.11254057  -0.08988173  0.34669628  1
  S2-  S161  1  0.12964373  -0.11585241  0.86105482  1
  S2-  S162  1  0.12370068  0.13975040  0.36104750  1
  S2-  S163  1  0.13583437  0.26796228  0.84411250  1
  S2-  S164  1  0.12307621  0.58348077  0.35491423  1
  S2-  S165  1  0.14775346  0.49128961  0.82908600  1
  S2-  S166  1  0.18361504  0.75123580  0.29664203  1
  S2-  S167  1  0.11983761  0.68101579  0.84647572  1
  S2-  S168  1  0.34413944  -0.00671282  0.34186833  1
  S2-  S169  1  0.38456602  0.00920519  0.84455639  1
  S2-  S170  1  0.38588268  0.24077385  0.35492296  1
  S2-  S171  1  0.37446882  0.30684979  0.84055633  1
  S2-  S172  1  0.40566680  0.51078954  0.34332807  1
  S2-  S173  1  0.37838510  0.52130130  0.83320993  1
  S2-  S174  1  0.37702121  0.73436319  0.34811829  1
  S2-  S175  1  0.36489842  0.73989775  0.84368097  1
  S2-  S176  1  0.60018284  0.11355946  0.36153581  1
  S2-  S177  1  0.62904241  -0.00749702  0.84966715  1
  S2-  S178  1  0.62728717  0.34180097  0.34977322  1
  S2-  S179  1  0.61577203  0.26916690  0.84460526  1
  S2-  S180  1  0.62114750  0.53673609  0.32014653  1
  S2-  S181  1  0.59942068  0.50706094  0.83480725  1
  S2-  S182  1  0.61331702  0.74090358  0.34191150  1
  S2-  S183  1  0.62882852  0.73648693  0.84376294  1
  S2-  S184  1  0.93211194  0.01643323  0.34387875  1
  S2-  S185  1  0.88019179  -0.02763170  0.84627731  1
  S2-  S186  1  0.84886150  0.24070335  0.34444253  1
  S2-  S187  1  0.87011560  0.27903790  0.84286359  1
  S2-  S188  1  0.85215334  0.50307010  0.34345801  1
  S2-  S189  1  0.84703156  0.51547858  0.84383423  1
  S2-  S190  1  0.95781273  0.74632888  0.34773334  1
  S2-  S191  1  0.89511369  0.73865446  0.84461988  1
  S2-  S192  1  -0.00714769  0.12460985  0.46003470  1
  S2-  S193  1  0.00363940  0.12437751  0.94986226  1
  S2-  S194  1  -0.00292865  0.37115853  0.45594015  1
  S2-  S195  1  0.00551776  0.37368917  0.94426191  1
  S2-  S196  1  -0.00529705  0.62164928  0.45818315  1
  S2-  S197  1  0.00380953  0.62363857  0.95449843  1
  S2-  S198  1  -0.00370388  0.87109707  0.45644620  1
  S2-  S199  1  -0.00087201  0.87644747  0.95934148  1
  S2-  S200  1  0.24741772  0.12528780  0.45650607  1
  S2-  S201  1  0.25258807  0.12468280  0.94884644  1
  S2-  S202  1  0.24346001  0.36880429  0.45605150  1
  S2-  S203  1  0.25029314  0.37524034  0.94764020  1
  S2-  S204  1  0.24638193  0.62287654  0.45892656  1
  S2-  S205  1  0.25268248  0.62032798  0.95251972  1
  S2-  S206  1  0.24314820  0.86603990  0.44736624  1
  S2-  S207  1  0.25970485  0.87615606  0.95913508  1
  S2-  S208  1  0.48905602  0.11935313  0.46281373  1
  S2-  S209  1  0.50672705  0.12523487  0.96150788  1
  S2-  S210  1  0.49308910  0.36833308  0.44920021  1
  S2-  S211  1  0.50502935  0.37151268  0.95443104  1
  S2-  S212  1  0.49766735  0.62289242  0.45546665  1
  S2-  S213  1  0.50443041  0.61938478  0.95743017  1
  S2-  S214  1  0.49420325  0.86940680  0.45647758  1
  S2-  S215  1  0.50464406  0.87433201  0.95867811  1
  S2-  S216  1  0.74848714  0.11838892  0.44992101  1
  S2-  S217  1  0.75399767  0.12317362  0.94994150  1
  S2-  S218  1  0.74713422  0.37089079  0.45243051  1
  S2-  S219  1  0.75447117  0.37008130  0.95365757  1
  S2-  S220  1  0.74323822  0.62210439  0.44736625  1
  S2-  S221  1  0.75426657  0.62384237  0.95152049  1
  S2-  S222  1  0.74363475  0.87136306  0.44539459  1
  S2-  S223  1  0.75294189  0.87521634  0.95265723  1
  S2-  S224  1  0.13238955  0.00065383  0.04125380  1
  S2-  S225  1  0.11921091  -0.00269786  0.53797626  1
  S2-  S226  1  0.13149683  0.24889225  0.04701959  1
  S2-  S227  1  0.11642389  0.24706340  0.54387263  1
  S2-  S228  1  0.12730511  0.49732474  0.03532782  1
  S2-  S229  1  0.11750306  0.49223389  0.54697503  1
  S2-  S230  1  0.12765770  0.74873481  0.04695362  1
  S2-  S231  1  0.11868142  0.74493323  0.55013040  1
  S2-  S232  1  0.38219957  0.00418444  0.04537319  1
  S2-  S233  1  0.36684073  -0.00588438  0.54888127  1
  S2-  S234  1  0.37303610  0.24882207  0.04258580  1
  S2-  S235  1  0.37069856  0.24910402  0.55766511  1
  S2-  S236  1  0.37849265  0.49423435  0.03930020  1
  S2-  S237  1  0.37441585  0.49097053  0.54991318  1
  S2-  S238  1  0.38057368  0.73716336  0.05141996  1
  S2-  S239  1  0.36746878  0.74628634  0.55106420  1
  S2-  S240  1  0.62564480  -0.00127625  0.05153971  1
  S2-  S241  1  0.61757925  -0.00423163  0.54454333  1
  S2-  S242  1  0.63396673  0.24547779  0.04493703  1
  S2-  S243  1  0.61698862  0.24426596  0.54188340  1
  S2-  S244  1  0.63224740  0.49501383  0.04217366  1
  S2-  S245  1  0.61844015  0.49643325  0.53869798  1
  S2-  S246  1  0.62598244  0.74653997  0.05206822  1
  S2-  S247  1  0.62203246  0.74840140  0.54293580  1
  S2-  S248  1  0.87936982  -0.00145308  0.04555730  1
  S2-  S249  1  0.86847638  -0.00290707  0.54323994  1
  S2-  S250  1  0.88003388  0.24660996  0.04388381  1
  S2-  S251  1  0.87058131  0.24759816  0.54950833  1
  S2-  S252  1  0.87852495  0.50157777  0.04777066  1
  S2-  S253  1  0.86627261  0.49494440  0.54734326  1
  S2-  S254  1  0.87762617  0.74670433  0.05100778  1
  S2-  S255  1  0.86760508  0.74536455  0.54222505  1
