# generated using pymatgen
data_La6Ce7Pr13Nd19Sm19(BiS2)64
_symmetry_space_group_name_H-M   'P 1'
_cell_length_a   16.11824215
_cell_length_b   16.13004414
_cell_length_c   27.27475187
_cell_angle_alpha   89.95562114
_cell_angle_beta   89.99489310
_cell_angle_gamma   89.96681659
_symmetry_Int_Tables_number   1
_chemical_formula_structural   La6Ce7Pr13Nd19Sm19(BiS2)64
_chemical_formula_sum   'La6 Ce7 Pr13 Nd19 Sm19 Bi64 S128'
_cell_volume   7091.10367923
_cell_formula_units_Z   1
loop_
 _symmetry_equiv_pos_site_id
 _symmetry_equiv_pos_as_xyz
  1  'x, y, z'
loop_
 _atom_type_symbol
 _atom_type_oxidation_number
  La3+  3.0
  Ce3+  3.0
  Pr3+  3.0
  Nd3+  3.0
  Sm3+  3.0
  Bi2+  2.0
  S2-  -2.0
loop_
 _atom_site_type_symbol
 _atom_site_label
 _atom_site_symmetry_multiplicity
 _atom_site_fract_x
 _atom_site_fract_y
 _atom_site_fract_z
 _atom_site_occupancy
  La3+  La0  1  0.49699014  0.13110449  0.59002688  1
  La3+  La1  1  0.14001663  0.00090161  0.39815488  1
  La3+  La2  1  0.63053373  0.49657798  0.41639366  1
  La3+  La3  1  0.01430924  0.86780916  0.09151676  1
  La3+  La4  1  0.74979280  0.87916323  0.09972042  1
  La3+  La5  1  0.75768791  0.38847075  0.57534993  1
  Ce3+  Ce6  1  0.63770160  -0.00253123  0.93879655  1
  Ce3+  Ce7  1  0.25295533  0.63038921  0.55456707  1
  Ce3+  Ce8  1  0.88431048  0.75184338  0.95181353  1
  Ce3+  Ce9  1  0.75670144  0.37559107  0.07206960  1
  Ce3+  Ce10  1  0.37577287  0.00449999  0.44825336  1
  Ce3+  Ce11  1  0.50982615  0.12365716  0.05621058  1
  Ce3+  Ce12  1  0.12964356  0.75661370  0.43806265  1
  Pr3+  Pr13  1  0.00491513  0.12407822  0.56091505  1
  Pr3+  Pr14  1  0.13408724  0.49799361  0.93873748  1
  Pr3+  Pr15  1  0.50806536  0.61663717  0.07175851  1
  Pr3+  Pr16  1  0.00845406  0.62256553  0.06922357  1
  Pr3+  Pr17  1  0.13067080  0.24687877  0.93199330  1
  Pr3+  Pr18  1  0.37681297  0.25333558  0.44518099  1
  Pr3+  Pr19  1  0.24546244  0.12538429  0.56818852  1
  Pr3+  Pr20  1  0.38153749  0.50284766  0.44664337  1
  Pr3+  Pr21  1  0.02617242  0.13417928  0.08539046  1
  Pr3+  Pr22  1  0.13124700  0.75047841  0.93978457  1
  Pr3+  Pr23  1  0.51060041  0.37981375  0.57827445  1
  Pr3+  Pr24  1  0.37779122  0.75827037  0.43711679  1
  Pr3+  Pr25  1  0.87759869  0.75754600  0.43308304  1
  Nd3+  Nd26  1  0.38808497  0.74928155  0.94002888  1
  Nd3+  Nd27  1  0.76494929  0.11879989  0.06254136  1
  Nd3+  Nd28  1  0.75495640  0.87981589  0.56771761  1
  Nd3+  Nd29  1  0.38599221  -0.00235518  0.93702312  1
  Nd3+  Nd30  1  0.51154795  0.88129463  0.58631110  1
  Nd3+  Nd31  1  0.75289865  0.62981859  0.55359160  1
  Nd3+  Nd32  1  0.26084075  0.87262344  0.06428559  1
  Nd3+  Nd33  1  0.25046988  0.37882819  0.56361696  1
  Nd3+  Nd34  1  0.62850851  0.00531950  0.44237024  1
  Nd3+  Nd35  1  0.88428578  0.49776604  0.94349087  1
  Nd3+  Nd36  1  0.01040076  0.37626484  0.06473857  1
  Nd3+  Nd37  1  0.51146445  0.36398891  0.07560305  1
  Nd3+  Nd38  1  0.39069294  0.49691570  0.93661286  1
  Nd3+  Nd39  1  0.12398409  0.25632019  0.43622839  1
  Nd3+  Nd40  1  0.62727472  0.25596590  0.44557368  1
  Nd3+  Nd41  1  0.25943348  0.87137070  0.57268846  1
  Nd3+  Nd42  1  0.87387157  0.00547574  0.43335765  1
  Nd3+  Nd43  1  0.12986959  0.50228321  0.42989865  1
  Nd3+  Nd44  1  0.50687442  0.62790299  0.55034400  1
  Sm3+  Sm45  1  0.26041252  0.37266425  0.04721013  1
  Sm3+  Sm46  1  0.38916006  0.24924176  0.93155818  1
  Sm3+  Sm47  1  0.62925713  0.75652796  0.43822117  1
  Sm3+  Sm48  1  0.75748169  0.62381586  0.06038382  1
  Sm3+  Sm49  1  0.13346795  -0.00192334  0.94318046  1
  Sm3+  Sm50  1  0.75097161  0.12853977  0.55875482  1
  Sm3+  Sm51  1  0.87903227  0.25538837  0.44955915  1
  Sm3+  Sm52  1  0.50823757  0.87227448  0.06080249  1
  Sm3+  Sm53  1  0.88702264  -0.00315641  0.95424971  1
  Sm3+  Sm54  1  0.00411048  0.88051494  0.54923337  1
  Sm3+  Sm55  1  0.87580105  0.50172031  0.43540299  1
  Sm3+  Sm56  1  0.88579131  0.24797270  0.95279939  1
  Sm3+  Sm57  1  0.00400036  0.63155750  0.54720772  1
  Sm3+  Sm58  1  0.00287181  0.38492536  0.56488758  1
  Sm3+  Sm59  1  0.63573063  0.74934875  0.94956065  1
  Sm3+  Sm60  1  0.26022312  0.12328548  0.04837078  1
  Sm3+  Sm61  1  0.63642488  0.49629482  0.94392378  1
  Sm3+  Sm62  1  0.63812150  0.24958906  0.94290807  1
  Sm3+  Sm63  1  0.25948546  0.62330295  0.05049470  1
  Bi2+  Bi64  1  -0.00379825  0.14368035  0.30303126  1
  Bi2+  Bi65  1  -0.03887645  0.12703629  0.80191045  1
  Bi2+  Bi66  1  -0.02360406  0.39324647  0.29600670  1
  Bi2+  Bi67  1  0.00917090  0.36948002  0.80060828  1
  Bi2+  Bi68  1  -0.02911041  0.58921508  0.29084198  1
  Bi2+  Bi69  1  0.03764478  0.61497707  0.73836580  1
  Bi2+  Bi70  1  -0.00073983  0.86575267  0.28862821  1
  Bi2+  Bi71  1  0.01233316  0.83167528  0.79657608  1
  Bi2+  Bi72  1  0.32416103  0.12836609  0.28320201  1
  Bi2+  Bi73  1  0.19438250  0.13032460  0.77679316  1
  Bi2+  Bi74  1  0.16827047  0.42735852  0.26450296  1
  Bi2+  Bi75  1  0.23820994  0.44657502  0.78567375  1
  Bi2+  Bi76  1  0.15986724  0.61783654  0.31056731  1
  Bi2+  Bi77  1  0.24028684  0.62861037  0.74063088  1
  Bi2+  Bi78  1  0.27791086  0.86058998  0.28957191  1
  Bi2+  Bi79  1  0.25513773  0.87917474  0.81063937  1
  Bi2+  Bi80  1  0.52238043  0.14537781  0.30205127  1
  Bi2+  Bi81  1  0.51680938  0.06752775  0.77530951  1
  Bi2+  Bi82  1  0.46012834  0.39499992  0.30980128  1
  Bi2+  Bi83  1  0.50127672  0.36587132  0.81098579  1
  Bi2+  Bi84  1  0.35020536  0.62380577  0.27816681  1
  Bi2+  Bi85  1  0.54944440  0.62458919  0.79141723  1
  Bi2+  Bi86  1  0.47037319  0.88886898  0.27731409  1
  Bi2+  Bi87  1  0.50853877  0.86684589  0.80917916  1
  Bi2+  Bi88  1  0.71890056  0.13709833  0.30063515  1
  Bi2+  Bi89  1  0.77302289  0.13929439  0.75417189  1
  Bi2+  Bi90  1  0.72486958  0.36158479  0.28437692  1
  Bi2+  Bi91  1  0.75434942  0.37897072  0.81273889  1
  Bi2+  Bi92  1  0.70449208  0.59807661  0.28791672  1
  Bi2+  Bi93  1  0.81676603  0.64411304  0.78540203  1
  Bi2+  Bi94  1  0.75258871  0.84961616  0.29330602  1
  Bi2+  Bi95  1  0.82269435  0.88489968  0.78757876  1
  Bi2+  Bi96  1  0.10359450  0.01343483  0.19746293  1
  Bi2+  Bi97  1  0.05752123  0.03109800  0.72074221  1
  Bi2+  Bi98  1  0.16209987  0.25770755  0.20627904  1
  Bi2+  Bi99  1  0.11414591  0.27184885  0.70286653  1
  Bi2+  Bi100  1  0.02303228  0.49861851  0.18390028  1
  Bi2+  Bi101  1  0.13635789  0.46111559  0.68376675  1
  Bi2+  Bi102  1  0.16574476  0.72848369  0.21182985  1
  Bi2+  Bi103  1  0.13499876  0.80569608  0.70651109  1
  Bi2+  Bi104  1  0.36868634  0.00775557  0.19480134  1
  Bi2+  Bi105  1  0.35944996  -0.02236063  0.70801307  1
  Bi2+  Bi106  1  0.42023324  0.26955378  0.22539653  1
  Bi2+  Bi107  1  0.35701277  0.23326064  0.72639985  1
  Bi2+  Bi108  1  0.31952690  0.49068591  0.20086238  1
  Bi2+  Bi109  1  0.41439572  0.48848874  0.73111197  1
  Bi2+  Bi110  1  0.36396353  0.81638463  0.18632228  1
  Bi2+  Bi111  1  0.41938686  0.69676084  0.71311544  1
  Bi2+  Bi112  1  0.56427688  0.02131023  0.21300026  1
  Bi2+  Bi113  1  0.66988525  -0.01805096  0.71053828  1
  Bi2+  Bi114  1  0.62764045  0.23703021  0.21045006  1
  Bi2+  Bi115  1  0.61311860  0.24663656  0.72081682  1
  Bi2+  Bi116  1  0.58690686  0.51647716  0.20456408  1
  Bi2+  Bi117  1  0.62338157  0.51311072  0.70795709  1
  Bi2+  Bi118  1  0.61412368  0.76499130  0.22083563  1
  Bi2+  Bi119  1  0.67655759  0.74767175  0.73456289  1
  Bi2+  Bi120  1  0.83816647  0.01622338  0.22658026  1
  Bi2+  Bi121  1  0.87382806  -0.01825848  0.68693622  1
  Bi2+  Bi122  1  0.84086973  0.23545420  0.22357254  1
  Bi2+  Bi123  1  0.91580195  0.25997163  0.71913753  1
  Bi2+  Bi124  1  0.84336335  0.42723169  0.19633280  1
  Bi2+  Bi125  1  0.87698903  0.51081352  0.70802303  1
  Bi2+  Bi126  1  0.87663689  0.64579098  0.19590048  1
  Bi2+  Bi127  1  0.86045036  0.77678963  0.69224052  1
  S2-  S128  1  -0.04647698  0.10998222  0.17816118  1
  S2-  S129  1  0.11125042  0.13365663  0.64068143  1
  S2-  S130  1  0.04037830  0.28652429  0.14662529  1
  S2-  S131  1  -0.10506300  0.38092414  0.64274131  1
  S2-  S132  1  0.01869804  0.71712052  0.15320776  1
  S2-  S133  1  -0.01640889  0.60896819  0.64396899  1
  S2-  S134  1  -0.03781917  0.90714031  0.19019066  1
  S2-  S135  1  -0.00411321  0.85284714  0.64669791  1
  S2-  S136  1  0.19164749  0.13019644  0.13843142  1
  S2-  S137  1  0.34140929  0.12219759  0.65424249  1
  S2-  S138  1  0.26420554  0.35787243  0.14447816  1
  S2-  S139  1  0.26605479  0.33812151  0.66043615  1
  S2-  S140  1  0.24753817  0.62464544  0.14849149  1
  S2-  S141  1  0.23679017  0.69271224  0.64419873  1
  S2-  S142  1  0.16738737  0.87725759  0.14822801  1
  S2-  S143  1  0.21406918  0.93669522  0.66322716  1
  S2-  S144  1  0.48396810  0.22060371  0.13656019  1
  S2-  S145  1  0.51793652  0.01012192  0.66357651  1
  S2-  S146  1  0.46746496  0.48654212  0.14139965  1
  S2-  S147  1  0.48498946  0.26477286  0.65962708  1
  S2-  S148  1  0.51283987  0.67035689  0.17230158  1
  S2-  S149  1  0.52919567  0.62991935  0.64862545  1
  S2-  S150  1  0.58914277  0.88503816  0.14710835  1
  S2-  S151  1  0.39514870  0.84148832  0.65613419  1
  S2-  S152  1  0.74388807  0.03642528  0.14959048  1
  S2-  S153  1  0.70689229  0.14401329  0.65345760  1
  S2-  S154  1  0.64407939  0.37644752  0.14720510  1
  S2-  S155  1  0.64237204  0.37668184  0.65242421  1
  S2-  S156  1  0.72254820  0.59022914  0.15440516  1
  S2-  S157  1  0.75164157  0.55286890  0.64293469  1
  S2-  S158  1  0.77809420  0.79885177  0.18997810  1
  S2-  S159  1  0.65002909  0.84877931  0.64675395  1
  S2-  S160  1  0.10396403  0.00360524  0.29150673  1
  S2-  S161  1  0.15336081  -0.00622887  0.84528834  1
  S2-  S162  1  0.13042433  0.16205495  0.35371672  1
  S2-  S163  1  0.13943632  0.26250980  0.83263508  1
  S2-  S164  1  0.11583986  0.38004259  0.36061019  1
  S2-  S165  1  0.08722482  0.49708656  0.84259880  1
  S2-  S166  1  0.13460349  0.83239752  0.35083147  1
  S2-  S167  1  0.15519746  0.75781355  0.84037811  1
  S2-  S168  1  0.30667584  -0.00167489  0.35774790  1
  S2-  S169  1  0.39030904  -0.00038711  0.83674209  1
  S2-  S170  1  0.35330193  0.26659256  0.34517857  1
  S2-  S171  1  0.39159929  0.24971134  0.83225931  1
  S2-  S172  1  0.34411654  0.49046313  0.34840683  1
  S2-  S173  1  0.37290840  0.50092084  0.83811300  1
  S2-  S174  1  0.39957568  0.75165176  0.33690092  1
  S2-  S175  1  0.38738568  0.76964672  0.84091970  1
  S2-  S176  1  0.70706166  -0.01294095  0.35408971  1
  S2-  S177  1  0.62404435  -0.00194585  0.84065873  1
  S2-  S178  1  0.61117364  0.34399619  0.35939120  1
  S2-  S179  1  0.63083501  0.26240831  0.84479508  1
  S2-  S180  1  0.56021693  0.54614327  0.32271541  1
  S2-  S181  1  0.62591135  0.48672874  0.84540879  1
  S2-  S182  1  0.64852449  0.75059055  0.33988257  1
  S2-  S183  1  0.61625127  0.75656329  0.85193904  1
  S2-  S184  1  0.92200632  -0.00149699  0.33772212  1
  S2-  S185  1  0.89051171  0.00206617  0.85508554  1
  S2-  S186  1  0.89991742  0.26509626  0.35220106  1
  S2-  S187  1  0.87804654  0.28042248  0.85616992  1
  S2-  S188  1  0.77820777  0.49942340  0.35393007  1
  S2-  S189  1  0.84656132  0.49706193  0.84595773  1
  S2-  S190  1  0.88364699  0.75627282  0.33221983  1
  S2-  S191  1  0.91934667  0.72712065  0.85667492  1
  S2-  S192  1  -0.00098258  0.12733850  0.45505456  1
  S2-  S193  1  0.00914329  0.12252218  0.95711160  1
  S2-  S194  1  -0.00274168  0.38306450  0.46058860  1
  S2-  S195  1  0.00838272  0.37315820  0.95783002  1
  S2-  S196  1  0.00159768  0.62686462  0.44249302  1
  S2-  S197  1  0.00883140  0.62175464  0.96076981  1
  S2-  S198  1  0.00346300  0.88443645  0.44645377  1
  S2-  S199  1  0.01125368  0.87661606  0.95781661  1
  S2-  S200  1  0.25053530  0.12899556  0.46043401  1
  S2-  S201  1  0.26152176  0.12420745  0.94358083  1
  S2-  S202  1  0.25282000  0.38135934  0.45794663  1
  S2-  S203  1  0.26233821  0.37192790  0.94186229  1
  S2-  S204  1  0.25335038  0.62893304  0.44855068  1
  S2-  S205  1  0.26203248  0.62314821  0.94520324  1
  S2-  S206  1  0.25271218  0.87883882  0.45995823  1
  S2-  S207  1  0.26057308  0.87474900  0.95613534  1
  S2-  S208  1  0.50420096  0.12933016  0.45402113  1
  S2-  S209  1  0.51068596  0.12594902  0.94813182  1
  S2-  S210  1  0.50224046  0.37844700  0.46490980  1
  S2-  S211  1  0.51250648  0.37047618  0.95738604  1
  S2-  S212  1  0.50649468  0.63104228  0.44459438  1
  S2-  S213  1  0.51303472  0.62254570  0.95611255  1
  S2-  S214  1  0.50653122  0.88057704  0.44352886  1
  S2-  S215  1  0.51093887  0.87389578  0.95597004  1
  S2-  S216  1  0.75399208  0.13263981  0.45412886  1
  S2-  S217  1  0.76297720  0.12428962  0.95461133  1
  S2-  S218  1  0.75742254  0.37678180  0.46096096  1
  S2-  S219  1  0.75995151  0.37245720  0.96215344  1
  S2-  S220  1  0.75295659  0.63160078  0.44866271  1
  S2-  S221  1  0.75733226  0.62311121  0.95469090  1
  S2-  S222  1  0.75291582  0.87814811  0.45957503  1
  S2-  S223  1  0.75960957  0.87366829  0.95309608  1
  S2-  S224  1  0.13537996  -0.00162022  0.04593413  1
  S2-  S225  1  0.12796362  -0.00480395  0.54812208  1
  S2-  S226  1  0.13912893  0.25039925  0.03680100  1
  S2-  S227  1  0.12197498  0.26168728  0.54431003  1
  S2-  S228  1  0.13706802  0.49816122  0.04624794  1
  S2-  S229  1  0.12608118  0.50603706  0.54006226  1
  S2-  S230  1  0.13671475  0.74702512  0.04575034  1
  S2-  S231  1  0.12544753  0.75514991  0.54286609  1
  S2-  S232  1  0.38493144  -0.00174374  0.04512988  1
  S2-  S233  1  0.38409952  -0.00230123  0.55176621  1
  S2-  S234  1  0.37976986  0.24777876  0.03560308  1
  S2-  S235  1  0.37578289  0.25576645  0.55085763  1
  S2-  S236  1  0.37924670  0.49742504  0.03952178  1
  S2-  S237  1  0.37870659  0.50305119  0.55585967  1
  S2-  S238  1  0.38611017  0.74605849  0.04677647  1
  S2-  S239  1  0.38481039  0.75288157  0.54346950  1
  S2-  S240  1  0.63327941  -0.00259594  0.04351533  1
  S2-  S241  1  0.62946914  0.00471811  0.54830051  1
  S2-  S242  1  0.64024770  0.24298866  0.04669032  1
  S2-  S243  1  0.62865173  0.25076601  0.54927600  1
  S2-  S244  1  0.63442094  0.49832674  0.04617815  1
  S2-  S245  1  0.62936733  0.50433693  0.53854695  1
  S2-  S246  1  0.63389522  0.74733883  0.05335975  1
  S2-  S247  1  0.62819512  0.75500800  0.54192307  1
  S2-  S248  1  0.89191821  -0.00529781  0.05820944  1
  S2-  S249  1  0.87551261  0.00346344  0.54325162  1
  S2-  S250  1  0.88527851  0.24764584  0.05704301  1
  S2-  S251  1  0.87819586  0.24923741  0.55275222  1
  S2-  S252  1  0.88144453  0.49901494  0.05120319  1
  S2-  S253  1  0.88179446  0.50923215  0.53816671  1
  S2-  S254  1  0.87626667  0.75276748  0.05770715  1
  S2-  S255  1  0.87836337  0.75467447  0.54102019  1
