# generated using pymatgen
data_La6Ce7Pr13Nd19Sm19(BiS2)64
_symmetry_space_group_name_H-M   'P 1'
_cell_length_a   16.08993908
_cell_length_b   16.06959405
_cell_length_c   27.46376331
_cell_angle_alpha   89.71478042
_cell_angle_beta   90.27156008
_cell_angle_gamma   90.05198132
_symmetry_Int_Tables_number   1
_chemical_formula_structural   La6Ce7Pr13Nd19Sm19(BiS2)64
_chemical_formula_sum   'La6 Ce7 Pr13 Nd19 Sm19 Bi64 S128'
_cell_volume   7100.82687769
_cell_formula_units_Z   1
loop_
 _symmetry_equiv_pos_site_id
 _symmetry_equiv_pos_as_xyz
  1  'x, y, z'
loop_
 _atom_type_symbol
 _atom_type_oxidation_number
  La3+  3.0
  Ce3+  3.0
  Pr3+  3.0
  Nd3+  3.0
  Sm3+  3.0
  Bi2+  2.0
  S2-  -2.0
loop_
 _atom_site_type_symbol
 _atom_site_label
 _atom_site_symmetry_multiplicity
 _atom_site_fract_x
 _atom_site_fract_y
 _atom_site_fract_z
 _atom_site_occupancy
  La3+  La0  1  0.37282516  0.50544006  0.88812011  1
  La3+  La1  1  0.49126146  0.11499774  0.07651313  1
  La3+  La2  1  0.88266085  0.22781080  0.42985006  1
  La3+  La3  1  0.61121215  -0.00086098  0.93305201  1
  La3+  La4  1  0.23912987  0.14183498  0.11546152  1
  La3+  La5  1  0.01881635  0.84794476  0.57476917  1
  Ce3+  Ce6  1  0.88563224  -0.02403013  0.44724748  1
  Ce3+  Ce7  1  0.49498003  0.87225408  0.06395420  1
  Ce3+  Ce8  1  0.13543173  0.22574586  0.43442549  1
  Ce3+  Ce9  1  0.74282059  0.11373308  0.07251037  1
  Ce3+  Ce10  1  -0.00556078  0.12084183  0.05802966  1
  Ce3+  Ce11  1  0.38284242  -0.01653012  0.43888351  1
  Ce3+  Ce12  1  0.76046956  0.60346396  0.55522821  1
  Pr3+  Pr13  1  0.85993897  0.00567652  0.92618136  1
  Pr3+  Pr14  1  0.00746938  0.35250526  0.56135492  1
  Pr3+  Pr15  1  0.38435970  0.47810683  0.43407660  1
  Pr3+  Pr16  1  0.86744373  0.24948990  0.93965857  1
  Pr3+  Pr17  1  0.23923196  0.62439841  0.06937226  1
  Pr3+  Pr18  1  0.76258546  0.10033641  0.56470077  1
  Pr3+  Pr19  1  0.89076919  0.48348025  0.43384569  1
  Pr3+  Pr20  1  0.13349747  -0.01945450  0.43163179  1
  Pr3+  Pr21  1  0.38303699  0.72850417  0.44638524  1
  Pr3+  Pr22  1  0.50957411  0.60014830  0.56496158  1
  Pr3+  Pr23  1  0.25970027  0.10513488  0.56929798  1
  Pr3+  Pr24  1  0.88574802  0.73287310  0.44331860  1
  Pr3+  Pr25  1  0.87020797  0.49911622  0.92440771  1
  Nd3+  Nd26  1  0.76170984  0.35355354  0.55383377  1
  Nd3+  Nd27  1  0.25634320  0.59363508  0.56491716  1
  Nd3+  Nd28  1  0.63195336  0.23064803  0.44023684  1
  Nd3+  Nd29  1  0.14180110  0.47173994  0.42059921  1
  Nd3+  Nd30  1  0.37325890  0.25255890  0.93817193  1
  Nd3+  Nd31  1  0.51126657  0.10013113  0.56054997  1
  Nd3+  Nd32  1  -0.00763805  0.87620622  0.05749111  1
  Nd3+  Nd33  1  0.48914560  0.37049189  0.06371506  1
  Nd3+  Nd34  1  0.14043622  0.73271176  0.42999230  1
  Nd3+  Nd35  1  0.61590088  0.49991454  0.94418598  1
  Nd3+  Nd36  1  0.01330472  0.59917967  0.55468973  1
  Nd3+  Nd37  1  0.50880166  0.34977881  0.56159112  1
  Nd3+  Nd38  1  0.12342663  0.24847830  0.94333042  1
  Nd3+  Nd39  1  0.11940796  0.49891444  0.92870506  1
  Nd3+  Nd40  1  0.50980454  0.85485250  0.55874794  1
  Nd3+  Nd41  1  0.63221698  0.72939366  0.44291434  1
  Nd3+  Nd42  1  -0.00653541  0.37173301  0.05849404  1
  Nd3+  Nd43  1  0.25923592  0.34966787  0.56138634  1
  Nd3+  Nd44  1  0.26002997  0.85297682  0.56289336  1
  Sm3+  Sm45  1  0.61536317  0.24990497  0.94981053  1
  Sm3+  Sm46  1  0.36474017  0.74339650  0.94980583  1
  Sm3+  Sm47  1  0.36783639  -0.00150171  0.94394792  1
  Sm3+  Sm48  1  -0.00730117  0.62006857  0.04996873  1
  Sm3+  Sm49  1  0.86850504  0.75192870  0.94244929  1
  Sm3+  Sm50  1  0.63347092  -0.01946532  0.43722369  1
  Sm3+  Sm51  1  0.24095849  0.87370494  0.06813485  1
  Sm3+  Sm52  1  0.61505943  0.74596271  0.94741687  1
  Sm3+  Sm53  1  0.76164311  0.85355848  0.56070493  1
  Sm3+  Sm54  1  0.24452133  0.37399653  0.05579524  1
  Sm3+  Sm55  1  0.74621164  0.62115381  0.05489121  1
  Sm3+  Sm56  1  0.74512180  0.37368561  0.05729008  1
  Sm3+  Sm57  1  0.74546150  0.87329372  0.05779839  1
  Sm3+  Sm58  1  0.63266146  0.48000802  0.44151171  1
  Sm3+  Sm59  1  0.01061182  0.10292116  0.55610088  1
  Sm3+  Sm60  1  0.49406141  0.62019179  0.06268442  1
  Sm3+  Sm61  1  0.11999429  0.74880682  0.94150507  1
  Sm3+  Sm62  1  0.38290532  0.22467497  0.43684319  1
  Sm3+  Sm63  1  0.12141612  -0.00179205  0.94236755  1
  Bi2+  Bi64  1  -0.02519990  0.11798520  0.30100403  1
  Bi2+  Bi65  1  0.02229955  0.08602814  0.73823679  1
  Bi2+  Bi66  1  0.00322908  0.40580925  0.30384566  1
  Bi2+  Bi67  1  -0.03640008  0.33080753  0.80812488  1
  Bi2+  Bi68  1  -0.06463781  0.64711463  0.23710306  1
  Bi2+  Bi69  1  -0.05508376  0.61059476  0.78184907  1
  Bi2+  Bi70  1  -0.02619713  0.88472259  0.30202894  1
  Bi2+  Bi71  1  0.05973163  0.88449046  0.80356616  1
  Bi2+  Bi72  1  0.25467998  0.18994492  0.31188234  1
  Bi2+  Bi73  1  0.32776174  0.12751385  0.77402325  1
  Bi2+  Bi74  1  0.23003572  0.40109634  0.23430975  1
  Bi2+  Bi75  1  0.22025979  0.36692994  0.78837979  1
  Bi2+  Bi76  1  0.19993728  0.62552638  0.30207260  1
  Bi2+  Bi77  1  0.24437952  0.66358662  0.78857752  1
  Bi2+  Bi78  1  0.25775813  0.83789270  0.28694549  1
  Bi2+  Bi79  1  0.28588513  0.92379230  0.79524982  1
  Bi2+  Bi80  1  0.50543755  0.13349260  0.30982479  1
  Bi2+  Bi81  1  0.52392096  0.12244523  0.78872331  1
  Bi2+  Bi82  1  0.42755103  0.45782574  0.30029452  1
  Bi2+  Bi83  1  0.49588343  0.37058985  0.78902825  1
  Bi2+  Bi84  1  0.55595545  0.60189873  0.32115019  1
  Bi2+  Bi85  1  0.50715744  0.64446763  0.79656434  1
  Bi2+  Bi86  1  0.48794142  0.87858992  0.29147980  1
  Bi2+  Bi87  1  0.48153324  0.88378156  0.79062439  1
  Bi2+  Bi88  1  0.74708204  0.12372426  0.26794789  1
  Bi2+  Bi89  1  0.76948647  0.12455143  0.78524004  1
  Bi2+  Bi90  1  0.71534640  0.40498974  0.27792549  1
  Bi2+  Bi91  1  0.78194765  0.39497844  0.81890209  1
  Bi2+  Bi92  1  0.76112285  0.60992689  0.29017627  1
  Bi2+  Bi93  1  0.75144487  0.58836859  0.80763499  1
  Bi2+  Bi94  1  0.74967217  0.81147781  0.28971655  1
  Bi2+  Bi95  1  0.80563698  0.87482092  0.80101402  1
  Bi2+  Bi96  1  0.11087357  -0.00842505  0.20813889  1
  Bi2+  Bi97  1  0.18280587  0.02099189  0.68735293  1
  Bi2+  Bi98  1  0.02371922  0.24731051  0.22218776  1
  Bi2+  Bi99  1  0.16524957  0.21716446  0.72160985  1
  Bi2+  Bi100  1  0.15255502  0.56865445  0.19076876  1
  Bi2+  Bi101  1  0.13593818  0.54182706  0.69346408  1
  Bi2+  Bi102  1  0.11750025  0.76142741  0.21692870  1
  Bi2+  Bi103  1  0.06846804  0.77819120  0.71502020  1
  Bi2+  Bi104  1  0.37436932  0.01609768  0.21616786  1
  Bi2+  Bi105  1  0.37405545  -0.00155242  0.68644174  1
  Bi2+  Bi106  1  0.39434945  0.30530241  0.21445233  1
  Bi2+  Bi107  1  0.40588052  0.27128527  0.70378046  1
  Bi2+  Bi108  1  0.34532802  0.56485428  0.21529259  1
  Bi2+  Bi109  1  0.38836046  0.53231870  0.68311230  1
  Bi2+  Bi110  1  0.40093034  0.75523436  0.22096057  1
  Bi2+  Bi111  1  0.35341596  0.78759552  0.72487640  1
  Bi2+  Bi112  1  0.63302133  0.00234467  0.20688118  1
  Bi2+  Bi113  1  0.60939526  0.02260225  0.69271861  1
  Bi2+  Bi114  1  0.63650102  0.26787864  0.21373246  1
  Bi2+  Bi115  1  0.65946901  0.27845467  0.76263776  1
  Bi2+  Bi116  1  0.61517381  0.54206464  0.21783143  1
  Bi2+  Bi117  1  0.64431699  0.55974257  0.71290915  1
  Bi2+  Bi118  1  0.60186857  0.79320016  0.20849864  1
  Bi2+  Bi119  1  0.66146035  0.75711998  0.75447187  1
  Bi2+  Bi120  1  0.88383496  -0.01772636  0.21390224  1
  Bi2+  Bi121  1  0.84513618  0.00785577  0.69722653  1
  Bi2+  Bi122  1  0.86309154  0.17090645  0.18192121  1
  Bi2+  Bi123  1  0.92604847  0.29110162  0.69866528  1
  Bi2+  Bi124  1  0.86827550  0.46460856  0.18938431  1
  Bi2+  Bi125  1  0.86483759  0.47746696  0.70606117  1
  Bi2+  Bi126  1  0.79001726  0.74538108  0.18462328  1
  Bi2+  Bi127  1  0.84881007  0.74458584  0.71540018  1
  S2-  S128  1  0.06990308  0.12334250  0.14759265  1
  S2-  S129  1  -0.04293603  0.13299422  0.64743762  1
  S2-  S130  1  0.00280094  0.37720519  0.15779567  1
  S2-  S131  1  0.02733984  0.42340884  0.65259310  1
  S2-  S132  1  -0.01210874  0.59799255  0.14681749  1
  S2-  S133  1  0.03827352  0.65250919  0.64735410  1
  S2-  S134  1  0.01313086  0.87691319  0.15605212  1
  S2-  S135  1  -0.06027205  0.86837923  0.66482121  1
  S2-  S136  1  0.23287590  0.11543556  0.23052269  1
  S2-  S137  1  0.27043489  0.23426939  0.63916951  1
  S2-  S138  1  0.24451668  0.31258845  0.14902940  1
  S2-  S139  1  0.24877522  0.45726002  0.64033105  1
  S2-  S140  1  0.22704362  0.75105602  0.13965111  1
  S2-  S141  1  0.26647793  0.65461894  0.66026391  1
  S2-  S142  1  0.24952686  0.97063015  0.15076407  1
  S2-  S143  1  0.15662966  0.85969488  0.64181178  1
  S2-  S144  1  0.39915340  0.15338869  0.16067877  1
  S2-  S145  1  0.50815309  0.15152865  0.65400936  1
  S2-  S146  1  0.51767651  0.37136483  0.16278849  1
  S2-  S147  1  0.49486243  0.39827053  0.65542393  1
  S2-  S148  1  0.50845896  0.64275189  0.15924974  1
  S2-  S149  1  0.52338839  0.64297790  0.66198887  1
  S2-  S150  1  0.49245483  0.96270012  0.14617745  1
  S2-  S151  1  0.50228738  0.89777333  0.65349573  1
  S2-  S152  1  0.62493765  0.14131241  0.14571373  1
  S2-  S153  1  0.73061774  0.12586777  0.66218039  1
  S2-  S154  1  0.76426010  0.35012351  0.15369744  1
  S2-  S155  1  0.78354239  0.35521243  0.65193391  1
  S2-  S156  1  0.74794494  0.57606167  0.14839733  1
  S2-  S157  1  0.78212218  0.61243632  0.65146874  1
  S2-  S158  1  0.76109599  0.97161785  0.13813957  1
  S2-  S159  1  0.72614540  0.91198413  0.64953416  1
  S2-  S160  1  0.13149825  0.10352977  0.35701730  1
  S2-  S161  1  0.15684347  0.00350926  0.84616286  1
  S2-  S162  1  0.13240951  0.32961783  0.35492860  1
  S2-  S163  1  0.11760392  0.27208394  0.84446089  1
  S2-  S164  1  0.05511664  0.54616301  0.34230607  1
  S2-  S165  1  0.21119240  0.51129497  0.84406710  1
  S2-  S166  1  0.12167363  0.85703032  0.35795950  1
  S2-  S167  1  0.13728999  0.73352960  0.84421608  1
  S2-  S168  1  0.35921441  0.06135697  0.35273565  1
  S2-  S169  1  0.47538406  0.00284543  0.86464491  1
  S2-  S170  1  0.40695116  0.27008218  0.34249497  1
  S2-  S171  1  0.35501070  0.33858505  0.85025901  1
  S2-  S172  1  0.27989393  0.49132521  0.35402375  1
  S2-  S173  1  0.39095204  0.51812650  0.77739311  1
  S2-  S174  1  0.32139835  0.72699601  0.35277275  1
  S2-  S175  1  0.37184990  0.68100357  0.85866960  1
  S2-  S176  1  0.58490965  -0.00847122  0.34326708  1
  S2-  S177  1  0.72199324  0.00495571  0.85493397  1
  S2-  S178  1  0.64386780  0.20173306  0.34273672  1
  S2-  S179  1  0.55439045  0.23999057  0.85831570  1
  S2-  S180  1  0.59448252  0.42874685  0.35085811  1
  S2-  S181  1  0.54441679  0.50427637  0.85460481  1
  S2-  S182  1  0.60704164  0.76607395  0.34739967  1
  S2-  S183  1  0.59060862  0.77751143  0.85264908  1
  S2-  S184  1  0.86974455  -0.00046490  0.35246522  1
  S2-  S185  1  0.93711636  -0.02628133  0.83768273  1
  S2-  S186  1  0.90540204  0.26068690  0.33248747  1
  S2-  S187  1  0.87913008  0.18260003  0.84771148  1
  S2-  S188  1  0.84888257  0.47229365  0.33702425  1
  S2-  S189  1  0.99512054  0.49297419  0.85247949  1
  S2-  S190  1  0.90114883  0.75200495  0.34421076  1
  S2-  S191  1  0.89289517  0.74572316  0.84669936  1
  S2-  S192  1  0.00543194  0.10381579  0.45422157  1
  S2-  S193  1  -0.00213579  0.12181808  0.95170427  1
  S2-  S194  1  0.00659448  0.35437654  0.45403954  1
  S2-  S195  1  -0.00509623  0.37203535  0.95393561  1
  S2-  S196  1  0.01285201  0.61093859  0.45107797  1
  S2-  S197  1  -0.00679794  0.62793506  0.94815919  1
  S2-  S198  1  0.01097911  0.85375696  0.46238041  1
  S2-  S199  1  -0.00503541  0.87345321  0.95173585  1
  S2-  S200  1  0.26076225  0.10522127  0.46219518  1
  S2-  S201  1  0.24823303  0.12280840  0.94291340  1
  S2-  S202  1  0.26558034  0.34856415  0.45569086  1
  S2-  S203  1  0.24401497  0.37729859  0.95407578  1
  S2-  S204  1  0.25737473  0.60357922  0.45763835  1
  S2-  S205  1  0.23951303  0.62375764  0.96112582  1
  S2-  S206  1  0.26136988  0.85731319  0.45803880  1
  S2-  S207  1  0.24476806  0.87170051  0.95583022  1
  S2-  S208  1  0.51118967  0.10436896  0.45427565  1
  S2-  S209  1  0.49041613  0.12659470  0.96538029  1
  S2-  S210  1  0.50828246  0.35277201  0.45537548  1
  S2-  S211  1  0.49221449  0.37732669  0.95905755  1
  S2-  S212  1  0.50955552  0.60338580  0.45741670  1
  S2-  S213  1  0.49126138  0.62237854  0.96002730  1
  S2-  S214  1  0.50846293  0.85691235  0.45302371  1
  S2-  S215  1  0.48904908  0.86562999  0.95948310  1
  S2-  S216  1  0.75642360  0.10285173  0.45467563  1
  S2-  S217  1  0.73856839  0.12861152  0.95927406  1
  S2-  S218  1  0.75791137  0.35747322  0.44761116  1
  S2-  S219  1  0.74081949  0.37501015  0.95304512  1
  S2-  S220  1  0.75726684  0.60481064  0.44821726  1
  S2-  S221  1  0.74410177  0.62542892  0.95056137  1
  S2-  S222  1  0.75532180  0.85539010  0.45422710  1
  S2-  S223  1  0.74146894  0.86845939  0.95444793  1
  S2-  S224  1  0.12052879  -0.00442552  0.04532354  1
  S2-  S225  1  0.13466379  -0.01684709  0.54202073  1
  S2-  S226  1  0.12116483  0.24755693  0.04764590  1
  S2-  S227  1  0.12957877  0.22688311  0.54432726  1
  S2-  S228  1  0.11734728  0.49668657  0.04278713  1
  S2-  S229  1  0.13243488  0.47454957  0.53486457  1
  S2-  S230  1  0.11056226  0.74724875  0.04352080  1
  S2-  S231  1  0.14103701  0.72510561  0.53844641  1
  S2-  S232  1  0.36572866  -0.01004325  0.04476529  1
  S2-  S233  1  0.38344148  -0.02088560  0.54587892  1
  S2-  S234  1  0.36401293  0.24798803  0.04587180  1
  S2-  S235  1  0.38972789  0.22574490  0.54157977  1
  S2-  S236  1  0.36750670  0.49901801  0.06465815  1
  S2-  S237  1  0.38676350  0.47593505  0.54103029  1
  S2-  S238  1  0.37201762  0.74493865  0.05231724  1
  S2-  S239  1  0.38444881  0.72842240  0.55251691  1
  S2-  S240  1  0.61994313  -0.00801186  0.04092246  1
  S2-  S241  1  0.63640665  -0.02263157  0.54147068  1
  S2-  S242  1  0.62022690  0.25334128  0.05034506  1
  S2-  S243  1  0.63655544  0.22783788  0.54651130  1
  S2-  S244  1  0.61893679  0.49714422  0.05008420  1
  S2-  S245  1  0.63493043  0.47667167  0.54703817  1
  S2-  S246  1  0.62224088  0.74506380  0.05175152  1
  S2-  S247  1  0.63523457  0.73129418  0.54963090  1
  S2-  S248  1  0.86931930  -0.00228962  0.03681902  1
  S2-  S249  1  0.88741688  -0.02401485  0.55112285  1
  S2-  S250  1  0.86694582  0.24728527  0.04611218  1
  S2-  S251  1  0.88344117  0.22728911  0.53920522  1
  S2-  S252  1  0.86836854  0.49713331  0.03618024  1
  S2-  S253  1  0.88482984  0.47960528  0.54104891  1
  S2-  S254  1  0.86926669  0.74668031  0.04665421  1
  S2-  S255  1  0.88548899  0.72918875  0.54936214  1
