# generated using pymatgen
data_La6Ce7Pr13Nd19Sm19(BiS2)64
_symmetry_space_group_name_H-M   'P 1'
_cell_length_a   16.05742988
_cell_length_b   16.08175574
_cell_length_c   27.39716451
_cell_angle_alpha   90.02375185
_cell_angle_beta   89.82307360
_cell_angle_gamma   90.17089358
_symmetry_Int_Tables_number   1
_chemical_formula_structural   La6Ce7Pr13Nd19Sm19(BiS2)64
_chemical_formula_sum   'La6 Ce7 Pr13 Nd19 Sm19 Bi64 S128'
_cell_volume   7074.74963103
_cell_formula_units_Z   1
loop_
 _symmetry_equiv_pos_site_id
 _symmetry_equiv_pos_as_xyz
  1  'x, y, z'
loop_
 _atom_type_symbol
 _atom_type_oxidation_number
  La3+  3.0
  Ce3+  3.0
  Pr3+  3.0
  Nd3+  3.0
  Sm3+  3.0
  Bi2+  2.0
  S2-  -2.0
loop_
 _atom_site_type_symbol
 _atom_site_label
 _atom_site_symmetry_multiplicity
 _atom_site_fract_x
 _atom_site_fract_y
 _atom_site_fract_z
 _atom_site_occupancy
  La3+  La0  1  0.26073810  0.87963062  0.57456922  1
  La3+  La1  1  0.48706462  0.36400513  0.09739468  1
  La3+  La2  1  0.62199152  0.25484448  0.41219501  1
  La3+  La3  1  0.24781741  0.13957806  0.61211644  1
  La3+  La4  1  0.49300001  0.86421192  0.07193389  1
  La3+  La5  1  0.74808524  0.38289528  0.57079784  1
  Ce3+  Ce6  1  0.50220098  0.37625197  0.55160755  1
  Ce3+  Ce7  1  -0.01067373  0.62234881  0.05192822  1
  Ce3+  Ce8  1  0.38340285  0.75972401  0.44247353  1
  Ce3+  Ce9  1  0.23951955  0.86239893  0.05936480  1
  Ce3+  Ce10  1  0.88030275  0.50216274  0.43963415  1
  Ce3+  Ce11  1  0.11615196  -0.00687592  0.93785552  1
  Ce3+  Ce12  1  0.11793484  0.74811791  0.93568050  1
  Pr3+  Pr13  1  0.62996519  0.50456704  0.42528922  1
  Pr3+  Pr14  1  -0.00875649  0.37126894  0.07019631  1
  Pr3+  Pr15  1  0.37575786  0.74560088  0.92235521  1
  Pr3+  Pr16  1  0.24096884  0.62535462  0.05693421  1
  Pr3+  Pr17  1  0.88745511  0.74325344  0.42504628  1
  Pr3+  Pr18  1  0.36808420  0.49345367  0.94223597  1
  Pr3+  Pr19  1  0.88381356  0.00068165  0.42677550  1
  Pr3+  Pr20  1  -0.00478527  0.87603840  0.09425454  1
  Pr3+  Pr21  1  0.23771261  0.11625586  0.06187880  1
  Pr3+  Pr22  1  0.86284701  0.23593455  0.92603024  1
  Pr3+  Pr23  1  0.00330212  0.63214490  0.56560277  1
  Pr3+  Pr24  1  0.63323515  -0.00193566  0.41520068  1
  Pr3+  Pr25  1  0.73811052  0.13212593  0.07429244  1
  Nd3+  Nd26  1  0.13766408  0.75190788  0.43858170  1
  Nd3+  Nd27  1  0.25677529  0.37739698  0.56590762  1
  Nd3+  Nd28  1  0.75297121  0.87923794  0.55515727  1
  Nd3+  Nd29  1  0.74173209  0.62025569  0.05801641  1
  Nd3+  Nd30  1  0.12986872  0.00327099  0.43788413  1
  Nd3+  Nd31  1  0.36680469  0.24510868  0.94398060  1
  Nd3+  Nd32  1  0.86648840  -0.00150979  0.94567148  1
  Nd3+  Nd33  1  0.25849080  0.63049135  0.56864068  1
  Nd3+  Nd34  1  0.86945872  0.48672630  0.93757465  1
  Nd3+  Nd35  1  0.00609101  0.37639498  0.55603412  1
  Nd3+  Nd36  1  0.62446099  0.74603580  0.93022359  1
  Nd3+  Nd37  1  0.11742986  0.49626116  0.93930938  1
  Nd3+  Nd38  1  0.00622813  0.88124019  0.55623986  1
  Nd3+  Nd39  1  0.63315073  0.75125755  0.42922748  1
  Nd3+  Nd40  1  0.51145658  0.87840746  0.56499510  1
  Nd3+  Nd41  1  -0.00025193  0.12648953  0.56454866  1
  Nd3+  Nd42  1  0.75477777  0.62888807  0.56123717  1
  Nd3+  Nd43  1  0.37303135  0.25309193  0.43360929  1
  Nd3+  Nd44  1  -0.01190949  0.12234208  0.06433883  1
  Sm3+  Sm45  1  0.36945004  -0.00607672  0.94354560  1
  Sm3+  Sm46  1  0.38265930  0.00415709  0.44421332  1
  Sm3+  Sm47  1  0.74001633  0.37075766  0.05835480  1
  Sm3+  Sm48  1  0.75467082  0.12935128  0.55320358  1
  Sm3+  Sm49  1  0.61662420  -0.00219256  0.94907059  1
  Sm3+  Sm50  1  0.87850239  0.25369917  0.44216418  1
  Sm3+  Sm51  1  0.61623346  0.24304257  0.94354096  1
  Sm3+  Sm52  1  0.37737407  0.50560075  0.43823746  1
  Sm3+  Sm53  1  0.11637011  0.24570315  0.94546713  1
  Sm3+  Sm54  1  0.74133416  0.87169531  0.06095864  1
  Sm3+  Sm55  1  0.13203203  0.50416076  0.45013048  1
  Sm3+  Sm56  1  0.13384311  0.25060323  0.44113064  1
  Sm3+  Sm57  1  0.48761168  0.11367218  0.07321459  1
  Sm3+  Sm58  1  0.86345803  0.74549499  0.94169966  1
  Sm3+  Sm59  1  0.61860040  0.48943387  0.94634920  1
  Sm3+  Sm60  1  0.23965117  0.37152197  0.06757658  1
  Sm3+  Sm61  1  0.50059039  0.12891509  0.55586918  1
  Sm3+  Sm62  1  0.49371929  0.62318689  0.05561742  1
  Sm3+  Sm63  1  0.50671760  0.62752536  0.55200677  1
  Bi2+  Bi64  1  0.06288190  0.15279188  0.30834064  1
  Bi2+  Bi65  1  -0.00537377  0.18451765  0.79650136  1
  Bi2+  Bi66  1  -0.02964856  0.33952556  0.29230259  1
  Bi2+  Bi67  1  0.00621924  0.45520124  0.78928456  1
  Bi2+  Bi68  1  0.00079836  0.53794384  0.28505806  1
  Bi2+  Bi69  1  -0.01589419  0.65091970  0.75099765  1
  Bi2+  Bi70  1  0.01266079  0.86881533  0.28796830  1
  Bi2+  Bi71  1  -0.06292162  0.85747689  0.75061257  1
  Bi2+  Bi72  1  0.25705207  0.11223893  0.30831219  1
  Bi2+  Bi73  1  0.25292366  0.11703424  0.82648555  1
  Bi2+  Bi74  1  0.22746212  0.38419223  0.28848931  1
  Bi2+  Bi75  1  0.30486673  0.39374188  0.79533823  1
  Bi2+  Bi76  1  0.19331857  0.65574846  0.30023635  1
  Bi2+  Bi77  1  0.23918866  0.61292156  0.79738505  1
  Bi2+  Bi78  1  0.20662593  0.92223330  0.30110600  1
  Bi2+  Bi79  1  0.19527714  0.85520095  0.79413478  1
  Bi2+  Bi80  1  0.48661969  0.15437762  0.27698417  1
  Bi2+  Bi81  1  0.51062215  0.07924265  0.79387114  1
  Bi2+  Bi82  1  0.50209784  0.40316912  0.28353003  1
  Bi2+  Bi83  1  0.56174917  0.34746881  0.78991903  1
  Bi2+  Bi84  1  0.48318445  0.65575143  0.23555298  1
  Bi2+  Bi85  1  0.48744895  0.59956681  0.74324453  1
  Bi2+  Bi86  1  0.46503436  0.80839473  0.30974770  1
  Bi2+  Bi87  1  0.55390714  0.86687120  0.78992435  1
  Bi2+  Bi88  1  0.75821829  0.13718089  0.28383887  1
  Bi2+  Bi89  1  0.75699377  0.11923883  0.79326191  1
  Bi2+  Bi90  1  0.77607965  0.38956545  0.28266213  1
  Bi2+  Bi91  1  0.76877973  0.38326394  0.80748768  1
  Bi2+  Bi92  1  0.74967266  0.60387065  0.28940781  1
  Bi2+  Bi93  1  0.77244394  0.63997555  0.77674882  1
  Bi2+  Bi94  1  0.74885599  0.88023782  0.27984771  1
  Bi2+  Bi95  1  0.75687718  0.88319216  0.79955828  1
  Bi2+  Bi96  1  0.13945915  0.03666558  0.20801333  1
  Bi2+  Bi97  1  0.10271667  0.02481837  0.71692744  1
  Bi2+  Bi98  1  0.11448909  0.25715948  0.21007559  1
  Bi2+  Bi99  1  0.14888363  0.37435580  0.72321214  1
  Bi2+  Bi100  1  0.14614593  0.52225695  0.20436343  1
  Bi2+  Bi101  1  0.22464722  0.54706027  0.69098862  1
  Bi2+  Bi102  1  0.12733843  0.74781472  0.19098276  1
  Bi2+  Bi103  1  0.11132750  0.77755428  0.70511180  1
  Bi2+  Bi104  1  0.38816514  -0.01242697  0.24878085  1
  Bi2+  Bi105  1  0.36790584  0.00571026  0.71549109  1
  Bi2+  Bi106  1  0.32557564  0.25696375  0.21778996  1
  Bi2+  Bi107  1  0.44583748  0.26678505  0.71041947  1
  Bi2+  Bi108  1  0.33201006  0.53176933  0.24357021  1
  Bi2+  Bi109  1  0.39553583  0.45764629  0.68366200  1
  Bi2+  Bi110  1  0.31917633  0.80312280  0.23018624  1
  Bi2+  Bi111  1  0.38850877  0.75211659  0.70816845  1
  Bi2+  Bi112  1  0.60586286  -0.02994010  0.21473768  1
  Bi2+  Bi113  1  0.60669281  0.01439490  0.69956664  1
  Bi2+  Bi114  1  0.63300781  0.23273726  0.21174737  1
  Bi2+  Bi115  1  0.63429449  0.20624541  0.71729229  1
  Bi2+  Bi116  1  0.70091725  0.49295286  0.19606780  1
  Bi2+  Bi117  1  0.65363846  0.49485597  0.73424301  1
  Bi2+  Bi118  1  0.63841028  0.75165896  0.20556744  1
  Bi2+  Bi119  1  0.66065733  0.76393381  0.71345769  1
  Bi2+  Bi120  1  0.92136843  0.07039146  0.23858001  1
  Bi2+  Bi121  1  0.80819824  -0.00476779  0.70749579  1
  Bi2+  Bi122  1  0.92762373  0.23630885  0.17642907  1
  Bi2+  Bi123  1  0.91329387  0.22203742  0.70081864  1
  Bi2+  Bi124  1  0.89273421  0.42771375  0.18921633  1
  Bi2+  Bi125  1  0.87684025  0.45462711  0.68802798  1
  Bi2+  Bi126  1  0.89923400  0.66793948  0.22058336  1
  Bi2+  Bi127  1  0.84265788  0.72444340  0.67627138  1
  S2-  S128  1  -0.01802604  0.02784937  0.14875775  1
  S2-  S129  1  0.08101078  0.14027734  0.65276807  1
  S2-  S130  1  0.11826693  0.38682042  0.14169971  1
  S2-  S131  1  0.00700021  0.35422118  0.65453692  1
  S2-  S132  1  0.02332540  0.61817038  0.14700286  1
  S2-  S133  1  -0.00839324  0.57468604  0.66026549  1
  S2-  S134  1  -0.04821611  0.81480417  0.18930352  1
  S2-  S135  1  0.01834933  0.90397621  0.65547067  1
  S2-  S136  1  0.26726365  0.11677762  0.16020250  1
  S2-  S137  1  0.24452941  0.12528250  0.73291140  1
  S2-  S138  1  0.33532991  0.37319150  0.14988550  1
  S2-  S139  1  0.25225693  0.30124451  0.65391824  1
  S2-  S140  1  0.26838743  0.73210259  0.13467947  1
  S2-  S141  1  0.25229740  0.74261398  0.64608375  1
  S2-  S142  1  0.15066431  0.89669279  0.14301666  1
  S2-  S143  1  0.23247575  0.97893310  0.65657660  1
  S2-  S144  1  0.49682051  0.21450528  0.15300021  1
  S2-  S145  1  0.41917577  0.13184004  0.64557626  1
  S2-  S146  1  0.54247269  0.44559532  0.18276351  1
  S2-  S147  1  0.53932128  0.37913324  0.64593025  1
  S2-  S148  1  0.50156471  0.72201831  0.13646939  1
  S2-  S149  1  0.50663378  0.66069297  0.64896976  1
  S2-  S150  1  0.48597296  0.98594260  0.14546237  1
  S2-  S151  1  0.41496357  0.88292361  0.65100202  1
  S2-  S152  1  0.70393119  0.08312020  0.17247867  1
  S2-  S153  1  0.86069078  0.10780263  0.63267736  1
  S2-  S154  1  0.73355135  0.27871234  0.13929205  1
  S2-  S155  1  0.78627496  0.31165511  0.66387910  1
  S2-  S156  1  0.75746533  0.65250030  0.15415685  1
  S2-  S157  1  0.73790369  0.52247579  0.64057935  1
  S2-  S158  1  0.72552853  0.87425210  0.15876269  1
  S2-  S159  1  0.64296074  0.87957045  0.63445565  1
  S2-  S160  1  0.01916167  0.00344990  0.35823988  1
  S2-  S161  1  0.12212243  -0.00185154  0.83908044  1
  S2-  S162  1  0.24137192  0.26699440  0.36180350  1
  S2-  S163  1  0.12747728  0.23334456  0.84736320  1
  S2-  S164  1  0.14660702  0.50644922  0.35310665  1
  S2-  S165  1  0.14486287  0.47226081  0.84280244  1
  S2-  S166  1  0.06701931  0.74499410  0.34792235  1
  S2-  S167  1  0.11083187  0.71738048  0.83995160  1
  S2-  S168  1  0.42471890  -0.03006217  0.35001347  1
  S2-  S169  1  0.38326475  -0.00104851  0.84531631  1
  S2-  S170  1  0.46583393  0.26815600  0.34694347  1
  S2-  S171  1  0.35914856  0.25508107  0.84439537  1
  S2-  S172  1  0.41086495  0.49413789  0.34108393  1
  S2-  S173  1  0.37347167  0.52589311  0.84336938  1
  S2-  S174  1  0.32864827  0.72004952  0.35478845  1
  S2-  S175  1  0.31624116  0.75916004  0.82419344  1
  S2-  S176  1  0.62329781  -0.14113116  0.34832913  1
  S2-  S177  1  0.63822283  0.00340632  0.85153751  1
  S2-  S178  1  0.61634839  0.12402480  0.34236796  1
  S2-  S179  1  0.71506476  0.24159170  0.86219264  1
  S2-  S180  1  0.64092433  0.39045941  0.34602364  1
  S2-  S181  1  0.63201171  0.47924641  0.84878485  1
  S2-  S182  1  0.62875864  0.63069403  0.35279288  1
  S2-  S183  1  0.51471692  0.75049018  0.85491015  1
  S2-  S184  1  0.77632060  0.00494760  0.34736597  1
  S2-  S185  1  0.88304697  0.08931752  0.86029709  1
  S2-  S186  1  0.87624939  0.21963426  0.34604264  1
  S2-  S187  1  0.92098558  0.32306123  0.84377400  1
  S2-  S188  1  0.88740733  0.59730979  0.35830051  1
  S2-  S189  1  0.86184949  0.52613979  0.84126353  1
  S2-  S190  1  0.87038571  0.82392245  0.33510269  1
  S2-  S191  1  0.76177726  0.74298962  0.86200272  1
  S2-  S192  1  0.00525902  0.13406550  0.45681324  1
  S2-  S193  1  -0.00348391  0.12163888  0.95903917  1
  S2-  S194  1  0.00910972  0.37599389  0.44921915  1
  S2-  S195  1  -0.00334182  0.36915159  0.95929354  1
  S2-  S196  1  0.01150311  0.62609236  0.45954832  1
  S2-  S197  1  -0.01202417  0.62102558  0.94570566  1
  S2-  S198  1  0.00726471  0.87120473  0.45278450  1
  S2-  S199  1  -0.01540810  0.86928119  0.93643481  1
  S2-  S200  1  0.25495636  0.12276538  0.45016382  1
  S2-  S201  1  0.24250639  0.11862596  0.95480579  1
  S2-  S202  1  0.25487963  0.38356072  0.45949068  1
  S2-  S203  1  0.24064985  0.36985444  0.95894930  1
  S2-  S204  1  0.25643420  0.62628421  0.46226734  1
  S2-  S205  1  0.24389885  0.62250238  0.95016744  1
  S2-  S206  1  0.25548840  0.88162912  0.45560127  1
  S2-  S207  1  0.24608665  0.86981772  0.94906986  1
  S2-  S208  1  0.50245970  0.12990679  0.45205772  1
  S2-  S209  1  0.49139105  0.11984526  0.95819895  1
  S2-  S210  1  0.50062703  0.38192764  0.44943119  1
  S2-  S211  1  0.49397827  0.36767920  0.94750348  1
  S2-  S212  1  0.50002180  0.62838553  0.44925722  1
  S2-  S213  1  0.49913634  0.61476804  0.95292858  1
  S2-  S214  1  0.50932834  0.88080529  0.45808331  1
  S2-  S215  1  0.49569599  0.87563814  0.95815562  1
  S2-  S216  1  0.75280824  0.13356722  0.45118115  1
  S2-  S217  1  0.73846795  0.11947704  0.96567918  1
  S2-  S218  1  0.75558433  0.37623247  0.45343446  1
  S2-  S219  1  0.74199899  0.36766295  0.95665814  1
  S2-  S220  1  0.75758634  0.62668850  0.45665998  1
  S2-  S221  1  0.74405187  0.61228851  0.95428027  1
  S2-  S222  1  0.75943136  0.87278656  0.45154428  1
  S2-  S223  1  0.74238088  0.87542192  0.95678117  1
  S2-  S224  1  0.10941809  -0.00665685  0.04158234  1
  S2-  S225  1  0.12794253  0.00574012  0.54347194  1
  S2-  S226  1  0.11657800  0.24383219  0.04968519  1
  S2-  S227  1  0.13233728  0.25294439  0.54425172  1
  S2-  S228  1  0.11717523  0.49982663  0.04311587  1
  S2-  S229  1  0.13100047  0.50430740  0.55448186  1
  S2-  S230  1  0.10735287  0.75020343  0.04121564  1
  S2-  S231  1  0.12977177  0.75482745  0.54592624  1
  S2-  S232  1  0.36331394  -0.00816008  0.04715711  1
  S2-  S233  1  0.38319161  0.00258871  0.54567921  1
  S2-  S234  1  0.36418407  0.24290483  0.04866028  1
  S2-  S235  1  0.37701593  0.25241757  0.54202847  1
  S2-  S236  1  0.36954651  0.49955046  0.04978516  1
  S2-  S237  1  0.37959368  0.50601699  0.54525705  1
  S2-  S238  1  0.37218824  0.74369304  0.03027200  1
  S2-  S239  1  0.38503921  0.75180085  0.54531190  1
  S2-  S240  1  0.61969908  -0.00242067  0.05114079  1
  S2-  S241  1  0.63083207  0.01078128  0.53857762  1
  S2-  S242  1  0.60664147  0.24860874  0.04508770  1
  S2-  S243  1  0.62943333  0.24963948  0.54793273  1
  S2-  S244  1  0.61314518  0.49327250  0.05157905  1
  S2-  S245  1  0.62594210  0.50526403  0.53612330  1
  S2-  S246  1  0.62277244  0.74543861  0.03750558  1
  S2-  S247  1  0.63113299  0.74824037  0.53761486  1
  S2-  S248  1  0.86260724  -0.00600648  0.05072198  1
  S2-  S249  1  0.87774955  -0.00068815  0.53461561  1
  S2-  S250  1  0.86720855  0.24877826  0.04053320  1
  S2-  S251  1  0.87743369  0.25765878  0.54404025  1
  S2-  S252  1  0.86527179  0.49387661  0.04596474  1
  S2-  S253  1  0.88222341  0.50308086  0.54448962  1
  S2-  S254  1  0.86729284  0.75205793  0.04647769  1
  S2-  S255  1  0.87886844  0.75476777  0.54136985  1
