# generated using pymatgen
data_La6Ce7Pr13Nd19Sm19(BiS2)64
_symmetry_space_group_name_H-M   'P 1'
_cell_length_a   16.05798069
_cell_length_b   16.03913650
_cell_length_c   27.12899197
_cell_angle_alpha   89.81549731
_cell_angle_beta   90.05109355
_cell_angle_gamma   90.08276447
_symmetry_Int_Tables_number   1
_chemical_formula_structural   La6Ce7Pr13Nd19Sm19(BiS2)64
_chemical_formula_sum   'La6 Ce7 Pr13 Nd19 Sm19 Bi64 S128'
_cell_volume   6987.19230135
_cell_formula_units_Z   1
loop_
 _symmetry_equiv_pos_site_id
 _symmetry_equiv_pos_as_xyz
  1  'x, y, z'
loop_
 _atom_type_symbol
 _atom_type_oxidation_number
  La3+  3.0
  Ce3+  3.0
  Pr3+  3.0
  Nd3+  3.0
  Sm3+  3.0
  Bi2+  2.0
  S2-  -2.0
loop_
 _atom_site_type_symbol
 _atom_site_label
 _atom_site_symmetry_multiplicity
 _atom_site_fract_x
 _atom_site_fract_y
 _atom_site_fract_z
 _atom_site_occupancy
  La3+  La0  1  0.36122398  0.49019923  0.93213642  1
  La3+  La1  1  0.10707899  0.49477224  0.41931418  1
  La3+  La2  1  0.60339038  0.24905621  0.41876280  1
  La3+  La3  1  0.73753887  0.61196423  0.57317247  1
  La3+  La4  1  0.73199869  0.86520048  0.07505525  1
  La3+  La5  1  0.61033334  0.50727163  0.42260817  1
  Ce3+  Ce6  1  -0.01543316  0.86730282  0.06459135  1
  Ce3+  Ce7  1  0.36024387  0.24416383  0.93339695  1
  Ce3+  Ce8  1  0.22970619  0.11481447  0.04750484  1
  Ce3+  Ce9  1  0.36016405  0.24626182  0.44010766  1
  Ce3+  Ce10  1  0.60852200  0.74454503  0.45374458  1
  Ce3+  Ce11  1  0.47410278  0.61758422  0.06047172  1
  Ce3+  Ce12  1  0.23252417  0.12381427  0.56051606  1
  Pr3+  Pr13  1  0.48575884  0.61681187  0.57246804  1
  Pr3+  Pr14  1  0.10937467  0.48814069  0.93213018  1
  Pr3+  Pr15  1  0.11201557  0.24384667  0.42533546  1
  Pr3+  Pr16  1  0.11058831  0.74649474  0.44303210  1
  Pr3+  Pr17  1  0.09601373  -0.01298007  0.92258078  1
  Pr3+  Pr18  1  0.85694189  -0.00423668  0.42879450  1
  Pr3+  Pr19  1  -0.02021154  0.87543062  0.58921246  1
  Pr3+  Pr20  1  0.35826258  0.75010457  0.44532845  1
  Pr3+  Pr21  1  0.85435750  0.48644203  0.93641736  1
  Pr3+  Pr22  1  0.23205543  0.87802330  0.58216153  1
  Pr3+  Pr23  1  0.23719266  0.61443665  0.57060231  1
  Pr3+  Pr24  1  0.35758163  -0.01224543  0.93202909  1
  Pr3+  Pr25  1  0.85882713  0.73661585  0.92675711  1
  Nd3+  Nd26  1  0.10848102  -0.01144429  0.44173396  1
  Nd3+  Nd27  1  0.10823822  0.73672681  0.91672729  1
  Nd3+  Nd28  1  0.10715895  0.24489206  0.93139672  1
  Nd3+  Nd29  1  -0.01440290  0.12415143  0.56281082  1
  Nd3+  Nd30  1  -0.01295595  0.61865790  0.56216856  1
  Nd3+  Nd31  1  0.72946797  0.36782864  0.07218356  1
  Nd3+  Nd32  1  0.47305114  0.35726251  0.08710616  1
  Nd3+  Nd33  1  0.60972211  0.74209249  0.93410823  1
  Nd3+  Nd34  1  0.48854168  0.12314528  0.56466275  1
  Nd3+  Nd35  1  0.60411566  0.24154857  0.94816308  1
  Nd3+  Nd36  1  0.60596855  -0.00542762  0.43414508  1
  Nd3+  Nd37  1  0.86177202  0.24897413  0.44107379  1
  Nd3+  Nd38  1  0.72888837  0.61660153  0.06281381  1
  Nd3+  Nd39  1  0.86226017  0.74886361  0.43947337  1
  Nd3+  Nd40  1  -0.01711712  0.61828088  0.05553666  1
  Nd3+  Nd41  1  0.84984653  -0.00946163  0.93378741  1
  Nd3+  Nd42  1  -0.01660096  0.36689661  0.06428045  1
  Nd3+  Nd43  1  0.36427656  0.50390736  0.42901786  1
  Nd3+  Nd44  1  0.36088857  0.74396000  0.90894623  1
  Sm3+  Sm45  1  0.73855588  0.87352351  0.55781130  1
  Sm3+  Sm46  1  0.23373675  0.37308014  0.55335015  1
  Sm3+  Sm47  1  0.23292731  0.36557172  0.06406207  1
  Sm3+  Sm48  1  0.85178731  0.24806551  0.94106945  1
  Sm3+  Sm49  1  0.48807515  0.37090415  0.56070268  1
  Sm3+  Sm50  1  0.61154454  -0.00871105  0.94490741  1
  Sm3+  Sm51  1  0.47876129  0.86404284  0.06376553  1
  Sm3+  Sm52  1  -0.01232914  0.37730525  0.55917837  1
  Sm3+  Sm53  1  0.47920713  0.87810674  0.57436481  1
  Sm3+  Sm54  1  0.73461048  0.12266555  0.55084875  1
  Sm3+  Sm55  1  0.47793711  0.11621242  0.06140679  1
  Sm3+  Sm56  1  0.73444836  0.37271770  0.54892454  1
  Sm3+  Sm57  1  0.35784071  -0.00909164  0.44231925  1
  Sm3+  Sm58  1  0.73251168  0.11774750  0.06561069  1
  Sm3+  Sm59  1  0.85593048  0.50483944  0.42295101  1
  Sm3+  Sm60  1  0.23130479  0.86303864  0.05649801  1
  Sm3+  Sm61  1  0.23251901  0.61712171  0.04899631  1
  Sm3+  Sm62  1  0.60434171  0.49119067  0.95057666  1
  Sm3+  Sm63  1  -0.01904227  0.11740751  0.04903851  1
  Bi2+  Bi64  1  0.03588915  0.07987810  0.32741260  1
  Bi2+  Bi65  1  0.02430500  0.19305099  0.78738103  1
  Bi2+  Bi66  1  0.01939345  0.27046789  0.29436448  1
  Bi2+  Bi67  1  -0.01663572  0.38496912  0.79205514  1
  Bi2+  Bi68  1  -0.00501789  0.60444965  0.28941573  1
  Bi2+  Bi69  1  -0.02522279  0.62993155  0.78193843  1
  Bi2+  Bi70  1  -0.01076365  0.83982366  0.28756334  1
  Bi2+  Bi71  1  0.02179033  0.90224452  0.78578460  1
  Bi2+  Bi72  1  0.23447209  0.09653353  0.33968568  1
  Bi2+  Bi73  1  0.26558984  0.17575025  0.79034303  1
  Bi2+  Bi74  1  0.27489192  0.27460895  0.29924178  1
  Bi2+  Bi75  1  0.25012601  0.37227298  0.78162268  1
  Bi2+  Bi76  1  0.24099966  0.66840191  0.28349328  1
  Bi2+  Bi77  1  0.22828405  0.62523097  0.78004932  1
  Bi2+  Bi78  1  0.23592686  0.88154835  0.29416363  1
  Bi2+  Bi79  1  0.27215219  0.88779042  0.77017375  1
  Bi2+  Bi80  1  0.43791674  0.02072567  0.31666326  1
  Bi2+  Bi81  1  0.45775427  0.15698093  0.82136790  1
  Bi2+  Bi82  1  0.50517774  0.35358743  0.28677254  1
  Bi2+  Bi83  1  0.50165898  0.34613103  0.78574324  1
  Bi2+  Bi84  1  0.48759074  0.63374637  0.29493743  1
  Bi2+  Bi85  1  0.49492162  0.61065827  0.78926743  1
  Bi2+  Bi86  1  0.53684314  0.84592668  0.29256141  1
  Bi2+  Bi87  1  0.54602216  0.98286591  0.82100995  1
  Bi2+  Bi88  1  0.83806592  0.08127180  0.30072969  1
  Bi2+  Bi89  1  0.74541765  0.16285001  0.80686630  1
  Bi2+  Bi90  1  0.76836325  0.35937496  0.27588971  1
  Bi2+  Bi91  1  0.78552587  0.36264679  0.76353838  1
  Bi2+  Bi92  1  0.73779116  0.62632108  0.29105387  1
  Bi2+  Bi93  1  0.71923582  0.61652447  0.79868661  1
  Bi2+  Bi94  1  0.73939267  0.88867493  0.28657766  1
  Bi2+  Bi95  1  0.76451800  0.93827419  0.73724511  1
  Bi2+  Bi96  1  0.14906772  0.05115151  0.22942860  1
  Bi2+  Bi97  1  0.11647008  0.08261288  0.70812722  1
  Bi2+  Bi98  1  0.15547643  0.24893172  0.20870563  1
  Bi2+  Bi99  1  0.12371038  0.25541922  0.64864240  1
  Bi2+  Bi100  1  0.14444965  0.50983519  0.19281642  1
  Bi2+  Bi101  1  0.11373364  0.43222580  0.70438204  1
  Bi2+  Bi102  1  0.12661960  0.77707658  0.21258392  1
  Bi2+  Bi103  1  0.09419926  0.74503694  0.71583726  1
  Bi2+  Bi104  1  0.33580622  -0.02918586  0.20431739  1
  Bi2+  Bi105  1  0.38745680  0.08209918  0.71491794  1
  Bi2+  Bi106  1  0.40033550  0.16095379  0.23283790  1
  Bi2+  Bi107  1  0.37172239  0.27866531  0.70525482  1
  Bi2+  Bi108  1  0.37935788  0.50571092  0.19476697  1
  Bi2+  Bi109  1  0.36573692  0.54586864  0.69456959  1
  Bi2+  Bi110  1  0.40422615  0.75967788  0.22012128  1
  Bi2+  Bi111  1  0.48575636  0.83921626  0.70682983  1
  Bi2+  Bi112  1  0.53633926  -0.00763185  0.20982642  1
  Bi2+  Bi113  1  0.61310612  0.06958642  0.72185871  1
  Bi2+  Bi114  1  0.61097488  0.17028729  0.22252805  1
  Bi2+  Bi115  1  0.65281770  0.26176511  0.69757580  1
  Bi2+  Bi116  1  0.64099326  0.52236580  0.19800813  1
  Bi2+  Bi117  1  0.61792362  0.45551264  0.71664625  1
  Bi2+  Bi118  1  0.67750827  0.76257047  0.21082305  1
  Bi2+  Bi119  1  0.62908154  0.81238520  0.77712493  1
  Bi2+  Bi120  1  0.93758720  -0.01422517  0.21342187  1
  Bi2+  Bi121  1  0.87658051  0.10633710  0.72515176  1
  Bi2+  Bi122  1  0.87378999  0.18432702  0.20557558  1
  Bi2+  Bi123  1  0.93815780  0.28722010  0.68659877  1
  Bi2+  Bi124  1  0.94485893  0.43109236  0.24143878  1
  Bi2+  Bi125  1  0.84872436  0.53555249  0.69891183  1
  Bi2+  Bi126  1  0.90963271  0.72793184  0.20177861  1
  Bi2+  Bi127  1  0.85163362  0.76405204  0.71782023  1
  S2-  S128  1  -0.00912597  0.11815566  0.14781357  1
  S2-  S129  1  -0.02223981  0.03674904  0.64948276  1
  S2-  S130  1  0.04458318  0.36980745  0.15789476  1
  S2-  S131  1  -0.01319407  0.49257727  0.63732704  1
  S2-  S132  1  0.00581862  0.60936348  0.15559514  1
  S2-  S133  1  -0.03053761  0.71847332  0.64670014  1
  S2-  S134  1  0.11442810  0.87563152  0.13260522  1
  S2-  S135  1  0.11293073  0.87703071  0.66067391  1
  S2-  S136  1  0.23252983  0.13801088  0.14528741  1
  S2-  S137  1  0.25059683  0.05040385  0.64931673  1
  S2-  S138  1  0.32573216  0.37516777  0.14754188  1
  S2-  S139  1  0.24688432  0.46653575  0.63708933  1
  S2-  S140  1  0.25710876  0.60694461  0.14807639  1
  S2-  S141  1  0.23585769  0.65928882  0.67322957  1
  S2-  S142  1  0.35173471  0.84454472  0.13417521  1
  S2-  S143  1  0.34347445  0.86153240  0.66605321  1
  S2-  S144  1  0.48470849  0.20438526  0.14705796  1
  S2-  S145  1  0.50408305  0.24965399  0.63622847  1
  S2-  S146  1  0.53058598  0.40525549  0.18414360  1
  S2-  S147  1  0.49347721  0.47701638  0.64215398  1
  S2-  S148  1  0.50261434  0.62639580  0.15917104  1
  S2-  S149  1  0.47882815  0.67884541  0.67237753  1
  S2-  S150  1  0.59529321  0.86596691  0.14168027  1
  S2-  S151  1  0.50264155  1.00662534  0.64339243  1
  S2-  S152  1  0.72834328  0.10058079  0.16459474  1
  S2-  S153  1  0.73680033  0.12695682  0.64972661  1
  S2-  S154  1  0.74657130  0.39475891  0.17062617  1
  S2-  S155  1  0.73892482  0.45837466  0.63579997  1
  S2-  S156  1  0.77057962  0.63051049  0.16033703  1
  S2-  S157  1  0.73635636  0.66260111  0.67451624  1
  S2-  S158  1  0.86859918  0.87141896  0.14249735  1
  S2-  S159  1  0.82294324  0.88519160  0.64333945  1
  S2-  S160  1  0.10983626  -0.13163817  0.36531007  1
  S2-  S161  1  0.16964550  -0.02898393  0.82546398  1
  S2-  S162  1  0.14316801  0.35710447  0.34809672  1
  S2-  S163  1  0.12238190  0.36402343  0.85742329  1
  S2-  S164  1  0.25490721  0.49565600  0.26355246  1
  S2-  S165  1  0.10740204  0.58877115  0.84515808  1
  S2-  S166  1  0.12126467  0.63865913  0.35643949  1
  S2-  S167  1  0.22837781  0.76048322  0.83875826  1
  S2-  S168  1  0.35917823  -0.12563779  0.36741733  1
  S2-  S169  1  0.37712844  -0.09141104  0.84144543  1
  S2-  S170  1  0.45183890  0.25083742  0.35655432  1
  S2-  S171  1  0.37460681  0.36373486  0.85875998  1
  S2-  S172  1  0.48320545  0.47869538  0.34858328  1
  S2-  S173  1  0.36133098  0.59276660  0.84524224  1
  S2-  S174  1  0.35611695  0.64463169  0.36003975  1
  S2-  S175  1  0.50639905  0.73928377  0.84875957  1
  S2-  S176  1  0.69156728  0.01965955  0.34655090  1
  S2-  S177  1  0.71660016  0.01223706  0.86391437  1
  S2-  S178  1  0.64284866  0.25927280  0.31587995  1
  S2-  S179  1  0.62123523  0.25793131  0.84862214  1
  S2-  S180  1  0.73241933  0.47911635  0.34516061  1
  S2-  S181  1  0.60429561  0.51529864  0.85176696  1
  S2-  S182  1  0.61237581  0.67118567  0.36346508  1
  S2-  S183  1  0.73074381  0.75812839  0.85768977  1
  S2-  S184  1  0.86620013  -0.13414233  0.35915187  1
  S2-  S185  1  0.95779541  -0.00798311  0.85246856  1
  S2-  S186  1  0.85375311  0.25373443  0.34092403  1
  S2-  S187  1  0.84859527  0.35696412  0.86385559  1
  S2-  S188  1  0.96726428  0.47152355  0.34649463  1
  S2-  S189  1  0.85211336  0.58686659  0.85160226  1
  S2-  S190  1  0.86071439  0.64872066  0.35396896  1
  S2-  S191  1  0.97939163  0.77011742  0.84731530  1
  S2-  S192  1  -0.01569831  0.12140522  0.45344015  1
  S2-  S193  1  -0.02400559  0.12638359  0.94525811  1
  S2-  S194  1  -0.01353633  0.36793097  0.45365819  1
  S2-  S195  1  -0.01763642  0.36401934  0.95888029  1
  S2-  S196  1  -0.01602929  0.62002452  0.45616195  1
  S2-  S197  1  -0.01600651  0.61164721  0.95109417  1
  S2-  S198  1  -0.01751289  0.87245870  0.46732322  1
  S2-  S199  1  -0.02353589  0.86505103  0.95685875  1
  S2-  S200  1  0.23578908  0.11874392  0.45515913  1
  S2-  S201  1  0.23010631  0.11641227  0.93967867  1
  S2-  S202  1  0.24141355  0.37403888  0.45024217  1
  S2-  S203  1  0.23454004  0.36297315  0.95964867  1
  S2-  S204  1  0.23608185  0.62019322  0.46158940  1
  S2-  S205  1  0.23390740  0.61668226  0.94679263  1
  S2-  S206  1  0.23467547  0.87426551  0.47114110  1
  S2-  S207  1  0.22800328  0.86677426  0.94956407  1
  S2-  S208  1  0.48296453  0.11657905  0.45489150  1
  S2-  S209  1  0.48268647  0.11377787  0.95638091  1
  S2-  S210  1  0.48519572  0.37323479  0.45569716  1
  S2-  S211  1  0.48517899  0.36507424  0.96510844  1
  S2-  S212  1  0.48401436  0.62439982  0.46431802  1
  S2-  S213  1  0.48427420  0.61636654  0.95520960  1
  S2-  S214  1  0.48796162  0.87391616  0.46721368  1
  S2-  S215  1  0.48680274  0.86976813  0.95747994  1
  S2-  S216  1  0.73246266  0.12547409  0.44711329  1
  S2-  S217  1  0.73337374  0.12409662  0.96201129  1
  S2-  S218  1  0.73465282  0.37039451  0.44607502  1
  S2-  S219  1  0.72596856  0.36686739  0.96466342  1
  S2-  S220  1  0.73622973  0.62371906  0.46247250  1
  S2-  S221  1  0.72938998  0.61156551  0.95809849  1
  S2-  S222  1  0.72972937  0.87193647  0.45449441  1
  S2-  S223  1  0.73058193  0.86796872  0.96456716  1
  S2-  S224  1  0.10365750  -0.00333153  0.03138901  1
  S2-  S225  1  0.10804476  -0.00005389  0.54739278  1
  S2-  S226  1  0.10610165  0.24287032  0.04072727  1
  S2-  S227  1  0.10788499  0.24875562  0.53350041  1
  S2-  S228  1  0.10968429  0.48985787  0.04345747  1
  S2-  S229  1  0.11126504  0.49335726  0.53505355  1
  S2-  S230  1  0.10901535  0.73736933  0.03629401  1
  S2-  S231  1  0.11484835  0.74311446  0.55176207  1
  S2-  S232  1  0.35733066  -0.00717867  0.04093914  1
  S2-  S233  1  0.36132569  0.00024653  0.54585079  1
  S2-  S234  1  0.35516505  0.23991553  0.04154723  1
  S2-  S235  1  0.35654563  0.24877654  0.54593582  1
  S2-  S236  1  0.35519044  0.48946346  0.04297515  1
  S2-  S237  1  0.36354713  0.49249008  0.53750771  1
  S2-  S238  1  0.35441064  0.74009572  0.03256332  1
  S2-  S239  1  0.36265659  0.74847832  0.55466418  1
  S2-  S240  1  0.60582525  -0.00080988  0.04876154  1
  S2-  S241  1  0.61430242  -0.00248025  0.54238053  1
  S2-  S242  1  0.60799477  0.24087996  0.05433642  1
  S2-  S243  1  0.61542199  0.24753645  0.53255238  1
  S2-  S244  1  0.60126657  0.48828439  0.05643951  1
  S2-  S245  1  0.61052366  0.49466910  0.53680891  1
  S2-  S246  1  0.60356060  0.73767566  0.04446602  1
  S2-  S247  1  0.61083292  0.75328704  0.56080069  1
  S2-  S248  1  0.85559384  -0.00101436  0.04301588  1
  S2-  S249  1  0.85740752  0.00278120  0.53826765  1
  S2-  S250  1  0.85559201  0.24374913  0.04936714  1
  S2-  S251  1  0.85931081  0.24943218  0.54764483  1
  S2-  S252  1  0.85653191  0.48982367  0.05050689  1
  S2-  S253  1  0.86199069  0.49176395  0.53268144  1
  S2-  S254  1  0.85560938  0.73670851  0.04219606  1
  S2-  S255  1  0.85427247  0.74401265  0.54601123  1
