# generated using pymatgen
data_La6Ce7Pr13Nd19Sm19(BiS2)64
_symmetry_space_group_name_H-M   'P 1'
_cell_length_a   15.99436379
_cell_length_b   15.99248691
_cell_length_c   27.57803332
_cell_angle_alpha   90.07400799
_cell_angle_beta   90.62666716
_cell_angle_gamma   90.09838230
_symmetry_Int_Tables_number   1
_chemical_formula_structural   La6Ce7Pr13Nd19Sm19(BiS2)64
_chemical_formula_sum   'La6 Ce7 Pr13 Nd19 Sm19 Bi64 S128'
_cell_volume   7053.73719746
_cell_formula_units_Z   1
loop_
 _symmetry_equiv_pos_site_id
 _symmetry_equiv_pos_as_xyz
  1  'x, y, z'
loop_
 _atom_type_symbol
 _atom_type_oxidation_number
  La3+  3.0
  Ce3+  3.0
  Pr3+  3.0
  Nd3+  3.0
  Sm3+  3.0
  Bi2+  2.0
  S2-  -2.0
loop_
 _atom_site_type_symbol
 _atom_site_label
 _atom_site_symmetry_multiplicity
 _atom_site_fract_x
 _atom_site_fract_y
 _atom_site_fract_z
 _atom_site_occupancy
  La3+  La0  1  0.61551735  0.00370911  0.92001814  1
  La3+  La1  1  0.87666356  0.74528562  0.90368424  1
  La3+  La2  1  0.45695753  0.36371153  0.11956286  1
  La3+  La3  1  0.24862743  0.12576825  0.06082210  1
  La3+  La4  1  -0.00559417  0.61819716  0.06687039  1
  La3+  La5  1  0.50157601  0.35359341  0.60918983  1
  Ce3+  Ce6  1  0.25753137  0.14684704  0.55885385  1
  Ce3+  Ce7  1  0.86703294  0.49255747  0.93559856  1
  Ce3+  Ce8  1  0.36723312  0.74761175  0.94740310  1
  Ce3+  Ce9  1  -0.00734089  0.37028393  0.05960792  1
  Ce3+  Ce10  1  0.49911095  0.87671137  0.06050015  1
  Ce3+  Ce11  1  0.62670817  0.76660954  0.44094977  1
  Ce3+  Ce12  1  0.87139427  0.01287231  0.44332761  1
  Pr3+  Pr13  1  0.49579836  0.61601519  0.06625455  1
  Pr3+  Pr14  1  0.61936828  0.74990970  0.94198127  1
  Pr3+  Pr15  1  0.24694674  0.64094033  0.56596132  1
  Pr3+  Pr16  1  0.11830009  0.77473780  0.40996134  1
  Pr3+  Pr17  1  0.61861738  0.50038997  0.93760958  1
  Pr3+  Pr18  1  0.37049788  0.00700737  0.43585984  1
  Pr3+  Pr19  1  0.36057853  -0.00257544  0.93245029  1
  Pr3+  Pr20  1  0.74899337  0.64217425  0.56698839  1
  Pr3+  Pr21  1  0.24878485  0.88798743  0.56930257  1
  Pr3+  Pr22  1  0.74619006  0.87464644  0.05944629  1
  Pr3+  Pr23  1  -0.00622351  0.86849245  0.11228453  1
  Pr3+  Pr24  1  -0.00498028  0.64308072  0.55697073  1
  Pr3+  Pr25  1  0.37337146  0.27587223  0.42089352  1
  Nd3+  Nd26  1  0.86463412  0.26581854  0.42638723  1
  Nd3+  Nd27  1  0.50064314  0.88317511  0.56901008  1
  Nd3+  Nd28  1  -0.00295127  0.38688867  0.55587850  1
  Nd3+  Nd29  1  0.86420383  0.25128310  0.93332997  1
  Nd3+  Nd30  1  0.11644114  0.24943839  0.93003967  1
  Nd3+  Nd31  1  0.12256563  0.51839488  0.44218719  1
  Nd3+  Nd32  1  0.11375835  0.49699213  0.92938542  1
  Nd3+  Nd33  1  0.86694038  0.76072841  0.42499433  1
  Nd3+  Nd34  1  0.74335889  0.12199930  0.05544620  1
  Nd3+  Nd35  1  0.73610160  0.37245748  0.06845838  1
  Nd3+  Nd36  1  0.25427838  0.39598532  0.56533910  1
  Nd3+  Nd37  1  0.37206349  0.52449507  0.43680433  1
  Nd3+  Nd38  1  0.12614146  0.26430530  0.43431253  1
  Nd3+  Nd39  1  0.62171435  0.51580726  0.44579759  1
  Nd3+  Nd40  1  0.75737298  0.89203203  0.57668950  1
  Nd3+  Nd41  1  0.36751167  0.50871549  0.92376487  1
  Nd3+  Nd42  1  0.49877936  0.63423641  0.56798708  1
  Nd3+  Nd43  1  0.24641478  0.61664212  0.06230058  1
  Nd3+  Nd44  1  -0.00096291  0.89068888  0.55959324  1
  Sm3+  Sm45  1  0.74543078  0.14039348  0.56399010  1
  Sm3+  Sm46  1  0.37146340  0.76844102  0.43727937  1
  Sm3+  Sm47  1  0.49950922  0.13793708  0.54633213  1
  Sm3+  Sm48  1  0.36836984  0.24937534  0.93777074  1
  Sm3+  Sm49  1  0.86754974  -0.00420834  0.92963762  1
  Sm3+  Sm50  1  0.10948315  -0.00664230  0.93536432  1
  Sm3+  Sm51  1  0.23998465  0.87239732  0.06109099  1
  Sm3+  Sm52  1  0.62625478  0.01098505  0.44485560  1
  Sm3+  Sm53  1  0.61218785  0.25110548  0.94600085  1
  Sm3+  Sm54  1  0.61835331  0.26579235  0.43153086  1
  Sm3+  Sm55  1  0.00002468  0.14431661  0.55560028  1
  Sm3+  Sm56  1  0.12191946  0.01457428  0.44686975  1
  Sm3+  Sm57  1  -0.00737898  0.11707450  0.05246300  1
  Sm3+  Sm58  1  0.75035354  0.62583894  0.05372573  1
  Sm3+  Sm59  1  0.24403872  0.37377145  0.04501704  1
  Sm3+  Sm60  1  0.87117890  0.51286016  0.43510606  1
  Sm3+  Sm61  1  0.49897001  0.12221990  0.06000583  1
  Sm3+  Sm62  1  0.74627585  0.39403843  0.56405534  1
  Sm3+  Sm63  1  0.11188454  0.74524138  0.94440679  1
  Bi2+  Bi64  1  0.00785214  0.20046599  0.32495816  1
  Bi2+  Bi65  1  0.06976764  0.15831245  0.81072050  1
  Bi2+  Bi66  1  -0.00167114  0.38926166  0.28433850  1
  Bi2+  Bi67  1  -0.02426535  0.38971285  0.78846326  1
  Bi2+  Bi68  1  0.00605427  0.63899727  0.30112969  1
  Bi2+  Bi69  1  0.02809453  0.61560811  0.79325865  1
  Bi2+  Bi70  1  -0.01720715  0.94442652  0.30089594  1
  Bi2+  Bi71  1  0.14653854  0.83264952  0.78664124  1
  Bi2+  Bi72  1  0.18010243  0.09249009  0.31956183  1
  Bi2+  Bi73  1  0.26074642  0.10020365  0.79037515  1
  Bi2+  Bi74  1  0.18117481  0.30625460  0.26493786  1
  Bi2+  Bi75  1  0.22076471  0.30141204  0.78386707  1
  Bi2+  Bi76  1  0.25453842  0.57328819  0.30654053  1
  Bi2+  Bi77  1  0.21120027  0.65479426  0.75656699  1
  Bi2+  Bi78  1  0.29170740  0.93361865  0.26394034  1
  Bi2+  Bi79  1  0.35651981  0.88591002  0.80939493  1
  Bi2+  Bi80  1  0.43114825  0.06752197  0.27128205  1
  Bi2+  Bi81  1  0.55398403  0.09467904  0.78405836  1
  Bi2+  Bi82  1  0.50089437  0.41298215  0.31245868  1
  Bi2+  Bi83  1  0.49924382  0.33667608  0.81786820  1
  Bi2+  Bi84  1  0.49482176  0.65448234  0.28747538  1
  Bi2+  Bi85  1  0.50922677  0.57615832  0.80998538  1
  Bi2+  Bi86  1  0.52102340  0.85109571  0.31635640  1
  Bi2+  Bi87  1  0.58473630  0.84659497  0.78823824  1
  Bi2+  Bi88  1  0.82565419  0.17376963  0.27196627  1
  Bi2+  Bi89  1  0.87062907  0.19310189  0.80507272  1
  Bi2+  Bi90  1  0.73077842  0.37344380  0.29886783  1
  Bi2+  Bi91  1  0.73646408  0.30698958  0.74563358  1
  Bi2+  Bi92  1  0.73210808  0.64260299  0.29086125  1
  Bi2+  Bi93  1  0.75863193  0.63823515  0.78437942  1
  Bi2+  Bi94  1  0.72619601  0.90744757  0.29111191  1
  Bi2+  Bi95  1  0.75903944  0.94046896  0.76494488  1
  Bi2+  Bi96  1  0.07630077  0.12205260  0.22330406  1
  Bi2+  Bi97  1  0.15935414  -0.02439228  0.70683698  1
  Bi2+  Bi98  1  0.05346240  0.30374094  0.17767491  1
  Bi2+  Bi99  1  0.11650209  0.22187196  0.69505302  1
  Bi2+  Bi100  1  0.09375805  0.54706426  0.21280805  1
  Bi2+  Bi101  1  0.12237325  0.41833455  0.70645447  1
  Bi2+  Bi102  1  0.13822777  0.75912162  0.21382071  1
  Bi2+  Bi103  1  0.09602861  0.79625078  0.67527997  1
  Bi2+  Bi104  1  0.40476581  -0.03814649  0.17089644  1
  Bi2+  Bi105  1  0.34700882  -0.10119499  0.69329265  1
  Bi2+  Bi106  1  0.32765979  0.20366343  0.21247038  1
  Bi2+  Bi107  1  0.40143885  0.10000236  0.70679087  1
  Bi2+  Bi108  1  0.33625010  0.49722233  0.20757012  1
  Bi2+  Bi109  1  0.35961521  0.46083343  0.70593165  1
  Bi2+  Bi110  1  0.39686402  0.78232434  0.21712396  1
  Bi2+  Bi111  1  0.39800217  0.71513855  0.75944170  1
  Bi2+  Bi112  1  0.58837177  -0.00257044  0.21292975  1
  Bi2+  Bi113  1  0.54233145  -0.04661069  0.69334785  1
  Bi2+  Bi114  1  0.66976906  0.24966105  0.21455678  1
  Bi2+  Bi115  1  0.66947658  0.13761659  0.69733226  1
  Bi2+  Bi116  1  0.66106184  0.52773035  0.20548683  1
  Bi2+  Bi117  1  0.62696012  0.47128502  0.70754688  1
  Bi2+  Bi118  1  0.60116064  0.77161927  0.21691895  1
  Bi2+  Bi119  1  0.62388431  0.71467782  0.70861036  1
  Bi2+  Bi120  1  0.82966397  0.05418338  0.18247866  1
  Bi2+  Bi121  1  0.95008540  0.02058220  0.76381538  1
  Bi2+  Bi122  1  0.85405043  0.27817842  0.16921425  1
  Bi2+  Bi123  1  0.90162836  0.25302863  0.69467130  1
  Bi2+  Bi124  1  0.84130334  0.46131496  0.21948829  1
  Bi2+  Bi125  1  0.85125554  0.49894862  0.72362159  1
  Bi2+  Bi126  1  0.85940121  0.75273418  0.20988783  1
  Bi2+  Bi127  1  0.89065953  0.75828554  0.70609301  1
  S2-  S128  1  -0.01701661  0.04333337  0.14091984  1
  S2-  S129  1  -0.01134379  0.12507288  0.65218004  1
  S2-  S130  1  0.01680366  0.47770583  0.13759151  1
  S2-  S131  1  -0.02842304  0.40628302  0.65301918  1
  S2-  S132  1  -0.00579577  0.70057650  0.15725010  1
  S2-  S133  1  -0.00784720  0.65040014  0.65811530  1
  S2-  S134  1  -0.00262499  0.86290788  0.22050796  1
  S2-  S135  1  -0.07481364  0.88299573  0.64909824  1
  S2-  S136  1  0.21420200  0.12100482  0.15839322  1
  S2-  S137  1  0.24370913  0.11336557  0.65354583  1
  S2-  S138  1  0.28021475  0.38489640  0.14074877  1
  S2-  S139  1  0.33509380  0.33490206  0.64690792  1
  S2-  S140  1  0.22790370  0.62774710  0.16135405  1
  S2-  S141  1  0.23677078  0.52093775  0.64538408  1
  S2-  S142  1  0.16361433  0.87490391  0.14773510  1
  S2-  S143  1  0.25631583  0.76198852  0.64169238  1
  S2-  S144  1  0.44350203  0.18990248  0.14410866  1
  S2-  S145  1  0.51160410  0.17840949  0.64084379  1
  S2-  S146  1  0.43926488  0.36415683  0.22782747  1
  S2-  S147  1  0.49848193  0.35537291  0.72353632  1
  S2-  S148  1  0.46921274  0.53832985  0.15378958  1
  S2-  S149  1  0.49169361  0.52251816  0.65001637  1
  S2-  S150  1  0.61375501  0.88098986  0.13517881  1
  S2-  S151  1  0.50488020  0.75698355  0.64120900  1
  S2-  S152  1  0.66428089  0.10834629  0.14494138  1
  S2-  S153  1  0.75459186  0.03363682  0.64313556  1
  S2-  S154  1  0.63126342  0.37458718  0.14959036  1
  S2-  S155  1  0.67283728  0.33726744  0.64678998  1
  S2-  S156  1  0.75565530  0.63680019  0.15294216  1
  S2-  S157  1  0.76124344  0.52412188  0.64401790  1
  S2-  S158  1  0.82733317  0.88610286  0.15101412  1
  S2-  S159  1  0.74978207  0.76114184  0.64606158  1
  S2-  S160  1  0.12850302  -0.06415565  0.35935441  1
  S2-  S161  1  0.22808451  -0.01680667  0.86124860  1
  S2-  S162  1  0.23501406  0.25292122  0.35533571  1
  S2-  S163  1  0.10801153  0.36682229  0.85468050  1
  S2-  S164  1  0.10698326  0.50412990  0.34392755  1
  S2-  S165  1  0.16304495  0.57526775  0.84317798  1
  S2-  S166  1  0.17756960  0.71893806  0.31642282  1
  S2-  S167  1  0.03912001  0.75596403  0.85246811  1
  S2-  S168  1  0.36591750  -0.11231757  0.36106438  1
  S2-  S169  1  0.47403600  -0.00176065  0.85438770  1
  S2-  S170  1  0.50497930  0.26520952  0.35170444  1
  S2-  S171  1  0.36128380  0.23048112  0.84012473  1
  S2-  S172  1  0.35238802  0.43385541  0.35033334  1
  S2-  S173  1  0.38066416  0.45754691  0.82679308  1
  S2-  S174  1  0.37841051  0.65250792  0.36193199  1
  S2-  S175  1  0.38225081  0.66430715  0.86311475  1
  S2-  S176  1  0.61384607  -0.00534182  0.34723718  1
  S2-  S177  1  0.74806390  0.00266977  0.85195560  1
  S2-  S178  1  0.73272115  0.23202525  0.35889535  1
  S2-  S179  1  0.61132349  0.20406623  0.85173082  1
  S2-  S180  1  0.60811753  0.55216116  0.34713925  1
  S2-  S181  1  0.62418232  0.46112603  0.83910113  1
  S2-  S182  1  0.72638319  0.77562225  0.35944176  1
  S2-  S183  1  0.62458997  0.70246401  0.84609330  1
  S2-  S184  1  0.84157934  -0.00573247  0.34798377  1
  S2-  S185  1  0.98989190  -0.00545141  0.85492907  1
  S2-  S186  1  0.87255322  0.39824030  0.35849758  1
  S2-  S187  1  0.85742841  0.37137839  0.86090439  1
  S2-  S188  1  0.86583103  0.61208813  0.35242736  1
  S2-  S189  1  0.87871071  0.58914471  0.85227284  1
  S2-  S190  1  0.97419726  0.78818314  0.34662348  1
  S2-  S191  1  0.83239489  0.79622642  0.80533419  1
  S2-  S192  1  -0.00306036  0.14108436  0.45188341  1
  S2-  S193  1  -0.00873851  0.12721338  0.95004743  1
  S2-  S194  1  0.00046626  0.38635348  0.45234627  1
  S2-  S195  1  -0.00665368  0.37122655  0.95742129  1
  S2-  S196  1  -0.00161298  0.64255059  0.45125203  1
  S2-  S197  1  -0.00802413  0.62055679  0.95749233  1
  S2-  S198  1  -0.00283591  0.89020603  0.45596453  1
  S2-  S199  1  -0.01092007  0.86873515  0.95025300  1
  S2-  S200  1  0.25046342  0.13548532  0.45545196  1
  S2-  S201  1  0.23957055  0.12790068  0.95254569  1
  S2-  S202  1  0.24460890  0.39269517  0.45781384  1
  S2-  S203  1  0.24844836  0.37610604  0.94368568  1
  S2-  S204  1  0.23893153  0.65013922  0.45443612  1
  S2-  S205  1  0.24091618  0.62381000  0.95749089  1
  S2-  S206  1  0.24280197  0.88817412  0.46241185  1
  S2-  S207  1  0.23768787  0.86636217  0.95781902  1
  S2-  S208  1  0.49793879  0.13192590  0.44479532  1
  S2-  S209  1  0.48842794  0.12569104  0.95620749  1
  S2-  S210  1  0.49823549  0.39555709  0.44728645  1
  S2-  S211  1  0.48969194  0.37546619  0.94177354  1
  S2-  S212  1  0.50141697  0.64585633  0.46086501  1
  S2-  S213  1  0.49462464  0.62311983  0.96082910  1
  S2-  S214  1  0.50084536  0.88995570  0.46205325  1
  S2-  S215  1  0.49139510  0.87174141  0.95416902  1
  S2-  S216  1  0.74605344  0.13610854  0.46093586  1
  S2-  S217  1  0.74168063  0.12836767  0.95175710  1
  S2-  S218  1  0.74490925  0.38932963  0.45836583  1
  S2-  S219  1  0.73712474  0.37047620  0.96104679  1
  S2-  S220  1  0.74932083  0.63714988  0.45977072  1
  S2-  S221  1  0.74852310  0.62677125  0.95083549  1
  S2-  S222  1  0.74924673  0.89149990  0.46365437  1
  S2-  S223  1  0.74923366  0.86743808  0.94841280  1
  S2-  S224  1  0.12100914  -0.00050175  0.03917422  1
  S2-  S225  1  0.12459348  0.01883755  0.55028497  1
  S2-  S226  1  0.11835102  0.24677458  0.03922069  1
  S2-  S227  1  0.12668133  0.26644995  0.54489473  1
  S2-  S228  1  0.12308256  0.49545230  0.03649429  1
  S2-  S229  1  0.11793461  0.51465547  0.54564870  1
  S2-  S230  1  0.12185154  0.74458897  0.04753394  1
  S2-  S231  1  0.12016804  0.76652165  0.54383830  1
  S2-  S232  1  0.36884704  -0.00305092  0.04113239  1
  S2-  S233  1  0.37613951  0.01162478  0.54700426  1
  S2-  S234  1  0.37194047  0.25364410  0.04041942  1
  S2-  S235  1  0.38181459  0.26607163  0.53537571  1
  S2-  S236  1  0.36960694  0.49480962  0.03862047  1
  S2-  S237  1  0.37103931  0.52010584  0.54127633  1
  S2-  S238  1  0.36914712  0.74836714  0.05482906  1
  S2-  S239  1  0.37407242  0.76489721  0.54041721  1
  S2-  S240  1  0.61772670  0.00017902  0.03156555  1
  S2-  S241  1  0.62198108  0.01227230  0.54809474  1
  S2-  S242  1  0.61525868  0.24704784  0.04668644  1
  S2-  S243  1  0.62280718  0.26200896  0.53748106  1
  S2-  S244  1  0.62541617  0.50318048  0.04403399  1
  S2-  S245  1  0.62176116  0.51125179  0.54859323  1
  S2-  S246  1  0.61990849  0.74259123  0.04637635  1
  S2-  S247  1  0.62715919  0.76783772  0.54376458  1
  S2-  S248  1  0.86641527  0.00116908  0.03418255  1
  S2-  S249  1  0.87692802  0.02097626  0.54592846  1
  S2-  S250  1  0.86862894  0.24574517  0.04050422  1
  S2-  S251  1  0.86929574  0.26306440  0.54390108  1
  S2-  S252  1  0.86345961  0.49257048  0.04532477  1
  S2-  S253  1  0.87420470  0.51198327  0.53984415  1
  S2-  S254  1  0.87303681  0.75014156  0.05327600  1
  S2-  S255  1  0.87309826  0.76796727  0.53905881  1
