# generated using pymatgen
data_La6Ce7Pr13Nd19Sm19(BiS2)64
_symmetry_space_group_name_H-M   'P 1'
_cell_length_a   16.02354005
_cell_length_b   16.00034885
_cell_length_c   27.44447704
_cell_angle_alpha   90.18473363
_cell_angle_beta   90.26204833
_cell_angle_gamma   90.02673412
_symmetry_Int_Tables_number   1
_chemical_formula_structural   La6Ce7Pr13Nd19Sm19(BiS2)64
_chemical_formula_sum   'La6 Ce7 Pr13 Nd19 Sm19 Bi64 S128'
_cell_volume   7036.16526541
_cell_formula_units_Z   1
loop_
 _symmetry_equiv_pos_site_id
 _symmetry_equiv_pos_as_xyz
  1  'x, y, z'
loop_
 _atom_type_symbol
 _atom_type_oxidation_number
  La3+  3.0
  Ce3+  3.0
  Pr3+  3.0
  Nd3+  3.0
  Sm3+  3.0
  Bi2+  2.0
  S2-  -2.0
loop_
 _atom_site_type_symbol
 _atom_site_label
 _atom_site_symmetry_multiplicity
 _atom_site_fract_x
 _atom_site_fract_y
 _atom_site_fract_z
 _atom_site_occupancy
  La3+  La0  1  0.77435097  0.62952456  0.61016585  1
  La3+  La1  1  0.24005037  0.36684093  0.06193732  1
  La3+  La2  1  0.86546690  -0.01234540  0.92686432  1
  La3+  La3  1  0.24634877  0.86724361  0.10675464  1
  La3+  La4  1  0.86145925  0.72637760  0.88668684  1
  La3+  La5  1  0.26328447  0.65217725  0.58083910  1
  Ce3+  Ce6  1  0.13721400  0.51013233  0.45120730  1
  Ce3+  Ce7  1  0.38130072  0.26828090  0.44411807  1
  Ce3+  Ce8  1  0.25548151  0.14223963  0.56103662  1
  Ce3+  Ce9  1  0.37917198  0.01369685  0.43677739  1
  Ce3+  Ce10  1  0.61879564  0.73973609  0.93551610  1
  Ce3+  Ce11  1  0.61916189  0.49302017  0.93881155  1
  Ce3+  Ce12  1  0.87022344  0.23525493  0.93951336  1
  Pr3+  Pr13  1  0.63160980  0.51746462  0.43102155  1
  Pr3+  Pr14  1  0.12116683  0.48234648  0.92444019  1
  Pr3+  Pr15  1  -0.00404674  0.11848453  0.07311516  1
  Pr3+  Pr16  1  0.25701439  0.89126113  0.55388812  1
  Pr3+  Pr17  1  0.49447330  0.11506661  0.06732641  1
  Pr3+  Pr18  1  0.11950683  0.23033838  0.93457072  1
  Pr3+  Pr19  1  0.00536054  0.39317879  0.56918918  1
  Pr3+  Pr20  1  0.74520945  0.86337846  0.06311631  1
  Pr3+  Pr21  1  0.36825584  -0.00892030  0.94152486  1
  Pr3+  Pr22  1  0.51160632  0.13882359  0.55379898  1
  Pr3+  Pr23  1  0.51416758  0.39458929  0.56579702  1
  Pr3+  Pr24  1  0.26457639  0.38448153  0.58765654  1
  Pr3+  Pr25  1  0.12956853  0.02175763  0.42475505  1
  Nd3+  Nd26  1  0.00565174  0.89247815  0.56421598  1
  Nd3+  Nd27  1  0.24923963  0.11954995  0.07566287  1
  Nd3+  Nd28  1  0.37041703  0.74904023  0.41435188  1
  Nd3+  Nd29  1  0.13603507  0.27298941  0.43739898  1
  Nd3+  Nd30  1  0.88105828  0.51318863  0.43666489  1
  Nd3+  Nd31  1  0.12707241  0.76341925  0.43563309  1
  Nd3+  Nd32  1  -0.00269201  0.61886582  0.04672530  1
  Nd3+  Nd33  1  0.63474440  0.76499118  0.42883280  1
  Nd3+  Nd34  1  0.23313738  0.61947566  0.06793267  1
  Nd3+  Nd35  1  0.63584140  0.01388243  0.42795594  1
  Nd3+  Nd36  1  0.37067026  0.23828646  0.93283445  1
  Nd3+  Nd37  1  0.61877430  -0.01358117  0.94136094  1
  Nd3+  Nd38  1  0.49580118  0.86217595  0.06718003  1
  Nd3+  Nd39  1  0.88329574  0.27137987  0.43437598  1
  Nd3+  Nd40  1  0.37734676  0.48542216  0.90275574  1
  Nd3+  Nd41  1  0.51245930  0.64539735  0.55730831  1
  Nd3+  Nd42  1  0.49197386  0.36923297  0.05959770  1
  Nd3+  Nd43  1  0.74358060  0.11643485  0.06924967  1
  Nd3+  Nd44  1  0.63245152  0.26330355  0.42740237  1
  Sm3+  Sm45  1  0.75785313  0.39175647  0.55799956  1
  Sm3+  Sm46  1  0.74390769  0.36827661  0.05009996  1
  Sm3+  Sm47  1  0.12078553  0.74048106  0.93429649  1
  Sm3+  Sm48  1  0.75802502  0.13649426  0.56229781  1
  Sm3+  Sm49  1  0.74623295  0.61717235  0.05710364  1
  Sm3+  Sm50  1  0.87065496  0.48961066  0.94021540  1
  Sm3+  Sm51  1  0.37968487  0.51498538  0.45016694  1
  Sm3+  Sm52  1  0.00902208  0.64016725  0.56128827  1
  Sm3+  Sm53  1  0.88610121  0.76642986  0.44377815  1
  Sm3+  Sm54  1  0.75715417  0.88698329  0.56443539  1
  Sm3+  Sm55  1  -0.00232062  0.86699601  0.05602052  1
  Sm3+  Sm56  1  0.36399900  0.73989936  0.94394146  1
  Sm3+  Sm57  1  -0.00389429  0.36401527  0.06157563  1
  Sm3+  Sm58  1  0.48848554  0.61698676  0.05522946  1
  Sm3+  Sm59  1  0.88178975  0.02069075  0.43969952  1
  Sm3+  Sm60  1  0.00726586  0.14293992  0.55449234  1
  Sm3+  Sm61  1  0.61878991  0.23966257  0.94176542  1
  Sm3+  Sm62  1  0.50824596  0.88843421  0.54544939  1
  Sm3+  Sm63  1  0.11985361  -0.01122908  0.94845433  1
  Bi2+  Bi64  1  -0.01407464  0.12730863  0.29184991  1
  Bi2+  Bi65  1  -0.04524443  0.15167451  0.76895772  1
  Bi2+  Bi66  1  0.01381351  0.42514649  0.28410300  1
  Bi2+  Bi67  1  -0.06057046  0.33477447  0.81791408  1
  Bi2+  Bi68  1  -0.00555337  0.62592247  0.29180296  1
  Bi2+  Bi69  1  -0.03868930  0.52444813  0.78941918  1
  Bi2+  Bi70  1  -0.04527996  0.84634750  0.28165135  1
  Bi2+  Bi71  1  0.05972545  0.96068489  0.80282925  1
  Bi2+  Bi72  1  0.23969573  0.10567407  0.29450824  1
  Bi2+  Bi73  1  0.23494618  0.12208365  0.78922500  1
  Bi2+  Bi74  1  0.22290364  0.36548459  0.28597366  1
  Bi2+  Bi75  1  0.21761936  0.41069219  0.79346553  1
  Bi2+  Bi76  1  0.21496193  0.60066528  0.30618638  1
  Bi2+  Bi77  1  0.23958593  0.68028101  0.80226798  1
  Bi2+  Bi78  1  0.28113488  0.88253393  0.29119369  1
  Bi2+  Bi79  1  0.34434640  0.90577347  0.80581692  1
  Bi2+  Bi80  1  0.52089276  0.15866221  0.28276370  1
  Bi2+  Bi81  1  0.49502552  0.08696416  0.79529127  1
  Bi2+  Bi82  1  0.48287415  0.35253448  0.30515584  1
  Bi2+  Bi83  1  0.48947234  0.35830338  0.78860651  1
  Bi2+  Bi84  1  0.55457313  0.59027640  0.26892583  1
  Bi2+  Bi85  1  0.53872297  0.65507808  0.72249435  1
  Bi2+  Bi86  1  0.55668533  0.87927835  0.27554791  1
  Bi2+  Bi87  1  0.54227175  0.90191687  0.81682276  1
  Bi2+  Bi88  1  0.77703989  0.06715820  0.29429161  1
  Bi2+  Bi89  1  0.72910346  0.15866539  0.81052583  1
  Bi2+  Bi90  1  0.76170352  0.41014383  0.28453072  1
  Bi2+  Bi91  1  0.74954853  0.35012063  0.78962754  1
  Bi2+  Bi92  1  0.79631658  0.59396546  0.31536044  1
  Bi2+  Bi93  1  0.67498358  0.58215613  0.79757671  1
  Bi2+  Bi94  1  0.76341237  0.78533513  0.29041091  1
  Bi2+  Bi95  1  0.75565488  0.89150530  0.78811729  1
  Bi2+  Bi96  1  0.07970374  -0.01919114  0.21502195  1
  Bi2+  Bi97  1  0.17005329  0.01716594  0.69640755  1
  Bi2+  Bi98  1  0.11503693  0.25252318  0.19513823  1
  Bi2+  Bi99  1  0.11630056  0.21225898  0.71201701  1
  Bi2+  Bi100  1  0.16884332  0.50449621  0.20666818  1
  Bi2+  Bi101  1  0.07023994  0.51419907  0.69490815  1
  Bi2+  Bi102  1  0.12190999  0.71832331  0.20917185  1
  Bi2+  Bi103  1  0.16187295  0.83486296  0.73803789  1
  Bi2+  Bi104  1  0.45700975  0.00601837  0.21627709  1
  Bi2+  Bi105  1  0.37465030  -0.00109705  0.70137706  1
  Bi2+  Bi106  1  0.38827454  0.24571585  0.21168351  1
  Bi2+  Bi107  1  0.38003569  0.19547785  0.72072572  1
  Bi2+  Bi108  1  0.37400001  0.50544986  0.26289076  1
  Bi2+  Bi109  1  0.33777244  0.53383796  0.70238912  1
  Bi2+  Bi110  1  0.40577797  0.73232499  0.21619535  1
  Bi2+  Bi111  1  0.38189881  0.79758765  0.70586123  1
  Bi2+  Bi112  1  0.68602924  -0.01993951  0.20277942  1
  Bi2+  Bi113  1  0.64840495  0.07610843  0.71051619  1
  Bi2+  Bi114  1  0.66277174  0.23195391  0.21362154  1
  Bi2+  Bi115  1  0.62359783  0.27694816  0.70215651  1
  Bi2+  Bi116  1  0.61925103  0.43998904  0.20399889  1
  Bi2+  Bi117  1  0.56328361  0.46390625  0.69622276  1
  Bi2+  Bi118  1  0.65643331  0.70869088  0.19776845  1
  Bi2+  Bi119  1  0.61434568  0.83871405  0.71386826  1
  Bi2+  Bi120  1  0.87379112  0.03863576  0.17658346  1
  Bi2+  Bi121  1  0.89683396  0.00077715  0.70033955  1
  Bi2+  Bi122  1  0.86042696  0.22519074  0.21899025  1
  Bi2+  Bi123  1  0.80945601  0.20221810  0.68609957  1
  Bi2+  Bi124  1  0.88649980  0.52363332  0.21514756  1
  Bi2+  Bi125  1  0.86286099  0.39359243  0.69886621  1
  Bi2+  Bi126  1  0.84574958  0.83815452  0.18859456  1
  Bi2+  Bi127  1  0.87663515  0.74643178  0.71959260  1
  S2-  S128  1  -0.03417124  0.25698748  0.14220077  1
  S2-  S129  1  0.02032246  0.09493473  0.64826133  1
  S2-  S130  1  0.11126753  0.39569966  0.13625625  1
  S2-  S131  1  0.02467662  0.34515670  0.66503158  1
  S2-  S132  1  0.07839055  0.61441055  0.13561131  1
  S2-  S133  1  -0.05593137  0.62759291  0.65161245  1
  S2-  S134  1  0.07597748  0.85098660  0.14544288  1
  S2-  S135  1  -0.02887950  0.86855410  0.66104773  1
  S2-  S136  1  0.12011991  0.10635572  0.14837699  1
  S2-  S137  1  0.25751369  0.22667066  0.64627120  1
  S2-  S138  1  0.26285011  0.26233520  0.14525078  1
  S2-  S139  1  0.21813005  0.42189462  0.68777150  1
  S2-  S140  1  0.26689170  0.70838287  0.15483263  1
  S2-  S141  1  0.18979763  0.61949326  0.67557591  1
  S2-  S142  1  0.23999539  0.95264282  0.20208265  1
  S2-  S143  1  0.24778467  0.81147869  0.64284761  1
  S2-  S144  1  0.38594965  0.10343189  0.14777599  1
  S2-  S145  1  0.51600980  0.16004334  0.65278672  1
  S2-  S146  1  0.48327264  0.35572759  0.15873509  1
  S2-  S147  1  0.41547758  0.40287765  0.64903175  1
  S2-  S148  1  0.50284557  0.64431924  0.15244699  1
  S2-  S149  1  0.41834537  0.65727018  0.64195489  1
  S2-  S150  1  0.41085944  0.86524418  0.15550307  1
  S2-  S151  1  0.49564707  0.89880938  0.64360182  1
  S2-  S152  1  0.62142017  0.11937985  0.14204800  1
  S2-  S153  1  0.74807294  0.01548756  0.63570042  1
  S2-  S154  1  0.73482767  0.35504630  0.14662378  1
  S2-  S155  1  0.73082639  0.46572670  0.64468051  1
  S2-  S156  1  0.76241503  0.60164151  0.15439025  1
  S2-  S157  1  0.76318834  0.62738284  0.72144306  1
  S2-  S158  1  0.62795980  0.85573628  0.13925589  1
  S2-  S159  1  0.74582177  0.79080550  0.64706630  1
  S2-  S160  1  0.15223005  -0.03863021  0.32849608  1
  S2-  S161  1  0.11541032  0.08604314  0.86551817  1
  S2-  S162  1  0.12654961  0.16698174  0.35592675  1
  S2-  S163  1  0.11800432  0.33968702  0.85441026  1
  S2-  S164  1  0.13769470  0.40943861  0.36946943  1
  S2-  S165  1  0.13056411  0.55489572  0.83080548  1
  S2-  S166  1  0.22530397  0.75367314  0.35258919  1
  S2-  S167  1  0.13069643  0.80919741  0.84298582  1
  S2-  S168  1  0.36332957  0.03083605  0.33922937  1
  S2-  S169  1  0.36128423  0.10671826  0.86347076  1
  S2-  S170  1  0.33740026  0.28192284  0.35054670  1
  S2-  S171  1  0.35630068  0.33782487  0.84574822  1
  S2-  S172  1  0.36428139  0.58269103  0.36055299  1
  S2-  S173  1  0.33554778  0.54396876  0.80855874  1
  S2-  S174  1  0.43167553  0.79164670  0.32015951  1
  S2-  S175  1  0.38168005  0.74698277  0.84563192  1
  S2-  S176  1  0.66051715  -0.11072750  0.35653465  1
  S2-  S177  1  0.71087761  0.00323538  0.85798600  1
  S2-  S178  1  0.64353039  0.13511625  0.35530154  1
  S2-  S179  1  0.57108705  0.23067139  0.84695279  1
  S2-  S180  1  0.63118981  0.38879458  0.35581700  1
  S2-  S181  1  0.53843657  0.49287716  0.85161906  1
  S2-  S182  1  0.62442404  0.63841089  0.35489842  1
  S2-  S183  1  0.69643569  0.73633787  0.84695089  1
  S2-  S184  1  0.91286725  -0.01239684  0.34425342  1
  S2-  S185  1  0.89625386  -0.11284319  0.84306089  1
  S2-  S186  1  0.86176601  0.19094146  0.34556885  1
  S2-  S187  1  0.88038850  0.12924639  0.86218462  1
  S2-  S188  1  0.89639086  0.40063973  0.35880687  1
  S2-  S189  1  0.82629931  0.54992347  0.85180543  1
  S2-  S190  1  0.99532057  0.76030123  0.36576781  1
  S2-  S191  1  0.95173837  0.69455943  0.79915495  1
  S2-  S192  1  0.00465265  0.14475638  0.45295739  1
  S2-  S193  1  -0.00768433  0.11066409  0.96628413  1
  S2-  S194  1  0.00681359  0.39034488  0.46488342  1
  S2-  S195  1  -0.00865863  0.36369375  0.95693137  1
  S2-  S196  1  0.00730666  0.63206372  0.45853103  1
  S2-  S197  1  -0.00944026  0.61985877  0.94122846  1
  S2-  S198  1  0.00734302  0.89791876  0.45733642  1
  S2-  S199  1  -0.00255663  0.86282342  0.95352842  1
  S2-  S200  1  0.25707285  0.14129745  0.45628048  1
  S2-  S201  1  0.24499859  0.11432826  0.96667328  1
  S2-  S202  1  0.26189791  0.38986915  0.47117728  1
  S2-  S203  1  0.25384291  0.36948272  0.95327499  1
  S2-  S204  1  0.25388956  0.63868745  0.46560240  1
  S2-  S205  1  0.24678531  0.61255438  0.94797377  1
  S2-  S206  1  0.25366045  0.89112074  0.44842721  1
  S2-  S207  1  0.24345751  0.86576413  0.94668870  1
  S2-  S208  1  0.50570509  0.14028806  0.44832055  1
  S2-  S209  1  0.49976098  0.11463989  0.95929494  1
  S2-  S210  1  0.50644901  0.39227150  0.45880578  1
  S2-  S211  1  0.49477898  0.36744739  0.95396406  1
  S2-  S212  1  0.50289969  0.64195358  0.45395231  1
  S2-  S213  1  0.48668444  0.61359462  0.95114553  1
  S2-  S214  1  0.50142825  0.88729314  0.44224210  1
  S2-  S215  1  0.49253738  0.86221728  0.95695352  1
  S2-  S216  1  0.75990188  0.14340369  0.45895004  1
  S2-  S217  1  0.74010246  0.11732259  0.96358196  1
  S2-  S218  1  0.75455698  0.38990418  0.45635911  1
  S2-  S219  1  0.74400074  0.36617268  0.94529189  1
  S2-  S220  1  0.76432349  0.64330426  0.44783760  1
  S2-  S221  1  0.74727947  0.61728836  0.95448609  1
  S2-  S222  1  0.76661653  0.89098642  0.45810601  1
  S2-  S223  1  0.74565889  0.85867314  0.95570233  1
  S2-  S224  1  0.12648365  -0.01515669  0.05004137  1
  S2-  S225  1  0.13011675  0.01734778  0.54073164  1
  S2-  S226  1  0.11680826  0.23965077  0.04025471  1
  S2-  S227  1  0.12975046  0.26700427  0.54691785  1
  S2-  S228  1  0.11796361  0.49388966  0.03052444  1
  S2-  S229  1  0.13527762  0.51575575  0.55769873  1
  S2-  S230  1  0.12216205  0.74549400  0.03709667  1
  S2-  S231  1  0.12591243  0.76560530  0.54414761  1
  S2-  S232  1  0.36653817  -0.01740730  0.04795046  1
  S2-  S233  1  0.38300218  0.01595705  0.54402168  1
  S2-  S234  1  0.37456897  0.24263371  0.04015645  1
  S2-  S235  1  0.38771123  0.26483855  0.54827563  1
  S2-  S236  1  0.36591628  0.49630293  0.06438167  1
  S2-  S237  1  0.38339202  0.51834943  0.55100318  1
  S2-  S238  1  0.36470832  0.74027139  0.04671281  1
  S2-  S239  1  0.38405617  0.76939710  0.53513389  1
  S2-  S240  1  0.61965755  -0.01061543  0.04408098  1
  S2-  S241  1  0.63285928  0.01223357  0.53485376  1
  S2-  S242  1  0.61963243  0.24691114  0.04471213  1
  S2-  S243  1  0.63722718  0.26513830  0.54428420  1
  S2-  S244  1  0.61922693  0.49520949  0.04595091  1
  S2-  S245  1  0.63691759  0.52281235  0.54222360  1
  S2-  S246  1  0.61872075  0.73399273  0.04031502  1
  S2-  S247  1  0.63277134  0.76906574  0.53792735  1
  S2-  S248  1  0.86925381  -0.01049262  0.04695331  1
  S2-  S249  1  0.88411447  0.01722029  0.54351235  1
  S2-  S250  1  0.86275010  0.24276245  0.04325929  1
  S2-  S251  1  0.87983312  0.26431959  0.54771729  1
  S2-  S252  1  0.87126621  0.49104360  0.04571341  1
  S2-  S253  1  0.87927488  0.51763993  0.54604343  1
  S2-  S254  1  0.87325981  0.74000508  0.05612726  1
  S2-  S255  1  0.88302292  0.76172516  0.54691531  1
