# generated using pymatgen
data_La6Ce7Pr13Nd19Sm19(BiS2)64
_symmetry_space_group_name_H-M   'P 1'
_cell_length_a   16.07906398
_cell_length_b   16.11456322
_cell_length_c   27.19695729
_cell_angle_alpha   89.82584252
_cell_angle_beta   89.67624657
_cell_angle_gamma   89.86814869
_symmetry_Int_Tables_number   1
_chemical_formula_structural   La6Ce7Pr13Nd19Sm19(BiS2)64
_chemical_formula_sum   'La6 Ce7 Pr13 Nd19 Sm19 Bi64 S128'
_cell_volume   7046.76110622
_cell_formula_units_Z   1
loop_
 _symmetry_equiv_pos_site_id
 _symmetry_equiv_pos_as_xyz
  1  'x, y, z'
loop_
 _atom_type_symbol
 _atom_type_oxidation_number
  La3+  3.0
  Ce3+  3.0
  Pr3+  3.0
  Nd3+  3.0
  Sm3+  3.0
  Bi2+  2.0
  S2-  -2.0
loop_
 _atom_site_type_symbol
 _atom_site_label
 _atom_site_symmetry_multiplicity
 _atom_site_fract_x
 _atom_site_fract_y
 _atom_site_fract_z
 _atom_site_occupancy
  La3+  La0  1  0.62845531  0.24183834  0.89532426  1
  La3+  La1  1  0.48761009  0.60591989  0.58197772  1
  La3+  La2  1  0.63914793  0.50223671  0.90891622  1
  La3+  La3  1  0.88904611  0.50709302  0.92321120  1
  La3+  La4  1  0.75342490  0.12979646  0.10893769  1
  La3+  La5  1  0.87348159  0.24803457  0.40596271  1
  Ce3+  Ce6  1  0.74920508  0.86772485  0.55861075  1
  Ce3+  Ce7  1  0.25427589  0.37312196  0.06334951  1
  Ce3+  Ce8  1  -0.00031454  0.37331764  0.05761388  1
  Ce3+  Ce9  1  0.62166079  0.49206985  0.44887649  1
  Ce3+  Ce10  1  -0.00553359  0.12241233  0.54834362  1
  Ce3+  Ce11  1  0.12852472  0.00557980  0.94362619  1
  Ce3+  Ce12  1  0.12796246  0.50295795  0.94387770  1
  Pr3+  Pr13  1  0.37902094  -0.00939243  0.43444625  1
  Pr3+  Pr14  1  0.37739956  0.25213715  0.93610473  1
  Pr3+  Pr15  1  0.87214045  -0.00748284  0.42799304  1
  Pr3+  Pr16  1  0.48756679  0.35853405  0.57064392  1
  Pr3+  Pr17  1  0.24432926  0.86991243  0.55677932  1
  Pr3+  Pr18  1  0.12503844  -0.00755714  0.42680083  1
  Pr3+  Pr19  1  -0.00000562  0.62429725  0.06704337  1
  Pr3+  Pr20  1  0.12504938  0.24241497  0.42215463  1
  Pr3+  Pr21  1  0.87016552  0.50221786  0.43131347  1
  Pr3+  Pr22  1  0.12415383  0.49486306  0.43384475  1
  Pr3+  Pr23  1  0.49379233  0.87023944  0.57513877  1
  Pr3+  Pr24  1  0.50988898  0.37217985  0.05325480  1
  Pr3+  Pr25  1  0.38266583  0.50007988  0.93805397  1
  Nd3+  Nd26  1  0.50668415  0.87535788  0.05938506  1
  Nd3+  Nd27  1  0.38093301  0.50271935  0.42166412  1
  Nd3+  Nd28  1  0.25023092  0.36716464  0.54183193  1
  Nd3+  Nd29  1  0.75255478  0.87237945  0.06972961  1
  Nd3+  Nd30  1  -0.00474065  0.86624115  0.55735420  1
  Nd3+  Nd31  1  0.38342284  0.00378318  0.94371608  1
  Nd3+  Nd32  1  0.13099559  0.75395968  0.94574503  1
  Nd3+  Nd33  1  0.13125669  0.24729772  0.93220547  1
  Nd3+  Nd34  1  0.12393451  0.74381574  0.44264073  1
  Nd3+  Nd35  1  0.25405504  0.12496587  0.06558360  1
  Nd3+  Nd36  1  0.86991197  0.25133430  0.93992060  1
  Nd3+  Nd37  1  0.87926814  0.75285237  0.94023492  1
  Nd3+  Nd38  1  0.50600211  0.62369760  0.05772607  1
  Nd3+  Nd39  1  0.24466713  0.12111713  0.55487365  1
  Nd3+  Nd40  1  0.75048150  0.12180939  0.55553307  1
  Nd3+  Nd41  1  0.38404583  0.23540894  0.42177377  1
  Nd3+  Nd42  1  0.25305022  0.62301772  0.06648821  1
  Nd3+  Nd43  1  0.63111240  0.74993790  0.93155477  1
  Nd3+  Nd44  1  0.63289126  0.00144389  0.94431482  1
  Sm3+  Sm45  1  0.87049959  0.74321899  0.43984091  1
  Sm3+  Sm46  1  0.75518764  0.36942500  0.57279735  1
  Sm3+  Sm47  1  0.50870000  0.12755507  0.05988040  1
  Sm3+  Sm48  1  0.25317175  0.87754183  0.05847819  1
  Sm3+  Sm49  1  0.87281864  0.00501523  0.95178041  1
  Sm3+  Sm50  1  -0.00494758  0.61377020  0.55857382  1
  Sm3+  Sm51  1  0.75271972  0.62041936  0.05807195  1
  Sm3+  Sm52  1  0.00176386  0.87519607  0.05790340  1
  Sm3+  Sm53  1  0.49475618  0.11520947  0.56715938  1
  Sm3+  Sm54  1  0.24748482  0.61441659  0.55711862  1
  Sm3+  Sm55  1  0.74520581  0.61729525  0.56413728  1
  Sm3+  Sm56  1  0.62393230  -0.00556634  0.44747090  1
  Sm3+  Sm57  1  0.38022325  0.75054876  0.94856451  1
  Sm3+  Sm58  1  0.62012781  0.74302680  0.45191945  1
  Sm3+  Sm59  1  0.75346404  0.37847470  0.05883745  1
  Sm3+  Sm60  1  -0.00509705  0.36687670  0.55413423  1
  Sm3+  Sm61  1  0.37944551  0.74359780  0.44370420  1
  Sm3+  Sm62  1  -0.00262112  0.12598357  0.06567381  1
  Sm3+  Sm63  1  0.62393290  0.24794636  0.44281658  1
  Bi2+  Bi64  1  0.00585946  0.08016701  0.27907292  1
  Bi2+  Bi65  1  -0.00094017  0.17865803  0.79281715  1
  Bi2+  Bi66  1  0.00277105  0.42771107  0.28030663  1
  Bi2+  Bi67  1  0.00811911  0.37259556  0.78513199  1
  Bi2+  Bi68  1  0.00102494  0.68963221  0.29199643  1
  Bi2+  Bi69  1  0.02649688  0.63415248  0.79464070  1
  Bi2+  Bi70  1  0.01135041  0.88965273  0.31758000  1
  Bi2+  Bi71  1  0.00692240  0.83686318  0.80248250  1
  Bi2+  Bi72  1  0.26409899  0.12441548  0.28631327  1
  Bi2+  Bi73  1  0.24271542  0.13877645  0.79472363  1
  Bi2+  Bi74  1  0.24146644  0.36924868  0.28241819  1
  Bi2+  Bi75  1  0.20937460  0.36878833  0.77797538  1
  Bi2+  Bi76  1  0.27860891  0.74374159  0.28583269  1
  Bi2+  Bi77  1  0.21940324  0.62164895  0.72800367  1
  Bi2+  Bi78  1  0.26996434  0.92916378  0.31994797  1
  Bi2+  Bi79  1  0.20480756  0.86060490  0.80133026  1
  Bi2+  Bi80  1  0.49581056  0.03852259  0.27570831  1
  Bi2+  Bi81  1  0.47724230  0.08759738  0.79106293  1
  Bi2+  Bi82  1  0.50027191  0.37360861  0.30259243  1
  Bi2+  Bi83  1  0.47478179  0.36156297  0.78203876  1
  Bi2+  Bi84  1  0.51342484  0.63811414  0.29705436  1
  Bi2+  Bi85  1  0.46891269  0.62786012  0.79764507  1
  Bi2+  Bi86  1  0.46361032  0.86442772  0.32653617  1
  Bi2+  Bi87  1  0.50979693  0.87076098  0.80067273  1
  Bi2+  Bi88  1  0.70623633  0.12629021  0.31285769  1
  Bi2+  Bi89  1  0.75783314  0.09772515  0.79304015  1
  Bi2+  Bi90  1  0.72590770  0.42080649  0.28176145  1
  Bi2+  Bi91  1  0.75273703  0.36932177  0.77887398  1
  Bi2+  Bi92  1  0.74524864  0.68661575  0.29163107  1
  Bi2+  Bi93  1  0.76361905  0.70038984  0.78521436  1
  Bi2+  Bi94  1  0.81580927  0.87336246  0.30364546  1
  Bi2+  Bi95  1  0.70102601  0.86773061  0.82435914  1
  Bi2+  Bi96  1  0.15090278  -0.01359662  0.22095874  1
  Bi2+  Bi97  1  0.10617294  0.01383306  0.75668966  1
  Bi2+  Bi98  1  0.08734014  0.25696247  0.24996363  1
  Bi2+  Bi99  1  0.11679401  0.26911745  0.69298445  1
  Bi2+  Bi100  1  0.15045949  0.53275918  0.22617419  1
  Bi2+  Bi101  1  0.10876067  0.46808758  0.69114356  1
  Bi2+  Bi102  1  0.11543286  0.79654122  0.21942994  1
  Bi2+  Bi103  1  0.13473425  0.79023294  0.69933577  1
  Bi2+  Bi104  1  0.35727095  -0.03108198  0.20791685  1
  Bi2+  Bi105  1  0.36514614  -0.01862850  0.71018885  1
  Bi2+  Bi106  1  0.38588312  0.24881059  0.18876352  1
  Bi2+  Bi107  1  0.33871416  0.22945695  0.70104678  1
  Bi2+  Bi108  1  0.38641992  0.49817892  0.19549698  1
  Bi2+  Bi109  1  0.35183715  0.48095214  0.70534171  1
  Bi2+  Bi110  1  0.44560860  0.77533523  0.22314676  1
  Bi2+  Bi111  1  0.37010785  0.78519186  0.73983071  1
  Bi2+  Bi112  1  0.64117596  -0.10764985  0.22705532  1
  Bi2+  Bi113  1  0.61743000  -0.00486347  0.72620965  1
  Bi2+  Bi114  1  0.60691569  0.26252324  0.20862438  1
  Bi2+  Bi115  1  0.63989835  0.20968482  0.68773964  1
  Bi2+  Bi116  1  0.64033400  0.55851148  0.21714680  1
  Bi2+  Bi117  1  0.62465501  0.52992976  0.70613382  1
  Bi2+  Bi118  1  0.69191864  0.73377824  0.16866583  1
  Bi2+  Bi119  1  0.63999032  0.79915320  0.71439786  1
  Bi2+  Bi120  1  0.88761650  -0.03162542  0.21288112  1
  Bi2+  Bi121  1  0.90868531  -0.00955020  0.75322263  1
  Bi2+  Bi122  1  0.86996500  0.26351529  0.21381315  1
  Bi2+  Bi123  1  0.90095413  0.22476190  0.69439069  1
  Bi2+  Bi124  1  0.88829994  0.52561685  0.19050000  1
  Bi2+  Bi125  1  0.91289989  0.51353648  0.70329698  1
  Bi2+  Bi126  1  0.87660477  0.72259907  0.20175774  1
  Bi2+  Bi127  1  0.89931958  0.78924698  0.70562911  1
  S2-  S128  1  -0.08353842  0.13036308  0.15356809  1
  S2-  S129  1  0.03007485  0.14503665  0.64339087  1
  S2-  S130  1  -0.03817525  0.37406396  0.15387505  1
  S2-  S131  1  -0.10465007  0.37260466  0.63679667  1
  S2-  S132  1  0.04805516  0.59949669  0.16344765  1
  S2-  S133  1  -0.02504081  0.64493481  0.65491252  1
  S2-  S134  1  -0.01868791  0.85510338  0.15466202  1
  S2-  S135  1  0.02179488  0.89115542  0.65407393  1
  S2-  S136  1  0.27344973  0.14203655  0.16416778  1
  S2-  S137  1  0.27201492  0.09881575  0.65338856  1
  S2-  S138  1  0.26626301  0.37629622  0.16199703  1
  S2-  S139  1  0.31796725  0.35982408  0.63315837  1
  S2-  S140  1  0.27341100  0.60894414  0.16590611  1
  S2-  S141  1  0.33295841  0.61608850  0.64187665  1
  S2-  S142  1  0.24441666  0.86873206  0.15590579  1
  S2-  S143  1  0.28996745  0.86016398  0.65313748  1
  S2-  S144  1  0.50927000  0.14399116  0.15889038  1
  S2-  S145  1  0.48623931  0.22708277  0.64241687  1
  S2-  S146  1  0.50107727  0.37735110  0.15570083  1
  S2-  S147  1  0.49645396  0.46696936  0.65070817  1
  S2-  S148  1  0.49520565  0.59771212  0.15652894  1
  S2-  S149  1  0.55218819  0.66584662  0.67350199  1
  S2-  S150  1  0.50802136  0.90062879  0.15784623  1
  S2-  S151  1  0.49569502  0.99691797  0.64520040  1
  S2-  S152  1  0.70715889  0.13359437  0.21533787  1
  S2-  S153  1  0.78641547  0.12171151  0.65356262  1
  S2-  S154  1  0.74863699  0.29580288  0.15129003  1
  S2-  S155  1  0.68194320  0.36136902  0.66513646  1
  S2-  S156  1  0.75334056  0.50566730  0.13480974  1
  S2-  S157  1  0.76538552  0.57367310  0.65870910  1
  S2-  S158  1  0.74607977  0.96355110  0.15453438  1
  S2-  S159  1  0.77671431  0.86717183  0.65499905  1
  S2-  S160  1  0.14173574  0.11129585  0.35163897  1
  S2-  S161  1  0.11319897  0.10976062  0.86525890  1
  S2-  S162  1  0.01609693  0.28318544  0.34396428  1
  S2-  S163  1  0.25473384  0.27202532  0.85817179  1
  S2-  S164  1  0.14183884  0.49217130  0.33316017  1
  S2-  S165  1  0.04164545  0.50121223  0.85781044  1
  S2-  S166  1  0.14322019  0.70301485  0.34713337  1
  S2-  S167  1  0.14954739  0.71005985  0.85028292  1
  S2-  S168  1  0.39878556  0.09466728  0.35467168  1
  S2-  S169  1  0.35014032  0.02194248  0.84645801  1
  S2-  S170  1  0.35887439  0.27630019  0.32188626  1
  S2-  S171  1  0.46558892  0.23843611  0.84865059  1
  S2-  S172  1  0.37049156  0.46976626  0.31836495  1
  S2-  S173  1  0.38542491  0.49688225  0.83682301  1
  S2-  S174  1  0.37938893  0.65307600  0.36058739  1
  S2-  S175  1  0.38806658  0.73753522  0.85051067  1
  S2-  S176  1  0.61208850  -0.01282460  0.34959030  1
  S2-  S177  1  0.62121401  0.07838917  0.85419043  1
  S2-  S178  1  0.57700756  0.23584136  0.34840318  1
  S2-  S179  1  0.61921071  0.26023817  0.77926772  1
  S2-  S180  1  0.60172630  0.49246909  0.35085570  1
  S2-  S181  1  0.60156842  0.45061708  0.80836715  1
  S2-  S182  1  0.60756539  0.74557785  0.35302746  1
  S2-  S183  1  0.62220130  0.65192561  0.84830522  1
  S2-  S184  1  0.86748364  0.09518390  0.34605661  1
  S2-  S185  1  0.85601854  -0.00515817  0.85349076  1
  S2-  S186  1  0.78882808  0.27119959  0.31317192  1
  S2-  S187  1  0.79208665  0.24576778  0.84832775  1
  S2-  S188  1  0.86156623  0.44742297  0.33515815  1
  S2-  S189  1  0.78505040  0.47498004  0.84590943  1
  S2-  S190  1  0.86908782  0.64609560  0.35972226  1
  S2-  S191  1  0.88768977  0.66133113  0.85545537  1
  S2-  S192  1  -0.00305386  0.11816522  0.44469716  1
  S2-  S193  1  -0.00340420  0.12655468  0.96197406  1
  S2-  S194  1  -0.00407827  0.37449952  0.45070971  1
  S2-  S195  1  0.00607025  0.36767455  0.95191591  1
  S2-  S196  1  0.00038410  0.62108572  0.45423275  1
  S2-  S197  1  0.00893842  0.63241890  0.96099822  1
  S2-  S198  1  -0.00366250  0.86605676  0.45063375  1
  S2-  S199  1  0.00262824  0.88016156  0.95283630  1
  S2-  S200  1  0.25197542  0.11725694  0.45010786  1
  S2-  S201  1  0.25561516  0.12417575  0.96048300  1
  S2-  S202  1  0.25390500  0.36980840  0.43627723  1
  S2-  S203  1  0.25104598  0.37948575  0.95760520  1
  S2-  S204  1  0.24951390  0.61954479  0.45434978  1
  S2-  S205  1  0.25652350  0.62685344  0.95841186  1
  S2-  S206  1  0.25107142  0.86537019  0.45011383  1
  S2-  S207  1  0.25735835  0.87828425  0.95368201  1
  S2-  S208  1  0.50594973  0.11804199  0.46154036  1
  S2-  S209  1  0.50670664  0.12755599  0.95637284  1
  S2-  S210  1  0.49525175  0.36804855  0.45309432  1
  S2-  S211  1  0.51112321  0.37545653  0.94503793  1
  S2-  S212  1  0.50037506  0.61988398  0.46376761  1
  S2-  S213  1  0.50420277  0.62719167  0.95262446  1
  S2-  S214  1  0.50130757  0.86873091  0.46586616  1
  S2-  S215  1  0.50472124  0.87440188  0.95265942  1
  S2-  S216  1  0.74537556  0.12080183  0.44939604  1
  S2-  S217  1  0.75143750  0.12588260  0.95396117  1
  S2-  S218  1  0.74919093  0.36827032  0.44875389  1
  S2-  S219  1  0.74859126  0.37399714  0.95354475  1
  S2-  S220  1  0.74290139  0.62227041  0.45904065  1
  S2-  S221  1  0.75457013  0.62813666  0.95472946  1
  S2-  S222  1  0.74638384  0.86672271  0.45138150  1
  S2-  S223  1  0.75467029  0.87424904  0.96173441  1
  S2-  S224  1  0.12502591  0.00104023  0.05328381  1
  S2-  S225  1  0.11964633  -0.00638015  0.53774721  1
  S2-  S226  1  0.12605036  0.24620444  0.05054694  1
  S2-  S227  1  0.12134308  0.24734322  0.53248660  1
  S2-  S228  1  0.12849194  0.49893227  0.05149426  1
  S2-  S229  1  0.12180176  0.49212366  0.54290244  1
  S2-  S230  1  0.12935912  0.75227557  0.05334016  1
  S2-  S231  1  0.12147735  0.73825147  0.54979824  1
  S2-  S232  1  0.38004954  0.00038202  0.05124874  1
  S2-  S233  1  0.36979723  -0.00548848  0.54245161  1
  S2-  S234  1  0.37946992  0.24798622  0.04589463  1
  S2-  S235  1  0.37052948  0.23692883  0.53182620  1
  S2-  S236  1  0.37924170  0.49954997  0.04634401  1
  S2-  S237  1  0.36973575  0.49292122  0.53272964  1
  S2-  S238  1  0.37772439  0.75179594  0.05407674  1
  S2-  S239  1  0.37221642  0.74494240  0.54713581  1
  S2-  S240  1  0.62905906  0.00217893  0.05093899  1
  S2-  S241  1  0.62649123  -0.00596193  0.55161817  1
  S2-  S242  1  0.63206605  0.24552280  0.05484912  1
  S2-  S243  1  0.62886002  0.24777353  0.54725212  1
  S2-  S244  1  0.62755520  0.50255540  0.03845591  1
  S2-  S245  1  0.62802062  0.48855453  0.55237262  1
  S2-  S246  1  0.62891460  0.74876934  0.04091878  1
  S2-  S247  1  0.62173982  0.74390891  0.55672230  1
  S2-  S248  1  0.87794684  -0.00120694  0.05357788  1
  S2-  S249  1  0.87323071  -0.00740536  0.53939749  1
  S2-  S250  1  0.87545132  0.24903064  0.04625554  1
  S2-  S251  1  0.87148261  0.24666440  0.53608487  1
  S2-  S252  1  0.88178611  0.50073037  0.03627280  1
  S2-  S253  1  0.87040126  0.49667637  0.54010182  1
  S2-  S254  1  0.87755716  0.75004581  0.04746627  1
  S2-  S255  1  0.87237113  0.73858669  0.54528171  1
