# generated using pymatgen
data_La6Ce7Pr13Nd19Sm19(BiS2)64
_symmetry_space_group_name_H-M   'P 1'
_cell_length_a   16.08679223
_cell_length_b   16.10364885
_cell_length_c   27.45795843
_cell_angle_alpha   90.06237892
_cell_angle_beta   89.99027494
_cell_angle_gamma   90.05612011
_symmetry_Int_Tables_number   1
_chemical_formula_structural   La6Ce7Pr13Nd19Sm19(BiS2)64
_chemical_formula_sum   'La6 Ce7 Pr13 Nd19 Sm19 Bi64 S128'
_cell_volume   7113.14261118
_cell_formula_units_Z   1
loop_
 _symmetry_equiv_pos_site_id
 _symmetry_equiv_pos_as_xyz
  1  'x, y, z'
loop_
 _atom_type_symbol
 _atom_type_oxidation_number
  La3+  3.0
  Ce3+  3.0
  Pr3+  3.0
  Nd3+  3.0
  Sm3+  3.0
  Bi2+  2.0
  S2-  -2.0
loop_
 _atom_site_type_symbol
 _atom_site_label
 _atom_site_symmetry_multiplicity
 _atom_site_fract_x
 _atom_site_fract_y
 _atom_site_fract_z
 _atom_site_occupancy
  La3+  La0  1  0.51608398  0.38541899  0.60927170  1
  La3+  La1  1  0.50242823  0.85946201  0.11593370  1
  La3+  La2  1  0.37666822  0.23859147  0.89252215  1
  La3+  La3  1  -0.00851159  0.63628948  0.59226291  1
  La3+  La4  1  0.01594846  0.35785232  0.11454517  1
  La3+  La5  1  0.51063378  0.61079634  0.07473792  1
  Ce3+  Ce6  1  0.00720757  0.86975988  0.06872084  1
  Ce3+  Ce7  1  0.38052621  0.49204192  0.93657734  1
  Ce3+  Ce8  1  0.87999434  0.25631080  0.42709368  1
  Ce3+  Ce9  1  0.62491567  0.25803322  0.43619419  1
  Ce3+  Ce10  1  0.87910727  0.49331957  0.94289492  1
  Ce3+  Ce11  1  0.62487722  0.24343089  0.93568590  1
  Ce3+  Ce12  1  0.49800617  0.13893797  0.55908609  1
  Pr3+  Pr13  1  0.74700892  0.13356509  0.55198304  1
  Pr3+  Pr14  1  0.25335375  0.61626574  0.05770532  1
  Pr3+  Pr15  1  0.61650664  0.75062320  0.42004204  1
  Pr3+  Pr16  1  0.38614614  -0.00949763  0.93199222  1
  Pr3+  Pr17  1  0.24870394  0.63799079  0.57052404  1
  Pr3+  Pr18  1  0.75432466  0.11887801  0.05518475  1
  Pr3+  Pr19  1  0.12476259  0.26654679  0.42361914  1
  Pr3+  Pr20  1  0.12303232  0.75363601  0.43272674  1
  Pr3+  Pr21  1  0.24700239  0.87999877  0.56146252  1
  Pr3+  Pr22  1  0.87785270  -0.01034909  0.93989246  1
  Pr3+  Pr23  1  0.12367581  0.24360493  0.93032379  1
  Pr3+  Pr24  1  0.00175461  0.37236494  0.57133291  1
  Pr3+  Pr25  1  0.25195615  0.87034267  0.06709538  1
  Nd3+  Nd26  1  0.76030536  0.36392960  0.05712226  1
  Nd3+  Nd27  1  0.12973287  0.74377390  0.94038912  1
  Nd3+  Nd28  1  0.87034565  0.00315949  0.43693825  1
  Nd3+  Nd29  1  0.24866488  0.38223443  0.56765190  1
  Nd3+  Nd30  1  0.36595090  0.76131232  0.42562013  1
  Nd3+  Nd31  1  0.61992129  0.50487291  0.43899090  1
  Nd3+  Nd32  1  0.25233410  0.36594935  0.05211879  1
  Nd3+  Nd33  1  0.00327674  0.12143874  0.05494507  1
  Nd3+  Nd34  1  0.75381748  0.61966415  0.06227810  1
  Nd3+  Nd35  1  0.24801156  0.13409799  0.55334122  1
  Nd3+  Nd36  1  0.87896264  0.74368240  0.94945252  1
  Nd3+  Nd37  1  0.74659305  0.87737927  0.54974382  1
  Nd3+  Nd38  1  0.74430198  0.62652324  0.55749167  1
  Nd3+  Nd39  1  0.37319551  0.25629407  0.43547395  1
  Nd3+  Nd40  1  0.00259571  0.61409559  0.06546571  1
  Nd3+  Nd41  1  0.49937520  0.87657372  0.55829728  1
  Nd3+  Nd42  1  0.38270535  0.74374968  0.94925383  1
  Nd3+  Nd43  1  0.50160307  0.11429879  0.06246215  1
  Nd3+  Nd44  1  -0.00501163  0.87800751  0.55768660  1
  Sm3+  Sm45  1  0.87555421  0.50573759  0.44511252  1
  Sm3+  Sm46  1  0.25558526  0.12202062  0.05279604  1
  Sm3+  Sm47  1  0.50465640  0.36589832  0.05828764  1
  Sm3+  Sm48  1  -0.00327206  0.13327400  0.55310307  1
  Sm3+  Sm49  1  0.62494515  -0.00745004  0.94448105  1
  Sm3+  Sm50  1  0.62665215  0.74424097  0.95076604  1
  Sm3+  Sm51  1  0.75109259  0.37945466  0.55471520  1
  Sm3+  Sm52  1  0.87356493  0.75134809  0.43840754  1
  Sm3+  Sm53  1  0.75149794  0.87692648  0.07285873  1
  Sm3+  Sm54  1  0.62793826  0.49205258  0.94197846  1
  Sm3+  Sm55  1  0.37194096  0.50525208  0.44798144  1
  Sm3+  Sm56  1  0.12194885  0.50627398  0.44940533  1
  Sm3+  Sm57  1  0.62218380  0.00416636  0.44377500  1
  Sm3+  Sm58  1  0.88081064  0.24392870  0.92963069  1
  Sm3+  Sm59  1  0.12754292  0.49164267  0.93997062  1
  Sm3+  Sm60  1  0.49597128  0.63098600  0.55449451  1
  Sm3+  Sm61  1  0.12213027  0.00479509  0.44494872  1
  Sm3+  Sm62  1  0.37379988  0.00352520  0.44584733  1
  Sm3+  Sm63  1  0.13354402  -0.00631598  0.94436884  1
  Bi2+  Bi64  1  -0.05696642  0.10530172  0.27678595  1
  Bi2+  Bi65  1  -0.03541657  0.13100461  0.76943967  1
  Bi2+  Bi66  1  -0.03930414  0.36184143  0.30970651  1
  Bi2+  Bi67  1  -0.01868259  0.34458428  0.77793795  1
  Bi2+  Bi68  1  -0.00242930  0.60821853  0.28650378  1
  Bi2+  Bi69  1  0.00701595  0.62812456  0.81251203  1
  Bi2+  Bi70  1  0.01571097  0.80295689  0.30257835  1
  Bi2+  Bi71  1  -0.05246894  0.89276640  0.77676447  1
  Bi2+  Bi72  1  0.25588697  0.14442385  0.28587653  1
  Bi2+  Bi73  1  0.21169423  0.10415546  0.78413519  1
  Bi2+  Bi74  1  0.23475202  0.41342114  0.29918269  1
  Bi2+  Bi75  1  0.25970726  0.40188678  0.80274295  1
  Bi2+  Bi76  1  0.18739897  0.62125675  0.29012232  1
  Bi2+  Bi77  1  0.26891240  0.69502758  0.78472763  1
  Bi2+  Bi78  1  0.23729925  0.88869571  0.29404585  1
  Bi2+  Bi79  1  0.21344374  0.89231637  0.78429419  1
  Bi2+  Bi80  1  0.45237661  0.12547349  0.30103983  1
  Bi2+  Bi81  1  0.48987531  0.08910419  0.78683852  1
  Bi2+  Bi82  1  0.46575349  0.33134274  0.30088295  1
  Bi2+  Bi83  1  0.52920175  0.39957437  0.80856810  1
  Bi2+  Bi84  1  0.49043854  0.57495008  0.29863149  1
  Bi2+  Bi85  1  0.56966863  0.65055456  0.76904032  1
  Bi2+  Bi86  1  0.51840678  0.88612660  0.31584738  1
  Bi2+  Bi87  1  0.49007306  0.85217495  0.79448324  1
  Bi2+  Bi88  1  0.71417151  0.23964183  0.26229077  1
  Bi2+  Bi89  1  0.75534209  0.10414810  0.80244615  1
  Bi2+  Bi90  1  0.77811120  0.42090822  0.22272771  1
  Bi2+  Bi91  1  0.77942397  0.30073034  0.81467048  1
  Bi2+  Bi92  1  0.75662256  0.61832329  0.30566424  1
  Bi2+  Bi93  1  0.75675303  0.69991694  0.79693205  1
  Bi2+  Bi94  1  0.75536546  0.99453776  0.27222665  1
  Bi2+  Bi95  1  0.71545310  0.89930620  0.77677811  1
  Bi2+  Bi96  1  0.08426869  -0.02063735  0.24457948  1
  Bi2+  Bi97  1  0.08082101  -0.00303875  0.71716362  1
  Bi2+  Bi98  1  0.14143839  0.23157978  0.21180760  1
  Bi2+  Bi99  1  0.11592014  0.24433952  0.70457980  1
  Bi2+  Bi100  1  0.15946741  0.51341067  0.19659489  1
  Bi2+  Bi101  1  0.13551660  0.48449882  0.72592883  1
  Bi2+  Bi102  1  0.07420286  0.73888941  0.19983246  1
  Bi2+  Bi103  1  0.12684238  0.72330992  0.70689371  1
  Bi2+  Bi104  1  0.34281269  0.02510799  0.20823563  1
  Bi2+  Bi105  1  0.36753190  -0.03428208  0.72581432  1
  Bi2+  Bi106  1  0.39398999  0.23856210  0.20711570  1
  Bi2+  Bi107  1  0.36234463  0.23030448  0.69515155  1
  Bi2+  Bi108  1  0.37442119  0.43962523  0.21932126  1
  Bi2+  Bi109  1  0.38274668  0.52004114  0.71142336  1
  Bi2+  Bi110  1  0.35383281  0.74308810  0.21900944  1
  Bi2+  Bi111  1  0.38569874  0.77261181  0.70032594  1
  Bi2+  Bi112  1  0.59889981  0.08278759  0.22566466  1
  Bi2+  Bi113  1  0.63639909  0.04699635  0.71397396  1
  Bi2+  Bi114  1  0.58468789  0.25275076  0.16620436  1
  Bi2+  Bi115  1  0.68062879  0.24287156  0.72339477  1
  Bi2+  Bi116  1  0.58746671  0.43388644  0.21802884  1
  Bi2+  Bi117  1  0.69184550  0.56700827  0.69356278  1
  Bi2+  Bi118  1  0.62084746  0.72806513  0.21647274  1
  Bi2+  Bi119  1  0.64145493  0.77836700  0.69187572  1
  Bi2+  Bi120  1  0.91861618  -0.03322203  0.18122858  1
  Bi2+  Bi121  1  0.83817812  0.01315923  0.70007495  1
  Bi2+  Bi122  1  0.84316848  0.16205286  0.18226951  1
  Bi2+  Bi123  1  0.86277431  0.31542339  0.68735713  1
  Bi2+  Bi124  1  0.83878072  0.59581363  0.18679333  1
  Bi2+  Bi125  1  0.82399703  0.46884012  0.75603427  1
  Bi2+  Bi126  1  0.88154231  0.78218086  0.20498527  1
  Bi2+  Bi127  1  0.87054269  0.75766067  0.70850614  1
  S2-  S128  1  0.01522277  0.18757868  0.14594282  1
  S2-  S129  1  -0.00654391  0.22421065  0.63552259  1
  S2-  S130  1  0.02554525  0.35209026  0.22347843  1
  S2-  S131  1  0.13046161  0.37820592  0.64358256  1
  S2-  S132  1  0.00609719  0.52810167  0.15112215  1
  S2-  S133  1  0.01825480  0.58060921  0.69167068  1
  S2-  S134  1  0.12075031  0.87110136  0.14186909  1
  S2-  S135  1  0.00600456  0.79252240  0.64349671  1
  S2-  S136  1  0.23864171  0.11283948  0.15154383  1
  S2-  S137  1  0.23541636  0.14573246  0.65135191  1
  S2-  S138  1  0.18932273  0.35823794  0.14470872  1
  S2-  S139  1  0.35285380  0.37902957  0.64989772  1
  S2-  S140  1  0.26021631  0.63016865  0.15793112  1
  S2-  S141  1  0.23086610  0.57503206  0.66459555  1
  S2-  S142  1  0.33333997  0.86800010  0.15656315  1
  S2-  S143  1  0.23611814  0.77964405  0.64149371  1
  S2-  S144  1  0.49754029  0.02837570  0.14954086  1
  S2-  S145  1  0.50418528  0.21778324  0.64623087  1
  S2-  S146  1  0.48501528  0.46744750  0.13842623  1
  S2-  S147  1  0.52037216  0.44013191  0.71100309  1
  S2-  S148  1  0.47741972  0.69356172  0.16090119  1
  S2-  S149  1  0.45330825  0.63260344  0.64954967  1
  S2-  S150  1  0.49356510  0.85046612  0.22663971  1
  S2-  S151  1  0.51066183  0.87751021  0.65615536  1
  S2-  S152  1  0.76128914  0.02764584  0.14090177  1
  S2-  S153  1  0.77018036  0.16917745  0.64906996  1
  S2-  S154  1  0.84267392  0.34179926  0.14339104  1
  S2-  S155  1  0.68593514  0.40961007  0.64252970  1
  S2-  S156  1  0.67207435  0.60836299  0.14916448  1
  S2-  S157  1  0.83205535  0.63308825  0.64269960  1
  S2-  S158  1  0.66714357  0.84216167  0.15615603  1
  S2-  S159  1  0.77526833  0.87310716  0.64675342  1
  S2-  S160  1  0.13143534  -0.01051888  0.34814707  1
  S2-  S161  1  0.12875627  -0.00187449  0.84669246  1
  S2-  S162  1  0.01075076  0.22044400  0.35036029  1
  S2-  S163  1  0.21436853  0.25391698  0.84415397  1
  S2-  S164  1  0.10821920  0.42164247  0.36252540  1
  S2-  S165  1  0.12917403  0.51212635  0.84159432  1
  S2-  S166  1  0.23723038  0.74560112  0.35587893  1
  S2-  S167  1  0.12589345  0.74432457  0.84145944  1
  S2-  S168  1  0.36745273  -0.07501714  0.35892390  1
  S2-  S169  1  0.35479718  0.08167628  0.84658990  1
  S2-  S170  1  0.26301627  0.26834734  0.35740649  1
  S2-  S171  1  0.38232767  0.29642645  0.78906783  1
  S2-  S172  1  0.36391295  0.51809912  0.34923299  1
  S2-  S173  1  0.39502878  0.50328437  0.83948306  1
  S2-  S174  1  0.47396559  0.72931597  0.34984997  1
  S2-  S175  1  0.37027422  0.77783192  0.85125944  1
  S2-  S176  1  0.64332094  -0.00150527  0.34751976  1
  S2-  S177  1  0.53695735  -0.01850110  0.86008512  1
  S2-  S178  1  0.58462234  0.23174543  0.34228309  1
  S2-  S179  1  0.54469035  0.23493504  0.85025428  1
  S2-  S180  1  0.63199294  0.50810829  0.34008491  1
  S2-  S181  1  0.64421427  0.49226558  0.84451271  1
  S2-  S182  1  0.66532267  0.75265542  0.32078233  1
  S2-  S183  1  0.60977047  0.74026084  0.85277425  1
  S2-  S184  1  0.87927449  -0.01616219  0.33890316  1
  S2-  S185  1  0.89419916  0.01048060  0.84171842  1
  S2-  S186  1  0.80784880  0.29087058  0.34055568  1
  S2-  S187  1  0.99442652  0.22977303  0.85388427  1
  S2-  S188  1  0.88587854  0.51373279  0.34687613  1
  S2-  S189  1  0.89943384  0.52247680  0.84743812  1
  S2-  S190  1  0.86785752  0.73927719  0.34152504  1
  S2-  S191  1  0.90311053  0.75172730  0.85183487  1
  S2-  S192  1  -0.00202850  0.12397144  0.45212766  1
  S2-  S193  1  0.00408176  0.11187832  0.95115679  1
  S2-  S194  1  -0.00429104  0.38305403  0.46194547  1
  S2-  S195  1  0.00195569  0.37218483  0.94465939  1
  S2-  S196  1  -0.00191847  0.62946212  0.44753569  1
  S2-  S197  1  0.00557304  0.61868760  0.95830844  1
  S2-  S198  1  -0.00311423  0.87929921  0.45172557  1
  S2-  S199  1  0.00736856  0.86939809  0.95762254  1
  S2-  S200  1  0.24889209  0.12379231  0.44908089  1
  S2-  S201  1  0.25400375  0.12067895  0.95032444  1
  S2-  S202  1  0.24940329  0.38581502  0.46149831  1
  S2-  S203  1  0.25583697  0.36919527  0.94695247  1
  S2-  S204  1  0.24746752  0.62727967  0.45964201  1
  S2-  S205  1  0.25340641  0.61731443  0.95021850  1
  S2-  S206  1  0.24416359  0.88405905  0.45806475  1
  S2-  S207  1  0.25433867  0.86864867  0.95574074  1
  S2-  S208  1  0.49733652  0.12776357  0.45289171  1
  S2-  S209  1  0.50214926  0.12000207  0.95676327  1
  S2-  S210  1  0.49535843  0.38109246  0.44313708  1
  S2-  S211  1  0.50238663  0.36836515  0.95352979  1
  S2-  S212  1  0.49467266  0.62910084  0.45257563  1
  S2-  S213  1  0.50678866  0.61647321  0.95893090  1
  S2-  S214  1  0.50084622  0.88022394  0.45383806  1
  S2-  S215  1  0.50602966  0.86517995  0.95783635  1
  S2-  S216  1  0.74767841  0.12913771  0.44584298  1
  S2-  S217  1  0.75245980  0.11781166  0.94784813  1
  S2-  S218  1  0.74865166  0.38497158  0.45127188  1
  S2-  S219  1  0.75396558  0.36690669  0.95064353  1
  S2-  S220  1  0.74774936  0.62982195  0.45154669  1
  S2-  S221  1  0.75152889  0.61895694  0.95538047  1
  S2-  S222  1  0.74559365  0.87501588  0.44490725  1
  S2-  S223  1  0.75014064  0.86785371  0.95569967  1
  S2-  S224  1  0.12896721  0.00000746  0.04652375  1
  S2-  S225  1  0.11950735  0.00647440  0.55032395  1
  S2-  S226  1  0.12754352  0.24389598  0.03879345  1
  S2-  S227  1  0.12390468  0.25206587  0.53452269  1
  S2-  S228  1  0.12678774  0.49071197  0.04369819  1
  S2-  S229  1  0.11528848  0.51477571  0.55134399  1
  S2-  S230  1  0.12700845  0.73931615  0.04562604  1
  S2-  S231  1  0.11844857  0.75490086  0.53909695  1
  S2-  S232  1  0.37307831  -0.00311760  0.04199337  1
  S2-  S233  1  0.37469925  0.00517376  0.55087520  1
  S2-  S234  1  0.38005316  0.24481664  0.05576865  1
  S2-  S235  1  0.37139292  0.25630358  0.54002334  1
  S2-  S236  1  0.37661131  0.49106311  0.04159107  1
  S2-  S237  1  0.37543241  0.50689002  0.55032711  1
  S2-  S238  1  0.38032022  0.74200050  0.05251047  1
  S2-  S239  1  0.37434748  0.75741484  0.53921252  1
  S2-  S240  1  0.62770417  -0.00857449  0.04559139  1
  S2-  S241  1  0.62195984  0.00547275  0.54901608  1
  S2-  S242  1  0.62897438  0.24320291  0.04129344  1
  S2-  S243  1  0.62338495  0.26161261  0.54265277  1
  S2-  S244  1  0.63446386  0.48569664  0.04510507  1
  S2-  S245  1  0.61645585  0.50493297  0.54432614  1
  S2-  S246  1  0.62911749  0.74762108  0.05169349  1
  S2-  S247  1  0.62243623  0.75219371  0.53940458  1
  S2-  S248  1  0.88156717  -0.00851425  0.04379891  1
  S2-  S249  1  0.87338794  0.00588019  0.54335827  1
  S2-  S250  1  0.88043856  0.24048303  0.03321021  1
  S2-  S251  1  0.87186063  0.25566892  0.53484385  1
  S2-  S252  1  0.87713938  0.49395583  0.04667756  1
  S2-  S253  1  0.87555165  0.50189857  0.54984558  1
  S2-  S254  1  0.87740867  0.74772206  0.05560531  1
  S2-  S255  1  0.87149096  0.75309617  0.54086670  1
