# generated using pymatgen
data_La6Ce7Pr13Nd19Sm19(BiS2)64
_symmetry_space_group_name_H-M   'P 1'
_cell_length_a   16.02022220
_cell_length_b   16.06532362
_cell_length_c   27.32578717
_cell_angle_alpha   89.90073271
_cell_angle_beta   90.75402865
_cell_angle_gamma   90.11274332
_symmetry_Int_Tables_number   1
_chemical_formula_structural   La6Ce7Pr13Nd19Sm19(BiS2)64
_chemical_formula_sum   'La6 Ce7 Pr13 Nd19 Sm19 Bi64 S128'
_cell_volume   7032.20645790
_cell_formula_units_Z   1
loop_
 _symmetry_equiv_pos_site_id
 _symmetry_equiv_pos_as_xyz
  1  'x, y, z'
loop_
 _atom_type_symbol
 _atom_type_oxidation_number
  La3+  3.0
  Ce3+  3.0
  Pr3+  3.0
  Nd3+  3.0
  Sm3+  3.0
  Bi2+  2.0
  S2-  -2.0
loop_
 _atom_site_type_symbol
 _atom_site_label
 _atom_site_symmetry_multiplicity
 _atom_site_fract_x
 _atom_site_fract_y
 _atom_site_fract_z
 _atom_site_occupancy
  La3+  La0  1  0.85454562  0.49034524  0.93191343  1
  La3+  La1  1  0.63311268  0.49712793  0.43255602  1
  La3+  La2  1  0.01336020  0.87402620  0.58482397  1
  La3+  La3  1  0.25858684  0.61845047  0.56901069  1
  La3+  La4  1  0.87750064  0.24234217  0.39357006  1
  La3+  La5  1  -0.02455551  0.38669722  0.11493637  1
  Ce3+  Ce6  1  0.60810179  0.49100474  0.93234950  1
  Ce3+  Ce7  1  0.61187658  0.24200462  0.93299807  1
  Ce3+  Ce8  1  0.35732457  -0.00983840  0.92183238  1
  Ce3+  Ce9  1  0.48507166  0.36726604  0.05513729  1
  Ce3+  Ce10  1  0.76285237  0.36850644  0.55354795  1
  Ce3+  Ce11  1  0.10066767  0.49219683  0.92030270  1
  Ce3+  Ce12  1  0.12853511  0.49022455  0.44389138  1
  Pr3+  Pr13  1  0.01080637  0.12252281  0.56698174  1
  Pr3+  Pr14  1  0.51339518  0.86863462  0.57355868  1
  Pr3+  Pr15  1  0.22522235  0.36015750  0.05459719  1
  Pr3+  Pr16  1  0.37505350  0.49400159  0.43639866  1
  Pr3+  Pr17  1  0.88061176  -0.00289336  0.44060808  1
  Pr3+  Pr18  1  0.63150201  0.74337567  0.43963495  1
  Pr3+  Pr19  1  0.23655049  0.87224014  0.06322780  1
  Pr3+  Pr20  1  0.50625404  0.12046771  0.55569610  1
  Pr3+  Pr21  1  0.10696854  0.74511396  0.94090433  1
  Pr3+  Pr22  1  0.09878334  0.24210324  0.92183144  1
  Pr3+  Pr23  1  0.12648220  -0.00959535  0.43672404  1
  Pr3+  Pr24  1  0.73829150  0.11776432  0.06298092  1
  Pr3+  Pr25  1  0.48454907  0.11585059  0.05464150  1
  Nd3+  Nd26  1  0.60761663  -0.00821486  0.92695640  1
  Nd3+  Nd27  1  -0.01336304  0.61516790  0.05224475  1
  Nd3+  Nd28  1  -0.01390854  0.87259015  0.06730384  1
  Nd3+  Nd29  1  0.13073962  0.23851434  0.42601026  1
  Nd3+  Nd30  1  0.01930983  0.36673237  0.59588302  1
  Nd3+  Nd31  1  0.85456038  0.74562506  0.94559931  1
  Nd3+  Nd32  1  0.23448742  0.11616191  0.05460637  1
  Nd3+  Nd33  1  0.38626223  -0.01313677  0.43249438  1
  Nd3+  Nd34  1  0.76063371  0.86917654  0.57065242  1
  Nd3+  Nd35  1  0.48333901  0.86703795  0.05662552  1
  Nd3+  Nd36  1  0.85644813  0.24173213  0.93795133  1
  Nd3+  Nd37  1  0.85797832  -0.01139708  0.92970806  1
  Nd3+  Nd38  1  0.10837163  -0.00715036  0.92649649  1
  Nd3+  Nd39  1  0.26288573  0.36341779  0.56691439  1
  Nd3+  Nd40  1  0.37539522  0.23851139  0.42390217  1
  Nd3+  Nd41  1  0.73619964  0.36809499  0.06505755  1
  Nd3+  Nd42  1  0.73637741  0.61437276  0.06560114  1
  Nd3+  Nd43  1  -0.01241815  0.12172741  0.06139872  1
  Nd3+  Nd44  1  0.62718686  0.25185684  0.42767415  1
  Sm3+  Sm45  1  0.35514022  0.49024935  0.94147213  1
  Sm3+  Sm46  1  0.50552340  0.36754536  0.55682331  1
  Sm3+  Sm47  1  0.01088820  0.61784378  0.57166932  1
  Sm3+  Sm48  1  0.73408714  0.86740031  0.05880705  1
  Sm3+  Sm49  1  0.63452363  -0.00464771  0.44989865  1
  Sm3+  Sm50  1  0.76311810  0.12767112  0.55834980  1
  Sm3+  Sm51  1  0.88157623  0.74385075  0.45195375  1
  Sm3+  Sm52  1  0.38279720  0.74417893  0.43874693  1
  Sm3+  Sm53  1  0.12556492  0.74655516  0.43954336  1
  Sm3+  Sm54  1  0.88457674  0.49272299  0.44607068  1
  Sm3+  Sm55  1  0.25805637  0.11986917  0.55383719  1
  Sm3+  Sm56  1  0.35823231  0.74092087  0.94225707  1
  Sm3+  Sm57  1  0.23146892  0.61235915  0.05277670  1
  Sm3+  Sm58  1  0.48274681  0.61267666  0.05916148  1
  Sm3+  Sm59  1  0.51250405  0.61699935  0.56779951  1
  Sm3+  Sm60  1  0.60653257  0.74039096  0.94837835  1
  Sm3+  Sm61  1  0.76087232  0.61383953  0.56956437  1
  Sm3+  Sm62  1  0.35653694  0.24213553  0.93494770  1
  Sm3+  Sm63  1  0.25932856  0.86834737  0.55806937  1
  Bi2+  Bi64  1  0.01534749  0.11281905  0.28671947  1
  Bi2+  Bi65  1  0.01337844  0.13294098  0.78925149  1
  Bi2+  Bi66  1  -0.01113700  0.42275373  0.31566811  1
  Bi2+  Bi67  1  0.01243490  0.38381206  0.79107294  1
  Bi2+  Bi68  1  0.02277481  0.66249999  0.28754606  1
  Bi2+  Bi69  1  -0.00110358  0.64140144  0.78331525  1
  Bi2+  Bi70  1  -0.00775116  0.89184088  0.28808503  1
  Bi2+  Bi71  1  0.01258088  0.85923515  0.79660202  1
  Bi2+  Bi72  1  0.25611361  0.15045511  0.28537744  1
  Bi2+  Bi73  1  0.33199396  0.07265292  0.77583048  1
  Bi2+  Bi74  1  0.29349663  0.42483691  0.29683903  1
  Bi2+  Bi75  1  0.35097811  0.37085487  0.79369797  1
  Bi2+  Bi76  1  0.21563229  0.69373790  0.28450351  1
  Bi2+  Bi77  1  0.29948431  0.65253606  0.78568851  1
  Bi2+  Bi78  1  0.22534954  0.89467047  0.28569363  1
  Bi2+  Bi79  1  0.23668337  0.82458228  0.73810696  1
  Bi2+  Bi80  1  0.50027610  0.09215200  0.28318417  1
  Bi2+  Bi81  1  0.53737869  0.14741313  0.81094526  1
  Bi2+  Bi82  1  0.47225110  0.30562816  0.29704499  1
  Bi2+  Bi83  1  0.54453120  0.35495693  0.82261189  1
  Bi2+  Bi84  1  0.47311220  0.68678821  0.30434449  1
  Bi2+  Bi85  1  0.50619042  0.61346053  0.79055813  1
  Bi2+  Bi86  1  0.57464277  0.84860720  0.32252028  1
  Bi2+  Bi87  1  0.48672404  0.85781744  0.78352001  1
  Bi2+  Bi88  1  0.75323560  0.02022975  0.28418656  1
  Bi2+  Bi89  1  0.72464835  0.11960889  0.78280371  1
  Bi2+  Bi90  1  0.72663645  0.38217829  0.29273510  1
  Bi2+  Bi91  1  0.73830333  0.36775736  0.78884551  1
  Bi2+  Bi92  1  0.74602429  0.63072479  0.29773295  1
  Bi2+  Bi93  1  0.70864158  0.63566455  0.79036040  1
  Bi2+  Bi94  1  0.79418553  0.82923701  0.31383369  1
  Bi2+  Bi95  1  0.74570982  0.85445672  0.79291205  1
  Bi2+  Bi96  1  0.12879779  0.01343788  0.21113911  1
  Bi2+  Bi97  1  0.15318793  0.00242457  0.75716941  1
  Bi2+  Bi98  1  0.13306548  0.27706676  0.20640307  1
  Bi2+  Bi99  1  0.16203421  0.25512047  0.71548618  1
  Bi2+  Bi100  1  0.13088339  0.53570361  0.20848546  1
  Bi2+  Bi101  1  0.18464585  0.52214077  0.72797468  1
  Bi2+  Bi102  1  0.17867628  0.79974859  0.18373081  1
  Bi2+  Bi103  1  0.06379545  0.75181588  0.69779655  1
  Bi2+  Bi104  1  0.38430652  0.00755246  0.19905576  1
  Bi2+  Bi105  1  0.43553220  -0.00937857  0.68907730  1
  Bi2+  Bi106  1  0.36939214  0.25377430  0.20447509  1
  Bi2+  Bi107  1  0.39456233  0.21149527  0.69416579  1
  Bi2+  Bi108  1  0.37803060  0.50684201  0.20429684  1
  Bi2+  Bi109  1  0.37890815  0.49141236  0.70617920  1
  Bi2+  Bi110  1  0.36473141  0.78343522  0.22576664  1
  Bi2+  Bi111  1  0.40678700  0.79395686  0.68113396  1
  Bi2+  Bi112  1  0.59326884  -0.05129881  0.21908992  1
  Bi2+  Bi113  1  0.62668092  -0.02829582  0.72664631  1
  Bi2+  Bi114  1  0.63297284  0.22167629  0.24745547  1
  Bi2+  Bi115  1  0.59405978  0.26006648  0.72049374  1
  Bi2+  Bi116  1  0.57334466  0.51351604  0.21074119  1
  Bi2+  Bi117  1  0.58093717  0.46635619  0.72620424  1
  Bi2+  Bi118  1  0.67037214  0.76573469  0.22488113  1
  Bi2+  Bi119  1  0.59266013  0.71892692  0.70327148  1
  Bi2+  Bi120  1  0.87224288  -0.03361018  0.20326594  1
  Bi2+  Bi121  1  0.89572217  -0.00198433  0.70995229  1
  Bi2+  Bi122  1  0.84611826  0.21484755  0.19877678  1
  Bi2+  Bi123  1  0.86850594  0.25304704  0.69441908  1
  Bi2+  Bi124  1  0.86195507  0.62212394  0.20974936  1
  Bi2+  Bi125  1  0.81505687  0.49710439  0.70522016  1
  Bi2+  Bi126  1  0.98040266  0.77903749  0.19134755  1
  Bi2+  Bi127  1  0.85372611  0.73099785  0.72330804  1
  S2-  S128  1  0.00058105  0.21944166  0.14822228  1
  S2-  S129  1  0.02258046  0.22253667  0.65619288  1
  S2-  S130  1  0.01560367  0.39995540  0.22348249  1
  S2-  S131  1  -0.04302392  0.41907325  0.69033882  1
  S2-  S132  1  -0.00909828  0.56050887  0.14609931  1
  S2-  S133  1  -0.11743118  0.61478041  0.64448962  1
  S2-  S134  1  0.00083230  0.99858152  0.13698852  1
  S2-  S135  1  0.01661893  1.01433776  0.65054405  1
  S2-  S136  1  0.24447839  0.22939413  0.13514336  1
  S2-  S137  1  0.25102982  0.14820844  0.65176535  1
  S2-  S138  1  0.15187060  0.40814280  0.14150823  1
  S2-  S139  1  0.17138176  0.38008594  0.65459290  1
  S2-  S140  1  0.25673029  0.59812023  0.15116930  1
  S2-  S141  1  0.13666094  0.61356050  0.64608468  1
  S2-  S142  1  0.24842789  1.00164833  0.13432257  1
  S2-  S143  1  0.17308859  0.86233387  0.64262904  1
  S2-  S144  1  0.46431409  0.13592070  0.15393920  1
  S2-  S145  1  0.54349997  0.13286735  0.65349020  1
  S2-  S146  1  0.49324954  0.38991033  0.15237687  1
  S2-  S147  1  0.40070209  0.35298503  0.63519222  1
  S2-  S148  1  0.48682605  0.62403544  0.15739162  1
  S2-  S149  1  0.39066215  0.62277841  0.64081890  1
  S2-  S150  1  0.47305618  0.86929829  0.15537820  1
  S2-  S151  1  0.64225362  0.86475149  0.64656996  1
  S2-  S152  1  0.71038644  0.14148730  0.16205238  1
  S2-  S153  1  0.79565378  0.11966064  0.65678977  1
  S2-  S154  1  0.81347316  0.35809778  0.15458636  1
  S2-  S155  1  0.74924493  0.35796434  0.65090495  1
  S2-  S156  1  0.71772211  0.56104166  0.15906318  1
  S2-  S157  1  0.63864854  0.59793535  0.64059567  1
  S2-  S158  1  0.75874872  0.86021305  0.15549087  1
  S2-  S159  1  0.86853550  0.86617787  0.65256805  1
  S2-  S160  1  0.13783972  0.09095468  0.35246928  1
  S2-  S161  1  0.23032080  -0.01348524  0.85082343  1
  S2-  S162  1  0.03350193  0.26352733  0.34147426  1
  S2-  S163  1  0.14433851  0.22272984  0.82074847  1
  S2-  S164  1  0.14858661  0.48631165  0.34565450  1
  S2-  S165  1  0.15309122  0.45589243  0.82602187  1
  S2-  S166  1  0.11428589  0.86153852  0.36360436  1
  S2-  S167  1  0.11067024  0.73166166  0.84077073  1
  S2-  S168  1  0.37741872  0.09760821  0.35356225  1
  S2-  S169  1  0.48696061  -0.01327049  0.85175347  1
  S2-  S170  1  0.25495061  0.28108153  0.35114781  1
  S2-  S171  1  0.36375245  0.21569520  0.83754350  1
  S2-  S172  1  0.38547851  0.56216959  0.34311949  1
  S2-  S173  1  0.38066596  0.52419225  0.84678722  1
  S2-  S174  1  0.40760037  0.85487528  0.36391168  1
  S2-  S175  1  0.36358991  0.77614809  0.84642315  1
  S2-  S176  1  0.61964500  0.01383345  0.35281862  1
  S2-  S177  1  0.73383386  -0.00512821  0.85559063  1
  S2-  S178  1  0.71346495  0.22847440  0.34309196  1
  S2-  S179  1  0.73469546  0.23987169  0.86006612  1
  S2-  S180  1  0.58916536  0.39502591  0.35440787  1
  S2-  S181  1  0.72440577  0.49998767  0.85801173  1
  S2-  S182  1  0.61779649  0.62793675  0.36150790  1
  S2-  S183  1  0.62918028  0.75873497  0.85218612  1
  S2-  S184  1  0.88302728  0.07767676  0.34974235  1
  S2-  S185  1  0.97888729  -0.00309001  0.85569413  1
  S2-  S186  1  0.86730113  0.30156500  0.28968123  1
  S2-  S187  1  0.95109069  0.25082292  0.85031332  1
  S2-  S188  1  0.83203518  0.49365641  0.35056663  1
  S2-  S189  1  0.95715157  0.50241292  0.84693334  1
  S2-  S190  1  0.91457956  0.71676244  0.35682766  1
  S2-  S191  1  0.87195821  0.80162686  0.85304198  1
  S2-  S192  1  0.00319359  0.12313121  0.45656840  1
  S2-  S193  1  -0.02070153  0.11508511  0.95438899  1
  S2-  S194  1  0.00175698  0.36733606  0.44369751  1
  S2-  S195  1  -0.01804977  0.36943355  0.94709313  1
  S2-  S196  1  0.00735971  0.61920029  0.46138071  1
  S2-  S197  1  -0.02037230  0.62283142  0.94820227  1
  S2-  S198  1  0.00070751  0.86810139  0.46515395  1
  S2-  S199  1  -0.01725044  0.86715380  0.96083855  1
  S2-  S200  1  0.25880613  0.11305289  0.45293510  1
  S2-  S201  1  0.23357040  0.12068270  0.94655990  1
  S2-  S202  1  0.25428088  0.36848364  0.45825334  1
  S2-  S203  1  0.23339305  0.36598738  0.94370823  1
  S2-  S204  1  0.25311259  0.62575272  0.45401511  1
  S2-  S205  1  0.23380118  0.61672977  0.94727577  1
  S2-  S206  1  0.25735266  0.86550001  0.45588354  1
  S2-  S207  1  0.23638249  0.86388918  0.95549920  1
  S2-  S208  1  0.51019991  0.11944735  0.45033335  1
  S2-  S209  1  0.48391466  0.11968456  0.94933234  1
  S2-  S210  1  0.49662121  0.36636502  0.45485005  1
  S2-  S211  1  0.48099282  0.36731027  0.94937539  1
  S2-  S212  1  0.50102796  0.62021392  0.46185298  1
  S2-  S213  1  0.48169561  0.61616643  0.95399197  1
  S2-  S214  1  0.51353410  0.87010147  0.46677569  1
  S2-  S215  1  0.48451682  0.86298220  0.95256920  1
  S2-  S216  1  0.75484642  0.12414374  0.45446686  1
  S2-  S217  1  0.73097943  0.11272313  0.95772996  1
  S2-  S218  1  0.76259969  0.36530815  0.44905660  1
  S2-  S219  1  0.72858210  0.36768077  0.95898590  1
  S2-  S220  1  0.76203061  0.61847501  0.46361447  1
  S2-  S221  1  0.73111207  0.62079204  0.95893277  1
  S2-  S222  1  0.75679704  0.86868936  0.45924079  1
  S2-  S223  1  0.72741719  0.86651330  0.95676718  1
  S2-  S224  1  0.11047392  -0.00909820  0.03355950  1
  S2-  S225  1  0.13815105  -0.00489646  0.54341659  1
  S2-  S226  1  0.10983383  0.23508863  0.03072881  1
  S2-  S227  1  0.13565730  0.24503100  0.54260085  1
  S2-  S228  1  0.10908069  0.49581401  0.03136573  1
  S2-  S229  1  0.13050973  0.48850464  0.54786883  1
  S2-  S230  1  0.11085700  0.74267117  0.04823004  1
  S2-  S231  1  0.13254178  0.74393593  0.54230071  1
  S2-  S232  1  0.36300927  -0.00908462  0.03252260  1
  S2-  S233  1  0.38224955  -0.00788846  0.54496220  1
  S2-  S234  1  0.36282490  0.24332163  0.03786817  1
  S2-  S235  1  0.38188158  0.24002201  0.53361322  1
  S2-  S236  1  0.35641657  0.49014203  0.04572763  1
  S2-  S237  1  0.38417895  0.49407113  0.54216623  1
  S2-  S238  1  0.35846340  0.73842199  0.04873917  1
  S2-  S239  1  0.38504353  0.74802723  0.54244019  1
  S2-  S240  1  0.61072522  -0.01032768  0.04774359  1
  S2-  S241  1  0.63855421  0.00085851  0.55250497  1
  S2-  S242  1  0.61057416  0.24241895  0.04481880  1
  S2-  S243  1  0.63188140  0.24657789  0.54176763  1
  S2-  S244  1  0.60887441  0.49394218  0.04272120  1
  S2-  S245  1  0.63040243  0.48807915  0.54086489  1
  S2-  S246  1  0.60848090  0.73992652  0.05401845  1
  S2-  S247  1  0.63687872  0.73970898  0.54580734  1
  S2-  S248  1  0.85669581  -0.01106483  0.04184590  1
  S2-  S249  1  0.87858275  -0.00130876  0.54653295  1
  S2-  S250  1  0.85909542  0.24498803  0.04459728  1
  S2-  S251  1  0.88834429  0.25055002  0.55534247  1
  S2-  S252  1  0.86028199  0.49119991  0.04533219  1
  S2-  S253  1  0.89342754  0.48724841  0.54987819  1
  S2-  S254  1  0.85996615  0.74311253  0.05204284  1
  S2-  S255  1  0.88553389  0.74249176  0.55250494  1
