# generated using pymatgen
data_La6Ce7Pr13Nd19Sm19(BiS2)64
_symmetry_space_group_name_H-M   'P 1'
_cell_length_a   16.01221475
_cell_length_b   16.07043014
_cell_length_c   27.44710376
_cell_angle_alpha   89.63360101
_cell_angle_beta   90.33102504
_cell_angle_gamma   90.02795884
_symmetry_Int_Tables_number   1
_chemical_formula_structural   La6Ce7Pr13Nd19Sm19(BiS2)64
_chemical_formula_sum   'La6 Ce7 Pr13 Nd19 Sm19 Bi64 S128'
_cell_volume   7062.51297734
_cell_formula_units_Z   1
loop_
 _symmetry_equiv_pos_site_id
 _symmetry_equiv_pos_as_xyz
  1  'x, y, z'
loop_
 _atom_type_symbol
 _atom_type_oxidation_number
  La3+  3.0
  Ce3+  3.0
  Pr3+  3.0
  Nd3+  3.0
  Sm3+  3.0
  Bi2+  2.0
  S2-  -2.0
loop_
 _atom_site_type_symbol
 _atom_site_label
 _atom_site_symmetry_multiplicity
 _atom_site_fract_x
 _atom_site_fract_y
 _atom_site_fract_z
 _atom_site_occupancy
  La3+  La0  1  0.27053192  0.88665031  0.07548216  1
  La3+  La1  1  0.77624337  0.88287999  0.07985786  1
  La3+  La2  1  0.21177648  0.15344997  0.12560385  1
  La3+  La3  1  0.38725253  0.51349693  0.92000528  1
  La3+  La4  1  0.48341603  0.13421480  0.58120816  1
  La3+  La5  1  0.88001633  0.00584409  0.92303690  1
  Ce3+  Ce6  1  0.49916943  0.13131610  0.06122204  1
  Ce3+  Ce7  1  0.47785019  0.63416404  0.54886406  1
  Ce3+  Ce8  1  0.85352214  0.75533688  0.42339153  1
  Ce3+  Ce9  1  0.64189053  0.00373289  0.95358375  1
  Ce3+  Ce10  1  0.10534508  0.50584008  0.44101275  1
  Ce3+  Ce11  1  0.89378771  0.50849542  0.92632459  1
  Ce3+  Ce12  1  0.59975678  0.25503949  0.44018608  1
  Pr3+  Pr13  1  0.22726561  0.12914000  0.57576646  1
  Pr3+  Pr14  1  0.02415243  0.37420742  0.06564885  1
  Pr3+  Pr15  1  0.27436710  0.37723421  0.06271684  1
  Pr3+  Pr16  1  0.60194528  0.01418140  0.43385757  1
  Pr3+  Pr17  1  -0.02857211  0.63019902  0.55854557  1
  Pr3+  Pr18  1  -0.02424609  0.87801055  0.56006539  1
  Pr3+  Pr19  1  0.59949919  0.76821830  0.40740135  1
  Pr3+  Pr20  1  0.52386160  0.86645489  0.09220170  1
  Pr3+  Pr21  1  0.47149131  0.38468497  0.57157394  1
  Pr3+  Pr22  1  0.52083853  0.38350693  0.05939525  1
  Pr3+  Pr23  1  0.14179305  0.76115533  0.93789391  1
  Pr3+  Pr24  1  0.88614361  0.25536430  0.92339706  1
  Pr3+  Pr25  1  0.23138581  0.87770860  0.56620191  1
  Nd3+  Nd26  1  0.35233063  0.25491327  0.44742043  1
  Nd3+  Nd27  1  0.59907642  0.50679141  0.44447993  1
  Nd3+  Nd28  1  0.38997481  0.76186099  0.93484012  1
  Nd3+  Nd29  1  0.10392641  0.00804216  0.44183863  1
  Nd3+  Nd30  1  0.64719143  0.50514782  0.92759830  1
  Nd3+  Nd31  1  0.34457789  0.75410320  0.42146304  1
  Nd3+  Nd32  1  0.76384995  0.13204466  0.06342710  1
  Nd3+  Nd33  1  0.89028592  0.76077245  0.92851040  1
  Nd3+  Nd34  1  0.35295978  0.00580261  0.44261798  1
  Nd3+  Nd35  1  0.85690139  0.25716455  0.42989156  1
  Nd3+  Nd36  1  0.52119855  0.63047951  0.05286626  1
  Nd3+  Nd37  1  0.00973373  0.12912839  0.04964490  1
  Nd3+  Nd38  1  0.85218901  0.00532817  0.43180456  1
  Nd3+  Nd39  1  0.73015343  0.37989845  0.55425261  1
  Nd3+  Nd40  1  0.63614184  0.25566460  0.93470308  1
  Nd3+  Nd41  1  0.72939493  0.88113152  0.55334122  1
  Nd3+  Nd42  1  0.27085181  0.63525933  0.06401138  1
  Nd3+  Nd43  1  0.38920543  0.25911456  0.92300405  1
  Nd3+  Nd44  1  0.23436314  0.62980621  0.56454707  1
  Sm3+  Sm45  1  0.72862900  0.63233341  0.54676018  1
  Sm3+  Sm46  1  -0.02011253  0.13053382  0.56991997  1
  Sm3+  Sm47  1  0.22921682  0.38407771  0.56485181  1
  Sm3+  Sm48  1  0.14524408  0.25575645  0.93789811  1
  Sm3+  Sm49  1  0.64482867  0.75746189  0.94310916  1
  Sm3+  Sm50  1  0.10326704  0.25529632  0.45115144  1
  Sm3+  Sm51  1  0.73286590  0.13265252  0.56485114  1
  Sm3+  Sm52  1  0.01442059  0.88167367  0.05627740  1
  Sm3+  Sm53  1  0.14258415  0.50427961  0.94483066  1
  Sm3+  Sm54  1  0.85041460  0.50643313  0.42600399  1
  Sm3+  Sm55  1  0.48061358  0.87966258  0.55230615  1
  Sm3+  Sm56  1  0.77347419  0.62963507  0.05224546  1
  Sm3+  Sm57  1  0.01721831  0.62964171  0.05168510  1
  Sm3+  Sm58  1  0.77127162  0.38150169  0.06153396  1
  Sm3+  Sm59  1  0.14431217  0.00855431  0.94576362  1
  Sm3+  Sm60  1  -0.02349263  0.38281718  0.55781103  1
  Sm3+  Sm61  1  0.10430267  0.75554424  0.44459520  1
  Sm3+  Sm62  1  0.39086202  0.00042284  0.94366540  1
  Sm3+  Sm63  1  0.34579749  0.50661824  0.42737352  1
  Bi2+  Bi64  1  -0.01660074  0.18497539  0.28378055  1
  Bi2+  Bi65  1  0.03086707  0.23445001  0.80752851  1
  Bi2+  Bi66  1  -0.00861069  0.46229935  0.29862814  1
  Bi2+  Bi67  1  0.01122972  0.42860055  0.81784882  1
  Bi2+  Bi68  1  -0.00535303  0.66200530  0.29504214  1
  Bi2+  Bi69  1  -0.00437726  0.58401702  0.74854023  1
  Bi2+  Bi70  1  -0.03196356  0.85503560  0.23737218  1
  Bi2+  Bi71  1  -0.00528633  0.77816401  0.78925310  1
  Bi2+  Bi72  1  0.21883871  0.15118536  0.32885073  1
  Bi2+  Bi73  1  0.32395860  0.11529110  0.81279278  1
  Bi2+  Bi74  1  0.28963863  0.39921652  0.28110123  1
  Bi2+  Bi75  1  0.25577969  0.38334051  0.78742291  1
  Bi2+  Bi76  1  0.21135767  0.62818487  0.30386856  1
  Bi2+  Bi77  1  0.24808849  0.62406842  0.78554740  1
  Bi2+  Bi78  1  0.25610395  0.90941251  0.30936305  1
  Bi2+  Bi79  1  0.25147994  0.87825709  0.80145175  1
  Bi2+  Bi80  1  0.53847935  0.14247685  0.25655127  1
  Bi2+  Bi81  1  0.51431901  0.09641436  0.78449362  1
  Bi2+  Bi82  1  0.55655748  0.33099026  0.31374583  1
  Bi2+  Bi83  1  0.52745732  0.36035829  0.79131759  1
  Bi2+  Bi84  1  0.43805285  0.55092233  0.26953128  1
  Bi2+  Bi85  1  0.48815008  0.63884842  0.77932781  1
  Bi2+  Bi86  1  0.52075975  0.86916138  0.27384128  1
  Bi2+  Bi87  1  0.52326289  0.90195820  0.75362899  1
  Bi2+  Bi88  1  0.72410624  0.09966022  0.30554337  1
  Bi2+  Bi89  1  0.76247400  0.13104631  0.79505156  1
  Bi2+  Bi90  1  0.74669661  0.32130400  0.28148735  1
  Bi2+  Bi91  1  0.82575726  0.37097138  0.78719039  1
  Bi2+  Bi92  1  0.72907996  0.54290800  0.28894583  1
  Bi2+  Bi93  1  0.78782576  0.62140345  0.78383665  1
  Bi2+  Bi94  1  0.76030896  0.80872140  0.29032536  1
  Bi2+  Bi95  1  0.75615508  0.87583054  0.79769287  1
  Bi2+  Bi96  1  0.09877093  0.03042246  0.22288193  1
  Bi2+  Bi97  1  0.11247243  0.06939495  0.76325099  1
  Bi2+  Bi98  1  0.11073781  0.35663036  0.23393153  1
  Bi2+  Bi99  1  0.17227494  0.23925566  0.70644197  1
  Bi2+  Bi100  1  0.11862231  0.54786378  0.20066223  1
  Bi2+  Bi101  1  0.10717674  0.42825426  0.70980761  1
  Bi2+  Bi102  1  0.13509336  0.74785520  0.22155614  1
  Bi2+  Bi103  1  0.11459551  0.77752916  0.69646640  1
  Bi2+  Bi104  1  0.36062736  0.03637124  0.21596967  1
  Bi2+  Bi105  1  0.35420023  -0.00276964  0.72450155  1
  Bi2+  Bi106  1  0.43203079  0.30208039  0.22405255  1
  Bi2+  Bi107  1  0.37490389  0.23499744  0.72203692  1
  Bi2+  Bi108  1  0.31441489  0.52680411  0.17841520  1
  Bi2+  Bi109  1  0.38807463  0.50859962  0.71304452  1
  Bi2+  Bi110  1  0.35988107  0.70710601  0.21632571  1
  Bi2+  Bi111  1  0.36186980  0.76286793  0.68388233  1
  Bi2+  Bi112  1  0.66602220  0.01088483  0.20758026  1
  Bi2+  Bi113  1  0.68578931  0.00234048  0.71897783  1
  Bi2+  Bi114  1  0.67077436  0.21873164  0.18016326  1
  Bi2+  Bi115  1  0.63743470  0.24265240  0.70729623  1
  Bi2+  Bi116  1  0.58208818  0.44846627  0.21831091  1
  Bi2+  Bi117  1  0.60149249  0.50250976  0.72595705  1
  Bi2+  Bi118  1  0.62660687  0.70480696  0.20416004  1
  Bi2+  Bi119  1  0.64336307  0.73584396  0.73912939  1
  Bi2+  Bi120  1  0.87075986  0.03499080  0.23929586  1
  Bi2+  Bi121  1  0.93472389  0.03666600  0.71792056  1
  Bi2+  Bi122  1  0.86381187  0.23987093  0.19951473  1
  Bi2+  Bi123  1  0.90772183  0.23291613  0.71463726  1
  Bi2+  Bi124  1  0.85337505  0.46808882  0.21722724  1
  Bi2+  Bi125  1  0.79359800  0.48783208  0.69538088  1
  Bi2+  Bi126  1  0.86249922  0.68852178  0.20599162  1
  Bi2+  Bi127  1  0.86659006  0.77265830  0.68279318  1
  S2-  S128  1  0.03957198  0.12148919  0.14937209  1
  S2-  S129  1  0.09898908  0.12260060  0.64595089  1
  S2-  S130  1  -0.10237350  0.37948070  0.13624950  1
  S2-  S131  1  -0.02737420  0.36880987  0.65510225  1
  S2-  S132  1  -0.00860568  0.61968868  0.14814688  1
  S2-  S133  1  -0.00043444  0.65688898  0.65602495  1
  S2-  S134  1  -0.07362924  0.85752627  0.13944127  1
  S2-  S135  1  -0.01538575  0.89941263  0.66002866  1
  S2-  S136  1  0.22627259  0.15530980  0.23303764  1
  S2-  S137  1  0.34980128  0.11214101  0.64996704  1
  S2-  S138  1  0.15808897  0.33079047  0.13923944  1
  S2-  S139  1  0.33520956  0.41949800  0.63898981  1
  S2-  S140  1  0.25634351  0.74938026  0.14241134  1
  S2-  S141  1  0.22099565  0.65725275  0.66280852  1
  S2-  S142  1  0.22542009  0.97958141  0.16036261  1
  S2-  S143  1  0.22409944  0.88904084  0.66687035  1
  S2-  S144  1  0.39024197  0.14056403  0.13784264  1
  S2-  S145  1  0.62640626  0.10801735  0.64302135  1
  S2-  S146  1  0.40133235  0.38341210  0.13716742  1
  S2-  S147  1  0.49787554  0.27630416  0.65174449  1
  S2-  S148  1  0.49801869  0.70066116  0.14436698  1
  S2-  S149  1  0.44740000  0.63731710  0.64466950  1
  S2-  S150  1  0.43985142  0.91164131  0.18014037  1
  S2-  S151  1  0.47341427  0.86959651  0.65078944  1
  S2-  S152  1  0.80031037  0.03271468  0.14380902  1
  S2-  S153  1  0.85664998  0.12064151  0.63859955  1
  S2-  S154  1  0.64975290  0.38179843  0.13566328  1
  S2-  S155  1  0.73023293  0.33561156  0.65051548  1
  S2-  S156  1  0.73705605  0.61487093  0.14850239  1
  S2-  S157  1  0.78653658  0.63526301  0.63807269  1
  S2-  S158  1  0.66475495  0.85181200  0.15890104  1
  S2-  S159  1  0.75220638  0.87652374  0.65241225  1
  S2-  S160  1  0.11515796  0.00340919  0.34282515  1
  S2-  S161  1  0.13801251  -0.02477893  0.84806163  1
  S2-  S162  1  0.08063609  0.25577471  0.35370852  1
  S2-  S163  1  0.23986473  0.25045724  0.85439963  1
  S2-  S164  1  0.20652662  0.48557976  0.36256275  1
  S2-  S165  1  0.21063279  0.51736610  0.85352571  1
  S2-  S166  1  0.19091038  0.77564620  0.36094914  1
  S2-  S167  1  0.15485937  0.74188985  0.83767227  1
  S2-  S168  1  0.35175267  0.04091397  0.34464685  1
  S2-  S169  1  0.37494503  -0.10778988  0.86260469  1
  S2-  S170  1  0.33330300  0.27525710  0.34908834  1
  S2-  S171  1  0.52465995  0.22718170  0.85503908  1
  S2-  S172  1  0.36768522  0.62055771  0.35264280  1
  S2-  S173  1  0.39054132  0.39028120  0.84879065  1
  S2-  S174  1  0.39853730  0.83406108  0.33549680  1
  S2-  S175  1  0.37468094  0.65590322  0.85368888  1
  S2-  S176  1  0.61070791  -0.08194161  0.34755254  1
  S2-  S177  1  0.70891292  0.00424238  0.86333422  1
  S2-  S178  1  0.58162069  0.14739433  0.36365246  1
  S2-  S179  1  0.74680728  0.26833602  0.85520071  1
  S2-  S180  1  0.59948813  0.49548335  0.34639388  1
  S2-  S181  1  0.56312353  0.50991072  0.83823860  1
  S2-  S182  1  0.60607473  0.71975819  0.30969188  1
  S2-  S183  1  0.66587165  0.75094763  0.84544571  1
  S2-  S184  1  0.85489884  -0.11703110  0.35368882  1
  S2-  S185  1  0.90331622  -0.12043718  0.85120617  1
  S2-  S186  1  0.87139451  0.12977439  0.36144340  1
  S2-  S187  1  0.90460997  0.12672964  0.84940563  1
  S2-  S188  1  0.86067801  0.38250969  0.35597235  1
  S2-  S189  1  0.77474986  0.49582597  0.85462029  1
  S2-  S190  1  0.84666768  0.62850409  0.35229787  1
  S2-  S191  1  0.91679722  0.65549298  0.84884126  1
  S2-  S192  1  -0.01764628  0.13162250  0.46426414  1
  S2-  S193  1  0.02025932  0.13193093  0.94711214  1
  S2-  S194  1  -0.01842358  0.38241192  0.45475793  1
  S2-  S195  1  0.01941301  0.37750002  0.95393931  1
  S2-  S196  1  -0.01893121  0.62931407  0.45126566  1
  S2-  S197  1  0.02203851  0.63031904  0.94916274  1
  S2-  S198  1  -0.01688976  0.88016465  0.45295891  1
  S2-  S199  1  0.01715095  0.88532933  0.95366532  1
  S2-  S200  1  0.22698864  0.13135174  0.46466681  1
  S2-  S201  1  0.27070935  0.12404786  0.94985215  1
  S2-  S202  1  0.22736982  0.37817689  0.46259219  1
  S2-  S203  1  0.26384754  0.38300126  0.95637820  1
  S2-  S204  1  0.22690786  0.63091224  0.45834508  1
  S2-  S205  1  0.26191290  0.63451058  0.95972636  1
  S2-  S206  1  0.22746572  0.88275761  0.46009013  1
  S2-  S207  1  0.26227532  0.88310329  0.96484168  1
  S2-  S208  1  0.47324169  0.13121485  0.46679017  1
  S2-  S209  1  0.51302789  0.12306088  0.95663545  1
  S2-  S210  1  0.47252260  0.38406284  0.45579076  1
  S2-  S211  1  0.52000396  0.38770550  0.95168657  1
  S2-  S212  1  0.48423815  0.64025697  0.44581966  1
  S2-  S213  1  0.52118345  0.63476554  0.94882732  1
  S2-  S214  1  0.47762519  0.88063458  0.44987980  1
  S2-  S215  1  0.52233966  0.87796843  0.95067283  1
  S2-  S216  1  0.73093097  0.13480751  0.45963182  1
  S2-  S217  1  0.76384969  0.13374760  0.95925238  1
  S2-  S218  1  0.72565462  0.38205472  0.44954806  1
  S2-  S219  1  0.76874232  0.38065000  0.95817508  1
  S2-  S220  1  0.71821911  0.63653356  0.44466724  1
  S2-  S221  1  0.76962095  0.63422135  0.95005364  1
  S2-  S222  1  0.72418715  0.87945934  0.45012228  1
  S2-  S223  1  0.76604520  0.87740357  0.96290461  1
  S2-  S224  1  0.13746210  0.00727928  0.04883178  1
  S2-  S225  1  0.10301089  0.00155713  0.54817832  1
  S2-  S226  1  0.14450094  0.24464973  0.03862675  1
  S2-  S227  1  0.10303836  0.26306256  0.55349848  1
  S2-  S228  1  0.14412427  0.50706446  0.04855919  1
  S2-  S229  1  0.10409866  0.50662983  0.55069910  1
  S2-  S230  1  0.13541501  0.75812044  0.04502958  1
  S2-  S231  1  0.10452469  0.75250444  0.54764941  1
  S2-  S232  1  0.40790653  -0.01451533  0.04573860  1
  S2-  S233  1  0.35593726  0.00141869  0.54873382  1
  S2-  S234  1  0.39887375  0.26331068  0.03034291  1
  S2-  S235  1  0.34849272  0.25762250  0.55151024  1
  S2-  S236  1  0.39269453  0.51363537  0.03681361  1
  S2-  S237  1  0.35321584  0.50967902  0.53315730  1
  S2-  S238  1  0.39619267  0.75689592  0.04141101  1
  S2-  S239  1  0.35332923  0.75718909  0.53869973  1
  S2-  S240  1  0.63520035  0.00605602  0.05728523  1
  S2-  S241  1  0.60427884  0.00286142  0.54168352  1
  S2-  S242  1  0.63837348  0.25016978  0.04071626  1
  S2-  S243  1  0.60472823  0.25876793  0.54339413  1
  S2-  S244  1  0.64831797  0.51014935  0.03605569  1
  S2-  S245  1  0.60423023  0.50624407  0.55094812  1
  S2-  S246  1  0.64808835  0.75439587  0.04647553  1
  S2-  S247  1  0.60575321  0.75566104  0.54952465  1
  S2-  S248  1  0.89129267  0.00544108  0.03534727  1
  S2-  S249  1  0.85452476  0.00485224  0.53902852  1
  S2-  S250  1  0.88973504  0.25457455  0.03856060  1
  S2-  S251  1  0.85747638  0.25834900  0.54031358  1
  S2-  S252  1  0.89542101  0.50574176  0.03663673  1
  S2-  S253  1  0.85181511  0.50492809  0.53437707  1
  S2-  S254  1  0.89507221  0.75175795  0.03654518  1
  S2-  S255  1  0.85203953  0.75569395  0.53283434  1
