# generated using pymatgen
data_La6Ce7Pr13Nd19Sm19(BiS2)64
_symmetry_space_group_name_H-M   'P 1'
_cell_length_a   16.03993094
_cell_length_b   16.06981846
_cell_length_c   27.35831078
_cell_angle_alpha   90.16496783
_cell_angle_beta   90.07096608
_cell_angle_gamma   89.99629362
_symmetry_Int_Tables_number   1
_chemical_formula_structural   La6Ce7Pr13Nd19Sm19(BiS2)64
_chemical_formula_sum   'La6 Ce7 Pr13 Nd19 Sm19 Bi64 S128'
_cell_volume   7051.81011064
_cell_formula_units_Z   1
loop_
 _symmetry_equiv_pos_site_id
 _symmetry_equiv_pos_as_xyz
  1  'x, y, z'
loop_
 _atom_type_symbol
 _atom_type_oxidation_number
  La3+  3.0
  Ce3+  3.0
  Pr3+  3.0
  Nd3+  3.0
  Sm3+  3.0
  Bi2+  2.0
  S2-  -2.0
loop_
 _atom_site_type_symbol
 _atom_site_label
 _atom_site_symmetry_multiplicity
 _atom_site_fract_x
 _atom_site_fract_y
 _atom_site_fract_z
 _atom_site_occupancy
  La3+  La0  1  0.11799846  0.24967342  0.40454589  1
  La3+  La1  1  0.23662272  0.12906799  0.60308993  1
  La3+  La2  1  0.49142348  0.63624369  0.08557321  1
  La3+  La3  1  0.64752160  0.26350283  0.89485214  1
  La3+  La4  1  0.36799791  0.01043928  0.90498046  1
  La3+  La5  1  0.37530536  0.74014464  0.89477007  1
  Ce3+  Ce6  1  0.86322480  0.75104310  0.43444096  1
  Ce3+  Ce7  1  0.62105776  0.74870043  0.93693387  1
  Ce3+  Ce8  1  0.87854000  0.75059110  0.93881294  1
  Ce3+  Ce9  1  0.74875607  0.87781944  0.05046295  1
  Ce3+  Ce10  1  0.74684248  0.63078900  0.06814446  1
  Ce3+  Ce11  1  0.61413314  0.75140369  0.44166440  1
  Ce3+  Ce12  1  0.37527024  0.49944526  0.93690525  1
  Pr3+  Pr13  1  -0.00484080  0.63110866  0.07387690  1
  Pr3+  Pr14  1  0.01064581  0.38349758  0.09341067  1
  Pr3+  Pr15  1  0.87062586  0.49708885  0.94742010  1
  Pr3+  Pr16  1  0.74073752  0.63129798  0.57080509  1
  Pr3+  Pr17  1  -0.00953166  0.37078393  0.54792504  1
  Pr3+  Pr18  1  0.87648711  0.25162526  0.95819252  1
  Pr3+  Pr19  1  0.48928126  0.37212289  0.55823111  1
  Pr3+  Pr20  1  0.48354876  0.87459089  0.57731702  1
  Pr3+  Pr21  1  0.62206852  0.00378606  0.92864570  1
  Pr3+  Pr22  1  0.11625162  0.50206946  0.93812532  1
  Pr3+  Pr23  1  0.86362712  0.00230920  0.43836579  1
  Pr3+  Pr24  1  0.86100839  0.50495777  0.42989294  1
  Pr3+  Pr25  1  0.49420002  0.12793901  0.57572907  1
  Nd3+  Nd26  1  0.74328082  0.13416258  0.57627295  1
  Nd3+  Nd27  1  0.23662461  0.37070830  0.56103620  1
  Nd3+  Nd28  1  0.23916529  0.62525176  0.55637403  1
  Nd3+  Nd29  1  0.12415081  0.24989142  0.95163375  1
  Nd3+  Nd30  1  0.11579483  0.00143032  0.44088404  1
  Nd3+  Nd31  1  0.25225657  0.12320168  0.06425476  1
  Nd3+  Nd32  1  0.23426462  0.87136606  0.57341066  1
  Nd3+  Nd33  1  0.74818545  0.12540313  0.06288591  1
  Nd3+  Nd34  1  0.36509780  0.49874057  0.44311227  1
  Nd3+  Nd35  1  0.00825304  0.11392992  0.08944327  1
  Nd3+  Nd36  1  0.25107030  0.37758796  0.06309261  1
  Nd3+  Nd37  1  0.75068126  0.37484776  0.07407828  1
  Nd3+  Nd38  1  0.61541006  0.24426171  0.43712123  1
  Nd3+  Nd39  1  0.36226186  0.00322776  0.45326121  1
  Nd3+  Nd40  1  0.11561562  0.75188898  0.43827027  1
  Nd3+  Nd41  1  0.12278832  0.75272239  0.93235071  1
  Nd3+  Nd42  1  0.37630428  0.25034240  0.93957691  1
  Nd3+  Nd43  1  -0.00845667  0.87731048  0.56236587  1
  Nd3+  Nd44  1  0.50016848  0.37771595  0.05944895  1
  Sm3+  Sm45  1  0.74002710  0.38124240  0.56565048  1
  Sm3+  Sm46  1  0.61439151  0.50020165  0.44178141  1
  Sm3+  Sm47  1  -0.01147166  0.62376278  0.55344992  1
  Sm3+  Sm48  1  0.49528379  0.87544654  0.04367087  1
  Sm3+  Sm49  1  0.87813101  0.00635714  0.94159526  1
  Sm3+  Sm50  1  0.74185815  0.87496037  0.56279602  1
  Sm3+  Sm51  1  0.61288222  0.00091975  0.45429746  1
  Sm3+  Sm52  1  0.36655497  0.75505966  0.43847562  1
  Sm3+  Sm53  1  0.85604384  0.25379926  0.43132439  1
  Sm3+  Sm54  1  0.11579591  0.49943598  0.43960303  1
  Sm3+  Sm55  1  0.12040338  0.00897948  0.93010505  1
  Sm3+  Sm56  1  0.36403289  0.24680169  0.44365972  1
  Sm3+  Sm57  1  0.25322302  0.87653259  0.04286090  1
  Sm3+  Sm58  1  0.25091311  0.63033659  0.05151171  1
  Sm3+  Sm59  1  -0.00585295  0.12716330  0.55160442  1
  Sm3+  Sm60  1  0.62263981  0.50259933  0.94997149  1
  Sm3+  Sm61  1  0.50139366  0.12465509  0.05257790  1
  Sm3+  Sm62  1  0.00463350  0.87732921  0.05978411  1
  Sm3+  Sm63  1  0.48804159  0.62765788  0.55709818  1
  Bi2+  Bi64  1  -0.00859441  0.10957773  0.28866750  1
  Bi2+  Bi65  1  0.00376351  0.16833788  0.79902302  1
  Bi2+  Bi66  1  -0.00443687  0.36543297  0.29108148  1
  Bi2+  Bi67  1  0.02886474  0.38394018  0.79927951  1
  Bi2+  Bi68  1  -0.00749746  0.61135517  0.28800791  1
  Bi2+  Bi69  1  -0.05007297  0.63841855  0.79354707  1
  Bi2+  Bi70  1  0.02439918  0.87320932  0.30114218  1
  Bi2+  Bi71  1  -0.04381285  0.89369805  0.79408854  1
  Bi2+  Bi72  1  0.31584160  0.13148350  0.28884956  1
  Bi2+  Bi73  1  0.25453395  0.12203038  0.78800857  1
  Bi2+  Bi74  1  0.32152756  0.37367292  0.28029510  1
  Bi2+  Bi75  1  0.24945144  0.33817337  0.79609422  1
  Bi2+  Bi76  1  0.23213263  0.70376902  0.27028462  1
  Bi2+  Bi77  1  0.19127978  0.59583623  0.77657446  1
  Bi2+  Bi78  1  0.26432639  0.92179808  0.28424256  1
  Bi2+  Bi79  1  0.21427580  0.85375379  0.77811042  1
  Bi2+  Bi80  1  0.49928335  0.16792345  0.32824664  1
  Bi2+  Bi81  1  0.56228244  0.12055083  0.77202074  1
  Bi2+  Bi82  1  0.52013897  0.35603678  0.29372827  1
  Bi2+  Bi83  1  0.42555533  0.42198990  0.80084751  1
  Bi2+  Bi84  1  0.48989725  0.62898174  0.31449572  1
  Bi2+  Bi85  1  0.51367498  0.59093575  0.78050176  1
  Bi2+  Bi86  1  0.46670982  0.91116999  0.27083230  1
  Bi2+  Bi87  1  0.56008753  0.86087372  0.79123859  1
  Bi2+  Bi88  1  0.68356826  0.12685760  0.28809664  1
  Bi2+  Bi89  1  0.82115866  0.14284223  0.76471226  1
  Bi2+  Bi90  1  0.71216125  0.39208394  0.29855667  1
  Bi2+  Bi91  1  0.81220140  0.41654847  0.81519383  1
  Bi2+  Bi92  1  0.77867797  0.67629628  0.27354604  1
  Bi2+  Bi93  1  0.75946790  0.67737625  0.79091383  1
  Bi2+  Bi94  1  0.82970920  0.86038740  0.31515129  1
  Bi2+  Bi95  1  0.75779766  0.88140382  0.78831486  1
  Bi2+  Bi96  1  0.12546097  -0.05334280  0.20316975  1
  Bi2+  Bi97  1  0.08134980  -0.01489359  0.72283900  1
  Bi2+  Bi98  1  0.14811933  0.23970923  0.20090051  1
  Bi2+  Bi99  1  0.10214951  0.26291048  0.71142887  1
  Bi2+  Bi100  1  0.15978095  0.52290382  0.25035740  1
  Bi2+  Bi101  1  0.10201824  0.47977798  0.70344844  1
  Bi2+  Bi102  1  0.12278245  0.75063555  0.17680464  1
  Bi2+  Bi103  1  0.08757126  0.73692071  0.70800174  1
  Bi2+  Bi104  1  0.38138220  0.03873280  0.19529854  1
  Bi2+  Bi105  1  0.40277874  -0.02443290  0.71016294  1
  Bi2+  Bi106  1  0.34738629  0.23975825  0.19026511  1
  Bi2+  Bi107  1  0.39403656  0.29220107  0.70530767  1
  Bi2+  Bi108  1  0.35227396  0.52689633  0.21462757  1
  Bi2+  Bi109  1  0.30214495  0.47436224  0.70769467  1
  Bi2+  Bi110  1  0.38223793  0.77305329  0.20136960  1
  Bi2+  Bi111  1  0.36362376  0.71539824  0.70604999  1
  Bi2+  Bi112  1  0.65148916  -0.06418026  0.23436946  1
  Bi2+  Bi113  1  0.72985226  0.00719670  0.69755309  1
  Bi2+  Bi114  1  0.54730170  0.21215433  0.21473816  1
  Bi2+  Bi115  1  0.64716484  0.27271669  0.70741305  1
  Bi2+  Bi116  1  0.59817273  0.50626269  0.20975433  1
  Bi2+  Bi117  1  0.67704016  0.51288655  0.74074986  1
  Bi2+  Bi118  1  0.61190080  0.74184510  0.23797141  1
  Bi2+  Bi119  1  0.61464979  0.75042250  0.70593939  1
  Bi2+  Bi120  1  0.83677100  -0.03124140  0.20603499  1
  Bi2+  Bi121  1  0.91348774  0.05387483  0.67477625  1
  Bi2+  Bi122  1  0.82454753  0.23621824  0.20973278  1
  Bi2+  Bi123  1  0.88258910  0.31736418  0.72177273  1
  Bi2+  Bi124  1  0.86701339  0.50760631  0.19729033  1
  Bi2+  Bi125  1  0.86385217  0.53816396  0.70860062  1
  Bi2+  Bi126  1  0.93667743  0.75922982  0.21691927  1
  Bi2+  Bi127  1  0.89298262  0.80059120  0.69954294  1
  S2-  S128  1  -0.03181664  0.16355488  0.18785626  1
  S2-  S129  1  0.06538342  0.14254230  0.64080940  1
  S2-  S130  1  -0.05783486  0.35861953  0.18896465  1
  S2-  S131  1  -0.00083202  0.37872994  0.64806624  1
  S2-  S132  1  0.01764933  0.53062096  0.15486386  1
  S2-  S133  1  -0.03190155  0.65309249  0.64930154  1
  S2-  S134  1  -0.01675146  0.96186878  0.14489366  1
  S2-  S135  1  0.10013447  0.87338875  0.64146241  1
  S2-  S136  1  0.16123571  0.09447303  0.14735319  1
  S2-  S137  1  0.23589157  0.03374737  0.69376125  1
  S2-  S138  1  0.16678662  0.37596996  0.14982223  1
  S2-  S139  1  0.24116554  0.28816005  0.64878105  1
  S2-  S140  1  0.33382014  0.63376697  0.13946438  1
  S2-  S141  1  0.23249758  0.68089585  0.65009115  1
  S2-  S142  1  0.24593494  0.86094723  0.14218456  1
  S2-  S143  1  0.35150704  0.85861007  0.64904186  1
  S2-  S144  1  0.52540648  0.08056648  0.14775379  1
  S2-  S145  1  0.40023015  0.12887981  0.66091187  1
  S2-  S146  1  0.47903387  0.45699550  0.14946349  1
  S2-  S147  1  0.52332678  0.36505955  0.65654629  1
  S2-  S148  1  0.63376928  0.63263151  0.14842000  1
  S2-  S149  1  0.49432437  0.64698772  0.65414049  1
  S2-  S150  1  0.49074468  0.80487315  0.13410098  1
  S2-  S151  1  0.54598689  0.90794431  0.67241254  1
  S2-  S152  1  0.75999884  0.11225061  0.16186906  1
  S2-  S153  1  0.61944242  0.13404222  0.65121955  1
  S2-  S154  1  0.72514566  0.39796528  0.17354446  1
  S2-  S155  1  0.77261022  0.27321257  0.64095455  1
  S2-  S156  1  0.85601671  0.65319127  0.14361120  1
  S2-  S157  1  0.73838114  0.50389180  0.64030780  1
  S2-  S158  1  0.73900303  0.87202914  0.14829810  1
  S2-  S159  1  0.74921157  0.76539174  0.64009630  1
  S2-  S160  1  0.10782181  0.01485312  0.34157719  1
  S2-  S161  1  0.21942493  -0.00883946  0.84523832  1
  S2-  S162  1  0.11202889  0.23579856  0.30002381  1
  S2-  S163  1  0.13799968  0.19296904  0.85751473  1
  S2-  S164  1  0.11674102  0.46375403  0.34371180  1
  S2-  S165  1  0.18945032  0.46910626  0.84701913  1
  S2-  S166  1  0.09571771  0.72688352  0.34075685  1
  S2-  S167  1  0.20837367  0.72989271  0.84522697  1
  S2-  S168  1  0.37155428  -0.03843722  0.35617166  1
  S2-  S169  1  0.46712173  -0.00617798  0.81858027  1
  S2-  S170  1  0.28551691  0.26121045  0.35657903  1
  S2-  S171  1  0.36547469  0.16939779  0.85174147  1
  S2-  S172  1  0.38174193  0.50427167  0.34539936  1
  S2-  S173  1  0.38434550  0.57931935  0.85012646  1
  S2-  S174  1  0.36705785  0.72504589  0.34187403  1
  S2-  S175  1  0.37032789  0.80951011  0.79569500  1
  S2-  S176  1  0.61252710  0.03196982  0.35829724  1
  S2-  S177  1  0.65934393  0.09986461  0.84728280  1
  S2-  S178  1  0.72648117  0.25036925  0.36105153  1
  S2-  S179  1  0.56390981  0.27442215  0.80307392  1
  S2-  S180  1  0.63321676  0.52562083  0.34543499  1
  S2-  S181  1  0.66656911  0.44201916  0.86235269  1
  S2-  S182  1  0.59600654  0.75967487  0.34511958  1
  S2-  S183  1  0.54964945  0.71707786  0.84987216  1
  S2-  S184  1  0.86113428  0.02740849  0.33848374  1
  S2-  S185  1  0.98306186  0.02219192  0.86356852  1
  S2-  S186  1  0.94324827  0.23350001  0.34678157  1
  S2-  S187  1  0.81869661  0.26593777  0.86266709  1
  S2-  S188  1  0.85712237  0.42683594  0.33800466  1
  S2-  S189  1  0.97510116  0.50830117  0.86540246  1
  S2-  S190  1  0.86326331  0.63893115  0.35893846  1
  S2-  S191  1  0.98883297  0.75747207  0.86292460  1
  S2-  S192  1  -0.00875988  0.12746970  0.44853533  1
  S2-  S193  1  0.00056113  0.12674399  0.96863142  1
  S2-  S194  1  -0.00792236  0.37501024  0.44359069  1
  S2-  S195  1  0.00101905  0.37416437  0.96628710  1
  S2-  S196  1  -0.00513663  0.62358952  0.45113370  1
  S2-  S197  1  -0.00350396  0.62773467  0.96609878  1
  S2-  S198  1  -0.01004716  0.87529660  0.45355403  1
  S2-  S199  1  0.00052147  0.88217947  0.95804174  1
  S2-  S200  1  0.23829076  0.12528259  0.44571286  1
  S2-  S201  1  0.25021165  0.12354896  0.95969582  1
  S2-  S202  1  0.23875541  0.37647160  0.45454735  1
  S2-  S203  1  0.24982796  0.37360148  0.95708839  1
  S2-  S204  1  0.24105606  0.62610424  0.44853401  1
  S2-  S205  1  0.24843061  0.62441403  0.94992425  1
  S2-  S206  1  0.24012655  0.87348526  0.45736567  1
  S2-  S207  1  0.25159950  0.87660422  0.94148247  1
  S2-  S208  1  0.48934256  0.12588015  0.46634822  1
  S2-  S209  1  0.50411482  0.13071511  0.94871457  1
  S2-  S210  1  0.49005214  0.37289721  0.45077609  1
  S2-  S211  1  0.50517478  0.37116224  0.95191429  1
  S2-  S212  1  0.48833927  0.62596219  0.45302299  1
  S2-  S213  1  0.50001154  0.62235963  0.95655867  1
  S2-  S214  1  0.48856058  0.87645602  0.46245936  1
  S2-  S215  1  0.49359239  0.87815590  0.93897167  1
  S2-  S216  1  0.73844645  0.12262910  0.46326309  1
  S2-  S217  1  0.74986246  0.12678107  0.95771770  1
  S2-  S218  1  0.73687135  0.37958537  0.46044711  1
  S2-  S219  1  0.74585728  0.37201610  0.96901665  1
  S2-  S220  1  0.73474727  0.62660848  0.46093317  1
  S2-  S221  1  0.74876897  0.62626720  0.95612851  1
  S2-  S222  1  0.73741287  0.87716701  0.45769996  1
  S2-  S223  1  0.75263004  0.87929530  0.94234210  1
  S2-  S224  1  0.12678364  -0.00202861  0.03887195  1
  S2-  S225  1  0.11910076  0.00393803  0.54564718  1
  S2-  S226  1  0.12324906  0.24786851  0.05539419  1
  S2-  S227  1  0.11744646  0.24871177  0.53779946  1
  S2-  S228  1  0.12905458  0.50516204  0.04624716  1
  S2-  S229  1  0.11495531  0.50104104  0.54494861  1
  S2-  S230  1  0.12561275  0.75330658  0.03989596  1
  S2-  S231  1  0.11214695  0.74689547  0.54264818  1
  S2-  S232  1  0.37635895  0.00108947  0.04371418  1
  S2-  S233  1  0.35789796  0.00394490  0.55683750  1
  S2-  S234  1  0.37608447  0.24974696  0.04681680  1
  S2-  S235  1  0.36232775  0.24635648  0.54695814  1
  S2-  S236  1  0.37286374  0.50162098  0.04214526  1
  S2-  S237  1  0.36404663  0.50000094  0.54997357  1
  S2-  S238  1  0.37237513  0.75304132  0.03339388  1
  S2-  S239  1  0.36374128  0.74828216  0.54302622  1
  S2-  S240  1  0.62248472  -0.00011848  0.03723833  1
  S2-  S241  1  0.61807338  -0.00345673  0.55592708  1
  S2-  S242  1  0.62201309  0.25015172  0.06381980  1
  S2-  S243  1  0.62029714  0.25540556  0.54341300  1
  S2-  S244  1  0.62563554  0.49878897  0.05163335  1
  S2-  S245  1  0.60888955  0.50373087  0.54589208  1
  S2-  S246  1  0.62370171  0.75385030  0.03956885  1
  S2-  S247  1  0.61003920  0.75361452  0.54731219  1
  S2-  S248  1  0.87440852  0.00286939  0.04506234  1
  S2-  S249  1  0.86488812  0.00065319  0.54654798  1
  S2-  S250  1  0.87927738  0.24918214  0.06461462  1
  S2-  S251  1  0.86682144  0.24715774  0.53665426  1
  S2-  S252  1  0.87347024  0.49721227  0.05352154  1
  S2-  S253  1  0.86692218  0.50140692  0.53951609  1
  S2-  S254  1  0.87634852  0.75960581  0.04337967  1
  S2-  S255  1  0.86991431  0.75255225  0.53979814  1
