# generated using pymatgen
data_La6Ce7Pr13Nd19Sm19(BiS2)64
_symmetry_space_group_name_H-M   'P 1'
_cell_length_a   16.15311856
_cell_length_b   16.15630913
_cell_length_c   27.22084957
_cell_angle_alpha   90.04419898
_cell_angle_beta   90.07392306
_cell_angle_gamma   89.92293190
_symmetry_Int_Tables_number   1
_chemical_formula_structural   La6Ce7Pr13Nd19Sm19(BiS2)64
_chemical_formula_sum   'La6 Ce7 Pr13 Nd19 Sm19 Bi64 S128'
_cell_volume   7103.94070059
_cell_formula_units_Z   1
loop_
 _symmetry_equiv_pos_site_id
 _symmetry_equiv_pos_as_xyz
  1  'x, y, z'
loop_
 _atom_type_symbol
 _atom_type_oxidation_number
  La3+  3.0
  Ce3+  3.0
  Pr3+  3.0
  Nd3+  3.0
  Sm3+  3.0
  Bi2+  2.0
  S2-  -2.0
loop_
 _atom_site_type_symbol
 _atom_site_label
 _atom_site_symmetry_multiplicity
 _atom_site_fract_x
 _atom_site_fract_y
 _atom_site_fract_z
 _atom_site_occupancy
  La3+  La0  1  0.24678289  0.37794618  0.56167648  1
  La3+  La1  1  0.87075491  0.51325463  0.40437302  1
  La3+  La2  1  0.86921523  0.24488927  0.40459801  1
  La3+  La3  1  -0.00454419  0.13349714  0.57069080  1
  La3+  La4  1  -0.01622803  0.63793255  0.08583314  1
  La3+  La5  1  0.88331233  0.48431144  0.88249170  1
  Ce3+  Ce6  1  0.36594062  0.01040147  0.93858518  1
  Ce3+  Ce7  1  0.87254736  0.74697208  0.93895125  1
  Ce3+  Ce8  1  0.50046115  0.62907182  0.55593036  1
  Ce3+  Ce9  1  0.63127503  0.50205212  0.44245626  1
  Ce3+  Ce10  1  0.75503632  0.37769010  0.55512373  1
  Ce3+  Ce11  1  0.25014150  0.62955932  0.56103700  1
  Ce3+  Ce12  1  0.75188787  0.87759766  0.55871634  1
  Pr3+  Pr13  1  0.12807725  0.50556966  0.42792671  1
  Pr3+  Pr14  1  0.24870373  0.12870165  0.56263560  1
  Pr3+  Pr15  1  0.36672471  0.75584970  0.94439432  1
  Pr3+  Pr16  1  0.62646455  0.50876850  0.93761287  1
  Pr3+  Pr17  1  0.11369820  0.26267135  0.93793795  1
  Pr3+  Pr18  1  0.61702767  0.00716008  0.94711564  1
  Pr3+  Pr19  1  0.37632980  0.50081284  0.44079753  1
  Pr3+  Pr20  1  0.37383023  0.25246432  0.44000502  1
  Pr3+  Pr21  1  0.86036101  0.24675477  0.92285322  1
  Pr3+  Pr22  1  0.00908318  0.62488590  0.56935645  1
  Pr3+  Pr23  1  0.00031525  0.87757969  0.56227081  1
  Pr3+  Pr24  1  0.37468903  0.75247316  0.43901149  1
  Pr3+  Pr25  1  0.87586273  0.00135983  0.43759579  1
  Nd3+  Nd26  1  0.50155005  0.12901311  0.55641428  1
  Nd3+  Nd27  1  0.50266190  0.37814251  0.55680583  1
  Nd3+  Nd28  1  0.49067978  0.13511376  0.06024985  1
  Nd3+  Nd29  1  0.49232741  0.88309275  0.05870138  1
  Nd3+  Nd30  1  0.12201012  0.24879275  0.43251863  1
  Nd3+  Nd31  1  0.62767504  0.75003025  0.44639508  1
  Nd3+  Nd32  1  0.24342861  0.63416372  0.07064273  1
  Nd3+  Nd33  1  0.12258689  0.00419066  0.44309788  1
  Nd3+  Nd34  1  0.23860209  0.13638729  0.06543837  1
  Nd3+  Nd35  1  0.75120943  0.62681948  0.57065888  1
  Nd3+  Nd36  1  0.24106096  0.88624975  0.06193329  1
  Nd3+  Nd37  1  0.37524471  0.00394565  0.44126937  1
  Nd3+  Nd38  1  -0.00799165  0.88307117  0.05915563  1
  Nd3+  Nd39  1  0.74369533  0.13659420  0.06842743  1
  Nd3+  Nd40  1  0.24155738  0.38555353  0.06729316  1
  Nd3+  Nd41  1  0.11625908  0.75354289  0.94498199  1
  Nd3+  Nd42  1  0.61948318  0.25885608  0.93905195  1
  Nd3+  Nd43  1  0.62733593  0.00172655  0.44456984  1
  Nd3+  Nd44  1  0.12535478  0.01005699  0.93004964  1
  Sm3+  Sm45  1  -0.00830115  0.13485654  0.05637999  1
  Sm3+  Sm46  1  0.50090949  0.87853350  0.55450872  1
  Sm3+  Sm47  1  0.11759057  0.51104632  0.94597265  1
  Sm3+  Sm48  1  0.25032576  0.88021376  0.55505501  1
  Sm3+  Sm49  1  0.36589329  0.50731811  0.94453687  1
  Sm3+  Sm50  1  0.61947782  0.75627811  0.94478122  1
  Sm3+  Sm51  1  -0.01074404  0.38392273  0.05857397  1
  Sm3+  Sm52  1  -0.00428467  0.37774732  0.54311199  1
  Sm3+  Sm53  1  0.62938795  0.25225134  0.44016131  1
  Sm3+  Sm54  1  0.75052506  0.13004455  0.55913325  1
  Sm3+  Sm55  1  0.12466665  0.75075881  0.44306857  1
  Sm3+  Sm56  1  0.74399279  0.63183537  0.06148248  1
  Sm3+  Sm57  1  0.87726939  0.74847213  0.44571816  1
  Sm3+  Sm58  1  0.36795057  0.26103094  0.94766763  1
  Sm3+  Sm59  1  0.49366709  0.63200103  0.05499250  1
  Sm3+  Sm60  1  0.74344773  0.88310532  0.05278651  1
  Sm3+  Sm61  1  0.49400115  0.38414710  0.05717893  1
  Sm3+  Sm62  1  0.87041243  0.00647807  0.94126389  1
  Sm3+  Sm63  1  0.74672008  0.38363422  0.05648003  1
  Bi2+  Bi64  1  0.01665010  0.06469415  0.27182041  1
  Bi2+  Bi65  1  0.00021102  0.13394213  0.79576952  1
  Bi2+  Bi66  1  0.04063033  0.36254112  0.27889178  1
  Bi2+  Bi67  1  0.05911992  0.35793671  0.79048531  1
  Bi2+  Bi68  1  0.00108116  0.62031572  0.28865820  1
  Bi2+  Bi69  1  0.00365234  0.62775600  0.79019153  1
  Bi2+  Bi70  1  -0.01881704  0.87801701  0.29769092  1
  Bi2+  Bi71  1  0.02451573  0.85883696  0.77953886  1
  Bi2+  Bi72  1  0.25407998  0.14635877  0.30488507  1
  Bi2+  Bi73  1  0.28068973  0.09762685  0.76756538  1
  Bi2+  Bi74  1  0.33286893  0.37259443  0.28481329  1
  Bi2+  Bi75  1  0.27072839  0.38028234  0.78703029  1
  Bi2+  Bi76  1  0.24595418  0.64015549  0.29696277  1
  Bi2+  Bi77  1  0.24007626  0.63820772  0.79965157  1
  Bi2+  Bi78  1  0.25119334  0.89333202  0.28919666  1
  Bi2+  Bi79  1  0.30775376  0.88266581  0.79060687  1
  Bi2+  Bi80  1  0.52135188  0.12877557  0.28092311  1
  Bi2+  Bi81  1  0.48293389  0.11727100  0.79969325  1
  Bi2+  Bi82  1  0.52697055  0.40941898  0.29826434  1
  Bi2+  Bi83  1  0.50739912  0.31370138  0.81620478  1
  Bi2+  Bi84  1  0.50212491  0.60439058  0.28765701  1
  Bi2+  Bi85  1  0.50279689  0.61399149  0.79123427  1
  Bi2+  Bi86  1  0.52799733  0.82976688  0.29887104  1
  Bi2+  Bi87  1  0.51168143  0.91758227  0.79523657  1
  Bi2+  Bi88  1  0.73929473  0.09379408  0.29316383  1
  Bi2+  Bi89  1  0.72547190  0.12360194  0.78510925  1
  Bi2+  Bi90  1  0.72040469  0.37060719  0.28592199  1
  Bi2+  Bi91  1  0.68174109  0.34189457  0.76343296  1
  Bi2+  Bi92  1  0.74432444  0.63731523  0.28809210  1
  Bi2+  Bi93  1  0.73680678  0.60035772  0.77953136  1
  Bi2+  Bi94  1  0.78646296  0.90378834  0.30037649  1
  Bi2+  Bi95  1  0.73692631  0.80938034  0.79570135  1
  Bi2+  Bi96  1  0.17114711  -0.00925535  0.19256707  1
  Bi2+  Bi97  1  0.13760698  0.00482548  0.70775468  1
  Bi2+  Bi98  1  0.15932214  0.18834640  0.20365561  1
  Bi2+  Bi99  1  0.10525800  0.25027879  0.68799919  1
  Bi2+  Bi100  1  0.14453502  0.47703208  0.19981666  1
  Bi2+  Bi101  1  0.16042306  0.49034631  0.71594217  1
  Bi2+  Bi102  1  0.11897937  0.80902224  0.22175186  1
  Bi2+  Bi103  1  0.13173090  0.76481702  0.69765468  1
  Bi2+  Bi104  1  0.41567983  -0.02679539  0.24540877  1
  Bi2+  Bi105  1  0.40127019  -0.01908272  0.70598746  1
  Bi2+  Bi106  1  0.40851828  0.23216883  0.20129601  1
  Bi2+  Bi107  1  0.42328387  0.24746417  0.71919901  1
  Bi2+  Bi108  1  0.39260171  0.50547292  0.20902277  1
  Bi2+  Bi109  1  0.36102680  0.51941177  0.72130474  1
  Bi2+  Bi110  1  0.41365645  0.77036536  0.21010786  1
  Bi2+  Bi111  1  0.36127656  0.71607854  0.72001160  1
  Bi2+  Bi112  1  0.64041109  -0.07627034  0.22018316  1
  Bi2+  Bi113  1  0.67715238  -0.04370188  0.72478968  1
  Bi2+  Bi114  1  0.60401581  0.26602565  0.21603122  1
  Bi2+  Bi115  1  0.62249445  0.19370666  0.69432581  1
  Bi2+  Bi116  1  0.64184542  0.51931663  0.21574041  1
  Bi2+  Bi117  1  0.55969201  0.47852208  0.71478029  1
  Bi2+  Bi118  1  0.61438382  0.71514043  0.20904804  1
  Bi2+  Bi119  1  0.55897330  0.75251614  0.71657640  1
  Bi2+  Bi120  1  0.88694941  -0.02540787  0.20510984  1
  Bi2+  Bi121  1  0.85707248  -0.03904541  0.78008369  1
  Bi2+  Bi122  1  0.87394617  0.23339639  0.20194212  1
  Bi2+  Bi123  1  0.83955315  0.25039489  0.71040657  1
  Bi2+  Bi124  1  0.87765911  0.48365768  0.19530583  1
  Bi2+  Bi125  1  0.88058650  0.48378126  0.67882168  1
  Bi2+  Bi126  1  0.86570352  0.77197389  0.20995028  1
  Bi2+  Bi127  1  0.85088748  0.74389856  0.70583733  1
  S2-  S128  1  -0.00151042  0.16575012  0.15331339  1
  S2-  S129  1  0.01703132  0.09434488  0.66964279  1
  S2-  S130  1  -0.00518877  0.38756100  0.15879096  1
  S2-  S131  1  -0.00755459  0.35681607  0.64278655  1
  S2-  S132  1  0.02984097  0.58852550  0.18448483  1
  S2-  S133  1  -0.04474712  0.63408802  0.66722736  1
  S2-  S134  1  -0.00449583  0.79347073  0.14465512  1
  S2-  S135  1  0.00869823  0.85505104  0.66222685  1
  S2-  S136  1  0.30504052  0.11018007  0.15600340  1
  S2-  S137  1  0.23122009  0.12795989  0.66239116  1
  S2-  S138  1  0.22091597  0.32816228  0.16013485  1
  S2-  S139  1  0.22317863  0.35050286  0.65993116  1
  S2-  S140  1  0.24652303  0.59102065  0.16762880  1
  S2-  S141  1  0.15255962  0.61350623  0.63987345  1
  S2-  S142  1  0.25636590  0.84081134  0.15694217  1
  S2-  S143  1  0.23045163  0.87849739  0.65234586  1
  S2-  S144  1  0.54077814  0.14465460  0.15438438  1
  S2-  S145  1  0.48612832  0.11506792  0.65414141  1
  S2-  S146  1  0.46079002  0.38130687  0.15291429  1
  S2-  S147  1  0.47241575  0.37311456  0.65397411  1
  S2-  S148  1  0.46587347  0.64151282  0.15053370  1
  S2-  S149  1  0.53441758  0.62162541  0.65036594  1
  S2-  S150  1  0.49398651  0.90411267  0.15632973  1
  S2-  S151  1  0.49817899  0.87402785  0.65164601  1
  S2-  S152  1  0.77989254  0.11947779  0.16581191  1
  S2-  S153  1  0.79748025  0.12871395  0.65368700  1
  S2-  S154  1  0.77805982  0.36239084  0.15366803  1
  S2-  S155  1  0.75099542  0.37119672  0.65358681  1
  S2-  S156  1  0.82860902  0.63402767  0.14788422  1
  S2-  S157  1  0.75483241  0.61004104  0.67124224  1
  S2-  S158  1  0.76008035  0.87954469  0.15011792  1
  S2-  S159  1  0.76992552  0.86729365  0.65473586  1
  S2-  S160  1  0.12399932  0.06662779  0.35051162  1
  S2-  S161  1  0.05371922  -0.00347854  0.83810445  1
  S2-  S162  1  0.15831166  0.27722795  0.33666195  1
  S2-  S163  1  0.12047210  0.21501049  0.84031050  1
  S2-  S164  1  0.10448762  0.50612931  0.32758993  1
  S2-  S165  1  0.05565895  0.51196026  0.85381861  1
  S2-  S166  1  0.11851944  0.70699314  0.34859032  1
  S2-  S167  1  0.11038315  0.74098536  0.84499561  1
  S2-  S168  1  0.34884066  0.00630224  0.34392223  1
  S2-  S169  1  0.26299083  0.01187671  0.86017434  1
  S2-  S170  1  0.39232594  0.23283711  0.34089133  1
  S2-  S171  1  0.34395596  0.27232012  0.85149566  1
  S2-  S172  1  0.30594915  0.50905730  0.34949572  1
  S2-  S173  1  0.27843067  0.50954635  0.86031259  1
  S2-  S174  1  0.33271959  0.75274758  0.34073093  1
  S2-  S175  1  0.35755217  0.74623246  0.84501413  1
  S2-  S176  1  0.60662770  0.02994097  0.34745254  1
  S2-  S177  1  0.61838259  0.02550339  0.84833209  1
  S2-  S178  1  0.71044922  0.24629180  0.35316362  1
  S2-  S179  1  0.71145658  0.25511629  0.85559085  1
  S2-  S180  1  0.71322754  0.50829723  0.35651413  1
  S2-  S181  1  0.71284932  0.49730108  0.85039185  1
  S2-  S182  1  0.64865355  0.74269546  0.34870880  1
  S2-  S183  1  0.61843802  0.71275449  0.84991023  1
  S2-  S184  1  0.87766371  0.09042739  0.35195418  1
  S2-  S185  1  0.86516315  0.09667148  0.85827631  1
  S2-  S186  1  0.92072889  0.27007996  0.30471949  1
  S2-  S187  1  0.92317253  0.32436516  0.84004927  1
  S2-  S188  1  0.91141786  0.47882294  0.30166337  1
  S2-  S189  1  0.88082842  0.50450090  0.77312431  1
  S2-  S190  1  0.87863563  0.67226014  0.35747627  1
  S2-  S191  1  0.88396583  0.66293441  0.85380008  1
  S2-  S192  1  -0.00200413  0.12985575  0.45696671  1
  S2-  S193  1  -0.00424584  0.13009618  0.95302879  1
  S2-  S194  1  -0.00511957  0.37865658  0.43709576  1
  S2-  S195  1  -0.00906074  0.38702090  0.95434623  1
  S2-  S196  1  0.00184296  0.62651621  0.45729266  1
  S2-  S197  1  -0.00211654  0.63243676  0.96595607  1
  S2-  S198  1  0.00058393  0.87482561  0.45307273  1
  S2-  S199  1  -0.00656423  0.88281507  0.95230357  1
  S2-  S200  1  0.24936848  0.12726606  0.45548795  1
  S2-  S201  1  0.24310085  0.13992412  0.95817757  1
  S2-  S202  1  0.24798872  0.37540393  0.45205320  1
  S2-  S203  1  0.24226544  0.38331134  0.95980830  1
  S2-  S204  1  0.25009447  0.62903258  0.45576307  1
  S2-  S205  1  0.24320087  0.63168113  0.96271026  1
  S2-  S206  1  0.24746829  0.87891253  0.44999439  1
  S2-  S207  1  0.24132978  0.88035238  0.95576870  1
  S2-  S208  1  0.50331096  0.12851233  0.45080944  1
  S2-  S209  1  0.49240819  0.13668383  0.95311555  1
  S2-  S210  1  0.50398133  0.37516060  0.44959916  1
  S2-  S211  1  0.49344375  0.38607558  0.95251352  1
  S2-  S212  1  0.50145735  0.62677705  0.44814824  1
  S2-  S213  1  0.49369910  0.62909787  0.95114693  1
  S2-  S214  1  0.50111705  0.87786036  0.44932350  1
  S2-  S215  1  0.49260215  0.87999841  0.95138878  1
  S2-  S216  1  0.74965046  0.12639348  0.45555911  1
  S2-  S217  1  0.74133168  0.12873061  0.96133652  1
  S2-  S218  1  0.75660951  0.37663236  0.45044626  1
  S2-  S219  1  0.74894630  0.38145295  0.95358195  1
  S2-  S220  1  0.75304606  0.62810055  0.46251093  1
  S2-  S221  1  0.74076837  0.63665004  0.95870073  1
  S2-  S222  1  0.75263420  0.87446153  0.45175405  1
  S2-  S223  1  0.74549736  0.88113893  0.94770423  1
  S2-  S224  1  0.11581012  0.00990743  0.04527865  1
  S2-  S225  1  0.12384390  0.00374290  0.54961678  1
  S2-  S226  1  0.11431737  0.25968222  0.04645923  1
  S2-  S227  1  0.12169186  0.25277414  0.54108890  1
  S2-  S228  1  0.11591888  0.50817692  0.05365331  1
  S2-  S229  1  0.12334269  0.49778196  0.53703368  1
  S2-  S230  1  0.12121870  0.75720159  0.05090748  1
  S2-  S231  1  0.12806444  0.75706515  0.54618360  1
  S2-  S232  1  0.36770278  0.00905270  0.04626357  1
  S2-  S233  1  0.37592557  0.00239180  0.54740649  1
  S2-  S234  1  0.36748768  0.26066887  0.05120320  1
  S2-  S235  1  0.37618667  0.25304099  0.54814223  1
  S2-  S236  1  0.36872143  0.50835895  0.04906284  1
  S2-  S237  1  0.37558365  0.50276026  0.54871084  1
  S2-  S238  1  0.36837156  0.75685147  0.05035444  1
  S2-  S239  1  0.37504444  0.75656398  0.54737584  1
  S2-  S240  1  0.61972901  0.00812360  0.05345902  1
  S2-  S241  1  0.62641485  0.00347282  0.55182995  1
  S2-  S242  1  0.61880172  0.26101689  0.04726275  1
  S2-  S243  1  0.62686337  0.25294551  0.54547085  1
  S2-  S244  1  0.61904448  0.50756469  0.04858245  1
  S2-  S245  1  0.62715792  0.50264560  0.54912558  1
  S2-  S246  1  0.61860067  0.75737574  0.05069079  1
  S2-  S247  1  0.62615967  0.75407075  0.55245934  1
  S2-  S248  1  0.86798563  0.00876680  0.04631372  1
  S2-  S249  1  0.87491185  0.00442931  0.54626684  1
  S2-  S250  1  0.86870065  0.25678967  0.04262664  1
  S2-  S251  1  0.87356670  0.25238280  0.54185451  1
  S2-  S252  1  0.86640977  0.50510612  0.05363006  1
  S2-  S253  1  0.87819581  0.50439861  0.55062141  1
  S2-  S254  1  0.86328107  0.76054366  0.04408520  1
  S2-  S255  1  0.87744947  0.74926903  0.55029518  1
