# generated using pymatgen
data_La6Ce7Pr13Nd19Sm19(BiS2)64
_symmetry_space_group_name_H-M   'P 1'
_cell_length_a   16.08106882
_cell_length_b   16.01682694
_cell_length_c   27.35754761
_cell_angle_alpha   90.02934146
_cell_angle_beta   90.08934765
_cell_angle_gamma   89.97520107
_symmetry_Int_Tables_number   1
_chemical_formula_structural   La6Ce7Pr13Nd19Sm19(BiS2)64
_chemical_formula_sum   'La6 Ce7 Pr13 Nd19 Sm19 Bi64 S128'
_cell_volume   7046.41036495
_cell_formula_units_Z   1
loop_
 _symmetry_equiv_pos_site_id
 _symmetry_equiv_pos_as_xyz
  1  'x, y, z'
loop_
 _atom_type_symbol
 _atom_type_oxidation_number
  La3+  3.0
  Ce3+  3.0
  Pr3+  3.0
  Nd3+  3.0
  Sm3+  3.0
  Bi2+  2.0
  S2-  -2.0
loop_
 _atom_site_type_symbol
 _atom_site_label
 _atom_site_symmetry_multiplicity
 _atom_site_fract_x
 _atom_site_fract_y
 _atom_site_fract_z
 _atom_site_occupancy
  La3+  La0  1  0.50136273  0.61908006  0.60970762  1
  La3+  La1  1  0.38344783  0.74080657  0.42392005  1
  La3+  La2  1  0.00256758  0.60877945  0.07454389  1
  La3+  La3  1  0.87863069  -0.01180232  0.43396156  1
  La3+  La4  1  0.13222754  0.24918571  0.38627619  1
  La3+  La5  1  0.37479230  -0.01081221  0.43687856  1
  Ce3+  Ce6  1  0.75507227  0.60920973  0.06511702  1
  Ce3+  Ce7  1  0.00447154  0.85768418  0.04693262  1
  Ce3+  Ce8  1  0.50412670  0.36861042  0.55963089  1
  Ce3+  Ce9  1  0.62433100  0.73136301  0.93741893  1
  Ce3+  Ce10  1  -0.00049914  0.36182945  0.07087365  1
  Ce3+  Ce11  1  0.24732390  0.35915810  0.05909928  1
  Ce3+  Ce12  1  0.87616393  0.72250708  0.92667196  1
  Pr3+  Pr13  1  0.37961766  0.23849279  0.42832074  1
  Pr3+  Pr14  1  0.12367867  0.72831930  0.92363464  1
  Pr3+  Pr15  1  0.24647809  0.85909648  0.57905263  1
  Pr3+  Pr16  1  0.25539877  0.36923428  0.55970820  1
  Pr3+  Pr17  1  0.12409817  0.23124136  0.93859624  1
  Pr3+  Pr18  1  0.75425455  0.85807231  0.05067074  1
  Pr3+  Pr19  1  0.75044733  0.09821795  0.07331419  1
  Pr3+  Pr20  1  0.12140654  0.47938628  0.93695030  1
  Pr3+  Pr21  1  0.00388010  0.36598912  0.55947792  1
  Pr3+  Pr22  1  0.50004961  0.11982131  0.56871030  1
  Pr3+  Pr23  1  0.75264374  0.60847846  0.58454217  1
  Pr3+  Pr24  1  0.87422895  0.23118864  0.94083028  1
  Pr3+  Pr25  1  0.75385514  0.11653907  0.55986965  1
  Nd3+  Nd26  1  0.49746052  0.61007292  0.06778821  1
  Nd3+  Nd27  1  0.75119452  0.86640322  0.56565865  1
  Nd3+  Nd28  1  0.37416950  -0.00529811  0.91666778  1
  Nd3+  Nd29  1  0.75095466  0.36589120  0.55919725  1
  Nd3+  Nd30  1  0.00502029  0.11275600  0.07756786  1
  Nd3+  Nd31  1  0.12773383  0.49685362  0.43280950  1
  Nd3+  Nd32  1  0.37716487  0.49644094  0.44275321  1
  Nd3+  Nd33  1  0.63105211  0.24017896  0.43204625  1
  Nd3+  Nd34  1  0.37435360  0.72345598  0.92303090  1
  Nd3+  Nd35  1  0.62714921  -0.01650389  0.93218885  1
  Nd3+  Nd36  1  0.62651410  0.49699021  0.44484729  1
  Nd3+  Nd37  1  0.00413797  0.61044438  0.57345362  1
  Nd3+  Nd38  1  0.87945945  0.49401378  0.44112674  1
  Nd3+  Nd39  1  0.25985625  0.10473957  0.06848753  1
  Nd3+  Nd40  1  0.87509073  0.48043240  0.93808658  1
  Nd3+  Nd41  1  0.87816678  0.24211400  0.42925488  1
  Nd3+  Nd42  1  0.49296808  0.87163796  0.57916777  1
  Nd3+  Nd43  1  0.50057672  0.35653870  0.05873856  1
  Nd3+  Nd44  1  0.49647604  0.85802483  0.04814294  1
  Sm3+  Sm45  1  0.12691682  -0.00448475  0.44319348  1
  Sm3+  Sm46  1  0.62468811  0.48370152  0.94855880  1
  Sm3+  Sm47  1  0.37628240  0.23351864  0.94156896  1
  Sm3+  Sm48  1  0.62784761  0.23202374  0.95007720  1
  Sm3+  Sm49  1  0.00329000  0.12327977  0.56112618  1
  Sm3+  Sm50  1  0.25205773  0.85825408  0.04169902  1
  Sm3+  Sm51  1  0.37635772  0.48395850  0.94362871  1
  Sm3+  Sm52  1  0.62381026  0.74133151  0.45394579  1
  Sm3+  Sm53  1  0.87890654  -0.01347756  0.93540605  1
  Sm3+  Sm54  1  0.62404230  -0.01020664  0.44904095  1
  Sm3+  Sm55  1  0.87790574  0.74078692  0.45585997  1
  Sm3+  Sm56  1  0.25288067  0.61140751  0.06566473  1
  Sm3+  Sm57  1  0.75142924  0.35467962  0.06517011  1
  Sm3+  Sm58  1  0.00566144  0.86654560  0.56533508  1
  Sm3+  Sm59  1  0.25503375  0.61333382  0.56999802  1
  Sm3+  Sm60  1  0.12761173  0.74088777  0.44723155  1
  Sm3+  Sm61  1  0.25297951  0.11900380  0.55404826  1
  Sm3+  Sm62  1  0.12758727  -0.01053007  0.93950311  1
  Sm3+  Sm63  1  0.49896756  0.10369709  0.05428259  1
  Bi2+  Bi64  1  0.00987605  0.10685396  0.28361523  1
  Bi2+  Bi65  1  -0.03084542  0.17400009  0.77953612  1
  Bi2+  Bi66  1  -0.00483114  0.38769381  0.28599258  1
  Bi2+  Bi67  1  -0.01675087  0.43711965  0.80483987  1
  Bi2+  Bi68  1  -0.02134253  0.63316473  0.31689707  1
  Bi2+  Bi69  1  -0.02653461  0.66011062  0.79835769  1
  Bi2+  Bi70  1  -0.00316305  0.85971032  0.29852234  1
  Bi2+  Bi71  1  -0.05012708  0.95548423  0.80280288  1
  Bi2+  Bi72  1  0.27471160  0.12207358  0.29332189  1
  Bi2+  Bi73  1  0.23757611  0.16324061  0.79244422  1
  Bi2+  Bi74  1  0.36976629  0.39132874  0.27656120  1
  Bi2+  Bi75  1  0.23360375  0.36231197  0.79402224  1
  Bi2+  Bi76  1  0.24524350  0.64191772  0.28505991  1
  Bi2+  Bi77  1  0.23319864  0.56253877  0.78921414  1
  Bi2+  Bi78  1  0.20665316  0.83649303  0.29737079  1
  Bi2+  Bi79  1  0.14864140  0.96310215  0.79797990  1
  Bi2+  Bi80  1  0.52208367  0.11323006  0.27918270  1
  Bi2+  Bi81  1  0.46617332  0.20766963  0.77110938  1
  Bi2+  Bi82  1  0.53014238  0.30728382  0.31942220  1
  Bi2+  Bi83  1  0.48938183  0.39548672  0.80211016  1
  Bi2+  Bi84  1  0.50883777  0.61698355  0.30174547  1
  Bi2+  Bi85  1  0.50734427  0.61383192  0.80461437  1
  Bi2+  Bi86  1  0.47548869  0.84087200  0.28493287  1
  Bi2+  Bi87  1  0.52477688  0.86855638  0.80473105  1
  Bi2+  Bi88  1  0.74406046  0.11926986  0.29392941  1
  Bi2+  Bi89  1  0.73275659  0.13100032  0.79778968  1
  Bi2+  Bi90  1  0.69440614  0.39088816  0.28232712  1
  Bi2+  Bi91  1  0.75201505  0.33444528  0.78813475  1
  Bi2+  Bi92  1  0.74438425  0.63429249  0.28800511  1
  Bi2+  Bi93  1  0.84691477  0.68070022  0.70838877  1
  Bi2+  Bi94  1  0.67486871  0.89085052  0.28628370  1
  Bi2+  Bi95  1  0.77394172  0.92195807  0.75495713  1
  Bi2+  Bi96  1  0.10507571  -0.09240431  0.20710753  1
  Bi2+  Bi97  1  0.11578687  0.07082541  0.70215653  1
  Bi2+  Bi98  1  0.18871091  0.25704456  0.18295947  1
  Bi2+  Bi99  1  0.10945899  0.26956765  0.71934755  1
  Bi2+  Bi100  1  0.13739225  0.51235795  0.21013097  1
  Bi2+  Bi101  1  0.12459955  0.54890938  0.69970270  1
  Bi2+  Bi102  1  0.06579561  0.71155471  0.22687293  1
  Bi2+  Bi103  1  0.13379530  0.78992416  0.73166137  1
  Bi2+  Bi104  1  0.34855913  -0.02535242  0.18743299  1
  Bi2+  Bi105  1  0.37502252  0.01639762  0.72120945  1
  Bi2+  Bi106  1  0.40350676  0.23793529  0.20937856  1
  Bi2+  Bi107  1  0.37342675  0.24591715  0.67053516  1
  Bi2+  Bi108  1  0.46737023  0.51519946  0.20669483  1
  Bi2+  Bi109  1  0.36013848  0.43161284  0.71516288  1
  Bi2+  Bi110  1  0.34699242  0.75165884  0.21447086  1
  Bi2+  Bi111  1  0.36034465  0.75089519  0.72005071  1
  Bi2+  Bi112  1  0.59866684  -0.00831603  0.19908926  1
  Bi2+  Bi113  1  0.62601262  0.03743647  0.71207129  1
  Bi2+  Bi114  1  0.62190688  0.25343274  0.21393674  1
  Bi2+  Bi115  1  0.56965438  0.24697928  0.67362299  1
  Bi2+  Bi116  1  0.66478211  0.54059985  0.19444423  1
  Bi2+  Bi117  1  0.62737895  0.42032986  0.71876390  1
  Bi2+  Bi118  1  0.62564544  0.73332037  0.20994470  1
  Bi2+  Bi119  1  0.64094200  0.76350372  0.72229275  1
  Bi2+  Bi120  1  0.86957474  -0.02950361  0.19852655  1
  Bi2+  Bi121  1  0.91679282  0.05650563  0.68900520  1
  Bi2+  Bi122  1  0.87850003  0.25802105  0.20940946  1
  Bi2+  Bi123  1  0.85615185  0.26228332  0.69986516  1
  Bi2+  Bi124  1  0.87310470  0.52556163  0.20824977  1
  Bi2+  Bi125  1  0.87971241  0.48350624  0.71730219  1
  Bi2+  Bi126  1  0.81518101  0.78929119  0.23046464  1
  Bi2+  Bi127  1  0.94080635  0.85793844  0.69146582  1
  S2-  S128  1  -0.00843957  0.06812566  0.17768460  1
  S2-  S129  1  -0.01106498  0.24498484  0.63612350  1
  S2-  S130  1  0.02157647  0.25440328  0.14679452  1
  S2-  S131  1  0.01053746  0.47524981  0.64197919  1
  S2-  S132  1  0.01014421  0.47519775  0.14928449  1
  S2-  S133  1  0.00640873  0.68585256  0.66632991  1
  S2-  S134  1  -0.02431573  0.86220258  0.14349381  1
  S2-  S135  1  0.10756880  0.88734916  0.64436830  1
  S2-  S136  1  0.21554160  0.08420413  0.16481534  1
  S2-  S137  1  0.26825810  0.10396926  0.65286676  1
  S2-  S138  1  0.24871628  0.41403289  0.15257985  1
  S2-  S139  1  0.24413355  0.48166960  0.64063041  1
  S2-  S140  1  0.14338758  0.63963969  0.14050458  1
  S2-  S141  1  0.23501865  0.70252800  0.65696613  1
  S2-  S142  1  0.26189739  0.85518930  0.14004733  1
  S2-  S143  1  0.33322002  0.89443115  0.66500426  1
  S2-  S144  1  0.41578501  0.10649523  0.13914578  1
  S2-  S145  1  0.50330042  0.00923391  0.65034412  1
  S2-  S146  1  0.50842435  0.35492881  0.15712318  1
  S2-  S147  1  0.50882033  0.44911031  0.64634040  1
  S2-  S148  1  0.37884574  0.62782273  0.13975236  1
  S2-  S149  1  0.42812851  0.60254038  0.71052096  1
  S2-  S150  1  0.48942654  0.89376106  0.14573815  1
  S2-  S151  1  0.50417530  0.77749349  0.66411052  1
  S2-  S152  1  0.76505561  0.16456739  0.16973887  1
  S2-  S153  1  0.72428718  0.15758895  0.65628583  1
  S2-  S154  1  0.81059881  0.37906932  0.15648552  1
  S2-  S155  1  0.75950880  0.45314843  0.64629213  1
  S2-  S156  1  0.86189505  0.64138741  0.14088033  1
  S2-  S157  1  0.65268379  0.63323376  0.66703702  1
  S2-  S158  1  0.73273377  0.95202895  0.13482312  1
  S2-  S159  1  0.70917799  0.89850050  0.66061465  1
  S2-  S160  1  0.13274338  0.06706050  0.35156729  1
  S2-  S161  1  0.12655085  0.10409910  0.86504101  1
  S2-  S162  1  0.13347077  0.22399912  0.27047986  1
  S2-  S163  1  0.09821312  0.35444072  0.86282984  1
  S2-  S164  1  0.12032038  0.41338968  0.34308940  1
  S2-  S165  1  0.11178050  0.59233298  0.85706998  1
  S2-  S166  1  0.12100923  0.63654243  0.36673033  1
  S2-  S167  1  0.15920794  0.79505621  0.82618983  1
  S2-  S168  1  0.39406502  0.09774785  0.35621524  1
  S2-  S169  1  0.38696015  -0.04729755  0.81762658  1
  S2-  S170  1  0.29183268  0.27274613  0.34221375  1
  S2-  S171  1  0.37571879  0.14887271  0.85680881  1
  S2-  S172  1  0.36860124  0.59715058  0.35830996  1
  S2-  S173  1  0.36582080  0.57116114  0.85981026  1
  S2-  S174  1  0.35488435  0.87385178  0.35637134  1
  S2-  S175  1  0.40525342  0.75554048  0.82405992  1
  S2-  S176  1  0.62809965  0.02342784  0.35253711  1
  S2-  S177  1  0.61995438  0.01100796  0.83502626  1
  S2-  S178  1  0.74952059  0.24275655  0.35557069  1
  S2-  S179  1  0.64294026  0.24018639  0.85331236  1
  S2-  S180  1  0.64344044  0.51826500  0.34542820  1
  S2-  S181  1  0.60872096  0.49693648  0.85118348  1
  S2-  S182  1  0.54251264  0.74880096  0.36423733  1
  S2-  S183  1  0.63070457  0.72956646  0.83805778  1
  S2-  S184  1  0.87375252  0.03717673  0.33685297  1
  S2-  S185  1  0.87367858  0.10788070  0.86400523  1
  S2-  S186  1  0.97031629  0.24136592  0.34325195  1
  S2-  S187  1  0.87217368  0.35398182  0.86456611  1
  S2-  S188  1  0.89090018  0.48106520  0.34155511  1
  S2-  S189  1  0.86157651  0.58788534  0.85761452  1
  S2-  S190  1  0.89212403  0.77313275  0.36031416  1
  S2-  S191  1  0.89946180  0.80000671  0.83999528  1
  S2-  S192  1  -0.00013773  0.11520831  0.45722160  1
  S2-  S193  1  0.00059966  0.10629861  0.96609675  1
  S2-  S194  1  0.00259443  0.36817292  0.45182647  1
  S2-  S195  1  -0.00158543  0.35459976  0.96687571  1
  S2-  S196  1  -0.00123645  0.61941256  0.46538120  1
  S2-  S197  1  -0.00116886  0.60611379  0.96084015  1
  S2-  S198  1  0.00509036  0.86651333  0.46056741  1
  S2-  S199  1  0.00550374  0.86306177  0.94268512  1
  S2-  S200  1  0.24706663  0.12144623  0.45181663  1
  S2-  S201  1  0.25556894  0.10897869  0.96039240  1
  S2-  S202  1  0.25344338  0.37057152  0.45256171  1
  S2-  S203  1  0.25674417  0.35771193  0.95190894  1
  S2-  S204  1  0.25514225  0.62269343  0.46423641  1
  S2-  S205  1  0.25107916  0.60621141  0.95872074  1
  S2-  S206  1  0.24479081  0.86573085  0.46239461  1
  S2-  S207  1  0.25380274  0.86273840  0.93735964  1
  S2-  S208  1  0.50854099  0.11801383  0.45973961  1
  S2-  S209  1  0.50388667  0.10964142  0.95114273  1
  S2-  S210  1  0.50338576  0.36859602  0.45154918  1
  S2-  S211  1  0.50111140  0.35704458  0.95298652  1
  S2-  S212  1  0.50367123  0.61783344  0.45972673  1
  S2-  S213  1  0.50167418  0.60734278  0.96033359  1
  S2-  S214  1  0.50293508  0.86745711  0.46668404  1
  S2-  S215  1  0.49653081  0.85994431  0.94117094  1
  S2-  S216  1  0.75182513  0.11158470  0.45487177  1
  S2-  S217  1  0.74674134  0.10574223  0.96246728  1
  S2-  S218  1  0.75223904  0.37137690  0.45375526  1
  S2-  S219  1  0.74441161  0.35842051  0.96240535  1
  S2-  S220  1  0.75270459  0.62123976  0.45926929  1
  S2-  S221  1  0.74442865  0.60715868  0.95889488  1
  S2-  S222  1  0.75034548  0.86568405  0.45783412  1
  S2-  S223  1  0.75360502  0.86009779  0.94371728  1
  S2-  S224  1  0.12883843  -0.01518973  0.04428129  1
  S2-  S225  1  0.12508993  -0.00059922  0.54588791  1
  S2-  S226  1  0.13183963  0.22809100  0.04586940  1
  S2-  S227  1  0.13316268  0.24163842  0.55042617  1
  S2-  S228  1  0.13006309  0.48607742  0.04312209  1
  S2-  S229  1  0.12877951  0.49352851  0.53880023  1
  S2-  S230  1  0.12975734  0.73668643  0.03263343  1
  S2-  S231  1  0.12265349  0.73739893  0.54912333  1
  S2-  S232  1  0.37643594  -0.01722334  0.03030887  1
  S2-  S233  1  0.37320822  -0.00590763  0.54542895  1
  S2-  S234  1  0.37713229  0.23410611  0.04472812  1
  S2-  S235  1  0.37831639  0.24298379  0.53876809  1
  S2-  S236  1  0.37747652  0.48183896  0.04616266  1
  S2-  S237  1  0.38345789  0.49617514  0.54718306  1
  S2-  S238  1  0.37467651  0.73472351  0.03234204  1
  S2-  S239  1  0.37840422  0.73815936  0.55838144  1
  S2-  S240  1  0.62036168  -0.01830350  0.03724419  1
  S2-  S241  1  0.62704514  -0.00790073  0.55131049  1
  S2-  S242  1  0.62478631  0.22836236  0.05495582  1
  S2-  S243  1  0.62848295  0.24170116  0.53949508  1
  S2-  S244  1  0.62538526  0.48295197  0.05391757  1
  S2-  S245  1  0.62777441  0.49527933  0.54816485  1
  S2-  S246  1  0.62417679  0.73402232  0.04776870  1
  S2-  S247  1  0.62886151  0.74082158  0.55600541  1
  S2-  S248  1  0.88061863  -0.01529729  0.04036776  1
  S2-  S249  1  0.88066155  -0.00954018  0.54731766  1
  S2-  S250  1  0.87130132  0.22883025  0.05063758  1
  S2-  S251  1  0.87340833  0.24219608  0.53709219  1
  S2-  S252  1  0.87046359  0.48092193  0.04527916  1
  S2-  S253  1  0.87466668  0.49303155  0.54500433  1
  S2-  S254  1  0.87728093  0.73614479  0.03442924  1
  S2-  S255  1  0.87649941  0.74160159  0.55890672  1
