# generated using pymatgen
data_La6Ce7Pr13Nd19Sm19(BiS2)64
_symmetry_space_group_name_H-M   'P 1'
_cell_length_a   16.12408227
_cell_length_b   16.11802459
_cell_length_c   27.24941713
_cell_angle_alpha   89.81427872
_cell_angle_beta   90.16199526
_cell_angle_gamma   89.99615146
_symmetry_Int_Tables_number   1
_chemical_formula_structural   La6Ce7Pr13Nd19Sm19(BiS2)64
_chemical_formula_sum   'La6 Ce7 Pr13 Nd19 Sm19 Bi64 S128'
_cell_volume   7081.74065042
_cell_formula_units_Z   1
loop_
 _symmetry_equiv_pos_site_id
 _symmetry_equiv_pos_as_xyz
  1  'x, y, z'
loop_
 _atom_type_symbol
 _atom_type_oxidation_number
  La3+  3.0
  Ce3+  3.0
  Pr3+  3.0
  Nd3+  3.0
  Sm3+  3.0
  Bi2+  2.0
  S2-  -2.0
loop_
 _atom_site_type_symbol
 _atom_site_label
 _atom_site_symmetry_multiplicity
 _atom_site_fract_x
 _atom_site_fract_y
 _atom_site_fract_z
 _atom_site_occupancy
  La3+  La0  1  0.88849421  -0.00489456  0.42770338  1
  La3+  La1  1  0.24557291  0.36547765  0.60803844  1
  La3+  La2  1  0.50030080  0.63949223  0.10937893  1
  La3+  La3  1  0.49121788  0.36926954  0.10314922  1
  La3+  La4  1  0.37396245  0.23962889  0.42241203  1
  La3+  La5  1  0.51276063  0.11573231  0.57037619  1
  Ce3+  Ce6  1  0.88445299  0.74784216  0.42973490  1
  Ce3+  Ce7  1  0.11810457  0.74768076  0.93506812  1
  Ce3+  Ce8  1  0.36582602  0.00664229  0.93584838  1
  Ce3+  Ce9  1  0.63169157  0.24057606  0.44013187  1
  Ce3+  Ce10  1  0.49785047  0.36492119  0.55438641  1
  Ce3+  Ce11  1  0.11702377  0.50756217  0.93380268  1
  Ce3+  Ce12  1  0.38080901  0.49134673  0.43553254  1
  Pr3+  Pr13  1  0.24521610  0.62437512  0.06750369  1
  Pr3+  Pr14  1  0.26047694  0.86558881  0.55993922  1
  Pr3+  Pr15  1  0.01292560  0.11114583  0.57524063  1
  Pr3+  Pr16  1  0.00842720  0.61505419  0.55315477  1
  Pr3+  Pr17  1  -0.00421345  0.62619099  0.07033053  1
  Pr3+  Pr18  1  0.38334362  -0.00555659  0.43562102  1
  Pr3+  Pr19  1  0.76033850  0.86294011  0.55772738  1
  Pr3+  Pr20  1  -0.00953191  0.12021655  0.06539356  1
  Pr3+  Pr21  1  0.11013771  0.25935403  0.91969907  1
  Pr3+  Pr22  1  0.23982977  0.37564265  0.06163246  1
  Pr3+  Pr23  1  0.74034544  0.37829347  0.06601989  1
  Pr3+  Pr24  1  0.86984684  0.00023637  0.93421371  1
  Pr3+  Pr25  1  -0.00200773  0.36091769  0.56801167  1
  Nd3+  Nd26  1  0.61502789  0.00109657  0.93434036  1
  Nd3+  Nd27  1  -0.00227791  0.36807501  0.06925232  1
  Nd3+  Nd28  1  0.75847320  0.11252907  0.56672777  1
  Nd3+  Nd29  1  0.26709720  0.11925740  0.56810702  1
  Nd3+  Nd30  1  0.61871631  0.25688679  0.93483038  1
  Nd3+  Nd31  1  0.86819062  0.75261807  0.94535821  1
  Nd3+  Nd32  1  0.74038915  0.12669760  0.05078412  1
  Nd3+  Nd33  1  0.24429121  0.13224317  0.05410209  1
  Nd3+  Nd34  1  0.12675470  0.24358435  0.44148556  1
  Nd3+  Nd35  1  0.37257224  0.26305006  0.92986086  1
  Nd3+  Nd36  1  0.24686237  0.87313502  0.05176784  1
  Nd3+  Nd37  1  0.13387549  0.74216309  0.44029516  1
  Nd3+  Nd38  1  0.86766554  0.50333063  0.94399962  1
  Nd3+  Nd39  1  0.86708280  0.25537215  0.93786559  1
  Nd3+  Nd40  1  0.38258074  0.74097216  0.43637013  1
  Nd3+  Nd41  1  -0.00690246  0.87740087  0.06558414  1
  Nd3+  Nd42  1  0.50665746  0.85913281  0.56309400  1
  Nd3+  Nd43  1  0.50768830  0.61338581  0.55889380  1
  Nd3+  Nd44  1  0.25663919  0.61259613  0.56116239  1
  Sm3+  Sm45  1  0.63133964  -0.00733507  0.44323722  1
  Sm3+  Sm46  1  0.11853178  0.00477277  0.94520125  1
  Sm3+  Sm47  1  0.88488334  0.23621558  0.43401407  1
  Sm3+  Sm48  1  0.73886833  0.62757440  0.05740655  1
  Sm3+  Sm49  1  0.88235260  0.49219351  0.43808408  1
  Sm3+  Sm50  1  0.73781211  0.87608359  0.05221687  1
  Sm3+  Sm51  1  0.49258516  0.87624490  0.05404154  1
  Sm3+  Sm52  1  0.49187865  0.13068375  0.05352991  1
  Sm3+  Sm53  1  0.00710650  0.86681677  0.56242986  1
  Sm3+  Sm54  1  0.61460317  0.75065692  0.93654688  1
  Sm3+  Sm55  1  0.63258020  0.49235343  0.43901946  1
  Sm3+  Sm56  1  0.13259099  -0.00452118  0.44806274  1
  Sm3+  Sm57  1  0.75790805  0.61833384  0.54659582  1
  Sm3+  Sm58  1  0.36877334  0.75007338  0.94201047  1
  Sm3+  Sm59  1  0.61389844  0.50349218  0.95176681  1
  Sm3+  Sm60  1  0.37177148  0.50230027  0.95194718  1
  Sm3+  Sm61  1  0.63073836  0.74322488  0.43654953  1
  Sm3+  Sm62  1  0.75991738  0.36666447  0.55072431  1
  Sm3+  Sm63  1  0.13190692  0.49000261  0.44270023  1
  Bi2+  Bi64  1  -0.00971534  0.11952340  0.29584223  1
  Bi2+  Bi65  1  -0.01504252  0.10063092  0.79373968  1
  Bi2+  Bi66  1  0.00125991  0.36152003  0.28352525  1
  Bi2+  Bi67  1  -0.05886132  0.37869975  0.79638546  1
  Bi2+  Bi68  1  -0.04521656  0.62148489  0.28560230  1
  Bi2+  Bi69  1  -0.03190605  0.62430854  0.76052399  1
  Bi2+  Bi70  1  0.00628647  0.85627902  0.27708540  1
  Bi2+  Bi71  1  0.01212941  0.80873495  0.79939058  1
  Bi2+  Bi72  1  0.20614707  0.10960277  0.29478272  1
  Bi2+  Bi73  1  0.24539746  0.08623335  0.79712653  1
  Bi2+  Bi74  1  0.25192998  0.39423694  0.30933613  1
  Bi2+  Bi75  1  0.25109536  0.36205776  0.81365272  1
  Bi2+  Bi76  1  0.21320998  0.65807138  0.29553201  1
  Bi2+  Bi77  1  0.24294362  0.61049074  0.78481033  1
  Bi2+  Bi78  1  0.27419894  0.92840775  0.28471259  1
  Bi2+  Bi79  1  0.21430890  0.80301020  0.79887480  1
  Bi2+  Bi80  1  0.50761065  0.11678966  0.29406194  1
  Bi2+  Bi81  1  0.49349229  0.12164812  0.80612140  1
  Bi2+  Bi82  1  0.54917636  0.37588918  0.30061241  1
  Bi2+  Bi83  1  0.49931894  0.42955908  0.78062680  1
  Bi2+  Bi84  1  0.49389692  0.63668806  0.31000143  1
  Bi2+  Bi85  1  0.50376428  0.62894459  0.80065362  1
  Bi2+  Bi86  1  0.50699854  0.89613571  0.28841294  1
  Bi2+  Bi87  1  0.47759827  0.81521320  0.77059747  1
  Bi2+  Bi88  1  0.72971813  0.09042105  0.28352869  1
  Bi2+  Bi89  1  0.74726947  0.11646046  0.78310452  1
  Bi2+  Bi90  1  0.78978178  0.37590706  0.28413741  1
  Bi2+  Bi91  1  0.76273399  0.30502235  0.82164475  1
  Bi2+  Bi92  1  0.76821100  0.66013123  0.27373438  1
  Bi2+  Bi93  1  0.74093358  0.56287083  0.79386376  1
  Bi2+  Bi94  1  0.79293502  0.85560772  0.26961984  1
  Bi2+  Bi95  1  0.74236900  0.83209089  0.78156934  1
  Bi2+  Bi96  1  0.11379683  -0.00722739  0.22084523  1
  Bi2+  Bi97  1  0.11894565  -0.04454550  0.74191697  1
  Bi2+  Bi98  1  0.12781236  0.25848649  0.20565090  1
  Bi2+  Bi99  1  0.10117377  0.24880159  0.71356479  1
  Bi2+  Bi100  1  0.07352302  0.50711443  0.21634181  1
  Bi2+  Bi101  1  0.11858006  0.52084789  0.71740570  1
  Bi2+  Bi102  1  0.11389524  0.77226264  0.19565640  1
  Bi2+  Bi103  1  0.09712421  0.77396186  0.69163747  1
  Bi2+  Bi104  1  0.40557046  0.00034331  0.20880334  1
  Bi2+  Bi105  1  0.39176516  -0.03295835  0.71620390  1
  Bi2+  Bi106  1  0.36271520  0.25397835  0.20959256  1
  Bi2+  Bi107  1  0.37531024  0.23301651  0.70681415  1
  Bi2+  Bi108  1  0.35963597  0.51469897  0.21828817  1
  Bi2+  Bi109  1  0.39538073  0.58611813  0.70519353  1
  Bi2+  Bi110  1  0.36214972  0.79278408  0.21203474  1
  Bi2+  Bi111  1  0.29492587  0.75640315  0.69137183  1
  Bi2+  Bi112  1  0.60322202  0.00797045  0.20335937  1
  Bi2+  Bi113  1  0.63955406  0.00521748  0.70998836  1
  Bi2+  Bi114  1  0.63551197  0.20832811  0.20138952  1
  Bi2+  Bi115  1  0.61869443  0.28261144  0.74203954  1
  Bi2+  Bi116  1  0.71754794  0.50394450  0.20780052  1
  Bi2+  Bi117  1  0.64599997  0.46600557  0.70222603  1
  Bi2+  Bi118  1  0.63826236  0.78605946  0.20921562  1
  Bi2+  Bi119  1  0.63661814  0.66972277  0.71309400  1
  Bi2+  Bi120  1  0.84683517  0.00763858  0.20197850  1
  Bi2+  Bi121  1  0.89261087  -0.05052533  0.71719692  1
  Bi2+  Bi122  1  0.87558458  0.25169304  0.21476337  1
  Bi2+  Bi123  1  0.83734000  0.24630433  0.71340254  1
  Bi2+  Bi124  1  0.89426803  0.44792143  0.17793327  1
  Bi2+  Bi125  1  0.84725061  0.47990735  0.71094836  1
  Bi2+  Bi126  1  0.92343273  0.72948683  0.19119358  1
  Bi2+  Bi127  1  0.85656866  0.75906970  0.70133911  1
  S2-  S128  1  0.00027735  0.23013140  0.14308662  1
  S2-  S129  1  -0.03466139  0.17340007  0.66607805  1
  S2-  S130  1  0.12296663  0.38985098  0.14240361  1
  S2-  S131  1  0.08296720  0.38724903  0.65435658  1
  S2-  S132  1  0.12118493  0.62076555  0.14234737  1
  S2-  S133  1  0.03035499  0.62674999  0.65241323  1
  S2-  S134  1  -0.01347819  0.99212135  0.14155167  1
  S2-  S135  1  0.00930509  0.96314132  0.64430199  1
  S2-  S136  1  0.24590975  0.16542188  0.15258477  1
  S2-  S137  1  0.19451142  0.16593873  0.65689101  1
  S2-  S138  1  0.33003644  0.37703994  0.14917756  1
  S2-  S139  1  0.25231413  0.34453398  0.71539958  1
  S2-  S140  1  0.33818083  0.63898815  0.15494407  1
  S2-  S141  1  0.25732611  0.53037040  0.64878456  1
  S2-  S142  1  0.24420696  0.86181822  0.15043175  1
  S2-  S143  1  0.27411473  0.92578879  0.65431470  1
  S2-  S144  1  0.48516225  0.19938741  0.14372783  1
  S2-  S145  1  0.39659947  0.11235770  0.64560918  1
  S2-  S146  1  0.48076063  0.38507820  0.21404086  1
  S2-  S147  1  0.41919959  0.34495010  0.64120126  1
  S2-  S148  1  0.50156252  0.59483205  0.21479577  1
  S2-  S149  1  0.50528238  0.69549397  0.64562807  1
  S2-  S150  1  0.49812152  0.80705446  0.14502169  1
  S2-  S151  1  0.52096301  0.92352894  0.65490666  1
  S2-  S152  1  0.77406556  0.14625820  0.14733893  1
  S2-  S153  1  0.64582598  0.12488064  0.64391036  1
  S2-  S154  1  0.65210322  0.35913138  0.15173325  1
  S2-  S155  1  0.85208004  0.36340584  0.63398917  1
  S2-  S156  1  0.67360693  0.64611148  0.14671785  1
  S2-  S157  1  0.76997275  0.65295107  0.64157881  1
  S2-  S158  1  0.73809754  0.89543598  0.14925866  1
  S2-  S159  1  0.75889807  0.92383837  0.65268412  1
  S2-  S160  1  0.06776041  0.01912925  0.35805332  1
  S2-  S161  1  0.10422446  0.00589825  0.84726425  1
  S2-  S162  1  0.21919474  0.24774061  0.35380731  1
  S2-  S163  1  0.15237676  0.21199655  0.81965137  1
  S2-  S164  1  0.14529749  0.51226699  0.34406469  1
  S2-  S165  1  0.10569471  0.40635471  0.85488658  1
  S2-  S166  1  0.11282821  0.75721220  0.34183765  1
  S2-  S167  1  0.12456745  0.63190346  0.86221320  1
  S2-  S168  1  0.38325604  0.09932580  0.35521009  1
  S2-  S169  1  0.38350614  -0.00712047  0.83846186  1
  S2-  S170  1  0.40689409  0.31743686  0.32985167  1
  S2-  S171  1  0.34938962  0.21279972  0.83313536  1
  S2-  S172  1  0.37016523  0.51684866  0.33683799  1
  S2-  S173  1  0.37405058  0.44869790  0.85656274  1
  S2-  S174  1  0.34612342  0.72991826  0.33881376  1
  S2-  S175  1  0.38047708  0.74467145  0.84310122  1
  S2-  S176  1  0.62212508  -0.00710119  0.34451802  1
  S2-  S177  1  0.61812907  0.02859258  0.83600550  1
  S2-  S178  1  0.62363048  0.23291752  0.34243364  1
  S2-  S179  1  0.54349116  0.26695700  0.84552555  1
  S2-  S180  1  0.61513946  0.52391224  0.34322938  1
  S2-  S181  1  0.61277796  0.50728169  0.85191243  1
  S2-  S182  1  0.59121106  0.76312333  0.34214804  1
  S2-  S183  1  0.61281909  0.80158416  0.84196847  1
  S2-  S184  1  0.85213400  0.11793735  0.35795415  1
  S2-  S185  1  0.86617852  0.01265373  0.83379710  1
  S2-  S186  1  1.00762754  0.25336921  0.36262379  1
  S2-  S187  1  0.96312671  0.23282926  0.85654950  1
  S2-  S188  1  0.89267573  0.48140745  0.34056005  1
  S2-  S189  1  0.90013675  0.52658219  0.84689106  1
  S2-  S190  1  0.88756424  0.86403215  0.35613206  1
  S2-  S191  1  0.85867280  0.77117392  0.84702680  1
  S2-  S192  1  0.00822058  0.11682522  0.46603358  1
  S2-  S193  1  -0.00751489  0.12217427  0.95771214  1
  S2-  S194  1  0.00216219  0.37267345  0.45925277  1
  S2-  S195  1  -0.01240210  0.37916540  0.96028740  1
  S2-  S196  1  0.00656706  0.61713776  0.44610931  1
  S2-  S197  1  -0.01160287  0.62956715  0.96211338  1
  S2-  S198  1  0.01268374  0.86726190  0.45844930  1
  S2-  S199  1  -0.00442422  0.87761297  0.95636215  1
  S2-  S200  1  0.25324477  0.11412919  0.45943555  1
  S2-  S201  1  0.24117082  0.13111019  0.94725333  1
  S2-  S202  1  0.25489438  0.37287050  0.44812808  1
  S2-  S203  1  0.24443465  0.37881954  0.95423517  1
  S2-  S204  1  0.25547907  0.61669706  0.45383325  1
  S2-  S205  1  0.25041741  0.62708839  0.95949580  1
  S2-  S206  1  0.25702971  0.86848515  0.45002461  1
  S2-  S207  1  0.24315303  0.87688267  0.94572103  1
  S2-  S208  1  0.51131345  0.11622383  0.45762049  1
  S2-  S209  1  0.49298171  0.12960288  0.94934751  1
  S2-  S210  1  0.50971025  0.36997816  0.44837273  1
  S2-  S211  1  0.49712023  0.37979958  0.95642337  1
  S2-  S212  1  0.50900397  0.61784327  0.45205150  1
  S2-  S213  1  0.49291185  0.62814597  0.94897973  1
  S2-  S214  1  0.50699843  0.86616112  0.45355344  1
  S2-  S215  1  0.49119022  0.87625302  0.94917102  1
  S2-  S216  1  0.75219631  0.11522728  0.46055715  1
  S2-  S217  1  0.74190023  0.12617467  0.94467172  1
  S2-  S218  1  0.75965279  0.36759338  0.44595073  1
  S2-  S219  1  0.74104361  0.38129532  0.95757164  1
  S2-  S220  1  0.75756850  0.61914011  0.44168713  1
  S2-  S221  1  0.74015608  0.62935805  0.95207134  1
  S2-  S222  1  0.75262922  0.86685199  0.45047042  1
  S2-  S223  1  0.73925247  0.87640601  0.94787092  1
  S2-  S224  1  0.12420073  0.00013737  0.04856709  1
  S2-  S225  1  0.13799024  -0.00932632  0.55023592  1
  S2-  S226  1  0.11754369  0.24800345  0.03553055  1
  S2-  S227  1  0.13292591  0.24611390  0.54928769  1
  S2-  S228  1  0.11522075  0.50225860  0.04022306  1
  S2-  S229  1  0.13194150  0.48886482  0.54627992  1
  S2-  S230  1  0.11673923  0.75548941  0.04270319  1
  S2-  S231  1  0.13311411  0.74291979  0.54678752  1
  S2-  S232  1  0.36972113  0.00302959  0.04490014  1
  S2-  S233  1  0.38634560  -0.01322175  0.54157439  1
  S2-  S234  1  0.37039269  0.25272875  0.03847838  1
  S2-  S235  1  0.38321272  0.23965520  0.53567882  1
  S2-  S236  1  0.37761983  0.50333224  0.05449191  1
  S2-  S237  1  0.38162535  0.49397650  0.54298119  1
  S2-  S238  1  0.37348493  0.75052337  0.04511445  1
  S2-  S239  1  0.38133550  0.73763307  0.54289860  1
  S2-  S240  1  0.61416496  0.00229348  0.04241378  1
  S2-  S241  1  0.63316441  -0.01510985  0.54535647  1
  S2-  S242  1  0.61636582  0.25068169  0.04179009  1
  S2-  S243  1  0.63501370  0.24938021  0.54632214  1
  S2-  S244  1  0.61259817  0.50589926  0.05525302  1
  S2-  S245  1  0.63543068  0.49120330  0.54518485  1
  S2-  S246  1  0.61619411  0.75247840  0.04103734  1
  S2-  S247  1  0.63307264  0.74006843  0.54160907  1
  S2-  S248  1  0.86179173  -0.00268348  0.04049592  1
  S2-  S249  1  0.88256837  -0.00950069  0.54243619  1
  S2-  S250  1  0.86368618  0.25252575  0.04313945  1
  S2-  S251  1  0.87757497  0.23525262  0.53931213  1
  S2-  S252  1  0.86522983  0.50515388  0.05067818  1
  S2-  S253  1  0.87955694  0.49675653  0.54177366  1
  S2-  S254  1  0.86418699  0.75354506  0.05140317  1
  S2-  S255  1  0.88556735  0.74189574  0.53858543  1
