# generated using pymatgen
data_La6Ce7Pr13Nd19Sm19(BiS2)64
_symmetry_space_group_name_H-M   'P 1'
_cell_length_a   16.08295072
_cell_length_b   16.09283838
_cell_length_c   27.46240421
_cell_angle_alpha   89.82720897
_cell_angle_beta   90.04427373
_cell_angle_gamma   89.89899687
_symmetry_Int_Tables_number   1
_chemical_formula_structural   La6Ce7Pr13Nd19Sm19(BiS2)64
_chemical_formula_sum   'La6 Ce7 Pr13 Nd19 Sm19 Bi64 S128'
_cell_volume   7107.78290736
_cell_formula_units_Z   1
loop_
 _symmetry_equiv_pos_site_id
 _symmetry_equiv_pos_as_xyz
  1  'x, y, z'
loop_
 _atom_type_symbol
 _atom_type_oxidation_number
  La3+  3.0
  Ce3+  3.0
  Pr3+  3.0
  Nd3+  3.0
  Sm3+  3.0
  Bi2+  2.0
  S2-  -2.0
loop_
 _atom_site_type_symbol
 _atom_site_label
 _atom_site_symmetry_multiplicity
 _atom_site_fract_x
 _atom_site_fract_y
 _atom_site_fract_z
 _atom_site_occupancy
  La3+  La0  1  0.11297521  0.24965840  0.93206554  1
  La3+  La1  1  0.11231879  -0.01905157  0.91921242  1
  La3+  La2  1  0.37526600  0.49344377  0.90548868  1
  La3+  La3  1  -0.00742995  0.13375012  0.61419867  1
  La3+  La4  1  0.39498882  0.52040846  0.40558972  1
  La3+  La5  1  0.24449143  0.38848383  0.11545272  1
  Ce3+  Ce6  1  0.02018406  0.37211856  0.55250963  1
  Ce3+  Ce7  1  0.76620781  0.12866133  0.54993734  1
  Ce3+  Ce8  1  -0.00400574  0.35713016  0.07235441  1
  Ce3+  Ce9  1  0.39560775  0.25714550  0.43500013  1
  Ce3+  Ce10  1  0.01636244  0.63252681  0.56906537  1
  Ce3+  Ce11  1  0.36134099  0.73955736  0.93928674  1
  Ce3+  Ce12  1  0.48292293  0.36576998  0.05975532  1
  Pr3+  Pr13  1  0.76784526  0.37544393  0.55583271  1
  Pr3+  Pr14  1  0.49016046  0.11208764  0.06346733  1
  Pr3+  Pr15  1  0.14114863  0.50754333  0.44392961  1
  Pr3+  Pr16  1  0.64115980  0.75357630  0.43759059  1
  Pr3+  Pr17  1  0.14922188  0.25332408  0.42595544  1
  Pr3+  Pr18  1  0.61539881  -0.00815839  0.92763092  1
  Pr3+  Pr19  1  0.76860823  0.62937281  0.55642645  1
  Pr3+  Pr20  1  0.51139711  0.12975313  0.57105171  1
  Pr3+  Pr21  1  0.86640473  0.48904163  0.94377577  1
  Pr3+  Pr22  1  0.36169991  0.23913874  0.93592234  1
  Pr3+  Pr23  1  0.26958751  0.38085623  0.55528671  1
  Pr3+  Pr24  1  0.23837374  0.11834591  0.06058581  1
  Pr3+  Pr25  1  0.26655347  0.88144457  0.56497650  1
  Nd3+  Nd26  1  0.51567818  0.87935889  0.55118558  1
  Nd3+  Nd27  1  -0.00879927  0.86911633  0.06911634  1
  Nd3+  Nd28  1  0.86214372  -0.00780844  0.93140819  1
  Nd3+  Nd29  1  -0.00831432  0.11276763  0.06090709  1
  Nd3+  Nd30  1  0.76869737  0.88314642  0.54996920  1
  Nd3+  Nd31  1  0.01604449  0.87879101  0.57297903  1
  Nd3+  Nd32  1  0.49163284  0.86287942  0.05279809  1
  Nd3+  Nd33  1  0.74053753  0.11450898  0.06016999  1
  Nd3+  Nd34  1  0.11836036  0.48865113  0.94360735  1
  Nd3+  Nd35  1  0.51851364  0.62949092  0.56464243  1
  Nd3+  Nd36  1  0.26209270  0.13309761  0.56526064  1
  Nd3+  Nd37  1  0.51843364  0.38184598  0.56079141  1
  Nd3+  Nd38  1  0.61433096  0.73868583  0.93775559  1
  Nd3+  Nd39  1  0.89225916  0.25487883  0.43437972  1
  Nd3+  Nd40  1  0.11569530  0.74153916  0.94853484  1
  Nd3+  Nd41  1  0.38906894  0.00852035  0.43616515  1
  Nd3+  Nd42  1  0.23891267  0.86894233  0.07034714  1
  Nd3+  Nd43  1  0.61006585  0.24271890  0.94283035  1
  Nd3+  Nd44  1  0.74045529  0.86456870  0.05613659  1
  Sm3+  Sm45  1  0.24289900  0.61422997  0.05789232  1
  Sm3+  Sm46  1  0.63513443  0.25714554  0.43646660  1
  Sm3+  Sm47  1  -0.00669039  0.61177658  0.05669719  1
  Sm3+  Sm48  1  0.64069503  0.50666804  0.43772078  1
  Sm3+  Sm49  1  0.63932747  0.00635011  0.44220739  1
  Sm3+  Sm50  1  0.61458886  0.49080601  0.94348218  1
  Sm3+  Sm51  1  0.13963847  0.00619557  0.44849973  1
  Sm3+  Sm52  1  0.13942776  0.75550945  0.44455724  1
  Sm3+  Sm53  1  0.89214041  0.50474966  0.44642867  1
  Sm3+  Sm54  1  0.89423980  0.00732001  0.43788000  1
  Sm3+  Sm55  1  0.89405898  0.75632011  0.44084443  1
  Sm3+  Sm56  1  0.86459389  0.24187734  0.94415341  1
  Sm3+  Sm57  1  0.86524248  0.73970185  0.94850092  1
  Sm3+  Sm58  1  0.74037998  0.61301207  0.05857671  1
  Sm3+  Sm59  1  0.36246427  -0.00904570  0.94527095  1
  Sm3+  Sm60  1  0.26705198  0.62815033  0.56041885  1
  Sm3+  Sm61  1  0.48741206  0.61253554  0.05814089  1
  Sm3+  Sm62  1  0.38864844  0.75591658  0.44603200  1
  Sm3+  Sm63  1  0.74070702  0.36608363  0.05879187  1
  Bi2+  Bi64  1  -0.00969896  0.11431712  0.31029798  1
  Bi2+  Bi65  1  0.02981077  0.12542584  0.81427594  1
  Bi2+  Bi66  1  -0.06475787  0.36817522  0.28370970  1
  Bi2+  Bi67  1  -0.05479021  0.37352575  0.79902208  1
  Bi2+  Bi68  1  -0.05039843  0.62822980  0.27608888  1
  Bi2+  Bi69  1  0.04385920  0.62068828  0.79676911  1
  Bi2+  Bi70  1  0.00682822  0.87580449  0.27748588  1
  Bi2+  Bi71  1  -0.00589299  0.83122088  0.79512828  1
  Bi2+  Bi72  1  0.25122284  0.12449046  0.29529377  1
  Bi2+  Bi73  1  0.29873758  0.12208629  0.79914675  1
  Bi2+  Bi74  1  0.20066318  0.39610000  0.31418171  1
  Bi2+  Bi75  1  0.19484813  0.37802037  0.78574830  1
  Bi2+  Bi76  1  0.24455203  0.64939463  0.29746519  1
  Bi2+  Bi77  1  0.23675588  0.61484672  0.78180341  1
  Bi2+  Bi78  1  0.22620470  0.89520390  0.28807666  1
  Bi2+  Bi79  1  0.28196774  0.79493090  0.81463254  1
  Bi2+  Bi80  1  0.51751546  0.11279764  0.29416666  1
  Bi2+  Bi81  1  0.57957153  0.11630151  0.80833284  1
  Bi2+  Bi82  1  0.53659136  0.36628794  0.28255567  1
  Bi2+  Bi83  1  0.50480542  0.35344253  0.79462040  1
  Bi2+  Bi84  1  0.52629018  0.65810509  0.29643188  1
  Bi2+  Bi85  1  0.51939983  0.66587516  0.75018259  1
  Bi2+  Bi86  1  0.48823411  0.84286377  0.24734245  1
  Bi2+  Bi87  1  0.55220207  0.83573662  0.81284958  1
  Bi2+  Bi88  1  0.71871525  0.09159091  0.28019119  1
  Bi2+  Bi89  1  0.74955110  0.16575826  0.73717163  1
  Bi2+  Bi90  1  0.72540300  0.34622155  0.30721969  1
  Bi2+  Bi91  1  0.69225888  0.41116619  0.79778312  1
  Bi2+  Bi92  1  0.74751561  0.54816135  0.31181430  1
  Bi2+  Bi93  1  0.77685760  0.64395346  0.79620754  1
  Bi2+  Bi94  1  0.77484604  0.73916748  0.27747925  1
  Bi2+  Bi95  1  0.73038561  0.89973562  0.78462888  1
  Bi2+  Bi96  1  0.11495632  0.00833143  0.21447984  1
  Bi2+  Bi97  1  0.14356574  -0.00904857  0.71397098  1
  Bi2+  Bi98  1  0.10599252  0.25881556  0.21000946  1
  Bi2+  Bi99  1  0.12772196  0.25753164  0.70762462  1
  Bi2+  Bi100  1  0.10003176  0.54879092  0.21647199  1
  Bi2+  Bi101  1  0.08655080  0.48792602  0.71334908  1
  Bi2+  Bi102  1  0.11961955  0.80808056  0.18551447  1
  Bi2+  Bi103  1  0.12914152  0.75253945  0.72331354  1
  Bi2+  Bi104  1  0.36682260  -0.01332144  0.20319737  1
  Bi2+  Bi105  1  0.44845941  -0.00348591  0.75553579  1
  Bi2+  Bi106  1  0.36834620  0.23720376  0.21009371  1
  Bi2+  Bi107  1  0.37790723  0.23935583  0.70451166  1
  Bi2+  Bi108  1  0.38710871  0.52628760  0.20784947  1
  Bi2+  Bi109  1  0.36061136  0.48630147  0.68825496  1
  Bi2+  Bi110  1  0.31071025  0.78104523  0.20611580  1
  Bi2+  Bi111  1  0.38622432  0.80618517  0.72212449  1
  Bi2+  Bi112  1  0.62732088  -0.03049106  0.21153751  1
  Bi2+  Bi113  1  0.61536481  0.02602034  0.69453596  1
  Bi2+  Bi114  1  0.63907680  0.24044769  0.21852145  1
  Bi2+  Bi115  1  0.57357765  0.21802320  0.69269845  1
  Bi2+  Bi116  1  0.62695970  0.50681161  0.21774993  1
  Bi2+  Bi117  1  0.65919782  0.53516082  0.71136374  1
  Bi2+  Bi118  1  0.62238316  0.70425533  0.20027907  1
  Bi2+  Bi119  1  0.61303519  0.81747372  0.69921119  1
  Bi2+  Bi120  1  0.86908339  -0.03882617  0.20520433  1
  Bi2+  Bi121  1  0.85683220  -0.00088418  0.71332190  1
  Bi2+  Bi122  1  0.85719870  0.21568433  0.20898152  1
  Bi2+  Bi123  1  0.81897691  0.35304926  0.71627559  1
  Bi2+  Bi124  1  0.82357163  0.46806489  0.21069245  1
  Bi2+  Bi125  1  0.93102189  0.59167344  0.69692345  1
  Bi2+  Bi126  1  0.92312196  0.76987989  0.18996005  1
  Bi2+  Bi127  1  0.83855992  0.75923210  0.71207474  1
  S2-  S128  1  -0.01103845  0.22099379  0.14297519  1
  S2-  S129  1  -0.00490269  0.15204322  0.72456380  1
  S2-  S130  1  0.07700514  0.40344562  0.15738887  1
  S2-  S131  1  0.00877056  0.31017053  0.64184257  1
  S2-  S132  1  -0.00527552  0.61177845  0.15383213  1
  S2-  S133  1  0.01837010  0.74606383  0.64252595  1
  S2-  S134  1  -0.00374320  0.99656430  0.13845192  1
  S2-  S135  1  0.00234604  0.97076157  0.65718895  1
  S2-  S136  1  0.23244056  0.21650416  0.14623992  1
  S2-  S137  1  0.16266415  0.12534301  0.64848217  1
  S2-  S138  1  0.24346144  0.36410287  0.22407738  1
  S2-  S139  1  0.26075184  0.35316118  0.65519154  1
  S2-  S140  1  0.24504755  0.55902764  0.15244878  1
  S2-  S141  1  0.26795415  0.60396222  0.65744415  1
  S2-  S142  1  0.24035396  0.99739867  0.13977664  1
  S2-  S143  1  0.22138657  0.88336947  0.66222448  1
  S2-  S144  1  0.45245636  0.12974623  0.16151754  1
  S2-  S145  1  0.38268461  0.11899590  0.64140084  1
  S2-  S146  1  0.41813042  0.37748052  0.15067441  1
  S2-  S147  1  0.48119354  0.36393236  0.65752869  1
  S2-  S148  1  0.46911014  0.62909771  0.15579927  1
  S2-  S149  1  0.49703649  0.58191203  0.65923560  1
  S2-  S150  1  0.50223248  0.91410731  0.14574189  1
  S2-  S151  1  0.47394322  0.87808566  0.64590627  1
  S2-  S152  1  0.79876518  0.09748954  0.15305565  1
  S2-  S153  1  0.82018821  0.13571566  0.64165065  1
  S2-  S154  1  0.75230548  0.33328424  0.15429897  1
  S2-  S155  1  0.70424628  0.39953418  0.64680243  1
  S2-  S156  1  0.74589980  0.60453475  0.15520544  1
  S2-  S157  1  0.73769593  0.64656557  0.65347441  1
  S2-  S158  1  0.73945616  0.87991648  0.15451862  1
  S2-  S159  1  0.79409543  0.89169737  0.64731741  1
  S2-  S160  1  0.14692673  0.03722019  0.35027317  1
  S2-  S161  1  0.16856413  0.01622190  0.81864448  1
  S2-  S162  1  0.08047286  0.26630283  0.33071901  1
  S2-  S163  1  0.18524848  0.21920789  0.83984125  1
  S2-  S164  1  0.13410483  0.54537505  0.34552636  1
  S2-  S165  1  0.07372418  0.39841107  0.86210749  1
  S2-  S166  1  0.16500441  0.76517900  0.34794253  1
  S2-  S167  1  0.12384669  0.82385235  0.86259477  1
  S2-  S168  1  0.38464257  0.03752717  0.33840605  1
  S2-  S169  1  0.38169050  -0.01053131  0.84846655  1
  S2-  S170  1  0.28958486  0.25855680  0.35632348  1
  S2-  S171  1  0.43117536  0.22141783  0.84339594  1
  S2-  S172  1  0.33993847  0.49068210  0.30900405  1
  S2-  S173  1  0.34511831  0.42325533  0.81205872  1
  S2-  S174  1  0.38753520  0.68784558  0.35732954  1
  S2-  S175  1  0.36583805  0.65156727  0.85453244  1
  S2-  S176  1  0.61813641  0.00600129  0.34606667  1
  S2-  S177  1  0.73893316  0.01440027  0.85724256  1
  S2-  S178  1  0.51888960  0.25152087  0.36240280  1
  S2-  S179  1  0.65352401  0.25408970  0.84713035  1
  S2-  S180  1  0.54883506  0.51276147  0.35499509  1
  S2-  S181  1  0.53810368  0.47961542  0.85655733  1
  S2-  S182  1  0.64312614  0.76930437  0.33874610  1
  S2-  S183  1  0.63117502  0.68320604  0.84450110  1
  S2-  S184  1  0.89384677  -0.00376309  0.33927479  1
  S2-  S185  1  0.96772579  -0.02242119  0.85289422  1
  S2-  S186  1  0.86935776  0.22806092  0.33698980  1
  S2-  S187  1  0.90038277  0.23246823  0.84882062  1
  S2-  S188  1  0.91099948  0.50008069  0.34986041  1
  S2-  S189  1  0.83287729  0.49305133  0.84569279  1
  S2-  S190  1  0.92321392  0.75219964  0.34506575  1
  S2-  S191  1  0.86939512  0.75151990  0.85177166  1
  S2-  S192  1  0.01623635  0.12929083  0.44405566  1
  S2-  S193  1  -0.01195089  0.11652592  0.95302956  1
  S2-  S194  1  0.01610640  0.37968644  0.44722245  1
  S2-  S195  1  -0.01507749  0.36604136  0.96559392  1
  S2-  S196  1  0.01420225  0.63206547  0.45897921  1
  S2-  S197  1  -0.00847013  0.61592015  0.95238663  1
  S2-  S198  1  0.01631762  0.88058751  0.45386663  1
  S2-  S199  1  -0.01457960  0.86069442  0.96310628  1
  S2-  S200  1  0.26626059  0.12718992  0.45770601  1
  S2-  S201  1  0.23852855  0.11135354  0.95097592  1
  S2-  S202  1  0.27645452  0.39464145  0.44925293  1
  S2-  S203  1  0.24913955  0.37422557  0.93978563  1
  S2-  S204  1  0.26587001  0.63303260  0.45638011  1
  S2-  S205  1  0.23933659  0.61419188  0.95389022  1
  S2-  S206  1  0.26516798  0.87975963  0.45470660  1
  S2-  S207  1  0.24327562  0.86585246  0.96236365  1
  S2-  S208  1  0.51740455  0.12594988  0.46043240  1
  S2-  S209  1  0.49078666  0.11223438  0.95606641  1
  S2-  S210  1  0.51735269  0.38726853  0.45534176  1
  S2-  S211  1  0.48793144  0.36754408  0.95515637  1
  S2-  S212  1  0.51488507  0.63259581  0.45804993  1
  S2-  S213  1  0.49132831  0.61450105  0.95590769  1
  S2-  S214  1  0.51410082  0.87997674  0.44554522  1
  S2-  S215  1  0.48876666  0.86494277  0.94858871  1
  S2-  S216  1  0.76228820  0.13014394  0.44399914  1
  S2-  S217  1  0.73800444  0.12258035  0.95659092  1
  S2-  S218  1  0.76401465  0.38103421  0.44903452  1
  S2-  S219  1  0.73797741  0.36594809  0.95463220  1
  S2-  S220  1  0.76967317  0.63034346  0.44989098  1
  S2-  S221  1  0.73963752  0.61458110  0.95502908  1
  S2-  S222  1  0.76783075  0.88206395  0.44442349  1
  S2-  S223  1  0.73872819  0.86147285  0.95078973  1
  S2-  S224  1  0.11574367  -0.01416421  0.03699170  1
  S2-  S225  1  0.13910835  0.00136431  0.54864117  1
  S2-  S226  1  0.11409677  0.23932495  0.03917593  1
  S2-  S227  1  0.14657771  0.25809699  0.53485942  1
  S2-  S228  1  0.11961080  0.49116387  0.04712286  1
  S2-  S229  1  0.14038575  0.50654752  0.55111346  1
  S2-  S230  1  0.11589526  0.73875583  0.05298125  1
  S2-  S231  1  0.14513607  0.75437258  0.54710100  1
  S2-  S232  1  0.36741808  -0.01198218  0.04606179  1
  S2-  S233  1  0.39034064  0.00195276  0.54131439  1
  S2-  S234  1  0.36809788  0.23769168  0.04219659  1
  S2-  S235  1  0.39498036  0.25730722  0.54228716  1
  S2-  S236  1  0.36367992  0.49296650  0.04752389  1
  S2-  S237  1  0.39321166  0.50890627  0.54878874  1
  S2-  S238  1  0.36439172  0.74058077  0.04828434  1
  S2-  S239  1  0.39014544  0.75204847  0.54973807  1
  S2-  S240  1  0.61713942  -0.01063866  0.03903109  1
  S2-  S241  1  0.63897082  0.00434051  0.54659101  1
  S2-  S242  1  0.61538419  0.24177299  0.05094610  1
  S2-  S243  1  0.63839335  0.25288885  0.54165883  1
  S2-  S244  1  0.61481905  0.49020905  0.05034982  1
  S2-  S245  1  0.64221617  0.50679699  0.54168565  1
  S2-  S246  1  0.61566607  0.73639884  0.04586931  1
  S2-  S247  1  0.64225910  0.75630109  0.54421207  1
  S2-  S248  1  0.86162682  -0.01154835  0.03921331  1
  S2-  S249  1  0.89457110  0.00672423  0.54166674  1
  S2-  S250  1  0.86086172  0.24104194  0.04667541  1
  S2-  S251  1  0.89226042  0.25092850  0.53912381  1
  S2-  S252  1  0.86661013  0.48949868  0.05156300  1
  S2-  S253  1  0.89369266  0.50198854  0.55082404  1
  S2-  S254  1  0.86618592  0.73656467  0.05206138  1
  S2-  S255  1  0.89035814  0.75647064  0.54385844  1
