# generated using pymatgen
data_La6Ce7Pr13Nd19Sm19(BiS2)64
_symmetry_space_group_name_H-M   'P 1'
_cell_length_a   16.03862774
_cell_length_b   16.07517065
_cell_length_c   27.26315243
_cell_angle_alpha   89.74437384
_cell_angle_beta   90.19524668
_cell_angle_gamma   90.05138632
_symmetry_Int_Tables_number   1
_chemical_formula_structural   La6Ce7Pr13Nd19Sm19(BiS2)64
_chemical_formula_sum   'La6 Ce7 Pr13 Nd19 Sm19 Bi64 S128'
_cell_volume   7028.97273046
_cell_formula_units_Z   1
loop_
 _symmetry_equiv_pos_site_id
 _symmetry_equiv_pos_as_xyz
  1  'x, y, z'
loop_
 _atom_type_symbol
 _atom_type_oxidation_number
  La3+  3.0
  Ce3+  3.0
  Pr3+  3.0
  Nd3+  3.0
  Sm3+  3.0
  Bi2+  2.0
  S2-  -2.0
loop_
 _atom_site_type_symbol
 _atom_site_label
 _atom_site_symmetry_multiplicity
 _atom_site_fract_x
 _atom_site_fract_y
 _atom_site_fract_z
 _atom_site_occupancy
  La3+  La0  1  0.74086583  0.85599534  0.07279294  1
  La3+  La1  1  0.10723804  0.49667327  0.40488085  1
  La3+  La2  1  0.36221638  0.24561979  0.92805507  1
  La3+  La3  1  0.48514543  0.37012167  0.58382269  1
  La3+  La4  1  0.25986518  0.36079835  0.10984387  1
  La3+  La5  1  0.36507136  0.75295165  0.42106832  1
  Ce3+  Ce6  1  0.85763409  -0.00417883  0.94410946  1
  Ce3+  Ce7  1  0.11742590  0.24614940  0.93019850  1
  Ce3+  Ce8  1  0.87054477  0.49699566  0.44853031  1
  Ce3+  Ce9  1  0.86251317  0.74727802  0.92611128  1
  Ce3+  Ce10  1  -0.00907752  0.12147924  0.05133589  1
  Ce3+  Ce11  1  0.86874619  0.49258599  0.92994340  1
  Ce3+  Ce12  1  0.11258892  0.49701023  0.93659016  1
  Pr3+  Pr13  1  0.00076338  0.62081510  0.57300122  1
  Pr3+  Pr14  1  0.61414037  0.49640795  0.89481056  1
  Pr3+  Pr15  1  0.00150229  0.36397595  0.57140097  1
  Pr3+  Pr16  1  0.61242887  0.74533135  0.92468030  1
  Pr3+  Pr17  1  0.62217996  0.49894574  0.44944074  1
  Pr3+  Pr18  1  0.74566123  0.86947289  0.57460715  1
  Pr3+  Pr19  1  0.23258777  0.62034498  0.06894464  1
  Pr3+  Pr20  1  0.10968871  0.75588971  0.42695159  1
  Pr3+  Pr21  1  0.11889404  0.24685515  0.42820666  1
  Pr3+  Pr22  1  0.48648685  0.12421150  0.06097437  1
  Pr3+  Pr23  1  0.61905886  0.24885728  0.43960944  1
  Pr3+  Pr24  1  0.49646008  0.86270152  0.57148271  1
  Pr3+  Pr25  1  0.74876914  0.61380974  0.58095342  1
  Nd3+  Nd26  1  0.61963620  0.00157776  0.43713690  1
  Nd3+  Nd27  1  0.73676098  0.12064409  0.06377590  1
  Nd3+  Nd28  1  0.86920247  0.25176040  0.44501365  1
  Nd3+  Nd29  1  0.49419827  0.12107061  0.56760131  1
  Nd3+  Nd30  1  0.48845583  0.86420506  0.05834237  1
  Nd3+  Nd31  1  0.61279312  -0.00164729  0.94158113  1
  Nd3+  Nd32  1  0.24349890  0.86632919  0.56291616  1
  Nd3+  Nd33  1  0.75198010  0.36551845  0.58641271  1
  Nd3+  Nd34  1  0.85948637  0.24617869  0.93592380  1
  Nd3+  Nd35  1  0.36978811  -0.00415758  0.44322647  1
  Nd3+  Nd36  1  0.24580349  0.37358067  0.54883641  1
  Nd3+  Nd37  1  0.11333228  0.74880955  0.92392600  1
  Nd3+  Nd38  1  0.74250978  0.12182226  0.56706164  1
  Nd3+  Nd39  1  -0.00193115  0.86925830  0.58186299  1
  Nd3+  Nd40  1  0.36092338  0.74329260  0.92827064  1
  Nd3+  Nd41  1  0.62171889  0.75383207  0.43736503  1
  Nd3+  Nd42  1  0.38171963  0.49622003  0.42280333  1
  Nd3+  Nd43  1  -0.00436977  0.36880010  0.06080825  1
  Nd3+  Nd44  1  -0.01043305  0.86586856  0.05610540  1
  Sm3+  Sm45  1  0.48605368  0.61605469  0.05500963  1
  Sm3+  Sm46  1  0.49495997  0.62219624  0.55823515  1
  Sm3+  Sm47  1  0.86928353  0.74673227  0.45445935  1
  Sm3+  Sm48  1  0.48973130  0.36965297  0.05205967  1
  Sm3+  Sm49  1  0.86785678  -0.00421896  0.44827680  1
  Sm3+  Sm50  1  0.24535959  0.11957421  0.55482043  1
  Sm3+  Sm51  1  0.23735237  0.86371726  0.06061387  1
  Sm3+  Sm52  1  0.11620959  -0.00213386  0.43899385  1
  Sm3+  Sm53  1  0.73736386  0.61618653  0.04762914  1
  Sm3+  Sm54  1  0.61363959  0.24336900  0.90193974  1
  Sm3+  Sm55  1  0.37030768  0.24824318  0.44034665  1
  Sm3+  Sm56  1  0.11319248  -0.00575396  0.94536270  1
  Sm3+  Sm57  1  -0.00991559  0.61817132  0.05491903  1
  Sm3+  Sm58  1  0.24396312  0.62010859  0.54346081  1
  Sm3+  Sm59  1  0.23831309  0.12335919  0.05878745  1
  Sm3+  Sm60  1  0.36774449  0.49379997  0.93998865  1
  Sm3+  Sm61  1  -0.00111337  0.12289425  0.55746650  1
  Sm3+  Sm62  1  0.36392333  -0.00511725  0.95035154  1
  Sm3+  Sm63  1  0.73723315  0.37049613  0.05014107  1
  Bi2+  Bi64  1  0.10165929  0.12016890  0.31667421  1
  Bi2+  Bi65  1  0.02672173  0.14611824  0.79105190  1
  Bi2+  Bi66  1  -0.05532896  0.38495963  0.28738968  1
  Bi2+  Bi67  1  0.04325813  0.34235165  0.79829721  1
  Bi2+  Bi68  1  -0.01960441  0.64191266  0.22110198  1
  Bi2+  Bi69  1  0.03737521  0.62244016  0.79052861  1
  Bi2+  Bi70  1  0.01294689  0.80447418  0.28661485  1
  Bi2+  Bi71  1  0.00791434  0.93392643  0.78196218  1
  Bi2+  Bi72  1  0.30201699  0.12931102  0.31439912  1
  Bi2+  Bi73  1  0.23354443  0.13220002  0.77453418  1
  Bi2+  Bi74  1  0.25324218  0.34782746  0.31382567  1
  Bi2+  Bi75  1  0.23098135  0.41230827  0.78373890  1
  Bi2+  Bi76  1  0.27225030  0.63549329  0.27615180  1
  Bi2+  Bi77  1  0.23938973  0.61156441  0.80397173  1
  Bi2+  Bi78  1  0.22991122  0.87752864  0.29068444  1
  Bi2+  Bi79  1  0.27368827  0.92577660  0.78979022  1
  Bi2+  Bi80  1  0.49162114  0.08301899  0.28953963  1
  Bi2+  Bi81  1  0.48847527  0.10761216  0.78523646  1
  Bi2+  Bi82  1  0.58528196  0.35448993  0.30546417  1
  Bi2+  Bi83  1  0.47214290  0.37578309  0.77713520  1
  Bi2+  Bi84  1  0.56337210  0.61633135  0.28715854  1
  Bi2+  Bi85  1  0.43202661  0.63180162  0.78756499  1
  Bi2+  Bi86  1  0.48438718  0.86612129  0.29041393  1
  Bi2+  Bi87  1  0.48936940  0.89547388  0.78788838  1
  Bi2+  Bi88  1  0.75016731  0.13079893  0.29741168  1
  Bi2+  Bi89  1  0.76823452  0.10523134  0.79768112  1
  Bi2+  Bi90  1  0.76134293  0.41344714  0.33745180  1
  Bi2+  Bi91  1  0.75098442  0.37822903  0.77015967  1
  Bi2+  Bi92  1  0.77999356  0.58824696  0.28020569  1
  Bi2+  Bi93  1  0.77901676  0.64222636  0.79222265  1
  Bi2+  Bi94  1  0.75828371  0.83832473  0.31807166  1
  Bi2+  Bi95  1  0.73623230  0.90833038  0.78225613  1
  Bi2+  Bi96  1  0.12625256  0.01983510  0.21070048  1
  Bi2+  Bi97  1  0.11199590  0.04153355  0.70028247  1
  Bi2+  Bi98  1  0.10965798  0.22271506  0.21006572  1
  Bi2+  Bi99  1  0.13869259  0.32830687  0.69215516  1
  Bi2+  Bi100  1  0.13180142  0.49200811  0.20996893  1
  Bi2+  Bi101  1  0.11818924  0.52325697  0.69030858  1
  Bi2+  Bi102  1  0.10909394  0.83125223  0.18607944  1
  Bi2+  Bi103  1  0.16355669  0.76479862  0.70639045  1
  Bi2+  Bi104  1  0.32923871  0.00150652  0.22446864  1
  Bi2+  Bi105  1  0.45517384  0.00185966  0.68849185  1
  Bi2+  Bi106  1  0.40670774  0.20585076  0.20939187  1
  Bi2+  Bi107  1  0.34086656  0.24681000  0.70360336  1
  Bi2+  Bi108  1  0.39988284  0.48145457  0.21314049  1
  Bi2+  Bi109  1  0.33650378  0.52434055  0.70732718  1
  Bi2+  Bi110  1  0.39373434  0.73378741  0.20112103  1
  Bi2+  Bi111  1  0.35335197  0.83377132  0.69930774  1
  Bi2+  Bi112  1  0.63960644  0.02953906  0.21943019  1
  Bi2+  Bi113  1  0.66737952  0.02890981  0.69904940  1
  Bi2+  Bi114  1  0.67261530  0.27023392  0.21730279  1
  Bi2+  Bi115  1  0.62092661  0.21184931  0.71972040  1
  Bi2+  Bi116  1  0.65841000  0.47220036  0.21766596  1
  Bi2+  Bi117  1  0.60205307  0.56411990  0.70391596  1
  Bi2+  Bi118  1  0.62977112  0.77791823  0.20240266  1
  Bi2+  Bi119  1  0.59375749  0.77687586  0.72120839  1
  Bi2+  Bi120  1  0.94612833  0.02503118  0.27097212  1
  Bi2+  Bi121  1  0.90601482  0.03410303  0.70338235  1
  Bi2+  Bi122  1  0.91389417  0.20814055  0.23168050  1
  Bi2+  Bi123  1  0.89946869  0.23297483  0.70656335  1
  Bi2+  Bi124  1  0.87326608  0.48243520  0.19584417  1
  Bi2+  Bi125  1  0.93211802  0.49386111  0.72747313  1
  Bi2+  Bi126  1  0.83001742  0.77518750  0.21378599  1
  Bi2+  Bi127  1  0.87983959  0.74024470  0.70933564  1
  S2-  S128  1  -0.01120447  0.14082938  0.14817072  1
  S2-  S129  1  0.03020205  0.21939750  0.63780165  1
  S2-  S130  1  0.08743431  0.36515845  0.14612280  1
  S2-  S131  1  -0.10459166  0.37517978  0.65389998  1
  S2-  S132  1  0.08192137  0.61804105  0.13929253  1
  S2-  S133  1  -0.11430346  0.59778952  0.65189273  1
  S2-  S134  1  -0.05716613  0.85210834  0.15100256  1
  S2-  S135  1  0.02590737  0.73745785  0.65313461  1
  S2-  S136  1  0.25527467  0.19303649  0.14804353  1
  S2-  S137  1  0.25640387  0.11818639  0.65265480  1
  S2-  S138  1  0.26144526  0.37342552  0.21996862  1
  S2-  S139  1  0.31771123  0.37952354  0.63968629  1
  S2-  S140  1  0.27348786  0.52633303  0.15251305  1
  S2-  S141  1  0.23497305  0.63630997  0.64378849  1
  S2-  S142  1  0.25631088  0.76007344  0.13839859  1
  S2-  S143  1  0.14314389  0.89700091  0.64364985  1
  S2-  S144  1  0.50489700  0.10879932  0.16073898  1
  S2-  S145  1  0.49151424  0.22661064  0.64793812  1
  S2-  S146  1  0.43639822  0.35651883  0.14728924  1
  S2-  S147  1  0.50053437  0.44679941  0.67983017  1
  S2-  S148  1  0.47972297  0.61072687  0.15607433  1
  S2-  S149  1  0.49778002  0.68736784  0.64923858  1
  S2-  S150  1  0.49296088  0.85665389  0.15846130  1
  S2-  S151  1  0.61812573  0.88468936  0.64411327  1
  S2-  S152  1  0.74045001  0.13807433  0.16310332  1
  S2-  S153  1  0.74510833  0.22185931  0.64948911  1
  S2-  S154  1  0.76633022  0.37121317  0.14837039  1
  S2-  S155  1  0.70983644  0.45578363  0.67490378  1
  S2-  S156  1  0.72980090  0.70044319  0.13394169  1
  S2-  S157  1  0.72183328  0.70354836  0.66979621  1
  S2-  S158  1  0.72083737  0.92074064  0.16665283  1
  S2-  S159  1  0.86599376  0.88280010  0.65208702  1
  S2-  S160  1  0.09884758  -0.10045269  0.35985846  1
  S2-  S161  1  0.12749395  -0.04003404  0.84951507  1
  S2-  S162  1  0.09006450  0.34560055  0.34604430  1
  S2-  S163  1  0.22994365  0.22904718  0.85430286  1
  S2-  S164  1  0.13902363  0.55513068  0.30520189  1
  S2-  S165  1  0.00500800  0.48609632  0.85774115  1
  S2-  S166  1  0.23056846  0.73865088  0.35144771  1
  S2-  S167  1  0.24136405  0.76151459  0.85365432  1
  S2-  S168  1  0.37297026  -0.09519555  0.35774313  1
  S2-  S169  1  0.37768443  0.00872171  0.85265778  1
  S2-  S170  1  0.40158859  0.27652059  0.34529123  1
  S2-  S171  1  0.46258693  0.24447346  0.84482425  1
  S2-  S172  1  0.34084036  0.49776772  0.32257516  1
  S2-  S173  1  0.44479706  0.48600073  0.84910462  1
  S2-  S174  1  0.45230639  0.71022232  0.33043884  1
  S2-  S175  1  0.47874180  0.75479627  0.85353709  1
  S2-  S176  1  0.61865627  -0.11460094  0.36134489  1
  S2-  S177  1  0.61999232  0.08938857  0.85520638  1
  S2-  S178  1  0.61602569  0.12884871  0.36315906  1
  S2-  S179  1  0.62004155  0.36318617  0.82758624  1
  S2-  S180  1  0.53427837  0.49401724  0.36136755  1
  S2-  S181  1  0.62283156  0.60356202  0.80989274  1
  S2-  S182  1  0.68474459  0.68530666  0.35092488  1
  S2-  S183  1  0.73846256  0.77393897  0.85272097  1
  S2-  S184  1  0.83493347  -0.00970820  0.35062634  1
  S2-  S185  1  0.86357452  -0.02941737  0.84659671  1
  S2-  S186  1  0.84718141  0.25078179  0.34584449  1
  S2-  S187  1  0.79960756  0.25376235  0.84156511  1
  S2-  S188  1  0.94304181  0.50682414  0.35931373  1
  S2-  S189  1  0.78666922  0.48976129  0.84181793  1
  S2-  S190  1  0.90573235  0.76039895  0.35807569  1
  S2-  S191  1  0.98448820  0.74554316  0.85195613  1
  S2-  S192  1  -0.00798622  0.12196612  0.45204971  1
  S2-  S193  1  -0.01180871  0.11983910  0.94455537  1
  S2-  S194  1  -0.00286431  0.37133284  0.46021395  1
  S2-  S195  1  -0.01124254  0.36334342  0.95471154  1
  S2-  S196  1  -0.00300838  0.62448157  0.45943122  1
  S2-  S197  1  -0.01159814  0.62197678  0.95294362  1
  S2-  S198  1  -0.01041274  0.87644798  0.46695339  1
  S2-  S199  1  -0.01287930  0.87448798  0.95153880  1
  S2-  S200  1  0.24409930  0.12065190  0.44986563  1
  S2-  S201  1  0.23824908  0.11396361  0.95565942  1
  S2-  S202  1  0.24683560  0.37630152  0.44324759  1
  S2-  S203  1  0.23937770  0.37672711  0.94188380  1
  S2-  S204  1  0.24217553  0.61047351  0.44191657  1
  S2-  S205  1  0.24075874  0.61634995  0.95297119  1
  S2-  S206  1  0.24011483  0.87629893  0.45856237  1
  S2-  S207  1  0.23968659  0.87374119  0.95764749  1
  S2-  S208  1  0.48919760  0.12375602  0.45997928  1
  S2-  S209  1  0.48834196  0.12159709  0.95546504  1
  S2-  S210  1  0.49311622  0.36927917  0.46228003  1
  S2-  S211  1  0.49839923  0.36960153  0.94960157  1
  S2-  S212  1  0.49520380  0.62836837  0.45419769  1
  S2-  S213  1  0.49357686  0.61413237  0.95062067  1
  S2-  S214  1  0.49377071  0.87321114  0.46347083  1
  S2-  S215  1  0.48813056  0.87362685  0.95346125  1
  S2-  S216  1  0.74862910  0.12323418  0.46109447  1
  S2-  S217  1  0.73485863  0.12576572  0.95718490  1
  S2-  S218  1  0.74365629  0.37058186  0.46697888  1
  S2-  S219  1  0.73151031  0.36790558  0.94753101  1
  S2-  S220  1  0.74818284  0.62225611  0.46708348  1
  S2-  S221  1  0.73493211  0.61388292  0.94558384  1
  S2-  S222  1  0.74798436  0.87409437  0.46585484  1
  S2-  S223  1  0.73542866  0.87195895  0.96058924  1
  S2-  S224  1  0.11674916  -0.00705327  0.05108403  1
  S2-  S225  1  0.11931093  0.00040320  0.54247304  1
  S2-  S226  1  0.11681852  0.24343754  0.03847787  1
  S2-  S227  1  0.12752996  0.24345478  0.53516002  1
  S2-  S228  1  0.11345575  0.49370827  0.04026901  1
  S2-  S229  1  0.12144726  0.49478377  0.54852879  1
  S2-  S230  1  0.11194194  0.74554766  0.03409849  1
  S2-  S231  1  0.12242463  0.74570877  0.53806305  1
  S2-  S232  1  0.36032425  -0.00773832  0.05594408  1
  S2-  S233  1  0.36934488  -0.00621774  0.54953384  1
  S2-  S234  1  0.36100762  0.24841377  0.04005441  1
  S2-  S235  1  0.36653788  0.24279803  0.54346395  1
  S2-  S236  1  0.36460767  0.49093765  0.04270089  1
  S2-  S237  1  0.37209811  0.50040792  0.53874219  1
  S2-  S238  1  0.36579775  0.74163970  0.03695377  1
  S2-  S239  1  0.36697916  0.74440876  0.54131621  1
  S2-  S240  1  0.61219836  -0.00647448  0.04922286  1
  S2-  S241  1  0.61762252  0.00047635  0.54444290  1
  S2-  S242  1  0.61439066  0.24812625  0.05561968  1
  S2-  S243  1  0.61849053  0.24795829  0.54739042  1
  S2-  S244  1  0.61367394  0.49449543  0.05540129  1
  S2-  S245  1  0.61647136  0.49494473  0.55666510  1
  S2-  S246  1  0.60808124  0.73892580  0.03667122  1
  S2-  S247  1  0.62335114  0.74153182  0.54540025  1
  S2-  S248  1  0.86278351  -0.00516641  0.05089509  1
  S2-  S249  1  0.87262566  0.00300644  0.55224512  1
  S2-  S250  1  0.86291941  0.24651446  0.04420319  1
  S2-  S251  1  0.87174363  0.24205768  0.54820131  1
  S2-  S252  1  0.86530280  0.49375318  0.04088312  1
  S2-  S253  1  0.87226245  0.48923446  0.55107501  1
  S2-  S254  1  0.86646909  0.73872613  0.03703414  1
  S2-  S255  1  0.87085986  0.74474488  0.55537764  1
