# generated using pymatgen
data_La6Ce7Pr13Nd19Sm19(BiS2)64
_symmetry_space_group_name_H-M   'P 1'
_cell_length_a   16.05997538
_cell_length_b   16.04897579
_cell_length_c   27.33260930
_cell_angle_alpha   89.96668861
_cell_angle_beta   90.49714306
_cell_angle_gamma   89.93292283
_symmetry_Int_Tables_number   1
_chemical_formula_structural   La6Ce7Pr13Nd19Sm19(BiS2)64
_chemical_formula_sum   'La6 Ce7 Pr13 Nd19 Sm19 Bi64 S128'
_cell_volume   7044.60373002
_cell_formula_units_Z   1
loop_
 _symmetry_equiv_pos_site_id
 _symmetry_equiv_pos_as_xyz
  1  'x, y, z'
loop_
 _atom_type_symbol
 _atom_type_oxidation_number
  La3+  3.0
  Ce3+  3.0
  Pr3+  3.0
  Nd3+  3.0
  Sm3+  3.0
  Bi2+  2.0
  S2-  -2.0
loop_
 _atom_site_type_symbol
 _atom_site_label
 _atom_site_symmetry_multiplicity
 _atom_site_fract_x
 _atom_site_fract_y
 _atom_site_fract_z
 _atom_site_occupancy
  La3+  La0  1  0.01673305  0.13145200  0.08422027  1
  La3+  La1  1  0.24806416  0.37587024  0.61221134  1
  La3+  La2  1  0.38982059  0.75514470  0.91465514  1
  La3+  La3  1  0.27981044  0.63225036  0.06192175  1
  La3+  La4  1  0.74303425  0.63378171  0.57203258  1
  La3+  La5  1  0.14028533  0.49980795  0.93159529  1
  Ce3+  Ce6  1  0.48739057  0.64218377  0.56733136  1
  Ce3+  Ce7  1  0.61696006  0.00657249  0.44104880  1
  Ce3+  Ce8  1  0.73971732  0.13093466  0.56802397  1
  Ce3+  Ce9  1  0.11126354  0.00827715  0.43660854  1
  Ce3+  Ce10  1  0.77301307  0.87980321  0.06161130  1
  Ce3+  Ce11  1  0.03407867  0.63354432  0.06971986  1
  Ce3+  Ce12  1  0.23936911  0.13481360  0.55678437  1
  Pr3+  Pr13  1  0.14432001  0.24905499  0.93422484  1
  Pr3+  Pr14  1  0.89536316  0.50660848  0.94606254  1
  Pr3+  Pr15  1  0.89731680  0.00662999  0.94926239  1
  Pr3+  Pr16  1  0.36315769  0.75418551  0.42350503  1
  Pr3+  Pr17  1  0.26940247  0.12737621  0.06459815  1
  Pr3+  Pr18  1  0.77384086  0.38506970  0.06185458  1
  Pr3+  Pr19  1  0.36338546  0.25983448  0.44090077  1
  Pr3+  Pr20  1  0.51737334  0.13240232  0.06564910  1
  Pr3+  Pr21  1  0.39817393  0.00407791  0.92903192  1
  Pr3+  Pr22  1  0.61541092  0.50869550  0.44504172  1
  Pr3+  Pr23  1  0.85411228  0.50348817  0.42930676  1
  Pr3+  Pr24  1  0.89605939  0.25375148  0.94131919  1
  Pr3+  Pr25  1  0.74638363  0.38249113  0.58157335  1
  Nd3+  Nd26  1  0.11307320  0.75539926  0.42664030  1
  Nd3+  Nd27  1  0.64568807  0.50823929  0.94219486  1
  Nd3+  Nd28  1  0.03167742  0.37987654  0.07294857  1
  Nd3+  Nd29  1  0.73954852  0.87871333  0.56728871  1
  Nd3+  Nd30  1  0.77507499  0.63557565  0.06235338  1
  Nd3+  Nd31  1  0.14367550  0.00802421  0.94222839  1
  Nd3+  Nd32  1  0.85938010  0.76491132  0.41668789  1
  Nd3+  Nd33  1  0.48984028  0.38797622  0.56991059  1
  Nd3+  Nd34  1  0.10948100  0.26023385  0.44069470  1
  Nd3+  Nd35  1  0.85368204  0.25732900  0.43052537  1
  Nd3+  Nd36  1  0.03163061  0.87732212  0.09747736  1
  Nd3+  Nd37  1  0.23766871  0.63357324  0.56514752  1
  Nd3+  Nd38  1  -0.01025838  0.13358595  0.56068745  1
  Nd3+  Nd39  1  0.36333248  0.00739032  0.43879063  1
  Nd3+  Nd40  1  0.39638282  0.50816743  0.92780990  1
  Nd3+  Nd41  1  0.36208064  0.50818803  0.44821834  1
  Nd3+  Nd42  1  0.11045696  0.50697956  0.44158980  1
  Nd3+  Nd43  1  0.76312017  0.13467233  0.07279157  1
  Nd3+  Nd44  1  0.65277892  0.76044724  0.92222176  1
  Sm3+  Sm45  1  0.39449508  0.26057370  0.92861854  1
  Sm3+  Sm46  1  0.51966871  0.63397888  0.05255195  1
  Sm3+  Sm47  1  -0.01048662  0.88117270  0.55268688  1
  Sm3+  Sm48  1  0.51710476  0.38278198  0.06032110  1
  Sm3+  Sm49  1  0.64600697  0.00721887  0.94467922  1
  Sm3+  Sm50  1  0.14644613  0.75649142  0.94147456  1
  Sm3+  Sm51  1  0.61546833  0.25841049  0.45175438  1
  Sm3+  Sm52  1  0.64535313  0.25593975  0.94256499  1
  Sm3+  Sm53  1  0.48701706  0.13159276  0.55621382  1
  Sm3+  Sm54  1  0.61256709  0.75514891  0.43345365  1
  Sm3+  Sm55  1  0.23827430  0.87694957  0.55560166  1
  Sm3+  Sm56  1  0.51743413  0.87846160  0.05562596  1
  Sm3+  Sm57  1  0.27700294  0.88031002  0.05999752  1
  Sm3+  Sm58  1  -0.01040259  0.63149610  0.55139318  1
  Sm3+  Sm59  1  0.48812168  0.87923017  0.55396444  1
  Sm3+  Sm60  1  0.89570604  0.75671497  0.94098671  1
  Sm3+  Sm61  1  0.27557106  0.37953408  0.05981176  1
  Sm3+  Sm62  1  -0.00993939  0.38329798  0.56326556  1
  Sm3+  Sm63  1  0.86205746  0.00983564  0.43739981  1
  Bi2+  Bi64  1  0.00774250  0.11949287  0.29574485  1
  Bi2+  Bi65  1  0.00283012  0.04978782  0.78765613  1
  Bi2+  Bi66  1  0.00008270  0.37088728  0.29197936  1
  Bi2+  Bi67  1  -0.03678997  0.41475505  0.79626573  1
  Bi2+  Bi68  1  0.00019862  0.60970899  0.28617597  1
  Bi2+  Bi69  1  -0.02718620  0.67459488  0.75162644  1
  Bi2+  Bi70  1  -0.02873186  0.88678565  0.29015143  1
  Bi2+  Bi71  1  0.03324457  0.85438239  0.79348476  1
  Bi2+  Bi72  1  0.30210622  0.11564030  0.28839303  1
  Bi2+  Bi73  1  0.23756995  0.11403305  0.79708539  1
  Bi2+  Bi74  1  0.22266091  0.39084533  0.23903208  1
  Bi2+  Bi75  1  0.24779592  0.40788155  0.82170115  1
  Bi2+  Bi76  1  0.24432090  0.61280551  0.29350609  1
  Bi2+  Bi77  1  0.26492908  0.65004418  0.78322270  1
  Bi2+  Bi78  1  0.37094362  0.82727538  0.28738718  1
  Bi2+  Bi79  1  0.24900034  0.91703492  0.80528553  1
  Bi2+  Bi80  1  0.50296974  0.12066699  0.30469153  1
  Bi2+  Bi81  1  0.44432826  0.12194494  0.81994810  1
  Bi2+  Bi82  1  0.48640750  0.41984747  0.30170976  1
  Bi2+  Bi83  1  0.50327007  0.30571045  0.78230539  1
  Bi2+  Bi84  1  0.50893576  0.61597440  0.29191530  1
  Bi2+  Bi85  1  0.50167901  0.64077725  0.76076329  1
  Bi2+  Bi86  1  0.54813929  0.83679840  0.19686904  1
  Bi2+  Bi87  1  0.50399137  0.95445938  0.76992882  1
  Bi2+  Bi88  1  0.72460888  0.11216709  0.30678597  1
  Bi2+  Bi89  1  0.72357235  0.09695609  0.79034590  1
  Bi2+  Bi90  1  0.68015699  0.37502753  0.29065197  1
  Bi2+  Bi91  1  0.74680050  0.36648240  0.79889862  1
  Bi2+  Bi92  1  0.80177922  0.61278454  0.30130083  1
  Bi2+  Bi93  1  0.73313291  0.62640192  0.80781923  1
  Bi2+  Bi94  1  0.70921423  0.82718878  0.26470846  1
  Bi2+  Bi95  1  0.77437384  0.90379191  0.79255865  1
  Bi2+  Bi96  1  0.16024389  -0.01352914  0.21922992  1
  Bi2+  Bi97  1  0.14039140  -0.01835427  0.70907127  1
  Bi2+  Bi98  1  0.11434870  0.22276684  0.22266561  1
  Bi2+  Bi99  1  0.11199435  0.24644384  0.71499100  1
  Bi2+  Bi100  1  0.05195453  0.48644026  0.19877384  1
  Bi2+  Bi101  1  0.11380469  0.50932152  0.71022279  1
  Bi2+  Bi102  1  0.13609598  0.73949874  0.21509902  1
  Bi2+  Bi103  1  0.13382486  0.76682619  0.70808788  1
  Bi2+  Bi104  1  0.39645437  -0.00402015  0.21257269  1
  Bi2+  Bi105  1  0.33851007  -0.03646466  0.70094526  1
  Bi2+  Bi106  1  0.35518050  0.25279324  0.20594359  1
  Bi2+  Bi107  1  0.36892416  0.17930062  0.71837551  1
  Bi2+  Bi108  1  0.38932841  0.50060342  0.20820940  1
  Bi2+  Bi109  1  0.38946761  0.49919260  0.71480647  1
  Bi2+  Bi110  1  0.32737049  0.72380561  0.19609755  1
  Bi2+  Bi111  1  0.37045192  0.76888452  0.71204955  1
  Bi2+  Bi112  1  0.59435548  0.03246142  0.20572109  1
  Bi2+  Bi113  1  0.68431462  0.00309394  0.67478678  1
  Bi2+  Bi114  1  0.55306986  0.25825750  0.22489726  1
  Bi2+  Bi115  1  0.61123342  0.19412056  0.70700894  1
  Bi2+  Bi116  1  0.58825052  0.45354168  0.19689483  1
  Bi2+  Bi117  1  0.62869558  0.39548329  0.70997029  1
  Bi2+  Bi118  1  0.61848751  0.65124468  0.20045668  1
  Bi2+  Bi119  1  0.61618306  0.83191505  0.70568998  1
  Bi2+  Bi120  1  0.79006747  -0.00242596  0.22420269  1
  Bi2+  Bi121  1  0.87025680  0.04008985  0.70045282  1
  Bi2+  Bi122  1  0.86125119  0.24395279  0.21321369  1
  Bi2+  Bi123  1  0.86802781  0.26069883  0.71562667  1
  Bi2+  Bi124  1  0.85890963  0.48174997  0.21964231  1
  Bi2+  Bi125  1  0.86514230  0.52124690  0.70860831  1
  Bi2+  Bi126  1  0.86579975  0.73648205  0.21680155  1
  Bi2+  Bi127  1  0.88210392  0.83628806  0.70347487  1
  S2-  S128  1  -0.13651534  0.11261871  0.15351379  1
  S2-  S129  1  -0.00975987  0.16351687  0.65988245  1
  S2-  S130  1  -0.00148305  0.27017827  0.15161343  1
  S2-  S131  1  0.08375149  0.37835312  0.65009850  1
  S2-  S132  1  -0.00225599  0.73012633  0.15030779  1
  S2-  S133  1  -0.00929050  0.61024299  0.65064789  1
  S2-  S134  1  0.00894138  0.95249326  0.19113736  1
  S2-  S135  1  0.02830796  0.87822614  0.64850186  1
  S2-  S136  1  0.16007813  0.11575236  0.14847915  1
  S2-  S137  1  0.23141230  0.20202124  0.64719271  1
  S2-  S138  1  0.17163508  0.39402070  0.14021398  1
  S2-  S139  1  0.22671455  0.37393728  0.72917007  1
  S2-  S140  1  0.18058525  0.63023071  0.14647036  1
  S2-  S141  1  0.24121179  0.54342665  0.65420761  1
  S2-  S142  1  0.18937261  0.87721031  0.14833908  1
  S2-  S143  1  0.24771588  0.76773831  0.63281231  1
  S2-  S144  1  0.39344554  0.12275356  0.13966074  1
  S2-  S145  1  0.48180506  0.11444681  0.65368357  1
  S2-  S146  1  0.40033937  0.37793258  0.13323564  1
  S2-  S147  1  0.41013168  0.36398189  0.65676209  1
  S2-  S148  1  0.41748034  0.62734828  0.13268349  1
  S2-  S149  1  0.49911818  0.57195532  0.65932899  1
  S2-  S150  1  0.40666330  0.87337712  0.13176905  1
  S2-  S151  1  0.49099400  0.78360876  0.63569543  1
  S2-  S152  1  0.63375679  0.15783650  0.14337507  1
  S2-  S153  1  0.75087769  0.23603854  0.64645563  1
  S2-  S154  1  0.77716707  0.35542880  0.16085860  1
  S2-  S155  1  0.88744179  0.38526695  0.64744531  1
  S2-  S156  1  0.78058559  0.61020457  0.16009253  1
  S2-  S157  1  0.72700627  0.51862048  0.65287480  1
  S2-  S158  1  0.78163151  0.86158853  0.15823495  1
  S2-  S159  1  0.74460517  0.76363285  0.64526405  1
  S2-  S160  1  0.09863578  -0.01176495  0.33788202  1
  S2-  S161  1  0.10013459  0.11296423  0.86396203  1
  S2-  S162  1  0.10102772  0.24349550  0.34081975  1
  S2-  S163  1  0.09198561  0.36584260  0.85998191  1
  S2-  S164  1  0.11963808  0.52365469  0.34178405  1
  S2-  S165  1  0.15369883  0.55837044  0.83241645  1
  S2-  S166  1  0.23374813  0.74889768  0.35116633  1
  S2-  S167  1  0.23104672  0.76520454  0.85574066  1
  S2-  S168  1  0.34866585  -0.03658311  0.34325781  1
  S2-  S169  1  0.40880919  -0.10830974  0.84915658  1
  S2-  S170  1  0.38015788  0.24069220  0.34162499  1
  S2-  S171  1  0.26896065  0.24881542  0.85804963  1
  S2-  S172  1  0.37079786  0.53838919  0.34955298  1
  S2-  S173  1  0.41629338  0.38846747  0.85435819  1
  S2-  S174  1  0.49461116  0.75073353  0.35408945  1
  S2-  S175  1  0.40203695  0.61731708  0.84633736  1
  S2-  S176  1  0.60561229  -0.00492707  0.34346304  1
  S2-  S177  1  0.63842477  -0.02733181  0.84791719  1
  S2-  S178  1  0.69135554  0.25564653  0.36363162  1
  S2-  S179  1  0.66110165  0.23809388  0.84537831  1
  S2-  S180  1  0.71028198  0.50533791  0.36018607  1
  S2-  S181  1  0.64674619  0.50080754  0.84247006  1
  S2-  S182  1  0.71897444  0.74610555  0.35445287  1
  S2-  S183  1  0.59546793  0.72736740  0.82766829  1
  S2-  S184  1  0.85543313  -0.08774334  0.35406596  1
  S2-  S185  1  0.86140049  0.03345781  0.85114201  1
  S2-  S186  1  0.87078269  0.12861850  0.35929889  1
  S2-  S187  1  0.88533290  0.28175814  0.84037448  1
  S2-  S188  1  0.88415933  0.37678240  0.35663121  1
  S2-  S189  1  0.87741386  0.54131155  0.84751121  1
  S2-  S190  1  0.99735123  0.75614741  0.34898816  1
  S2-  S191  1  0.79845390  0.76438660  0.85835943  1
  S2-  S192  1  -0.01042900  0.13186205  0.45613317  1
  S2-  S193  1  0.01628105  0.13146202  0.97036130  1
  S2-  S194  1  -0.01255674  0.38250188  0.45827214  1
  S2-  S195  1  0.01408500  0.37914127  0.96697053  1
  S2-  S196  1  -0.01789548  0.62995859  0.44749183  1
  S2-  S197  1  0.02003278  0.63515530  0.95254704  1
  S2-  S198  1  -0.01149675  0.88435544  0.45125124  1
  S2-  S199  1  0.02016689  0.87882407  0.94012997  1
  S2-  S200  1  0.23775863  0.13317205  0.44916479  1
  S2-  S201  1  0.27494990  0.12548991  0.95701201  1
  S2-  S202  1  0.23739864  0.38322989  0.43948912  1
  S2-  S203  1  0.27237665  0.38238097  0.95566727  1
  S2-  S204  1  0.23575273  0.63006374  0.45677679  1
  S2-  S205  1  0.26671095  0.62896067  0.95303303  1
  S2-  S206  1  0.23673713  0.88386413  0.45228363  1
  S2-  S207  1  0.26790101  0.88466772  0.95534885  1
  S2-  S208  1  0.49027407  0.13263056  0.45205686  1
  S2-  S209  1  0.52319835  0.13239638  0.95383452  1
  S2-  S210  1  0.49071976  0.38231043  0.45878014  1
  S2-  S211  1  0.52607202  0.38035034  0.95621879  1
  S2-  S212  1  0.48936817  0.63132545  0.45873862  1
  S2-  S213  1  0.52743769  0.63617955  0.94942336  1
  S2-  S214  1  0.48885678  0.88394281  0.45131686  1
  S2-  S215  1  0.52878982  0.87845687  0.95227469  1
  S2-  S216  1  0.73641375  0.12975310  0.46337878  1
  S2-  S217  1  0.76706903  0.13114972  0.96174217  1
  S2-  S218  1  0.73603260  0.38042905  0.46853031  1
  S2-  S219  1  0.76887231  0.38104723  0.95481281  1
  S2-  S220  1  0.74013264  0.63612579  0.46091258  1
  S2-  S221  1  0.76966156  0.63392602  0.95778985  1
  S2-  S222  1  0.73889505  0.88312027  0.45972368  1
  S2-  S223  1  0.76943032  0.88279985  0.95690394  1
  S2-  S224  1  0.14251306  -0.00247788  0.04630571  1
  S2-  S225  1  0.11636184  0.00592784  0.54598202  1
  S2-  S226  1  0.15030604  0.25565263  0.04395556  1
  S2-  S227  1  0.11483874  0.25855632  0.54491544  1
  S2-  S228  1  0.14925960  0.50741288  0.03954553  1
  S2-  S229  1  0.11359697  0.50811678  0.54578162  1
  S2-  S230  1  0.14670416  0.76215137  0.04347385  1
  S2-  S231  1  0.11079424  0.75766709  0.53579677  1
  S2-  S232  1  0.39803526  0.00373384  0.03526112  1
  S2-  S233  1  0.36300353  0.00402800  0.54613028  1
  S2-  S234  1  0.39787637  0.25721933  0.03415635  1
  S2-  S235  1  0.36513921  0.25866671  0.54683577  1
  S2-  S236  1  0.40149395  0.50513632  0.03302267  1
  S2-  S237  1  0.36235644  0.50648262  0.55169658  1
  S2-  S238  1  0.39900342  0.75676222  0.02823204  1
  S2-  S239  1  0.36287020  0.75932510  0.53233580  1
  S2-  S240  1  0.64321574  0.00234120  0.04972412  1
  S2-  S241  1  0.61006361  0.00477512  0.54761864  1
  S2-  S242  1  0.64303975  0.26467489  0.04587329  1
  S2-  S243  1  0.60848097  0.25620903  0.55440245  1
  S2-  S244  1  0.64393051  0.50957040  0.04961223  1
  S2-  S245  1  0.61105256  0.50991164  0.55004059  1
  S2-  S246  1  0.64499825  0.75562358  0.04945115  1
  S2-  S247  1  0.61546749  0.75970964  0.53864860  1
  S2-  S248  1  0.90378426  -0.00539986  0.05515600  1
  S2-  S249  1  0.86545188  0.00551868  0.54833084  1
  S2-  S250  1  0.88920607  0.25543485  0.04814256  1
  S2-  S251  1  0.86709887  0.25459869  0.54205768  1
  S2-  S252  1  0.90239255  0.51038994  0.05427308  1
  S2-  S253  1  0.86756557  0.50953436  0.54214493  1
  S2-  S254  1  0.90077154  0.75824221  0.04431584  1
  S2-  S255  1  0.87012568  0.75885982  0.54352659  1
