# generated using pymatgen
data_La6Ce7Pr13Nd19Sm19(BiS2)64
_symmetry_space_group_name_H-M   'P 1'
_cell_length_a   16.13335722
_cell_length_b   16.11759966
_cell_length_c   27.24986107
_cell_angle_alpha   90.07120832
_cell_angle_beta   90.14734119
_cell_angle_gamma   90.01366463
_symmetry_Int_Tables_number   1
_chemical_formula_structural   La6Ce7Pr13Nd19Sm19(BiS2)64
_chemical_formula_sum   'La6 Ce7 Pr13 Nd19 Sm19 Bi64 S128'
_cell_volume   7085.77932137
_cell_formula_units_Z   1
loop_
 _symmetry_equiv_pos_site_id
 _symmetry_equiv_pos_as_xyz
  1  'x, y, z'
loop_
 _atom_type_symbol
 _atom_type_oxidation_number
  La3+  3.0
  Ce3+  3.0
  Pr3+  3.0
  Nd3+  3.0
  Sm3+  3.0
  Bi2+  2.0
  S2-  -2.0
loop_
 _atom_site_type_symbol
 _atom_site_label
 _atom_site_symmetry_multiplicity
 _atom_site_fract_x
 _atom_site_fract_y
 _atom_site_fract_z
 _atom_site_occupancy
  La3+  La0  1  0.51240327  0.63037287  0.57444963  1
  La3+  La1  1  0.63388511  0.25340131  0.43073733  1
  La3+  La2  1  0.10776604  0.48585737  0.90800410  1
  La3+  La3  1  0.61972584  0.24185485  0.90676874  1
  La3+  La4  1  0.73711220  0.85999784  0.09605855  1
  La3+  La5  1  0.10486836  0.75070230  0.92141008  1
  Ce3+  Ce6  1  0.23992091  0.61233261  0.04255239  1
  Ce3+  Ce7  1  0.51044892  0.88583255  0.55613631  1
  Ce3+  Ce8  1  0.75509968  0.63419241  0.56284726  1
  Ce3+  Ce9  1  0.24048754  0.86304078  0.05953532  1
  Ce3+  Ce10  1  0.73691444  0.36468934  0.06070062  1
  Ce3+  Ce11  1  0.75543960  0.37821963  0.55756730  1
  Ce3+  Ce12  1  0.36936317  0.23872231  0.93468899  1
  Pr3+  Pr13  1  0.89233821  0.01557251  0.41150288  1
  Pr3+  Pr14  1  0.61852395  0.74030327  0.93542583  1
  Pr3+  Pr15  1  0.38042702  0.00420858  0.42916838  1
  Pr3+  Pr16  1  0.00880654  0.13086913  0.56816979  1
  Pr3+  Pr17  1  0.88577920  0.75297369  0.43422970  1
  Pr3+  Pr18  1  0.61523451  -0.01350852  0.93053825  1
  Pr3+  Pr19  1  0.38163395  0.50921003  0.43817356  1
  Pr3+  Pr20  1  0.36672101  -0.00846861  0.93733341  1
  Pr3+  Pr21  1  0.00544966  0.88374717  0.56591963  1
  Pr3+  Pr22  1  -0.00839072  0.36287273  0.05792743  1
  Pr3+  Pr23  1  0.00183362  0.85646149  0.07854266  1
  Pr3+  Pr24  1  0.62747349  0.00020967  0.42249871  1
  Pr3+  Pr25  1  -0.00921694  0.11368957  0.06623678  1
  Nd3+  Nd26  1  0.11291529  0.23757621  0.93088557  1
  Nd3+  Nd27  1  0.26460964  0.62925845  0.57696159  1
  Nd3+  Nd28  1  0.24332643  0.11568908  0.05911383  1
  Nd3+  Nd29  1  0.13130990  0.75382194  0.44682890  1
  Nd3+  Nd30  1  0.63353531  0.50558774  0.43884697  1
  Nd3+  Nd31  1  0.73875063  0.61551914  0.06774311  1
  Nd3+  Nd32  1  0.01383855  0.64062755  0.57918197  1
  Nd3+  Nd33  1  -0.00140707  0.61171839  0.06217985  1
  Nd3+  Nd34  1  0.36673329  0.48895285  0.92937707  1
  Nd3+  Nd35  1  0.48935105  0.61553353  0.05385400  1
  Nd3+  Nd36  1  0.75927366  0.88679163  0.54692265  1
  Nd3+  Nd37  1  0.00582521  0.39230558  0.57114004  1
  Nd3+  Nd38  1  0.50954329  0.13010141  0.55738992  1
  Nd3+  Nd39  1  0.25785780  0.38148508  0.56032764  1
  Nd3+  Nd40  1  0.86808001  0.49186474  0.94436453  1
  Nd3+  Nd41  1  0.49635856  0.12324990  0.06250549  1
  Nd3+  Nd42  1  0.13197645  0.00333060  0.44349193  1
  Nd3+  Nd43  1  0.49195454  0.86833550  0.06266717  1
  Nd3+  Nd44  1  0.24020498  0.36540671  0.05140372  1
  Sm3+  Sm45  1  0.38155354  0.75267833  0.44914419  1
  Sm3+  Sm46  1  0.13028041  0.50654727  0.44948123  1
  Sm3+  Sm47  1  0.88377106  0.50672963  0.45058780  1
  Sm3+  Sm48  1  0.49089274  0.36540809  0.05463872  1
  Sm3+  Sm49  1  0.25922738  0.13258665  0.55352624  1
  Sm3+  Sm50  1  0.11267454  -0.00820332  0.94563238  1
  Sm3+  Sm51  1  0.12999920  0.25627998  0.44535928  1
  Sm3+  Sm52  1  0.86286145  -0.01200028  0.95465723  1
  Sm3+  Sm53  1  0.73750708  0.11379125  0.05918916  1
  Sm3+  Sm54  1  0.86765220  0.74376362  0.95205941  1
  Sm3+  Sm55  1  0.75784381  0.12993288  0.55094225  1
  Sm3+  Sm56  1  0.88595528  0.25437986  0.44307938  1
  Sm3+  Sm57  1  0.26013560  0.88202650  0.56123995  1
  Sm3+  Sm58  1  0.86107750  0.23792498  0.94429757  1
  Sm3+  Sm59  1  0.63249403  0.75363100  0.43894397  1
  Sm3+  Sm60  1  0.37938843  0.25598926  0.44158523  1
  Sm3+  Sm61  1  0.36358912  0.74031931  0.93841190  1
  Sm3+  Sm62  1  0.50826868  0.37855716  0.55091832  1
  Sm3+  Sm63  1  0.61807591  0.49152567  0.93546046  1
  Bi2+  Bi64  1  0.03385786  0.15307446  0.29017552  1
  Bi2+  Bi65  1  0.04629473  0.12543063  0.81716203  1
  Bi2+  Bi66  1  0.05165435  0.39135171  0.30205022  1
  Bi2+  Bi67  1  -0.04059710  0.38211024  0.78744687  1
  Bi2+  Bi68  1  -0.00197747  0.63746640  0.31580497  1
  Bi2+  Bi69  1  0.02870618  0.63376718  0.79575913  1
  Bi2+  Bi70  1  0.03404490  0.88625889  0.28988204  1
  Bi2+  Bi71  1  -0.04532638  0.87339096  0.79734919  1
  Bi2+  Bi72  1  0.28895927  0.11619145  0.27581330  1
  Bi2+  Bi73  1  0.24430943  0.10415459  0.83315381  1
  Bi2+  Bi74  1  0.22027129  0.37680621  0.24052898  1
  Bi2+  Bi75  1  0.23448810  0.28175058  0.78667549  1
  Bi2+  Bi76  1  0.25042149  0.57267598  0.27808435  1
  Bi2+  Bi77  1  0.29086523  0.62279632  0.79317073  1
  Bi2+  Bi78  1  0.27089779  0.93290349  0.30894780  1
  Bi2+  Bi79  1  0.21500724  0.90423668  0.79062356  1
  Bi2+  Bi80  1  0.48079064  0.14760180  0.28609321  1
  Bi2+  Bi81  1  0.50730683  0.12474070  0.78195586  1
  Bi2+  Bi82  1  0.49062418  0.44583374  0.27015297  1
  Bi2+  Bi83  1  0.49298930  0.37279112  0.78238779  1
  Bi2+  Bi84  1  0.43619215  0.63394153  0.29957567  1
  Bi2+  Bi85  1  0.52861220  0.63382447  0.78436573  1
  Bi2+  Bi86  1  0.46391684  0.87583547  0.29107325  1
  Bi2+  Bi87  1  0.53287683  0.88881307  0.78225622  1
  Bi2+  Bi88  1  0.74278895  0.16291919  0.28877057  1
  Bi2+  Bi89  1  0.77094434  0.08018911  0.78839402  1
  Bi2+  Bi90  1  0.70583525  0.41297147  0.30235923  1
  Bi2+  Bi91  1  0.76068491  0.36822956  0.78864920  1
  Bi2+  Bi92  1  0.70947470  0.61506468  0.25137071  1
  Bi2+  Bi93  1  0.77127518  0.63182591  0.79710512  1
  Bi2+  Bi94  1  0.74053967  0.85712831  0.29915155  1
  Bi2+  Bi95  1  0.73848632  0.82346256  0.77147959  1
  Bi2+  Bi96  1  0.16871680  -0.00475287  0.20635913  1
  Bi2+  Bi97  1  0.08926879  0.00634933  0.72595593  1
  Bi2+  Bi98  1  0.09065896  0.24544845  0.19468943  1
  Bi2+  Bi99  1  0.10711850  0.20197992  0.70948855  1
  Bi2+  Bi100  1  0.09151542  0.53019604  0.19840279  1
  Bi2+  Bi101  1  0.12903660  0.47638852  0.70113333  1
  Bi2+  Bi102  1  0.18236932  0.78472418  0.24060115  1
  Bi2+  Bi103  1  0.13899353  0.77507615  0.70711936  1
  Bi2+  Bi104  1  0.36355684  -0.04374599  0.19482080  1
  Bi2+  Bi105  1  0.35665859  0.01480645  0.74783894  1
  Bi2+  Bi106  1  0.40045285  0.29397995  0.21881942  1
  Bi2+  Bi107  1  0.36120599  0.20531705  0.71234713  1
  Bi2+  Bi108  1  0.36046550  0.53826890  0.18201459  1
  Bi2+  Bi109  1  0.40331561  0.47173290  0.70425032  1
  Bi2+  Bi110  1  0.36110487  0.76130148  0.19557669  1
  Bi2+  Bi111  1  0.39766994  0.74221400  0.72798316  1
  Bi2+  Bi112  1  0.60808299  0.00436805  0.20397607  1
  Bi2+  Bi113  1  0.63427186  0.01476955  0.67751454  1
  Bi2+  Bi114  1  0.65196050  0.25834622  0.20198758  1
  Bi2+  Bi115  1  0.64396823  0.26481377  0.68564914  1
  Bi2+  Bi116  1  0.63230952  0.46612394  0.18975473  1
  Bi2+  Bi117  1  0.65664121  0.51998391  0.72605575  1
  Bi2+  Bi118  1  0.55145078  0.72946554  0.22008825  1
  Bi2+  Bi119  1  0.58885020  0.76424229  0.69754981  1
  Bi2+  Bi120  1  0.87717059  0.01619859  0.21744682  1
  Bi2+  Bi121  1  0.87225485  -0.02609520  0.71474440  1
  Bi2+  Bi122  1  0.87547979  0.31118863  0.28208751  1
  Bi2+  Bi123  1  0.90286341  0.20804020  0.75236823  1
  Bi2+  Bi124  1  0.87104867  0.50303148  0.24824491  1
  Bi2+  Bi125  1  0.85636580  0.51187037  0.71621903  1
  Bi2+  Bi126  1  0.88591608  0.73927614  0.21144017  1
  Bi2+  Bi127  1  0.86908108  0.71348925  0.70954872  1
  S2-  S128  1  -0.03774113  0.14567600  0.16381942  1
  S2-  S129  1  -0.00988271  0.01051877  0.63946229  1
  S2-  S130  1  0.02739034  0.40139658  0.15416107  1
  S2-  S131  1  0.04943146  0.33463886  0.66142663  1
  S2-  S132  1  -0.00341126  0.66933459  0.15740221  1
  S2-  S133  1  -0.00413319  0.52146111  0.65006587  1
  S2-  S134  1  -0.05738799  0.89021868  0.17253753  1
  S2-  S135  1  -0.00695897  0.77244309  0.64685642  1
  S2-  S136  1  0.21710141  0.14088423  0.15576446  1
  S2-  S137  1  0.24522239  0.13488959  0.65063534  1
  S2-  S138  1  0.30139665  0.37897081  0.14460577  1
  S2-  S139  1  0.27165685  0.40672362  0.65873049  1
  S2-  S140  1  0.22128449  0.60402803  0.13904871  1
  S2-  S141  1  0.16937356  0.63239677  0.66066050  1
  S2-  S142  1  0.14904428  0.85052610  0.14229649  1
  S2-  S143  1  0.24089052  0.87162583  0.65826168  1
  S2-  S144  1  0.47997937  0.06673611  0.15709586  1
  S2-  S145  1  0.51829600  0.14937037  0.65636216  1
  S2-  S146  1  0.51082450  0.27984455  0.13973123  1
  S2-  S147  1  0.52347064  0.38175876  0.64879489  1
  S2-  S148  1  0.52411460  0.59603924  0.15067254  1
  S2-  S149  1  0.39355492  0.61804706  0.64929980  1
  S2-  S150  1  0.57937251  0.86008892  0.14877901  1
  S2-  S151  1  0.50453673  0.91161126  0.65183932  1
  S2-  S152  1  0.71782374  0.11435813  0.15824775  1
  S2-  S153  1  0.74186487  0.14080856  0.64913049  1
  S2-  S154  1  0.76577890  0.36022655  0.15725905  1
  S2-  S155  1  0.76290570  0.36228183  0.65477061  1
  S2-  S156  1  0.75319542  0.70527246  0.15264424  1
  S2-  S157  1  0.64936325  0.62529018  0.64210122  1
  S2-  S158  1  0.75375863  0.91338535  0.19744672  1
  S2-  S159  1  0.74860602  0.91040477  0.64612694  1
  S2-  S160  1  0.06283258  0.01922351  0.35347746  1
  S2-  S161  1  0.09078971  -0.09302693  0.86182225  1
  S2-  S162  1  0.12837630  0.25413001  0.34721670  1
  S2-  S163  1  0.10114107  0.33493599  0.84807735  1
  S2-  S164  1  0.12798544  0.53108913  0.35261945  1
  S2-  S165  1  0.15650975  0.52275268  0.80675350  1
  S2-  S166  1  0.10983078  0.75993091  0.34885231  1
  S2-  S167  1  0.16736732  0.72048612  0.82448898  1
  S2-  S168  1  0.49316159  0.00924696  0.35262308  1
  S2-  S169  1  0.44600224  -0.01538923  0.84736425  1
  S2-  S170  1  0.37018092  0.22556407  0.34592602  1
  S2-  S171  1  0.45976911  0.24204540  0.85054352  1
  S2-  S172  1  0.36405154  0.47661044  0.34037756  1
  S2-  S173  1  0.38425745  0.47782764  0.83006718  1
  S2-  S174  1  0.36628212  0.76297013  0.35179321  1
  S2-  S175  1  0.39960495  0.73661978  0.84244019  1
  S2-  S176  1  0.70233150  0.01881208  0.33137276  1
  S2-  S177  1  0.63221450  0.09418063  0.84928407  1
  S2-  S178  1  0.60693010  0.24832038  0.33176233  1
  S2-  S179  1  0.61839849  0.39324420  0.85021856  1
  S2-  S180  1  0.63969734  0.55330871  0.34391751  1
  S2-  S181  1  0.63222670  0.61168729  0.86318290  1
  S2-  S182  1  0.61564164  0.79394025  0.34446719  1
  S2-  S183  1  0.63671636  0.85768422  0.85867513  1
  S2-  S184  1  0.88979095  -0.05247736  0.31630419  1
  S2-  S185  1  0.85681709  -0.01434748  0.85533456  1
  S2-  S186  1  0.89271086  0.16932321  0.35717496  1
  S2-  S187  1  0.78688950  0.24532494  0.85593241  1
  S2-  S188  1  0.89362769  0.52923317  0.35433062  1
  S2-  S189  1  0.95058232  0.50971427  0.85626000  1
  S2-  S190  1  0.86339991  0.74034500  0.33344885  1
  S2-  S191  1  0.94851115  0.74368434  0.86390730  1
  S2-  S192  1  0.01135212  0.13323919  0.46108808  1
  S2-  S193  1  -0.01254349  0.11493424  0.95773781  1
  S2-  S194  1  0.00670373  0.38105030  0.45986828  1
  S2-  S195  1  -0.01461407  0.35981602  0.95234387  1
  S2-  S196  1  0.00787822  0.62905795  0.46546549  1
  S2-  S197  1  -0.00712556  0.61576687  0.95785978  1
  S2-  S198  1  0.00596862  0.88116688  0.45530000  1
  S2-  S199  1  -0.01220611  0.87089930  0.96971730  1
  S2-  S200  1  0.25464455  0.13113849  0.44838411  1
  S2-  S201  1  0.23849927  0.11560051  0.95360798  1
  S2-  S202  1  0.25428603  0.38038564  0.45251147  1
  S2-  S203  1  0.24118355  0.36335411  0.94419717  1
  S2-  S204  1  0.25581648  0.63021835  0.46005220  1
  S2-  S205  1  0.23877985  0.61377742  0.93709909  1
  S2-  S206  1  0.25794943  0.87851831  0.45528706  1
  S2-  S207  1  0.24200872  0.86698233  0.95164160  1
  S2-  S208  1  0.50291812  0.13365709  0.45120677  1
  S2-  S209  1  0.49265919  0.11556826  0.95500531  1
  S2-  S210  1  0.50548929  0.37989298  0.44475197  1
  S2-  S211  1  0.49296380  0.36820721  0.95172355  1
  S2-  S212  1  0.50917984  0.63214560  0.45740220  1
  S2-  S213  1  0.48648407  0.61516244  0.94933754  1
  S2-  S214  1  0.50413416  0.87511522  0.45150346  1
  S2-  S215  1  0.48706849  0.86117880  0.95648320  1
  S2-  S216  1  0.75870639  0.12989247  0.44709250  1
  S2-  S217  1  0.74168073  0.11272481  0.95646041  1
  S2-  S218  1  0.76200453  0.37984360  0.44885703  1
  S2-  S219  1  0.74332241  0.36883384  0.95537497  1
  S2-  S220  1  0.75720412  0.63042863  0.45487315  1
  S2-  S221  1  0.74831756  0.61664367  0.96141388  1
  S2-  S222  1  0.75968139  0.87990341  0.44146774  1
  S2-  S223  1  0.74601100  0.86341707  0.96359677  1
  S2-  S224  1  0.11717633  -0.00752925  0.04934074  1
  S2-  S225  1  0.13822100  0.00678481  0.54831771  1
  S2-  S226  1  0.11647472  0.23867767  0.04092604  1
  S2-  S227  1  0.13314902  0.25660170  0.54925399  1
  S2-  S228  1  0.11569766  0.48624503  0.03515107  1
  S2-  S229  1  0.13647648  0.50899426  0.55201665  1
  S2-  S230  1  0.11841302  0.73707963  0.03624669  1
  S2-  S231  1  0.13914166  0.75898821  0.55108375  1
  S2-  S232  1  0.36659803  -0.00864938  0.04562296  1
  S2-  S233  1  0.38021453  0.00829390  0.54182565  1
  S2-  S234  1  0.36606616  0.24124585  0.04198885  1
  S2-  S235  1  0.38299005  0.25607632  0.54702753  1
  S2-  S236  1  0.36828094  0.48800803  0.03659545  1
  S2-  S237  1  0.38566260  0.50185291  0.54444002  1
  S2-  S238  1  0.36588066  0.73990502  0.04476956  1
  S2-  S239  1  0.38445075  0.75945741  0.55326981  1
  S2-  S240  1  0.61676848  -0.00921096  0.04614191  1
  S2-  S241  1  0.63326533  0.00957538  0.53339345  1
  S2-  S242  1  0.61999241  0.24108414  0.04001133  1
  S2-  S243  1  0.63220064  0.25403078  0.53901477  1
  S2-  S244  1  0.61474622  0.49103433  0.04254417  1
  S2-  S245  1  0.63177561  0.50089247  0.54422756  1
  S2-  S246  1  0.61555277  0.73809928  0.04448021  1
  S2-  S247  1  0.63390385  0.76116542  0.54347405  1
  S2-  S248  1  0.86214240  -0.01124585  0.05964557  1
  S2-  S249  1  0.88087401  0.01100591  0.53412714  1
  S2-  S250  1  0.86316221  0.23812545  0.04921612  1
  S2-  S251  1  0.88423868  0.25500740  0.54827517  1
  S2-  S252  1  0.86693331  0.49182245  0.05189933  1
  S2-  S253  1  0.87610147  0.50922928  0.55321943  1
  S2-  S254  1  0.87038399  0.73897408  0.05384342  1
  S2-  S255  1  0.87893432  0.75728979  0.54253579  1
