# generated using pymatgen
data_La6Ce7Pr13Nd19Sm19(BiS2)64
_symmetry_space_group_name_H-M   'P 1'
_cell_length_a   16.06679358
_cell_length_b   16.02990755
_cell_length_c   27.32002241
_cell_angle_alpha   89.83304633
_cell_angle_beta   89.90993135
_cell_angle_gamma   90.04010054
_symmetry_Int_Tables_number   1
_chemical_formula_structural   La6Ce7Pr13Nd19Sm19(BiS2)64
_chemical_formula_sum   'La6 Ce7 Pr13 Nd19 Sm19 Bi64 S128'
_cell_volume   7036.21003185
_cell_formula_units_Z   1
loop_
 _symmetry_equiv_pos_site_id
 _symmetry_equiv_pos_as_xyz
  1  'x, y, z'
loop_
 _atom_type_symbol
 _atom_type_oxidation_number
  La3+  3.0
  Ce3+  3.0
  Pr3+  3.0
  Nd3+  3.0
  Sm3+  3.0
  Bi2+  2.0
  S2-  -2.0
loop_
 _atom_site_type_symbol
 _atom_site_label
 _atom_site_symmetry_multiplicity
 _atom_site_fract_x
 _atom_site_fract_y
 _atom_site_fract_z
 _atom_site_occupancy
  La3+  La0  1  0.13421610  0.52623605  0.91506362  1
  La3+  La1  1  0.25943107  0.61613110  0.09008146  1
  La3+  La2  1  0.47751487  0.87859175  0.58258102  1
  La3+  La3  1  0.37322500  0.01141101  0.41805256  1
  La3+  La4  1  0.50565518  0.12851615  0.06276322  1
  La3+  La5  1  -0.00765475  0.63081491  0.58777097  1
  Ce3+  Ce6  1  0.87816700  -0.00084958  0.93205567  1
  Ce3+  Ce7  1  0.11236852  0.75353020  0.43146759  1
  Ce3+  Ce8  1  0.23554262  0.63331679  0.55872407  1
  Ce3+  Ce9  1  0.23933155  0.87996263  0.54619425  1
  Ce3+  Ce10  1  0.11178192  0.25446298  0.43497295  1
  Ce3+  Ce11  1  0.37578887  0.50368743  0.94432070  1
  Ce3+  Ce12  1  -0.00799687  0.13073068  0.56147569  1
  Pr3+  Pr13  1  0.86240564  0.74561544  0.41530460  1
  Pr3+  Pr14  1  0.75124468  0.62978051  0.06855775  1
  Pr3+  Pr15  1  -0.00660467  0.89314932  0.10216920  1
  Pr3+  Pr16  1  0.10969416  0.50598232  0.43684018  1
  Pr3+  Pr17  1  0.62527628  0.25336525  0.92819939  1
  Pr3+  Pr18  1  0.73742862  0.13258712  0.56665874  1
  Pr3+  Pr19  1  0.88085589  0.75411101  0.94706488  1
  Pr3+  Pr20  1  0.25675635  0.87540878  0.07554750  1
  Pr3+  Pr21  1  0.63747089  0.00158082  0.88213215  1
  Pr3+  Pr22  1  -0.00162605  0.61767640  0.08830698  1
  Pr3+  Pr23  1  0.37745207  0.25517157  0.93923972  1
  Pr3+  Pr24  1  0.47418756  0.12954786  0.57961926  1
  Pr3+  Pr25  1  -0.01258781  0.38074700  0.56574576  1
  Nd3+  Nd26  1  0.24744174  0.12535469  0.06261237  1
  Nd3+  Nd27  1  0.23317497  0.12798175  0.55968654  1
  Nd3+  Nd28  1  0.47826522  0.37793306  0.57895292  1
  Nd3+  Nd29  1  0.73395843  0.87267620  0.56285384  1
  Nd3+  Nd30  1  0.62359720  0.75493305  0.93489554  1
  Nd3+  Nd31  1  0.50600004  0.37380285  0.06770738  1
  Nd3+  Nd32  1  0.12605203  0.25736719  0.94054330  1
  Nd3+  Nd33  1  0.85893949  0.25458600  0.43951939  1
  Nd3+  Nd34  1  0.37454003  0.00201487  0.93434930  1
  Nd3+  Nd35  1  0.36948535  0.75226806  0.94479554  1
  Nd3+  Nd36  1  0.10714272  0.00284113  0.43737814  1
  Nd3+  Nd37  1  0.50006979  0.88373274  0.06728794  1
  Nd3+  Nd38  1  0.48707766  0.63151016  0.56308789  1
  Nd3+  Nd39  1  0.75135099  0.87942175  0.05900665  1
  Nd3+  Nd40  1  0.62672108  0.50801392  0.93751516  1
  Nd3+  Nd41  1  0.85854453  0.00263464  0.44416844  1
  Nd3+  Nd42  1  0.88092836  0.26028764  0.93073599  1
  Nd3+  Nd43  1  -0.02097219  0.87408949  0.56734040  1
  Nd3+  Nd44  1  0.23028145  0.38016810  0.57055367  1
  Sm3+  Sm45  1  0.36137091  0.75408948  0.43124285  1
  Sm3+  Sm46  1  0.35184211  0.25862596  0.43850018  1
  Sm3+  Sm47  1  0.36179053  0.50442039  0.44944695  1
  Sm3+  Sm48  1  0.60648628  0.00432086  0.45188640  1
  Sm3+  Sm49  1  0.12556708  0.75084273  0.96928325  1
  Sm3+  Sm50  1  0.73670709  0.62878814  0.55726686  1
  Sm3+  Sm51  1  0.00065707  0.12671435  0.05004615  1
  Sm3+  Sm52  1  0.73746888  0.38162621  0.55568769  1
  Sm3+  Sm53  1  0.75418437  0.37831628  0.04775402  1
  Sm3+  Sm54  1  0.60461257  0.25447887  0.44824110  1
  Sm3+  Sm55  1  0.60623776  0.75848283  0.43303363  1
  Sm3+  Sm56  1  0.60747634  0.50357834  0.44355600  1
  Sm3+  Sm57  1  0.13074737  0.00090128  0.94241277  1
  Sm3+  Sm58  1  0.86108506  0.50805724  0.44330288  1
  Sm3+  Sm59  1  0.00107381  0.38474711  0.04962174  1
  Sm3+  Sm60  1  0.87943004  0.51689995  0.93376984  1
  Sm3+  Sm61  1  0.75513628  0.12580793  0.04561985  1
  Sm3+  Sm62  1  0.50403878  0.62831092  0.05980105  1
  Sm3+  Sm63  1  0.24816728  0.37944219  0.05719034  1
  Bi2+  Bi64  1  -0.00693791  0.16891074  0.29854636  1
  Bi2+  Bi65  1  -0.03756004  0.07137091  0.81498867  1
  Bi2+  Bi66  1  0.00319340  0.36887454  0.28629071  1
  Bi2+  Bi67  1  0.00171705  0.33258891  0.79603629  1
  Bi2+  Bi68  1  -0.02029116  0.62598119  0.29060893  1
  Bi2+  Bi69  1  -0.05356679  0.57590083  0.78381298  1
  Bi2+  Bi70  1  -0.01525233  0.91547029  0.30401114  1
  Bi2+  Bi71  1  0.00393191  0.87543519  0.80118279  1
  Bi2+  Bi72  1  0.24538459  0.15099596  0.30543520  1
  Bi2+  Bi73  1  0.15420775  0.11122764  0.79529617  1
  Bi2+  Bi74  1  0.26954871  0.37762078  0.23789557  1
  Bi2+  Bi75  1  0.36486913  0.37200856  0.80606396  1
  Bi2+  Bi76  1  0.25611002  0.59837034  0.29303007  1
  Bi2+  Bi77  1  0.25149691  0.65980399  0.80607755  1
  Bi2+  Bi78  1  0.35075945  0.82520686  0.29539766  1
  Bi2+  Bi79  1  0.26497563  0.88115232  0.78761750  1
  Bi2+  Bi80  1  0.51289040  0.12523501  0.29113479  1
  Bi2+  Bi81  1  0.50590566  0.12961397  0.78569739  1
  Bi2+  Bi82  1  0.52389746  0.37177712  0.30331168  1
  Bi2+  Bi83  1  0.55576515  0.39909759  0.83118682  1
  Bi2+  Bi84  1  0.47667690  0.57541327  0.29348905  1
  Bi2+  Bi85  1  0.51097444  0.58655450  0.79174382  1
  Bi2+  Bi86  1  0.54080213  0.87965520  0.28582522  1
  Bi2+  Bi87  1  0.50051549  0.86326910  0.78887699  1
  Bi2+  Bi88  1  0.69196310  0.12934042  0.24724241  1
  Bi2+  Bi89  1  0.75096724  0.20846188  0.75347445  1
  Bi2+  Bi90  1  0.80860409  0.37006182  0.29949159  1
  Bi2+  Bi91  1  0.74241834  0.41071685  0.78426824  1
  Bi2+  Bi92  1  0.68353857  0.64234787  0.28022139  1
  Bi2+  Bi93  1  0.72278826  0.60643074  0.76889219  1
  Bi2+  Bi94  1  0.73778302  0.89575838  0.28405888  1
  Bi2+  Bi95  1  0.82115296  0.81349101  0.81445588  1
  Bi2+  Bi96  1  0.12135590  0.03318975  0.20487904  1
  Bi2+  Bi97  1  0.13075654  -0.02681822  0.70987729  1
  Bi2+  Bi98  1  0.12169139  0.25148290  0.21957502  1
  Bi2+  Bi99  1  0.09019997  0.23605237  0.71259569  1
  Bi2+  Bi100  1  0.10862510  0.49439104  0.20606661  1
  Bi2+  Bi101  1  0.11737392  0.49982408  0.71038910  1
  Bi2+  Bi102  1  0.14372732  0.76948224  0.23167471  1
  Bi2+  Bi103  1  0.11901975  0.77290162  0.72842038  1
  Bi2+  Bi104  1  0.36394434  -0.01603969  0.20223734  1
  Bi2+  Bi105  1  0.35341106  0.00016144  0.70950991  1
  Bi2+  Bi106  1  0.41546204  0.25367860  0.22091747  1
  Bi2+  Bi107  1  0.35480464  0.25565286  0.71428080  1
  Bi2+  Bi108  1  0.46546642  0.45331649  0.19591646  1
  Bi2+  Bi109  1  0.35425530  0.52189325  0.72303050  1
  Bi2+  Bi110  1  0.45176870  0.72402874  0.21397431  1
  Bi2+  Bi111  1  0.31739283  0.74506097  0.70336268  1
  Bi2+  Bi112  1  0.62764906  -0.07103915  0.18745573  1
  Bi2+  Bi113  1  0.66819542  -0.01167475  0.68538244  1
  Bi2+  Bi114  1  0.63755996  0.32208435  0.21170788  1
  Bi2+  Bi115  1  0.58760005  0.34650849  0.71933791  1
  Bi2+  Bi116  1  0.65342330  0.52242211  0.18844249  1
  Bi2+  Bi117  1  0.53140015  0.52522967  0.67941402  1
  Bi2+  Bi118  1  0.63511786  0.72460733  0.16718272  1
  Bi2+  Bi119  1  0.60512783  0.71170769  0.70445452  1
  Bi2+  Bi120  1  0.84606755  0.03709045  0.20266607  1
  Bi2+  Bi121  1  0.93319487  0.00239032  0.70966504  1
  Bi2+  Bi122  1  0.87148338  0.25041321  0.21531705  1
  Bi2+  Bi123  1  0.89856528  0.19099399  0.67669273  1
  Bi2+  Bi124  1  0.85062699  0.47757320  0.20548552  1
  Bi2+  Bi125  1  0.87579307  0.38442404  0.69418868  1
  Bi2+  Bi126  1  0.81425958  0.74996119  0.22045358  1
  Bi2+  Bi127  1  0.85375940  0.77126635  0.70886082  1
  S2-  S128  1  -0.00612833  0.06557587  0.14138548  1
  S2-  S129  1  0.10791501  0.12605714  0.63545322  1
  S2-  S130  1  -0.00706723  0.45120555  0.14102570  1
  S2-  S131  1  0.10517826  0.37266867  0.64375145  1
  S2-  S132  1  0.04212560  0.66065846  0.19029977  1
  S2-  S133  1  -0.04137453  0.54413506  0.67779687  1
  S2-  S134  1  0.02010099  0.88756019  0.20572828  1
  S2-  S135  1  -0.00439787  0.77175806  0.65007661  1
  S2-  S136  1  0.26670774  0.10900677  0.16114908  1
  S2-  S137  1  0.32416757  0.13286250  0.64649913  1
  S2-  S138  1  0.24436200  0.45642518  0.14564734  1
  S2-  S139  1  0.33632185  0.38459110  0.65161279  1
  S2-  S140  1  0.24549708  0.66937181  0.19268197  1
  S2-  S141  1  0.15660834  0.60840526  0.64445864  1
  S2-  S142  1  0.20980288  0.90605718  0.17374976  1
  S2-  S143  1  0.31011179  0.88263766  0.63576025  1
  S2-  S144  1  0.50193402  0.01966631  0.14524355  1
  S2-  S145  1  0.49911912  0.00993638  0.65702761  1
  S2-  S146  1  0.52203920  0.25036119  0.13965942  1
  S2-  S147  1  0.49453115  0.25530785  0.65242651  1
  S2-  S148  1  0.42040931  0.60448349  0.14449732  1
  S2-  S149  1  0.45799256  0.72860786  0.64551173  1
  S2-  S150  1  0.39203864  0.85162713  0.14749134  1
  S2-  S151  1  0.62474996  0.84850554  0.64194516  1
  S2-  S152  1  0.73906671  0.11800520  0.14412411  1
  S2-  S153  1  0.69848813  0.15787856  0.66517483  1
  S2-  S154  1  0.77591680  0.34723729  0.14368679  1
  S2-  S155  1  0.72394906  0.39895365  0.65236326  1
  S2-  S156  1  0.85276152  0.62483629  0.15051388  1
  S2-  S157  1  0.75249042  0.65294684  0.65509054  1
  S2-  S158  1  0.83380297  0.88533926  0.14822950  1
  S2-  S159  1  0.82898862  0.90621149  0.64776520  1
  S2-  S160  1  0.09964705  0.04218018  0.33907455  1
  S2-  S161  1  0.23672346  -0.00291827  0.86409162  1
  S2-  S162  1  0.22194581  0.28213321  0.36137712  1
  S2-  S163  1  0.14003734  0.27139820  0.84206613  1
  S2-  S164  1  0.11207695  0.54194373  0.33675195  1
  S2-  S165  1  0.08527620  0.49421462  0.81536468  1
  S2-  S166  1  0.23749646  0.73589064  0.35581859  1
  S2-  S167  1  0.14301964  0.69534884  0.87563115  1
  S2-  S168  1  0.31187719  -0.01763347  0.31682844  1
  S2-  S169  1  0.46644965  -0.00192236  0.84861747  1
  S2-  S170  1  0.38810339  0.16402621  0.35798155  1
  S2-  S171  1  0.37710129  0.20855455  0.84111562  1
  S2-  S172  1  0.35016738  0.49902421  0.35080129  1
  S2-  S173  1  0.29106644  0.51632708  0.85940162  1
  S2-  S174  1  0.48460313  0.75999673  0.35980387  1
  S2-  S175  1  0.38872255  0.76055617  0.84456009  1
  S2-  S176  1  0.53438329  0.00186417  0.36226730  1
  S2-  S177  1  0.61701759  -0.00662132  0.77370641  1
  S2-  S178  1  0.60423922  0.24276026  0.34980329  1
  S2-  S179  1  0.63591803  0.16786022  0.83980388  1
  S2-  S180  1  0.61998317  0.51033145  0.34546948  1
  S2-  S181  1  0.63992289  0.62139729  0.86022574  1
  S2-  S182  1  0.71878176  0.76163371  0.35504595  1
  S2-  S183  1  0.62691864  0.83382241  0.84599043  1
  S2-  S184  1  0.85609671  -0.01908542  0.34543671  1
  S2-  S185  1  0.80294945  -0.01692782  0.84415320  1
  S2-  S186  1  0.84546929  0.21150582  0.34437966  1
  S2-  S187  1  0.87619674  0.22083975  0.83400531  1
  S2-  S188  1  0.86923971  0.58834187  0.35534609  1
  S2-  S189  1  0.88230127  0.44166253  0.84327204  1
  S2-  S190  1  1.00403122  0.76740857  0.34971772  1
  S2-  S191  1  0.88949056  0.65025847  0.86483925  1
  S2-  S192  1  -0.01609949  0.12987889  0.45383433  1
  S2-  S193  1  0.00575621  0.12804185  0.94711994  1
  S2-  S194  1  -0.01740330  0.38050121  0.45085385  1
  S2-  S195  1  0.00672681  0.38905252  0.94659330  1
  S2-  S196  1  -0.01355867  0.62919549  0.45686226  1
  S2-  S197  1  0.00484462  0.62683118  0.96983015  1
  S2-  S198  1  -0.01892863  0.87788185  0.45694612  1
  S2-  S199  1  0.00960989  0.87678691  0.94655821  1
  S2-  S200  1  0.23228921  0.12700584  0.45286323  1
  S2-  S201  1  0.24875064  0.13253432  0.95739519  1
  S2-  S202  1  0.23556854  0.38624417  0.46290807  1
  S2-  S203  1  0.24798121  0.38039788  0.95409987  1
  S2-  S204  1  0.23847691  0.62663559  0.45545416  1
  S2-  S205  1  0.25379447  0.62661525  0.97404088  1
  S2-  S206  1  0.23964260  0.88513503  0.44237371  1
  S2-  S207  1  0.24810288  0.87488340  0.96607046  1
  S2-  S208  1  0.48652516  0.13434394  0.46561235  1
  S2-  S209  1  0.50141739  0.13004350  0.95342261  1
  S2-  S210  1  0.48343243  0.37937766  0.45934855  1
  S2-  S211  1  0.50303077  0.37910755  0.95968600  1
  S2-  S212  1  0.48616717  0.62593578  0.45635190  1
  S2-  S213  1  0.49791449  0.62838257  0.95593410  1
  S2-  S214  1  0.48569840  0.87982205  0.46264786  1
  S2-  S215  1  0.49487893  0.87458422  0.95892167  1
  S2-  S216  1  0.73142589  0.13027587  0.45674144  1
  S2-  S217  1  0.75763114  0.13115749  0.94278748  1
  S2-  S218  1  0.73424161  0.38086169  0.45067187  1
  S2-  S219  1  0.75377127  0.38306329  0.94373586  1
  S2-  S220  1  0.73153578  0.62519083  0.45315293  1
  S2-  S221  1  0.75061829  0.63076505  0.96311961  1
  S2-  S222  1  0.73203482  0.88164430  0.45597000  1
  S2-  S223  1  0.75116941  0.87778665  0.95383915  1
  S2-  S224  1  0.12292726  -0.00170354  0.04737776  1
  S2-  S225  1  0.10724398  -0.00398076  0.54210108  1
  S2-  S226  1  0.12227810  0.25520066  0.04939590  1
  S2-  S227  1  0.11023750  0.25767261  0.53813919  1
  S2-  S228  1  0.12634690  0.50366401  0.04755486  1
  S2-  S229  1  0.10791828  0.50682564  0.54251973  1
  S2-  S230  1  0.12309388  0.75328361  0.07252558  1
  S2-  S231  1  0.11101206  0.75690547  0.54053237  1
  S2-  S232  1  0.37137365  0.00522924  0.04266050  1
  S2-  S233  1  0.35848974  0.00736451  0.53698787  1
  S2-  S234  1  0.37054564  0.25451684  0.04798496  1
  S2-  S235  1  0.35641171  0.25968581  0.54293939  1
  S2-  S236  1  0.38177032  0.49384199  0.04702305  1
  S2-  S237  1  0.36005982  0.50727982  0.55278947  1
  S2-  S238  1  0.37802988  0.74712781  0.04948895  1
  S2-  S239  1  0.36055177  0.75136398  0.53592975  1
  S2-  S240  1  0.63256650  0.00461942  0.04517267  1
  S2-  S241  1  0.61183147  0.00767499  0.55276423  1
  S2-  S242  1  0.63573094  0.25376350  0.03560896  1
  S2-  S243  1  0.61310460  0.26014149  0.55085017  1
  S2-  S244  1  0.62683309  0.50074788  0.04629798  1
  S2-  S245  1  0.61012617  0.50199368  0.54791273  1
  S2-  S246  1  0.62431957  0.75516838  0.04386884  1
  S2-  S247  1  0.61339896  0.74668529  0.53785114  1
  S2-  S248  1  0.87989144  0.00199509  0.03871465  1
  S2-  S249  1  0.86329413  0.00906282  0.54789160  1
  S2-  S250  1  0.88085592  0.25420047  0.03852612  1
  S2-  S251  1  0.86177647  0.25776522  0.54557945  1
  S2-  S252  1  0.87305031  0.50241247  0.03963898  1
  S2-  S253  1  0.86257180  0.50622891  0.54843947  1
  S2-  S254  1  0.88571208  0.75819310  0.05298681  1
  S2-  S255  1  0.85982479  0.74835825  0.54498269  1
