# generated using pymatgen
data_La6Ce7Pr13Nd19Sm19(BiS2)64
_symmetry_space_group_name_H-M   'P 1'
_cell_length_a   16.07084186
_cell_length_b   16.01383388
_cell_length_c   27.42820816
_cell_angle_alpha   89.66254352
_cell_angle_beta   90.22927602
_cell_angle_gamma   89.95378188
_symmetry_Int_Tables_number   1
_chemical_formula_structural   La6Ce7Pr13Nd19Sm19(BiS2)64
_chemical_formula_sum   'La6 Ce7 Pr13 Nd19 Sm19 Bi64 S128'
_cell_volume   7058.62685099
_cell_formula_units_Z   1
loop_
 _symmetry_equiv_pos_site_id
 _symmetry_equiv_pos_as_xyz
  1  'x, y, z'
loop_
 _atom_type_symbol
 _atom_type_oxidation_number
  La3+  3.0
  Ce3+  3.0
  Pr3+  3.0
  Nd3+  3.0
  Sm3+  3.0
  Bi2+  2.0
  S2-  -2.0
loop_
 _atom_site_type_symbol
 _atom_site_label
 _atom_site_symmetry_multiplicity
 _atom_site_fract_x
 _atom_site_fract_y
 _atom_site_fract_z
 _atom_site_occupancy
  La3+  La0  1  0.12084062  0.50830015  0.43239270  1
  La3+  La1  1  0.11782009  0.01708585  0.41800121  1
  La3+  La2  1  0.25399572  0.13079801  0.07847772  1
  La3+  La3  1  0.25954802  0.85622532  0.11322872  1
  La3+  La4  1  0.63970040  0.23568653  0.88447732  1
  La3+  La5  1  0.74831713  0.38503299  0.07857063  1
  Ce3+  Ce6  1  0.00428818  0.88023269  0.06370773  1
  Ce3+  Ce7  1  0.62203903  0.01418276  0.43894481  1
  Ce3+  Ce8  1  0.75110906  0.12700879  0.06538696  1
  Ce3+  Ce9  1  0.24791489  0.63134886  0.56549008  1
  Ce3+  Ce10  1  0.00737697  0.63187176  0.06277692  1
  Ce3+  Ce11  1  0.37608041  0.25301902  0.93160720  1
  Ce3+  Ce12  1  0.12886269  0.25668348  0.93011123  1
  Pr3+  Pr13  1  -0.00122016  0.62966328  0.56439079  1
  Pr3+  Pr14  1  0.36813513  0.76118818  0.43558322  1
  Pr3+  Pr15  1  0.62480205  0.76575415  0.43909717  1
  Pr3+  Pr16  1  0.12152323  0.50354064  0.93258211  1
  Pr3+  Pr17  1  0.49492408  0.12411058  0.57185687  1
  Pr3+  Pr18  1  0.11274672  0.75691293  0.90202430  1
  Pr3+  Pr19  1  0.86124917  0.01058822  0.39335240  1
  Pr3+  Pr20  1  0.24972720  0.38398524  0.56621599  1
  Pr3+  Pr21  1  0.74741123  0.13413806  0.56149958  1
  Pr3+  Pr22  1  -0.00400488  0.88713000  0.55449251  1
  Pr3+  Pr23  1  0.36761800  0.01120408  0.42326459  1
  Pr3+  Pr24  1  0.49859286  0.12737643  0.06171903  1
  Pr3+  Pr25  1  0.74401065  0.38685388  0.56783226  1
  Nd3+  Nd26  1  0.87447587  0.76115816  0.43308022  1
  Nd3+  Nd27  1  0.00426065  0.37674767  0.06298275  1
  Nd3+  Nd28  1  -0.00142845  0.12755299  0.06476217  1
  Nd3+  Nd29  1  0.24718192  0.13070828  0.56384137  1
  Nd3+  Nd30  1  0.87526670  0.00666522  0.94044933  1
  Nd3+  Nd31  1  0.62857935  0.75232388  0.92880652  1
  Nd3+  Nd32  1  0.63024730  0.50053327  0.93237128  1
  Nd3+  Nd33  1  0.74712107  0.63304352  0.55310607  1
  Nd3+  Nd34  1  0.49893510  0.63273191  0.04952840  1
  Nd3+  Nd35  1  -0.00125180  0.37917206  0.56523901  1
  Nd3+  Nd36  1  0.49508748  0.63476149  0.55213134  1
  Nd3+  Nd37  1  0.50388289  0.37806273  0.05015857  1
  Nd3+  Nd38  1  0.74996122  0.87546666  0.06351275  1
  Nd3+  Nd39  1  0.25245870  0.37679967  0.06061368  1
  Nd3+  Nd40  1  0.62316770  0.50830437  0.43451255  1
  Nd3+  Nd41  1  0.36860345  0.51104244  0.42646247  1
  Nd3+  Nd42  1  0.37010134  0.00309249  0.94330063  1
  Nd3+  Nd43  1  0.74874105  0.63435059  0.07056879  1
  Nd3+  Nd44  1  -0.00209172  0.13209109  0.55210927  1
  Sm3+  Sm45  1  0.86992498  0.26223556  0.43344336  1
  Sm3+  Sm46  1  0.87835297  0.75672186  0.94779229  1
  Sm3+  Sm47  1  0.87500190  0.50778225  0.95156921  1
  Sm3+  Sm48  1  0.36973381  0.75865118  0.93833062  1
  Sm3+  Sm49  1  0.49393758  0.38432583  0.55459498  1
  Sm3+  Sm50  1  0.49578443  0.88458671  0.55896830  1
  Sm3+  Sm51  1  0.86961112  0.25803679  0.95015711  1
  Sm3+  Sm52  1  0.87090736  0.50477686  0.43919000  1
  Sm3+  Sm53  1  0.62377279  0.00431380  0.94707562  1
  Sm3+  Sm54  1  0.24968743  0.63180677  0.05178121  1
  Sm3+  Sm55  1  0.12274049  0.26224608  0.43560978  1
  Sm3+  Sm56  1  0.37201822  0.26117619  0.43621732  1
  Sm3+  Sm57  1  0.12015287  0.76393743  0.44253667  1
  Sm3+  Sm58  1  0.12597107  0.00694429  0.95185043  1
  Sm3+  Sm59  1  0.62219715  0.25871146  0.44590286  1
  Sm3+  Sm60  1  0.37290272  0.50643849  0.93920747  1
  Sm3+  Sm61  1  0.49541376  0.87690697  0.05728175  1
  Sm3+  Sm62  1  0.74913750  0.88444719  0.55667333  1
  Sm3+  Sm63  1  0.24337210  0.88205593  0.56532250  1
  Bi2+  Bi64  1  -0.00431480  0.16961080  0.28463828  1
  Bi2+  Bi65  1  0.05566640  0.14721439  0.79389693  1
  Bi2+  Bi66  1  0.01374022  0.45319055  0.28907238  1
  Bi2+  Bi67  1  -0.02398534  0.41193955  0.78414241  1
  Bi2+  Bi68  1  -0.07395431  0.61831015  0.33133132  1
  Bi2+  Bi69  1  0.01231303  0.65321298  0.78087221  1
  Bi2+  Bi70  1  -0.01952440  0.86812136  0.28053502  1
  Bi2+  Bi71  1  -0.02829358  0.91891718  0.80681078  1
  Bi2+  Bi72  1  0.26510845  0.12718278  0.29002948  1
  Bi2+  Bi73  1  0.24541045  0.16818205  0.76401909  1
  Bi2+  Bi74  1  0.24762547  0.37012462  0.28577452  1
  Bi2+  Bi75  1  0.23018183  0.37367555  0.79042170  1
  Bi2+  Bi76  1  0.22491914  0.56510935  0.31562370  1
  Bi2+  Bi77  1  0.26473855  0.66085605  0.78379352  1
  Bi2+  Bi78  1  0.26193862  0.83421842  0.30161255  1
  Bi2+  Bi79  1  0.25084947  0.95573346  0.79496900  1
  Bi2+  Bi80  1  0.50401195  0.04766031  0.30277720  1
  Bi2+  Bi81  1  0.50523964  0.10947751  0.78954987  1
  Bi2+  Bi82  1  0.51509751  0.36514788  0.29919880  1
  Bi2+  Bi83  1  0.47637672  0.39630578  0.78927442  1
  Bi2+  Bi84  1  0.47054541  0.54506233  0.25640142  1
  Bi2+  Bi85  1  0.54929865  0.63632129  0.78380417  1
  Bi2+  Bi86  1  0.51348111  0.82697013  0.27909955  1
  Bi2+  Bi87  1  0.49726082  0.84445651  0.79246824  1
  Bi2+  Bi88  1  0.77445451  0.08613970  0.25241680  1
  Bi2+  Bi89  1  0.78888117  0.10013008  0.75439527  1
  Bi2+  Bi90  1  0.75757567  0.34789505  0.30129771  1
  Bi2+  Bi91  1  0.78092658  0.39970574  0.80314068  1
  Bi2+  Bi92  1  0.73771154  0.61802074  0.28939274  1
  Bi2+  Bi93  1  0.74549206  0.61413380  0.76585331  1
  Bi2+  Bi94  1  0.70894467  0.87010608  0.28981539  1
  Bi2+  Bi95  1  0.68372422  0.87214117  0.81792688  1
  Bi2+  Bi96  1  0.11280803  -0.00827362  0.21616034  1
  Bi2+  Bi97  1  0.09873285  0.04403674  0.69465226  1
  Bi2+  Bi98  1  0.11357560  0.26910784  0.20569604  1
  Bi2+  Bi99  1  0.12002218  0.29724564  0.70341257  1
  Bi2+  Bi100  1  0.15655486  0.50889937  0.20981098  1
  Bi2+  Bi101  1  0.14768713  0.59439886  0.68727085  1
  Bi2+  Bi102  1  0.08546200  0.67005978  0.26630253  1
  Bi2+  Bi103  1  0.12910902  0.80949427  0.77290945  1
  Bi2+  Bi104  1  0.39143797  0.00167489  0.21306498  1
  Bi2+  Bi105  1  0.36494925  -0.04127131  0.70637634  1
  Bi2+  Bi106  1  0.41771579  0.25930480  0.21969485  1
  Bi2+  Bi107  1  0.37754166  0.29986615  0.70711712  1
  Bi2+  Bi108  1  0.34010683  0.44496554  0.19072573  1
  Bi2+  Bi109  1  0.39874993  0.56181087  0.72246369  1
  Bi2+  Bi110  1  0.38702463  0.70476211  0.20773578  1
  Bi2+  Bi111  1  0.36193939  0.76397527  0.69624221  1
  Bi2+  Bi112  1  0.60793546  -0.01523316  0.20375438  1
  Bi2+  Bi113  1  0.63022726  -0.06090987  0.71163519  1
  Bi2+  Bi114  1  0.59913859  0.17885857  0.23892866  1
  Bi2+  Bi115  1  0.61830651  0.25290896  0.68685463  1
  Bi2+  Bi116  1  0.62140732  0.44244804  0.20699554  1
  Bi2+  Bi117  1  0.64459950  0.48984521  0.69279323  1
  Bi2+  Bi118  1  0.62370353  0.70788807  0.21093747  1
  Bi2+  Bi119  1  0.55932676  0.75946705  0.68891646  1
  Bi2+  Bi120  1  0.81391630  -0.06333808  0.18524842  1
  Bi2+  Bi121  1  0.89802882  -0.03693437  0.70257421  1
  Bi2+  Bi122  1  0.87076147  0.26388448  0.21393872  1
  Bi2+  Bi123  1  0.91807492  0.23925933  0.73386521  1
  Bi2+  Bi124  1  0.86917582  0.52526482  0.21897748  1
  Bi2+  Bi125  1  0.90531175  0.52795853  0.69797005  1
  Bi2+  Bi126  1  0.88525845  0.72712711  0.22241314  1
  Bi2+  Bi127  1  0.81474597  0.79630644  0.74893462  1
  S2-  S128  1  0.05420055  0.13322949  0.15974224  1
  S2-  S129  1  0.00442492  0.17985059  0.64895479  1
  S2-  S130  1  -0.02026930  0.36606629  0.16123269  1
  S2-  S131  1  0.03631354  0.44365395  0.65509092  1
  S2-  S132  1  -0.02535338  0.63281257  0.15867262  1
  S2-  S133  1  -0.01536923  0.66600946  0.66259110  1
  S2-  S134  1  -0.01308185  0.90841302  0.16056249  1
  S2-  S135  1  0.03551928  0.90394093  0.65266995  1
  S2-  S136  1  0.24412513  0.01806429  0.15849238  1
  S2-  S137  1  0.24654152  0.25673469  0.63849244  1
  S2-  S138  1  0.23529354  0.27499578  0.14150757  1
  S2-  S139  1  0.26588963  0.51023838  0.64100907  1
  S2-  S140  1  0.26625383  0.67647775  0.14642581  1
  S2-  S141  1  0.22349086  0.74657060  0.63948640  1
  S2-  S142  1  0.19521216  0.84804818  0.21409863  1
  S2-  S143  1  0.24382432  1.00502816  0.63726858  1
  S2-  S144  1  0.41225812  0.13635717  0.14860996  1
  S2-  S145  1  0.46648795  0.17280400  0.67024782  1
  S2-  S146  1  0.49075596  0.37685101  0.14955547  1
  S2-  S147  1  0.50839378  0.38424339  0.65250061  1
  S2-  S148  1  0.51155351  0.62901660  0.14785727  1
  S2-  S149  1  0.51352337  0.59928079  0.64881946  1
  S2-  S150  1  0.42696544  0.86293756  0.14773205  1
  S2-  S151  1  0.50149171  0.97715667  0.64109667  1
  S2-  S152  1  0.83224205  0.10750911  0.15124619  1
  S2-  S153  1  0.70903469  0.11833185  0.65860686  1
  S2-  S154  1  0.72444490  0.31280979  0.17226583  1
  S2-  S155  1  0.75369091  0.36632871  0.66748995  1
  S2-  S156  1  0.73990270  0.52178161  0.14839479  1
  S2-  S157  1  0.75481377  0.59438165  0.64906849  1
  S2-  S158  1  0.72690747  0.76089143  0.14007932  1
  S2-  S159  1  0.75973149  0.86183101  0.65360456  1
  S2-  S160  1  0.23988629  -0.01111642  0.34477749  1
  S2-  S161  1  0.10644867  0.01164207  0.85318693  1
  S2-  S162  1  0.13199161  0.16997351  0.35081243  1
  S2-  S163  1  0.25510872  0.23964644  0.85939466  1
  S2-  S164  1  0.11313657  0.38432655  0.35901745  1
  S2-  S165  1  0.10190957  0.38214121  0.85704300  1
  S2-  S166  1  0.11411624  0.79061803  0.34496531  1
  S2-  S167  1  0.12785679  0.60731467  0.84901783  1
  S2-  S168  1  0.40287116  -0.12931812  0.35697523  1
  S2-  S169  1  0.38720845  0.01819133  0.84386336  1
  S2-  S170  1  0.38512496  0.15223503  0.35625943  1
  S2-  S171  1  0.47188191  0.24563824  0.84644894  1
  S2-  S172  1  0.36933556  0.38075001  0.35829324  1
  S2-  S173  1  0.35927740  0.46836433  0.84304423  1
  S2-  S174  1  0.35781156  0.64030422  0.35793398  1
  S2-  S175  1  0.37918433  0.74845871  0.84101377  1
  S2-  S176  1  0.69679996  0.00929275  0.35115695  1
  S2-  S177  1  0.61533926  0.06386686  0.85554908  1
  S2-  S178  1  0.63085509  0.25407263  0.34799030  1
  S2-  S179  1  0.64850723  0.21095116  0.77674178  1
  S2-  S180  1  0.66989233  0.48393329  0.34042357  1
  S2-  S181  1  0.63155313  0.40559092  0.84682900  1
  S2-  S182  1  0.62219164  0.73174360  0.34138304  1
  S2-  S183  1  0.65984437  0.62917934  0.86005329  1
  S2-  S184  1  1.00556968  0.00193025  0.33339005  1
  S2-  S185  1  0.85592503  0.02454461  0.84234009  1
  S2-  S186  1  0.86573986  0.17232399  0.34755236  1
  S2-  S187  1  0.81248485  0.26310223  0.85813486  1
  S2-  S188  1  0.87210860  0.39155332  0.36251211  1
  S2-  S189  1  0.88782526  0.51220921  0.85419159  1
  S2-  S190  1  0.85468416  0.84843714  0.34715568  1
  S2-  S191  1  0.94990721  0.75667270  0.85832633  1
  S2-  S192  1  -0.00923995  0.13797156  0.44933896  1
  S2-  S193  1  -0.00266753  0.13286807  0.95552778  1
  S2-  S194  1  -0.00583773  0.38261904  0.46064760  1
  S2-  S195  1  -0.00604589  0.37943517  0.95860085  1
  S2-  S196  1  -0.00451061  0.63394273  0.45587044  1
  S2-  S197  1  0.00337581  0.63359049  0.95790125  1
  S2-  S198  1  -0.00631178  0.88797640  0.44844184  1
  S2-  S199  1  0.00355332  0.88067349  0.95707347  1
  S2-  S200  1  0.24774538  0.13984621  0.45688127  1
  S2-  S201  1  0.24917740  0.12680444  0.96171178  1
  S2-  S202  1  0.24815125  0.38331836  0.45875326  1
  S2-  S203  1  0.25155335  0.38467111  0.95644162  1
  S2-  S204  1  0.23934614  0.63740310  0.45869052  1
  S2-  S205  1  0.24888942  0.63390220  0.94872359  1
  S2-  S206  1  0.24218353  0.88429591  0.45767165  1
  S2-  S207  1  0.24097428  0.87581835  0.93800828  1
  S2-  S208  1  0.50026640  0.13659459  0.46000501  1
  S2-  S209  1  0.49916012  0.12465990  0.95687784  1
  S2-  S210  1  0.50098673  0.38468990  0.45168384  1
  S2-  S211  1  0.49678040  0.38438303  0.94801159  1
  S2-  S212  1  0.50237304  0.63605760  0.44814766  1
  S2-  S213  1  0.49602804  0.63214761  0.94492980  1
  S2-  S214  1  0.50136087  0.88860661  0.45675801  1
  S2-  S215  1  0.50091237  0.87781854  0.95035646  1
  S2-  S216  1  0.74842334  0.13725007  0.45552367  1
  S2-  S217  1  0.74705061  0.12950689  0.95863756  1
  S2-  S218  1  0.74388654  0.38428811  0.46067082  1
  S2-  S219  1  0.75381577  0.38412660  0.96543085  1
  S2-  S220  1  0.74880907  0.63324228  0.44780717  1
  S2-  S221  1  0.75672720  0.63428456  0.96333074  1
  S2-  S222  1  0.75191450  0.88912663  0.45389434  1
  S2-  S223  1  0.75106307  0.87918065  0.95636934  1
  S2-  S224  1  0.12586492  0.00408834  0.05315654  1
  S2-  S225  1  0.12084717  0.01007592  0.53541889  1
  S2-  S226  1  0.12183372  0.25208478  0.03959002  1
  S2-  S227  1  0.12070154  0.25835969  0.54023539  1
  S2-  S228  1  0.12881090  0.50406843  0.04748753  1
  S2-  S229  1  0.12042393  0.50607193  0.54095138  1
  S2-  S230  1  0.13156645  0.75951736  0.05880294  1
  S2-  S231  1  0.11732720  0.75972077  0.54356769  1
  S2-  S232  1  0.37215236  -0.00374679  0.04731172  1
  S2-  S233  1  0.37134828  0.00483686  0.53786941  1
  S2-  S234  1  0.37817636  0.25637867  0.03998969  1
  S2-  S235  1  0.37778373  0.25706700  0.54178777  1
  S2-  S236  1  0.37447818  0.50623338  0.04406518  1
  S2-  S237  1  0.37621404  0.50896406  0.53433463  1
  S2-  S238  1  0.37140093  0.75677880  0.04107000  1
  S2-  S239  1  0.37322412  0.76245114  0.54427430  1
  S2-  S240  1  0.62340151  -0.00128027  0.05235524  1
  S2-  S241  1  0.62560795  0.00574892  0.54408041  1
  S2-  S242  1  0.62541156  0.25133974  0.05952829  1
  S2-  S243  1  0.61800230  0.25886605  0.55057975  1
  S2-  S244  1  0.62363263  0.50925614  0.04100210  1
  S2-  S245  1  0.61972243  0.50888639  0.54136213  1
  S2-  S246  1  0.62058409  0.75737483  0.03556600  1
  S2-  S247  1  0.62302881  0.76072705  0.54602702  1
  S2-  S248  1  0.87461770  0.00071611  0.04528631  1
  S2-  S249  1  0.87004370  0.00969987  0.55560542  1
  S2-  S250  1  0.87453772  0.25540937  0.05408919  1
  S2-  S251  1  0.87064572  0.26103946  0.54713444  1
  S2-  S252  1  0.88135582  0.50700608  0.05452149  1
  S2-  S253  1  0.87239522  0.50646911  0.54426121  1
  S2-  S254  1  0.87992879  0.75525547  0.05060783  1
  S2-  S255  1  0.87133940  0.75745113  0.54325647  1
