# generated using pymatgen
data_La6Ce7Pr13Nd19Sm19(BiS2)64
_symmetry_space_group_name_H-M   'P 1'
_cell_length_a   16.14164756
_cell_length_b   16.14394888
_cell_length_c   27.03239658
_cell_angle_alpha   90.00075303
_cell_angle_beta   90.02895475
_cell_angle_gamma   89.97402460
_symmetry_Int_Tables_number   1
_chemical_formula_structural   La6Ce7Pr13Nd19Sm19(BiS2)64
_chemical_formula_sum   'La6 Ce7 Pr13 Nd19 Sm19 Bi64 S128'
_cell_volume   7044.36878872
_cell_formula_units_Z   1
loop_
 _symmetry_equiv_pos_site_id
 _symmetry_equiv_pos_as_xyz
  1  'x, y, z'
loop_
 _atom_type_symbol
 _atom_type_oxidation_number
  La3+  3.0
  Ce3+  3.0
  Pr3+  3.0
  Nd3+  3.0
  Sm3+  3.0
  Bi2+  2.0
  S2-  -2.0
loop_
 _atom_site_type_symbol
 _atom_site_label
 _atom_site_symmetry_multiplicity
 _atom_site_fract_x
 _atom_site_fract_y
 _atom_site_fract_z
 _atom_site_occupancy
  La3+  La0  1  0.88370832  0.74038055  0.41570686  1
  La3+  La1  1  -0.01078231  0.88660018  0.58228938  1
  La3+  La2  1  0.00316084  0.88689060  0.09195566  1
  La3+  La3  1  0.87518439  0.00792689  0.41673854  1
  La3+  La4  1  0.62074872  0.50245782  0.41965333  1
  La3+  La5  1  0.87302132  0.50263721  0.89274809  1
  Ce3+  Ce6  1  0.37555082  0.50161382  0.93995949  1
  Ce3+  Ce7  1  0.25003012  0.62750706  0.55885808  1
  Ce3+  Ce8  1  0.75163368  0.62554147  0.55609271  1
  Ce3+  Ce9  1  0.24671106  0.62448584  0.05461367  1
  Ce3+  Ce10  1  0.74974875  0.12443081  0.06258134  1
  Ce3+  Ce11  1  0.25031544  0.37761215  0.56114888  1
  Ce3+  Ce12  1  0.87239325  -0.00743653  0.94454265  1
  Pr3+  Pr13  1  0.49661271  0.12733658  0.05715820  1
  Pr3+  Pr14  1  0.11979325  0.25335202  0.93540699  1
  Pr3+  Pr15  1  0.25911066  0.87774838  0.57588355  1
  Pr3+  Pr16  1  0.74204626  0.87573887  0.07846539  1
  Pr3+  Pr17  1  0.49444652  0.87479477  0.07082083  1
  Pr3+  Pr18  1  0.87702506  0.25567276  0.43595677  1
  Pr3+  Pr19  1  0.00683331  0.37491015  0.57652323  1
  Pr3+  Pr20  1  -0.00065668  0.63192814  0.57074149  1
  Pr3+  Pr21  1  0.87104921  0.25336563  0.93762937  1
  Pr3+  Pr22  1  0.37201739  0.25128102  0.94232289  1
  Pr3+  Pr23  1  0.24892231  0.87630946  0.06530525  1
  Pr3+  Pr24  1  0.74836368  0.37872256  0.06146237  1
  Pr3+  Pr25  1  0.62450393  0.25082282  0.94118316  1
  Nd3+  Nd26  1  0.37583594  0.25139139  0.44296450  1
  Nd3+  Nd27  1  -0.00345069  0.37657776  0.05639071  1
  Nd3+  Nd28  1  0.12487816  0.25319276  0.44190289  1
  Nd3+  Nd29  1  0.61903820  0.50287759  0.93162154  1
  Nd3+  Nd30  1  0.62684339  -0.00131121  0.44036537  1
  Nd3+  Nd31  1  0.37372739  0.50252516  0.43571858  1
  Nd3+  Nd32  1  0.75267635  0.12572450  0.55742197  1
  Nd3+  Nd33  1  -0.00523904  0.62767618  0.06440192  1
  Nd3+  Nd34  1  0.50076498  0.37735641  0.56115569  1
  Nd3+  Nd35  1  0.62530932  0.25183929  0.43851878  1
  Nd3+  Nd36  1  0.37328057  0.75188318  0.94048902  1
  Nd3+  Nd37  1  0.12246447  0.75489293  0.44813052  1
  Nd3+  Nd38  1  0.12152238  -0.00458475  0.93644216  1
  Nd3+  Nd39  1  0.74887013  0.62447475  0.06611981  1
  Nd3+  Nd40  1  0.12324052  -0.00247866  0.44195171  1
  Nd3+  Nd41  1  0.12416607  0.50192859  0.44240308  1
  Nd3+  Nd42  1  0.49573567  0.62253587  0.06508481  1
  Nd3+  Nd43  1  0.37524104  -0.00040125  0.44111002  1
  Nd3+  Nd44  1  0.87300101  0.75562324  0.93851721  1
  Sm3+  Sm45  1  0.75017010  0.37627359  0.55467123  1
  Sm3+  Sm46  1  0.62281839  -0.00191427  0.94987122  1
  Sm3+  Sm47  1  -0.00214502  0.12379758  0.05214033  1
  Sm3+  Sm48  1  0.50218588  0.87653188  0.56113376  1
  Sm3+  Sm49  1  0.62451942  0.74958870  0.95152834  1
  Sm3+  Sm50  1  0.24939785  0.12482755  0.55256854  1
  Sm3+  Sm51  1  0.87916925  0.50107692  0.44356097  1
  Sm3+  Sm52  1  0.37199773  -0.00173620  0.94333664  1
  Sm3+  Sm53  1  0.50259775  0.12718562  0.55542126  1
  Sm3+  Sm54  1  0.11923195  0.75122721  0.94644575  1
  Sm3+  Sm55  1  0.24487773  0.37615528  0.05219242  1
  Sm3+  Sm56  1  0.62736282  0.75245314  0.44170426  1
  Sm3+  Sm57  1  0.11734898  0.50429772  0.94275925  1
  Sm3+  Sm58  1  0.24600083  0.12687371  0.05229101  1
  Sm3+  Sm59  1  0.49844276  0.37572477  0.06329268  1
  Sm3+  Sm60  1  0.50393719  0.62458883  0.55518643  1
  Sm3+  Sm61  1  0.75362359  0.87568881  0.54893675  1
  Sm3+  Sm62  1  -0.00126011  0.12406114  0.55430626  1
  Sm3+  Sm63  1  0.37507174  0.75345793  0.44766154  1
  Bi2+  Bi64  1  0.03233243  0.13268909  0.28903990  1
  Bi2+  Bi65  1  -0.01335624  0.14297205  0.76756847  1
  Bi2+  Bi66  1  -0.01933020  0.37075493  0.30894295  1
  Bi2+  Bi67  1  0.01484992  0.36925467  0.79340255  1
  Bi2+  Bi68  1  0.05465512  0.62240745  0.26981644  1
  Bi2+  Bi69  1  0.01094325  0.63168269  0.79116371  1
  Bi2+  Bi70  1  0.00506113  0.86640315  0.30012530  1
  Bi2+  Bi71  1  0.01288055  0.87650936  0.79640732  1
  Bi2+  Bi72  1  0.24268736  0.15502123  0.24618229  1
  Bi2+  Bi73  1  0.30135713  0.12998170  0.77750242  1
  Bi2+  Bi74  1  0.26901580  0.40805472  0.30016186  1
  Bi2+  Bi75  1  0.27007032  0.36809279  0.78675618  1
  Bi2+  Bi76  1  0.24384208  0.60483181  0.30601699  1
  Bi2+  Bi77  1  0.31078120  0.62497913  0.77687961  1
  Bi2+  Bi78  1  0.27309426  0.88202158  0.29049452  1
  Bi2+  Bi79  1  0.26182824  0.88809879  0.79741114  1
  Bi2+  Bi80  1  0.45964718  0.12442944  0.28568025  1
  Bi2+  Bi81  1  0.54621206  0.11067093  0.78357868  1
  Bi2+  Bi82  1  0.46752525  0.37101745  0.29417432  1
  Bi2+  Bi83  1  0.48220986  0.37082805  0.78776938  1
  Bi2+  Bi84  1  0.43723933  0.63814570  0.28429313  1
  Bi2+  Bi85  1  0.50653854  0.62876778  0.79581752  1
  Bi2+  Bi86  1  0.47519064  0.88000502  0.29149578  1
  Bi2+  Bi87  1  0.52599278  0.87363373  0.78890668  1
  Bi2+  Bi88  1  0.72434993  0.15556749  0.29124331  1
  Bi2+  Bi89  1  0.73679158  0.08754475  0.79105171  1
  Bi2+  Bi90  1  0.78722032  0.36359442  0.29662191  1
  Bi2+  Bi91  1  0.72699435  0.36235344  0.78521603  1
  Bi2+  Bi92  1  0.75459766  0.62954150  0.29534961  1
  Bi2+  Bi93  1  0.72593099  0.65428331  0.79181162  1
  Bi2+  Bi94  1  0.72681518  0.88022977  0.29818746  1
  Bi2+  Bi95  1  0.76183376  0.89055988  0.78251855  1
  Bi2+  Bi96  1  0.12963173  0.00629605  0.20890194  1
  Bi2+  Bi97  1  0.12242152  0.03117893  0.71162005  1
  Bi2+  Bi98  1  0.08552920  0.26377220  0.20678271  1
  Bi2+  Bi99  1  0.15839285  0.22897850  0.71114430  1
  Bi2+  Bi100  1  0.15986375  0.48373660  0.21265915  1
  Bi2+  Bi101  1  0.18581377  0.50083818  0.71656639  1
  Bi2+  Bi102  1  0.20087896  0.74658084  0.22173827  1
  Bi2+  Bi103  1  0.16643165  0.76118873  0.72254398  1
  Bi2+  Bi104  1  0.37829435  -0.01348282  0.19905589  1
  Bi2+  Bi105  1  0.41997462  -0.00091283  0.71891477  1
  Bi2+  Bi106  1  0.35291046  0.30609807  0.20773206  1
  Bi2+  Bi107  1  0.37249011  0.26914161  0.70285199  1
  Bi2+  Bi108  1  0.36026653  0.51279606  0.20846024  1
  Bi2+  Bi109  1  0.37680785  0.46654865  0.69749951  1
  Bi2+  Bi110  1  0.38287587  0.79728297  0.18146375  1
  Bi2+  Bi111  1  0.42951204  0.74379450  0.71131487  1
  Bi2+  Bi112  1  0.57521699  0.00595126  0.21696837  1
  Bi2+  Bi113  1  0.61732971  -0.02868425  0.70067933  1
  Bi2+  Bi114  1  0.58705024  0.23560881  0.22248842  1
  Bi2+  Bi115  1  0.61899779  0.23018382  0.70248297  1
  Bi2+  Bi116  1  0.63465054  0.48948900  0.20636289  1
  Bi2+  Bi117  1  0.58629349  0.50221008  0.71942855  1
  Bi2+  Bi118  1  0.56459378  0.74526770  0.22045267  1
  Bi2+  Bi119  1  0.64127010  0.77788137  0.71061829  1
  Bi2+  Bi120  1  0.86969714  0.00843158  0.20633992  1
  Bi2+  Bi121  1  0.85931527  0.01086867  0.70970393  1
  Bi2+  Bi122  1  0.89346308  0.24046661  0.22852157  1
  Bi2+  Bi123  1  0.86612417  0.25518820  0.70594950  1
  Bi2+  Bi124  1  0.88528826  0.46837916  0.21604385  1
  Bi2+  Bi125  1  0.85223807  0.50537453  0.69207929  1
  Bi2+  Bi126  1  0.87279783  0.73086984  0.20133819  1
  Bi2+  Bi127  1  0.87788311  0.74572310  0.69660882  1
  S2-  S128  1  0.00363818  0.05774891  0.14297970  1
  S2-  S129  1  -0.00840185  0.04226453  0.64049756  1
  S2-  S130  1  -0.01196563  0.38729793  0.15606580  1
  S2-  S131  1  -0.03388656  0.37680724  0.67710725  1
  S2-  S132  1  0.00103698  0.64005512  0.16480833  1
  S2-  S133  1  -0.01728714  0.60736733  0.67135138  1
  S2-  S134  1  -0.02301788  0.86613688  0.19574891  1
  S2-  S135  1  0.02013652  0.81195817  0.67568237  1
  S2-  S136  1  0.24980303  0.09426085  0.14867525  1
  S2-  S137  1  0.24044675  0.11515540  0.65060898  1
  S2-  S138  1  0.21755057  0.34954888  0.14788146  1
  S2-  S139  1  0.16025430  0.37144104  0.64416415  1
  S2-  S140  1  0.24732932  0.61169076  0.15244376  1
  S2-  S141  1  0.22574656  0.64138492  0.65495680  1
  S2-  S142  1  0.15561020  0.87515701  0.14957561  1
  S2-  S143  1  0.20643230  0.89842747  0.67315574  1
  S2-  S144  1  0.50197545  0.13569157  0.15774753  1
  S2-  S145  1  0.49136595  0.15276076  0.65268132  1
  S2-  S146  1  0.54569619  0.37494702  0.15879223  1
  S2-  S147  1  0.56482996  0.37075872  0.65380107  1
  S2-  S148  1  0.53868868  0.59898942  0.16149287  1
  S2-  S149  1  0.50140575  0.61416804  0.65334648  1
  S2-  S150  1  0.60020570  0.87392073  0.15104731  1
  S2-  S151  1  0.40726854  0.88212741  0.64354047  1
  S2-  S152  1  0.75415148  0.10625574  0.15956532  1
  S2-  S153  1  0.75595205  0.14072096  0.65664559  1
  S2-  S154  1  0.75667730  0.39506566  0.16262562  1
  S2-  S155  1  0.76943609  0.37283269  0.65299726  1
  S2-  S156  1  0.75579671  0.62394407  0.16835736  1
  S2-  S157  1  0.75281576  0.63678122  0.65466737  1
  S2-  S158  1  0.78873410  0.87666181  0.17767368  1
  S2-  S159  1  0.83015668  0.88093445  0.63712156  1
  S2-  S160  1  0.09675347  -0.00795116  0.34319576  1
  S2-  S161  1  0.11788446  -0.01863499  0.83565903  1
  S2-  S162  1  0.10545591  0.25744222  0.34316182  1
  S2-  S163  1  0.08924880  0.23993854  0.83671901  1
  S2-  S164  1  0.07061251  0.50492732  0.34764804  1
  S2-  S165  1  0.08433804  0.50533185  0.84578270  1
  S2-  S166  1  0.05262141  0.74192225  0.35662273  1
  S2-  S167  1  0.09518441  0.75720444  0.84721983  1
  S2-  S168  1  0.36436615  0.00487046  0.34200629  1
  S2-  S169  1  0.35397699  -0.00213826  0.84575118  1
  S2-  S170  1  0.38408291  0.24095121  0.34393138  1
  S2-  S171  1  0.36671061  0.24724736  0.84193971  1
  S2-  S172  1  0.47587168  0.50823836  0.35510637  1
  S2-  S173  1  0.48330961  0.49582078  0.86272522  1
  S2-  S174  1  0.37503702  0.76604893  0.34940266  1
  S2-  S175  1  0.33897512  0.76711529  0.84269575  1
  S2-  S176  1  0.64762976  0.01408374  0.34185395  1
  S2-  S177  1  0.61693955  -0.01069789  0.85179873  1
  S2-  S178  1  0.62897605  0.27460600  0.33992813  1
  S2-  S179  1  0.61757117  0.29105968  0.84215789  1
  S2-  S180  1  0.67330167  0.49474960  0.31980267  1
  S2-  S181  1  0.71436780  0.50249489  0.84693744  1
  S2-  S182  1  0.64271702  0.74167774  0.34359880  1
  S2-  S183  1  0.62316328  0.73073244  0.85282641  1
  S2-  S184  1  0.86237928  -0.03272229  0.31514434  1
  S2-  S185  1  0.88101666  -0.11070622  0.86523385  1
  S2-  S186  1  0.86005385  0.15880802  0.35304643  1
  S2-  S187  1  0.86909718  0.33086672  0.84683231  1
  S2-  S188  1  0.86824799  0.58426345  0.35810995  1
  S2-  S189  1  0.90654990  0.50492981  0.78645454  1
  S2-  S190  1  0.85446061  0.77379189  0.31355113  1
  S2-  S191  1  0.87376620  0.66829094  0.85094998  1
  S2-  S192  1  0.00293411  0.12753934  0.45042611  1
  S2-  S193  1  -0.00420142  0.12257853  0.94608094  1
  S2-  S194  1  0.00118175  0.37749250  0.46129417  1
  S2-  S195  1  -0.00513047  0.38098224  0.95012205  1
  S2-  S196  1  0.00227233  0.62361550  0.46254931  1
  S2-  S197  1  -0.00310645  0.62701490  0.95619600  1
  S2-  S198  1  -0.00443097  0.87826101  0.45219387  1
  S2-  S199  1  0.00211023  0.87445642  0.96550865  1
  S2-  S200  1  0.24918476  0.12563602  0.44662030  1
  S2-  S201  1  0.24603840  0.12400724  0.94651858  1
  S2-  S202  1  0.25078098  0.37731178  0.45262549  1
  S2-  S203  1  0.24471678  0.37990686  0.94649809  1
  S2-  S204  1  0.25007219  0.62923297  0.45137193  1
  S2-  S205  1  0.24537950  0.62593223  0.94663208  1
  S2-  S206  1  0.25171886  0.87593978  0.45968109  1
  S2-  S207  1  0.24690129  0.87426866  0.95615065  1
  S2-  S208  1  0.50149602  0.12495187  0.44938814  1
  S2-  S209  1  0.49721195  0.12292110  0.94892409  1
  S2-  S210  1  0.49943216  0.37539665  0.45363470  1
  S2-  S211  1  0.49793537  0.37248527  0.95874501  1
  S2-  S212  1  0.50013490  0.63274935  0.45097470  1
  S2-  S213  1  0.49701985  0.62970268  0.95864535  1
  S2-  S214  1  0.50127710  0.87525410  0.45494434  1
  S2-  S215  1  0.49785835  0.87549922  0.95858129  1
  S2-  S216  1  0.74677426  0.12776288  0.45207137  1
  S2-  S217  1  0.74797555  0.12246625  0.95264763  1
  S2-  S218  1  0.75070397  0.37960982  0.44852807  1
  S2-  S219  1  0.74731871  0.37826875  0.95406256  1
  S2-  S220  1  0.74566783  0.62459159  0.45152241  1
  S2-  S221  1  0.74758324  0.62865201  0.95867522  1
  S2-  S222  1  0.75397723  0.87421785  0.44384594  1
  S2-  S223  1  0.74274596  0.87458361  0.96478416  1
  S2-  S224  1  0.12543444  0.00375756  0.04240467  1
  S2-  S225  1  0.12751495  0.00000323  0.54767677  1
  S2-  S226  1  0.12095575  0.24865835  0.04351773  1
  S2-  S227  1  0.12420928  0.24476803  0.54752940  1
  S2-  S228  1  0.12111469  0.50034361  0.04863761  1
  S2-  S229  1  0.12375152  0.50522819  0.54973783  1
  S2-  S230  1  0.12192130  0.74929442  0.05139571  1
  S2-  S231  1  0.12441718  0.75895086  0.55501316  1
  S2-  S232  1  0.37136018  0.00213005  0.04806380  1
  S2-  S233  1  0.37849230  0.00653387  0.54687877  1
  S2-  S234  1  0.37000345  0.25337755  0.05005761  1
  S2-  S235  1  0.37502909  0.24971464  0.54926450  1
  S2-  S236  1  0.37210974  0.49594219  0.04879642  1
  S2-  S237  1  0.37691218  0.50296744  0.54422727  1
  S2-  S238  1  0.37228359  0.74838153  0.04727607  1
  S2-  S239  1  0.38031935  0.74784569  0.55109925  1
  S2-  S240  1  0.62092900  0.00305730  0.05314861  1
  S2-  S241  1  0.62597399  0.00010188  0.54809447  1
  S2-  S242  1  0.62348756  0.25161952  0.04954928  1
  S2-  S243  1  0.62633379  0.25145519  0.54544597  1
  S2-  S244  1  0.62030837  0.50061495  0.04531070  1
  S2-  S245  1  0.62551522  0.49960048  0.54074542  1
  S2-  S246  1  0.62017105  0.74599220  0.05510765  1
  S2-  S247  1  0.62514147  0.75389707  0.54844023  1
  S2-  S248  1  0.87218268  -0.00224668  0.04981326  1
  S2-  S249  1  0.87263548  0.00430485  0.53258573  1
  S2-  S250  1  0.87500756  0.24875974  0.04731072  1
  S2-  S251  1  0.87779059  0.25169676  0.54595018  1
  S2-  S252  1  0.87379529  0.50193611  0.05400227  1
  S2-  S253  1  0.87789411  0.49831821  0.54958246  1
  S2-  S254  1  0.87250994  0.75466349  0.05508533  1
  S2-  S255  1  0.87485818  0.75072875  0.53983574  1
