# generated using pymatgen
data_La6Ce7Pr13Nd19Sm19(BiS2)64
_symmetry_space_group_name_H-M   'P 1'
_cell_length_a   16.04036709
_cell_length_b   16.07708040
_cell_length_c   27.38906484
_cell_angle_alpha   90.17479922
_cell_angle_beta   89.97468613
_cell_angle_gamma   90.13567836
_symmetry_Int_Tables_number   1
_chemical_formula_structural   La6Ce7Pr13Nd19Sm19(BiS2)64
_chemical_formula_sum   'La6 Ce7 Pr13 Nd19 Sm19 Bi64 S128'
_cell_volume   7063.10091131
_cell_formula_units_Z   1
loop_
 _symmetry_equiv_pos_site_id
 _symmetry_equiv_pos_as_xyz
  1  'x, y, z'
loop_
 _atom_type_symbol
 _atom_type_oxidation_number
  La3+  3.0
  Ce3+  3.0
  Pr3+  3.0
  Nd3+  3.0
  Sm3+  3.0
  Bi2+  2.0
  S2-  -2.0
loop_
 _atom_site_type_symbol
 _atom_site_label
 _atom_site_symmetry_multiplicity
 _atom_site_fract_x
 _atom_site_fract_y
 _atom_site_fract_z
 _atom_site_occupancy
  La3+  La0  1  0.64797120  0.75122495  0.37913064  1
  La3+  La1  1  0.62373343  0.49502855  0.42385490  1
  La3+  La2  1  0.09522036  0.26125922  0.89510845  1
  La3+  La3  1  0.37868240  0.48817342  0.43488896  1
  La3+  La4  1  0.47831018  0.12895929  0.06032775  1
  La3+  La5  1  0.35513745  -0.00450087  0.92181132  1
  Ce3+  Ce6  1  -0.01821484  0.87823373  0.06607322  1
  Ce3+  Ce7  1  0.62378708  0.23543892  0.43853129  1
  Ce3+  Ce8  1  0.23056176  0.63091005  0.06317704  1
  Ce3+  Ce9  1  0.23779467  0.87947607  0.05925770  1
  Ce3+  Ce10  1  0.74518392  0.36888133  0.55609384  1
  Ce3+  Ce11  1  0.86181094  0.24898968  0.94962517  1
  Ce3+  Ce12  1  0.72255747  0.12852554  0.07040658  1
  Pr3+  Pr13  1  0.50993911  0.36830752  0.57081157  1
  Pr3+  Pr14  1  -0.00116614  0.37099722  0.56129696  1
  Pr3+  Pr15  1  0.60616581  0.00071884  0.93661501  1
  Pr3+  Pr16  1  0.13335011  0.48058244  0.42459191  1
  Pr3+  Pr17  1  0.60374457  0.25381215  0.93477625  1
  Pr3+  Pr18  1  0.10438223  0.75670355  0.92965816  1
  Pr3+  Pr19  1  -0.01750027  0.37538034  0.06999297  1
  Pr3+  Pr20  1  0.50348424  0.62256140  0.55980038  1
  Pr3+  Pr21  1  -0.01096300  0.12007116  0.07574950  1
  Pr3+  Pr22  1  0.35322775  0.26022128  0.92280637  1
  Pr3+  Pr23  1  0.37872068  0.74598254  0.43919643  1
  Pr3+  Pr24  1  0.48063391  0.87981175  0.06686443  1
  Pr3+  Pr25  1  0.48614429  0.10676913  0.60911145  1
  Nd3+  Nd26  1  -0.00292945  0.11807723  0.57141010  1
  Nd3+  Nd27  1  -0.01902358  0.63013077  0.05674813  1
  Nd3+  Nd28  1  0.87972755  -0.00476643  0.43070842  1
  Nd3+  Nd29  1  0.35550476  0.74769160  0.93696805  1
  Nd3+  Nd30  1  0.73059808  0.88440388  0.08132502  1
  Nd3+  Nd31  1  0.74597301  0.11060201  0.56280015  1
  Nd3+  Nd32  1  0.24459250  0.86893900  0.57372912  1
  Nd3+  Nd33  1  0.87592747  0.49074445  0.43400603  1
  Nd3+  Nd34  1  0.23273663  0.12968932  0.05422403  1
  Nd3+  Nd35  1  0.00118801  0.86603543  0.55415828  1
  Nd3+  Nd36  1  0.24833174  0.61338051  0.56155526  1
  Nd3+  Nd37  1  0.85327677  0.75283549  0.94473533  1
  Nd3+  Nd38  1  0.60574869  0.74927572  0.94972082  1
  Nd3+  Nd39  1  0.37240645  -0.00428686  0.44994528  1
  Nd3+  Nd40  1  0.47226353  0.62706927  0.07546420  1
  Nd3+  Nd41  1  0.73123348  0.62439409  0.07032015  1
  Nd3+  Nd42  1  0.13520258  0.74225775  0.43340452  1
  Nd3+  Nd43  1  0.13124456  0.23795277  0.44354511  1
  Nd3+  Nd44  1  0.22768619  0.37494157  0.05124006  1
  Sm3+  Sm45  1  0.87630326  0.24073158  0.44839416  1
  Sm3+  Sm46  1  0.50225273  0.86375788  0.56410282  1
  Sm3+  Sm47  1  0.47233771  0.37992450  0.06107885  1
  Sm3+  Sm48  1  0.37957154  0.23871708  0.46284324  1
  Sm3+  Sm49  1  0.23983376  0.12519848  0.58305519  1
  Sm3+  Sm50  1  0.35155854  0.50488936  0.93587336  1
  Sm3+  Sm51  1  0.10534925  0.00425857  0.93505952  1
  Sm3+  Sm52  1  0.12685740  -0.00603568  0.44783847  1
  Sm3+  Sm53  1  0.85632235  0.50038896  0.94789216  1
  Sm3+  Sm54  1  0.85693328  0.00360392  0.94480346  1
  Sm3+  Sm55  1  0.72871050  0.37619975  0.05667511  1
  Sm3+  Sm56  1  0.60468551  0.50231417  0.94903217  1
  Sm3+  Sm57  1  0.25388149  0.37368385  0.57340755  1
  Sm3+  Sm58  1  0.00053774  0.61782211  0.54701382  1
  Sm3+  Sm59  1  0.10222219  0.50214553  0.94243928  1
  Sm3+  Sm60  1  0.61997236  -0.00648406  0.43418424  1
  Sm3+  Sm61  1  0.75040603  0.86671154  0.54129822  1
  Sm3+  Sm62  1  0.88506773  0.73332202  0.41943212  1
  Sm3+  Sm63  1  0.75087677  0.62400587  0.54717393  1
  Bi2+  Bi64  1  0.00700266  0.06958775  0.30675599  1
  Bi2+  Bi65  1  -0.03494723  0.10164023  0.78842317  1
  Bi2+  Bi66  1  -0.08092307  0.38031908  0.31412889  1
  Bi2+  Bi67  1  -0.05446049  0.38582447  0.79497222  1
  Bi2+  Bi68  1  0.07756233  0.67436801  0.31074705  1
  Bi2+  Bi69  1  0.03673133  0.65112530  0.80810073  1
  Bi2+  Bi70  1  0.05539946  0.87388791  0.28822346  1
  Bi2+  Bi71  1  -0.02298150  0.83656405  0.78766440  1
  Bi2+  Bi72  1  0.23954400  0.18076642  0.31039843  1
  Bi2+  Bi73  1  0.23435794  0.12642937  0.78265645  1
  Bi2+  Bi74  1  0.20817162  0.38961002  0.27889677  1
  Bi2+  Bi75  1  0.22495233  0.45026009  0.79320105  1
  Bi2+  Bi76  1  0.27179520  0.63935267  0.29202684  1
  Bi2+  Bi77  1  0.22904750  0.63531676  0.84250815  1
  Bi2+  Bi78  1  0.25518265  0.90877660  0.29416633  1
  Bi2+  Bi79  1  0.22259744  0.81725706  0.79296416  1
  Bi2+  Bi80  1  0.45150543  0.12135088  0.29547749  1
  Bi2+  Bi81  1  0.50390709  0.12103751  0.80621419  1
  Bi2+  Bi82  1  0.43419582  0.37045478  0.28392522  1
  Bi2+  Bi83  1  0.52357620  0.38278183  0.80907869  1
  Bi2+  Bi84  1  0.51652315  0.61049195  0.28526075  1
  Bi2+  Bi85  1  0.42705441  0.63129894  0.81555631  1
  Bi2+  Bi86  1  0.49199967  0.87285408  0.29236400  1
  Bi2+  Bi87  1  0.50838714  0.83341220  0.79370552  1
  Bi2+  Bi88  1  0.77075918  0.14784837  0.30423393  1
  Bi2+  Bi89  1  0.77168589  0.09709640  0.77250269  1
  Bi2+  Bi90  1  0.72635950  0.41006258  0.30417982  1
  Bi2+  Bi91  1  0.79094353  0.37281522  0.72638742  1
  Bi2+  Bi92  1  0.81066059  0.61802244  0.27662504  1
  Bi2+  Bi93  1  0.73333079  0.63996610  0.81568429  1
  Bi2+  Bi94  1  0.86062976  0.87197547  0.25046787  1
  Bi2+  Bi95  1  0.78235051  0.86012616  0.74348738  1
  Bi2+  Bi96  1  0.16170929  0.01474911  0.21260744  1
  Bi2+  Bi97  1  0.04803770  -0.02845776  0.71129725  1
  Bi2+  Bi98  1  0.05415847  0.20179526  0.22469593  1
  Bi2+  Bi99  1  0.08700928  0.25910731  0.70153944  1
  Bi2+  Bi100  1  0.13435894  0.54853894  0.22757492  1
  Bi2+  Bi101  1  0.10936821  0.52035275  0.71023767  1
  Bi2+  Bi102  1  0.13250774  0.83132351  0.17033023  1
  Bi2+  Bi103  1  0.11284174  0.72571443  0.71098556  1
  Bi2+  Bi104  1  0.42755700  0.03381660  0.19423713  1
  Bi2+  Bi105  1  0.38546533  -0.02981223  0.72116482  1
  Bi2+  Bi106  1  0.32322572  0.25251187  0.21624551  1
  Bi2+  Bi107  1  0.36006221  0.28902114  0.72377817  1
  Bi2+  Bi108  1  0.39224465  0.48710473  0.19136498  1
  Bi2+  Bi109  1  0.36617534  0.53290772  0.71509683  1
  Bi2+  Bi110  1  0.30701770  0.77604467  0.21106617  1
  Bi2+  Bi111  1  0.37839870  0.72672316  0.71527317  1
  Bi2+  Bi112  1  0.62162967  0.02332769  0.20661075  1
  Bi2+  Bi113  1  0.64453775  -0.01179725  0.71176449  1
  Bi2+  Bi114  1  0.59791245  0.26013912  0.29210532  1
  Bi2+  Bi115  1  0.63311166  0.26466430  0.70827598  1
  Bi2+  Bi116  1  0.64558284  0.47032155  0.19952125  1
  Bi2+  Bi117  1  0.56649831  0.54092238  0.74721981  1
  Bi2+  Bi118  1  0.67301800  0.73298374  0.18448211  1
  Bi2+  Bi119  1  0.62790445  0.71671066  0.71142648  1
  Bi2+  Bi120  1  0.89617258  0.08314574  0.20703818  1
  Bi2+  Bi121  1  0.87353694  0.00935441  0.66782693  1
  Bi2+  Bi122  1  0.83595368  0.27535034  0.22386532  1
  Bi2+  Bi123  1  0.87576722  0.20191463  0.69176876  1
  Bi2+  Bi124  1  0.94556481  0.44836626  0.21078504  1
  Bi2+  Bi125  1  0.86573078  0.56046376  0.74875082  1
  Bi2+  Bi126  1  0.98576102  0.72358639  0.20929119  1
  Bi2+  Bi127  1  0.87515911  0.72395902  0.68441626  1
  S2-  S128  1  0.13395658  0.13081773  0.14194042  1
  S2-  S129  1  0.10509680  0.10729340  0.65009086  1
  S2-  S130  1  0.04449731  0.34126604  0.16228924  1
  S2-  S131  1  0.01839081  0.39240370  0.66034570  1
  S2-  S132  1  0.01268651  0.58208305  0.14975679  1
  S2-  S133  1  0.00680396  0.62409100  0.64447288  1
  S2-  S134  1  -0.01700016  0.98283070  0.14275559  1
  S2-  S135  1  0.09327535  0.85470129  0.63858583  1
  S2-  S136  1  0.35303223  0.14555600  0.13249423  1
  S2-  S137  1  0.32841742  0.08576513  0.66452258  1
  S2-  S138  1  0.29028619  0.38087471  0.14454490  1
  S2-  S139  1  0.23268724  0.27967775  0.65525544  1
  S2-  S140  1  0.33316940  0.63457565  0.14207873  1
  S2-  S141  1  0.23402716  0.50818429  0.64155246  1
  S2-  S142  1  0.35266761  0.89881273  0.13833664  1
  S2-  S143  1  0.30089950  0.86051778  0.66942729  1
  S2-  S144  1  0.59248087  0.14387568  0.14145347  1
  S2-  S145  1  0.48692283  0.18062020  0.70876016  1
  S2-  S146  1  0.51065814  0.38129230  0.15727839  1
  S2-  S147  1  0.42821790  0.38945766  0.66245193  1
  S2-  S148  1  0.54494447  0.61580312  0.16828253  1
  S2-  S149  1  0.50825989  0.73295579  0.64055774  1
  S2-  S150  1  0.59088405  0.87471508  0.14878932  1
  S2-  S151  1  0.51352888  0.94952411  0.65243014  1
  S2-  S152  1  0.75305699  0.02302116  0.14857257  1
  S2-  S153  1  0.65198723  0.12374994  0.64618840  1
  S2-  S154  1  0.73069350  0.35580017  0.15336201  1
  S2-  S155  1  0.64840263  0.38262969  0.63742020  1
  S2-  S156  1  0.76839770  0.58950165  0.16751412  1
  S2-  S157  1  0.74468711  0.63318959  0.64612820  1
  S2-  S158  1  0.82620018  0.81802248  0.16204526  1
  S2-  S159  1  0.74539344  0.88961300  0.63979333  1
  S2-  S160  1  0.19527003  0.03634214  0.36226911  1
  S2-  S161  1  0.10743599  0.09946926  0.85064801  1
  S2-  S162  1  0.13204384  0.32509976  0.35840505  1
  S2-  S163  1  0.16401156  0.27916730  0.79526318  1
  S2-  S164  1  0.26256119  0.49538976  0.35525948  1
  S2-  S165  1  0.07665700  0.43086249  0.85428108  1
  S2-  S166  1  0.25790044  0.77003863  0.36232001  1
  S2-  S167  1  0.10583184  0.88394648  0.85709428  1
  S2-  S168  1  0.40757700  -0.01565441  0.35061135  1
  S2-  S169  1  0.35257841  0.03191239  0.82084604  1
  S2-  S170  1  0.37454737  0.24012492  0.36293417  1
  S2-  S171  1  0.36796585  0.22030117  0.82376722  1
  S2-  S172  1  0.48719652  0.48188493  0.35266649  1
  S2-  S173  1  0.36321635  0.41237579  0.85326218  1
  S2-  S174  1  0.47371761  0.72991370  0.35152582  1
  S2-  S175  1  0.36067216  0.84416824  0.85426166  1
  S2-  S176  1  0.61874379  -0.08527268  0.34506172  1
  S2-  S177  1  0.58153125  -0.02045660  0.83732975  1
  S2-  S178  1  0.62624458  0.12501730  0.36193724  1
  S2-  S179  1  0.62211977  0.24751897  0.83483940  1
  S2-  S180  1  0.66518204  0.58342410  0.33542816  1
  S2-  S181  1  0.62038245  0.50170022  0.85138409  1
  S2-  S182  1  0.61399812  0.75309481  0.27141900  1
  S2-  S183  1  0.61252266  0.75135469  0.85071401  1
  S2-  S184  1  0.85192708  -0.00689427  0.33249820  1
  S2-  S185  1  0.85376771  0.00924748  0.84557575  1
  S2-  S186  1  0.91094228  0.21376133  0.35385167  1
  S2-  S187  1  0.92688419  0.25148623  0.85842200  1
  S2-  S188  1  0.89939605  0.58737275  0.35157805  1
  S2-  S189  1  0.84645733  0.50185408  0.85062222  1
  S2-  S190  1  0.81179367  0.76532738  0.33113871  1
  S2-  S191  1  0.84716348  0.75568999  0.84601836  1
  S2-  S192  1  0.00233502  0.11812090  0.46197647  1
  S2-  S193  1  -0.01802658  0.12306323  0.95982844  1
  S2-  S194  1  -0.00036177  0.36560104  0.45525866  1
  S2-  S195  1  -0.02013347  0.37920973  0.96219001  1
  S2-  S196  1  0.01178115  0.61288001  0.44638414  1
  S2-  S197  1  -0.02078404  0.62691254  0.95117232  1
  S2-  S198  1  0.00461943  0.86663309  0.44426881  1
  S2-  S199  1  -0.02322227  0.87796279  0.95739747  1
  S2-  S200  1  0.24996460  0.12010737  0.47351998  1
  S2-  S201  1  0.23245959  0.13082578  0.94540516  1
  S2-  S202  1  0.25422874  0.36224584  0.46598973  1
  S2-  S203  1  0.22254056  0.37779185  0.94649573  1
  S2-  S204  1  0.25151755  0.61537530  0.45693419  1
  S2-  S205  1  0.22683980  0.62624155  0.95869775  1
  S2-  S206  1  0.24720535  0.87246159  0.46562023  1
  S2-  S207  1  0.23178494  0.87387181  0.95563986  1
  S2-  S208  1  0.49843626  0.11581723  0.46064164  1
  S2-  S209  1  0.47865413  0.12807755  0.94573156  1
  S2-  S210  1  0.50453466  0.36160747  0.46028095  1
  S2-  S211  1  0.48049949  0.38240259  0.95483397  1
  S2-  S212  1  0.49952720  0.61673047  0.45567190  1
  S2-  S213  1  0.47984863  0.62306551  0.95982498  1
  S2-  S214  1  0.49699726  0.87366647  0.45977694  1
  S2-  S215  1  0.48320915  0.87297362  0.95712998  1
  S2-  S216  1  0.75623985  0.11423813  0.45731985  1
  S2-  S217  1  0.73051480  0.12783185  0.95431389  1
  S2-  S218  1  0.75261543  0.36505234  0.44870027  1
  S2-  S219  1  0.73186353  0.37788049  0.95203500  1
  S2-  S220  1  0.75485501  0.62296722  0.44417426  1
  S2-  S221  1  0.73202954  0.62314497  0.96243478  1
  S2-  S222  1  0.75869847  0.86710633  0.43969329  1
  S2-  S223  1  0.73102867  0.87699059  0.95435510  1
  S2-  S224  1  0.11114661  -0.00171198  0.03918675  1
  S2-  S225  1  0.12320696  -0.00445460  0.54859463  1
  S2-  S226  1  0.10464976  0.25266131  0.04526644  1
  S2-  S227  1  0.12077429  0.24646016  0.54934245  1
  S2-  S228  1  0.10701346  0.50333651  0.04706931  1
  S2-  S229  1  0.12287387  0.49147690  0.53708454  1
  S2-  S230  1  0.10566061  0.75298542  0.04125944  1
  S2-  S231  1  0.12605943  0.73810758  0.53987902  1
  S2-  S232  1  0.35709356  0.00376113  0.03164457  1
  S2-  S233  1  0.37168913  -0.00910888  0.55573677  1
  S2-  S234  1  0.35574583  0.25924746  0.03114143  1
  S2-  S235  1  0.37973342  0.24078992  0.56444294  1
  S2-  S236  1  0.35299323  0.50331098  0.04016755  1
  S2-  S237  1  0.37947734  0.49271098  0.54683407  1
  S2-  S238  1  0.35793033  0.75147264  0.04160210  1
  S2-  S239  1  0.36791375  0.74271857  0.54775764  1
  S2-  S240  1  0.60628930  0.00124682  0.04191208  1
  S2-  S241  1  0.62684162  -0.01257997  0.54023751  1
  S2-  S242  1  0.60134771  0.26170991  0.04086003  1
  S2-  S243  1  0.62800645  0.23920884  0.54268136  1
  S2-  S244  1  0.60330899  0.50125503  0.05240653  1
  S2-  S245  1  0.62897168  0.50028086  0.53582649  1
  S2-  S246  1  0.60545499  0.74620437  0.05363253  1
  S2-  S247  1  0.63112379  0.74589460  0.54095200  1
  S2-  S248  1  0.85402319  0.00205945  0.04547043  1
  S2-  S249  1  0.87899468  -0.00887647  0.53826086  1
  S2-  S250  1  0.85561371  0.24903292  0.05593674  1
  S2-  S251  1  0.87079477  0.24273066  0.55264424  1
  S2-  S252  1  0.85622009  0.50055461  0.05258367  1
  S2-  S253  1  0.87335424  0.49600828  0.54195176  1
  S2-  S254  1  0.85357236  0.75218923  0.04964851  1
  S2-  S255  1  0.87902233  0.74309188  0.53078489  1
