# generated using pymatgen
data_La6Ce7Pr13Nd19Sm19(BiS2)64
_symmetry_space_group_name_H-M   'P 1'
_cell_length_a   16.07938708
_cell_length_b   16.04469547
_cell_length_c   27.26634583
_cell_angle_alpha   89.91006294
_cell_angle_beta   89.99412365
_cell_angle_gamma   90.05284111
_symmetry_Int_Tables_number   1
_chemical_formula_structural   La6Ce7Pr13Nd19Sm19(BiS2)64
_chemical_formula_sum   'La6 Ce7 Pr13 Nd19 Sm19 Bi64 S128'
_cell_volume   7034.40202880
_cell_formula_units_Z   1
loop_
 _symmetry_equiv_pos_site_id
 _symmetry_equiv_pos_as_xyz
  1  'x, y, z'
loop_
 _atom_type_symbol
 _atom_type_oxidation_number
  La3+  3.0
  Ce3+  3.0
  Pr3+  3.0
  Nd3+  3.0
  Sm3+  3.0
  Bi2+  2.0
  S2-  -2.0
loop_
 _atom_site_type_symbol
 _atom_site_label
 _atom_site_symmetry_multiplicity
 _atom_site_fract_x
 _atom_site_fract_y
 _atom_site_fract_z
 _atom_site_occupancy
  La3+  La0  1  0.24217586  0.87640918  0.60717475  1
  La3+  La1  1  0.75254245  0.36776613  0.07360608  1
  La3+  La2  1  -0.00869375  0.87233391  0.57332119  1
  La3+  La3  1  0.63847981  0.48388892  0.92078814  1
  La3+  La4  1  0.86189382  0.51017166  0.38013373  1
  La3+  La5  1  0.76132580  0.84982031  0.11510569  1
  Ce3+  Ce6  1  0.11477536  0.50544634  0.42913446  1
  Ce3+  Ce7  1  0.24197920  0.62409447  0.56508590  1
  Ce3+  Ce8  1  0.24565658  0.12270366  0.55907724  1
  Ce3+  Ce9  1  0.87967313  0.74782063  0.93803039  1
  Ce3+  Ce10  1  0.50571053  0.86540728  0.07003527  1
  Ce3+  Ce11  1  0.12804484  0.24786954  0.93944950  1
  Ce3+  Ce12  1  0.00397008  0.11434826  0.05238118  1
  Pr3+  Pr13  1  0.12722537  0.49185264  0.93640896  1
  Pr3+  Pr14  1  0.62529722  -0.00744928  0.94188410  1
  Pr3+  Pr15  1  0.61146532  0.50118860  0.43308312  1
  Pr3+  Pr16  1  0.12684933  0.73807544  0.92067824  1
  Pr3+  Pr17  1  0.50753564  0.61818656  0.05839778  1
  Pr3+  Pr18  1  0.25226365  0.86436409  0.05755588  1
  Pr3+  Pr19  1  0.36941753  0.00993049  0.42614244  1
  Pr3+  Pr20  1  0.36999867  0.25620432  0.43654679  1
  Pr3+  Pr21  1  0.74584161  0.87975126  0.56574261  1
  Pr3+  Pr22  1  0.11621022  0.00280028  0.44062676  1
  Pr3+  Pr23  1  0.86868271  0.75659037  0.42755821  1
  Pr3+  Pr24  1  0.62094258  0.00725808  0.42973006  1
  Pr3+  Pr25  1  0.00275789  0.36477862  0.07498114  1
  Nd3+  Nd26  1  0.87955586  0.24564729  0.93969921  1
  Nd3+  Nd27  1  0.11899025  0.75660366  0.44061536  1
  Nd3+  Nd28  1  0.63128491  0.74468992  0.94446216  1
  Nd3+  Nd29  1  0.87794147  0.00126689  0.92845817  1
  Nd3+  Nd30  1  0.00629225  0.87188797  0.05698612  1
  Nd3+  Nd31  1  -0.00519812  0.12428326  0.55870814  1
  Nd3+  Nd32  1  0.25183597  0.37024384  0.05830418  1
  Nd3+  Nd33  1  0.75205664  0.61498115  0.06317713  1
  Nd3+  Nd34  1  0.37788367  0.24242424  0.93695673  1
  Nd3+  Nd35  1  0.74958000  0.10766328  0.06471656  1
  Nd3+  Nd36  1  0.49452152  0.62981056  0.56778876  1
  Nd3+  Nd37  1  0.25285363  0.11697730  0.06696865  1
  Nd3+  Nd38  1  0.49666793  0.11938326  0.07131462  1
  Nd3+  Nd39  1  0.49473291  0.88263347  0.57448962  1
  Nd3+  Nd40  1  0.39011261  0.74620283  0.92612455  1
  Nd3+  Nd41  1  0.74587745  0.38213943  0.56168475  1
  Nd3+  Nd42  1  0.61536283  0.75260902  0.43757235  1
  Nd3+  Nd43  1  0.13242039  0.00289566  0.92226115  1
  Nd3+  Nd44  1  0.49025625  0.12785493  0.56151141  1
  Sm3+  Sm45  1  0.36812968  0.50901928  0.43897887  1
  Sm3+  Sm46  1  0.50408131  0.36958533  0.05266635  1
  Sm3+  Sm47  1  0.36645443  0.75906900  0.44900147  1
  Sm3+  Sm48  1  0.49272500  0.38497046  0.57067456  1
  Sm3+  Sm49  1  0.86855107  0.26436154  0.44366743  1
  Sm3+  Sm50  1  0.37912006  -0.00626025  0.94784745  1
  Sm3+  Sm51  1  -0.00563593  0.63010564  0.54962609  1
  Sm3+  Sm52  1  0.00255204  0.62333509  0.05593184  1
  Sm3+  Sm53  1  0.61776775  0.26093975  0.45291057  1
  Sm3+  Sm54  1  0.62918865  0.24149181  0.94577599  1
  Sm3+  Sm55  1  0.74570184  0.62834030  0.55071337  1
  Sm3+  Sm56  1  0.24285099  0.38222532  0.55676614  1
  Sm3+  Sm57  1  0.25285075  0.61972504  0.05059709  1
  Sm3+  Sm58  1  0.38075096  0.49592198  0.94262450  1
  Sm3+  Sm59  1  0.88042353  0.49158460  0.94286460  1
  Sm3+  Sm60  1  0.74380034  0.12734111  0.55429620  1
  Sm3+  Sm61  1  0.11695765  0.25668690  0.44648708  1
  Sm3+  Sm62  1  0.86747067  0.00255016  0.43132262  1
  Sm3+  Sm63  1  -0.00637965  0.38094934  0.55866144  1
  Bi2+  Bi64  1  -0.03703940  0.09743737  0.30005859  1
  Bi2+  Bi65  1  0.00580653  0.19950873  0.79880410  1
  Bi2+  Bi66  1  0.00196268  0.35239609  0.28988164  1
  Bi2+  Bi67  1  -0.00747668  0.37615149  0.85070044  1
  Bi2+  Bi68  1  0.09997026  0.58395989  0.24092820  1
  Bi2+  Bi69  1  -0.01208331  0.56812659  0.79139213  1
  Bi2+  Bi70  1  0.04469782  0.89952908  0.29135969  1
  Bi2+  Bi71  1  -0.01968221  0.84926913  0.79772610  1
  Bi2+  Bi72  1  0.22812358  0.17571378  0.28559163  1
  Bi2+  Bi73  1  0.27454294  0.14058317  0.78288462  1
  Bi2+  Bi74  1  0.26002835  0.37377008  0.29637753  1
  Bi2+  Bi75  1  0.18384422  0.37937491  0.81841405  1
  Bi2+  Bi76  1  0.24120449  0.56520378  0.31910400  1
  Bi2+  Bi77  1  0.24223569  0.56141863  0.77773389  1
  Bi2+  Bi78  1  0.28573635  0.78542139  0.30122401  1
  Bi2+  Bi79  1  0.25475243  0.89971297  0.81793330  1
  Bi2+  Bi80  1  0.52062551  0.16983087  0.30930422  1
  Bi2+  Bi81  1  0.57860418  0.16668687  0.80265528  1
  Bi2+  Bi82  1  0.45620046  0.35769180  0.30091139  1
  Bi2+  Bi83  1  0.37577999  0.33998821  0.78968209  1
  Bi2+  Bi84  1  0.45356532  0.61017502  0.28226916  1
  Bi2+  Bi85  1  0.47000776  0.64559139  0.79996538  1
  Bi2+  Bi86  1  0.51824252  0.97421441  0.30854949  1
  Bi2+  Bi87  1  0.52558889  0.91157437  0.79347625  1
  Bi2+  Bi88  1  0.74093715  0.15321941  0.28271327  1
  Bi2+  Bi89  1  0.74729785  0.14639012  0.74289276  1
  Bi2+  Bi90  1  0.72480701  0.37048910  0.28726693  1
  Bi2+  Bi91  1  0.79542373  0.33235508  0.81393422  1
  Bi2+  Bi92  1  0.72790682  0.63437069  0.27901259  1
  Bi2+  Bi93  1  0.72547062  0.60415293  0.78963803  1
  Bi2+  Bi94  1  0.74359342  0.86856164  0.32073196  1
  Bi2+  Bi95  1  0.76876929  0.86017434  0.76725071  1
  Bi2+  Bi96  1  0.17491256  0.02227374  0.19136580  1
  Bi2+  Bi97  1  0.11951394  0.01985889  0.71671452  1
  Bi2+  Bi98  1  0.09878053  0.20404468  0.19496023  1
  Bi2+  Bi99  1  0.21350864  0.29167168  0.71567162  1
  Bi2+  Bi100  1  0.10284459  0.40524478  0.19307288  1
  Bi2+  Bi101  1  0.10533020  0.47903519  0.71062859  1
  Bi2+  Bi102  1  0.18245193  0.76881361  0.20848424  1
  Bi2+  Bi103  1  0.12187868  0.74414743  0.71615278  1
  Bi2+  Bi104  1  0.35902083  0.00788784  0.22915533  1
  Bi2+  Bi105  1  0.39988550  0.08836429  0.70464675  1
  Bi2+  Bi106  1  0.36278494  0.25967003  0.21372131  1
  Bi2+  Bi107  1  0.41644745  0.27527979  0.67502364  1
  Bi2+  Bi108  1  0.31892080  0.52987142  0.21197697  1
  Bi2+  Bi109  1  0.37175435  0.47806694  0.70511923  1
  Bi2+  Bi110  1  0.36223619  0.83746302  0.17543775  1
  Bi2+  Bi111  1  0.38338986  0.76112484  0.71084171  1
  Bi2+  Bi112  1  0.63602383  0.00878047  0.21776378  1
  Bi2+  Bi113  1  0.63887770  -0.06381032  0.69799373  1
  Bi2+  Bi114  1  0.63062779  0.26697075  0.21067499  1
  Bi2+  Bi115  1  0.60764062  0.28186179  0.71146335  1
  Bi2+  Bi116  1  0.56956935  0.49176382  0.20440640  1
  Bi2+  Bi117  1  0.61224851  0.47610002  0.72861041  1
  Bi2+  Bi118  1  0.51672253  0.77188860  0.22823237  1
  Bi2+  Bi119  1  0.63646060  0.73814046  0.71801383  1
  Bi2+  Bi120  1  0.90266610  -0.00815678  0.21385521  1
  Bi2+  Bi121  1  0.88660665  0.00841234  0.70356644  1
  Bi2+  Bi122  1  0.89465898  0.22349056  0.22092862  1
  Bi2+  Bi123  1  0.89457547  0.28243882  0.71765583  1
  Bi2+  Bi124  1  0.87283807  0.52240563  0.17575583  1
  Bi2+  Bi125  1  0.84173918  0.48167392  0.72528236  1
  Bi2+  Bi126  1  0.90650961  0.74108833  0.21918451  1
  Bi2+  Bi127  1  0.87882475  0.67938202  0.71061855  1
  S2-  S128  1  0.01765650  0.06428979  0.14545603  1
  S2-  S129  1  0.00898325  0.10721994  0.65854649  1
  S2-  S130  1  -0.12233853  0.35610286  0.14861158  1
  S2-  S131  1  0.00547326  0.37076457  0.65674883  1
  S2-  S132  1  0.00879145  0.63213642  0.15513104  1
  S2-  S133  1  0.00477602  0.68215799  0.64427128  1
  S2-  S134  1  -0.06902505  0.85364857  0.14911748  1
  S2-  S135  1  0.08589853  0.88679743  0.66062867  1
  S2-  S136  1  0.36446884  0.13001384  0.14572689  1
  S2-  S137  1  0.24633421  0.05328019  0.64931766  1
  S2-  S138  1  0.27014714  0.37793227  0.15658631  1
  S2-  S139  1  0.23503884  0.48561560  0.63579690  1
  S2-  S140  1  0.25227731  0.63872457  0.14786657  1
  S2-  S141  1  0.24741456  0.70694839  0.65263321  1
  S2-  S142  1  0.13703690  0.87630729  0.13297874  1
  S2-  S143  1  0.24508426  0.86666027  0.72539334  1
  S2-  S144  1  0.58819509  0.12565275  0.15683143  1
  S2-  S145  1  0.53022902  0.04025690  0.64477530  1
  S2-  S146  1  0.51012243  0.36248368  0.15084090  1
  S2-  S147  1  0.50289746  0.50767768  0.64321961  1
  S2-  S148  1  0.51609674  0.63349379  0.15900370  1
  S2-  S149  1  0.51362908  0.74000279  0.64523050  1
  S2-  S150  1  0.59425493  0.86638296  0.15566158  1
  S2-  S151  1  0.39383567  0.89317594  0.65626981  1
  S2-  S152  1  0.77193886  0.01941552  0.14941595  1
  S2-  S153  1  0.76034651  0.08310282  0.64789221  1
  S2-  S154  1  0.71081629  0.49326796  0.14157599  1
  S2-  S155  1  0.72501041  0.39355189  0.65997451  1
  S2-  S156  1  0.78182537  0.68641395  0.15463348  1
  S2-  S157  1  0.74534379  0.66273791  0.64775365  1
  S2-  S158  1  0.77634466  0.84684462  0.22920588  1
  S2-  S159  1  0.86059928  0.88097282  0.64341937  1
  S2-  S160  1  0.11324394  0.02810474  0.33983230  1
  S2-  S161  1  0.09318851  -0.02389653  0.82145485  1
  S2-  S162  1  0.11489853  0.27108531  0.34853001  1
  S2-  S163  1  0.15524115  0.15798805  0.85734103  1
  S2-  S164  1  0.02682160  0.49871158  0.34381425  1
  S2-  S165  1  0.12727465  0.59273501  0.85364431  1
  S2-  S166  1  0.11492098  0.76895264  0.33977198  1
  S2-  S167  1  0.13363269  0.78150932  0.82132901  1
  S2-  S168  1  0.34683388  -0.05703700  0.33031500  1
  S2-  S169  1  0.41101889  -0.02971237  0.85183262  1
  S2-  S170  1  0.36131851  0.15308217  0.35494783  1
  S2-  S171  1  0.41245377  0.19577734  0.84318257  1
  S2-  S172  1  0.47679918  0.50044830  0.36258349  1
  S2-  S173  1  0.37284746  0.52888184  0.84638842  1
  S2-  S174  1  0.41245036  0.72987272  0.35487745  1
  S2-  S175  1  0.34049844  0.74909539  0.82967252  1
  S2-  S176  1  0.74677309  0.02971373  0.35732490  1
  S2-  S177  1  0.63383269  0.02022703  0.84151362  1
  S2-  S178  1  0.60356645  0.31010463  0.35976482  1
  S2-  S179  1  0.64062462  0.31377130  0.85731623  1
  S2-  S180  1  0.69496071  0.51426283  0.34460708  1
  S2-  S181  1  0.57771673  0.52224734  0.82625261  1
  S2-  S182  1  0.63272716  0.74299585  0.33734016  1
  S2-  S183  1  0.54566634  0.76901398  0.85795560  1
  S2-  S184  1  0.90570129  -0.11364613  0.35759008  1
  S2-  S185  1  0.86177082  -0.05539757  0.83348100  1
  S2-  S186  1  0.85962533  0.33181625  0.35323091  1
  S2-  S187  1  0.87794305  0.15065201  0.85425708  1
  S2-  S188  1  0.84192213  0.49874273  0.26759522  1
  S2-  S189  1  0.78541200  0.49095570  0.86028633  1
  S2-  S190  1  0.85639600  0.67420859  0.33371532  1
  S2-  S191  1  0.91510478  0.70801074  0.84492888  1
  S2-  S192  1  -0.01095664  0.13410986  0.45173162  1
  S2-  S193  1  0.00750336  0.11958624  0.94977317  1
  S2-  S194  1  -0.00544965  0.38019913  0.45512894  1
  S2-  S195  1  0.00281596  0.36845473  0.96770412  1
  S2-  S196  1  -0.00842290  0.63007604  0.44556100  1
  S2-  S197  1  0.00041568  0.61617213  0.95300944  1
  S2-  S198  1  -0.00514661  0.87929256  0.46174783  1
  S2-  S199  1  0.00849485  0.87342653  0.94521913  1
  S2-  S200  1  0.24003983  0.13181102  0.45367502  1
  S2-  S201  1  0.25844333  0.11862572  0.95971372  1
  S2-  S202  1  0.24388631  0.38083557  0.45183731  1
  S2-  S203  1  0.25724409  0.37114051  0.95240609  1
  S2-  S204  1  0.24430639  0.62948330  0.45493710  1
  S2-  S205  1  0.26005177  0.62118150  0.94847634  1
  S2-  S206  1  0.24460074  0.88065251  0.44364561  1
  S2-  S207  1  0.25501581  0.86788188  0.94744360  1
  S2-  S208  1  0.49857850  0.13232208  0.45597713  1
  S2-  S209  1  0.50168657  0.12028645  0.96003941  1
  S2-  S210  1  0.48869565  0.37851961  0.46642496  1
  S2-  S211  1  0.50115124  0.36821621  0.94834912  1
  S2-  S212  1  0.49086548  0.63206475  0.46129877  1
  S2-  S213  1  0.50707241  0.61515958  0.95167454  1
  S2-  S214  1  0.49426933  0.88088051  0.45206531  1
  S2-  S215  1  0.50154421  0.86982268  0.96306700  1
  S2-  S216  1  0.74453286  0.14175158  0.45272516  1
  S2-  S217  1  0.75049345  0.12023419  0.95687511  1
  S2-  S218  1  0.74444357  0.38373796  0.45741420  1
  S2-  S219  1  0.75708795  0.36316789  0.96441341  1
  S2-  S220  1  0.74351324  0.62800836  0.44837054  1
  S2-  S221  1  0.75584492  0.62092212  0.95511732  1
  S2-  S222  1  0.74230053  0.88033488  0.45576856  1
  S2-  S223  1  0.75220601  0.86986380  0.94038843  1
  S2-  S224  1  0.13352297  -0.00345168  0.03195505  1
  S2-  S225  1  0.11993987  0.00013800  0.54669332  1
  S2-  S226  1  0.12985169  0.24266282  0.04958152  1
  S2-  S227  1  0.11959537  0.25504555  0.55186687  1
  S2-  S228  1  0.12649435  0.49627246  0.04727172  1
  S2-  S229  1  0.11375040  0.50279640  0.53784441  1
  S2-  S230  1  0.12791915  0.73929086  0.03338400  1
  S2-  S231  1  0.12275658  0.75394896  0.54546744  1
  S2-  S232  1  0.37702781  -0.00986459  0.05183409  1
  S2-  S233  1  0.37068185  0.00258341  0.54006551  1
  S2-  S234  1  0.37759973  0.24793475  0.04413763  1
  S2-  S235  1  0.36643145  0.25626235  0.54498740  1
  S2-  S236  1  0.37877484  0.49430398  0.04807560  1
  S2-  S237  1  0.36990533  0.50243354  0.54204079  1
  S2-  S238  1  0.37965423  0.74026538  0.04002325  1
  S2-  S239  1  0.36581839  0.75712954  0.55037376  1
  S2-  S240  1  0.62160771  -0.00602683  0.04777825  1
  S2-  S241  1  0.62276005  0.00412088  0.53750351  1
  S2-  S242  1  0.62693471  0.24290099  0.04973454  1
  S2-  S243  1  0.61879874  0.25464914  0.55772645  1
  S2-  S244  1  0.62588214  0.49063443  0.03414701  1
  S2-  S245  1  0.62104334  0.50352881  0.54304502  1
  S2-  S246  1  0.63488601  0.74544093  0.04980536  1
  S2-  S247  1  0.62235990  0.75580447  0.54336376  1
  S2-  S248  1  0.87936325  -0.00849961  0.03686418  1
  S2-  S249  1  0.86761187  0.00677152  0.53710435  1
  S2-  S250  1  0.87661114  0.23538930  0.04790559  1
  S2-  S251  1  0.86953578  0.25315218  0.55128056  1
  S2-  S252  1  0.88342668  0.49469213  0.04668551  1
  S2-  S253  1  0.87183176  0.50625202  0.55836243  1
  S2-  S254  1  0.87907429  0.74544520  0.04319314  1
  S2-  S255  1  0.86662558  0.75041510  0.53750663  1
