# generated using pymatgen
data_La6Ce7Pr13Nd19Sm19(BiS2)64
_symmetry_space_group_name_H-M   'P 1'
_cell_length_a   16.12610206
_cell_length_b   16.11250502
_cell_length_c   27.18992971
_cell_angle_alpha   90.05846562
_cell_angle_beta   89.86903729
_cell_angle_gamma   89.94099508
_symmetry_Int_Tables_number   1
_chemical_formula_structural   La6Ce7Pr13Nd19Sm19(BiS2)64
_chemical_formula_sum   'La6 Ce7 Pr13 Nd19 Sm19 Bi64 S128'
_cell_volume   7064.78521171
_cell_formula_units_Z   1
loop_
 _symmetry_equiv_pos_site_id
 _symmetry_equiv_pos_as_xyz
  1  'x, y, z'
loop_
 _atom_type_symbol
 _atom_type_oxidation_number
  La3+  3.0
  Ce3+  3.0
  Pr3+  3.0
  Nd3+  3.0
  Sm3+  3.0
  Bi2+  2.0
  S2-  -2.0
loop_
 _atom_site_type_symbol
 _atom_site_label
 _atom_site_symmetry_multiplicity
 _atom_site_fract_x
 _atom_site_fract_y
 _atom_site_fract_z
 _atom_site_occupancy
  La3+  La0  1  0.13611727  0.74616262  0.42644231  1
  La3+  La1  1  0.88718072  0.74633908  0.43072163  1
  La3+  La2  1  0.51238447  0.88285404  0.57767513  1
  La3+  La3  1  0.74667905  0.12002290  0.10703404  1
  La3+  La4  1  0.75132793  0.62316351  0.59862558  1
  La3+  La5  1  0.12577851  0.49203729  0.89178370  1
  Ce3+  Ce6  1  0.62971470  -0.00056852  0.43972526  1
  Ce3+  Ce7  1  0.49654057  0.36601408  0.06076993  1
  Ce3+  Ce8  1  0.25377017  0.37290810  0.55670211  1
  Ce3+  Ce9  1  0.74293517  0.87559818  0.05659437  1
  Ce3+  Ce10  1  0.75770021  0.12811354  0.56080000  1
  Ce3+  Ce11  1  0.63002834  0.74889572  0.44247654  1
  Ce3+  Ce12  1  0.12821058  0.24895769  0.43750201  1
  Pr3+  Pr13  1  0.50658305  0.62565593  0.56290091  1
  Pr3+  Pr14  1  0.01098298  0.62881730  0.58117810  1
  Pr3+  Pr15  1  0.49511652  0.62055404  0.06964144  1
  Pr3+  Pr16  1  0.74016975  0.62205124  0.07076215  1
  Pr3+  Pr17  1  0.00346982  0.87213408  0.56717691  1
  Pr3+  Pr18  1  0.61818594  0.00366079  0.93088248  1
  Pr3+  Pr19  1  0.12831109  0.49887356  0.43706622  1
  Pr3+  Pr20  1  0.24555043  0.11821730  0.06882682  1
  Pr3+  Pr21  1  -0.00354970  0.37153928  0.05194522  1
  Pr3+  Pr22  1  0.36975645  0.24516087  0.94454383  1
  Pr3+  Pr23  1  0.11895266  0.73975771  0.94147639  1
  Pr3+  Pr24  1  0.11771362  0.24020784  0.92516731  1
  Pr3+  Pr25  1  0.75376226  0.37314257  0.56490130  1
  Nd3+  Nd26  1  0.61972379  0.74942200  0.93208670  1
  Nd3+  Nd27  1  0.25402996  0.12613539  0.55958870  1
  Nd3+  Nd28  1  0.87721752  0.50106647  0.44934676  1
  Nd3+  Nd29  1  0.24092710  0.37254996  0.05537077  1
  Nd3+  Nd30  1  0.87910455  -0.00037505  0.43722389  1
  Nd3+  Nd31  1  -0.00159136  0.12089785  0.06213863  1
  Nd3+  Nd32  1  0.37757359  0.23923374  0.43025124  1
  Nd3+  Nd33  1  0.86945651  0.74296960  0.94273250  1
  Nd3+  Nd34  1  0.11959668  -0.00360399  0.93467238  1
  Nd3+  Nd35  1  0.50705079  0.37509189  0.55292487  1
  Nd3+  Nd36  1  0.37948137  -0.00215776  0.44198132  1
  Nd3+  Nd37  1  0.87221387  0.24675607  0.94223985  1
  Nd3+  Nd38  1  0.74605690  0.36694908  0.06203152  1
  Nd3+  Nd39  1  0.62331635  0.25086710  0.42411960  1
  Nd3+  Nd40  1  0.00430902  0.12452121  0.55638039  1
  Nd3+  Nd41  1  0.49317573  0.10949167  0.07715043  1
  Nd3+  Nd42  1  0.63144873  0.50459335  0.43398986  1
  Nd3+  Nd43  1  0.50777364  0.12804485  0.56268804  1
  Nd3+  Nd44  1  0.37978375  0.49769666  0.44427503  1
  Sm3+  Sm45  1  0.62194646  0.24107376  0.94612962  1
  Sm3+  Sm46  1  0.37155638  0.49534296  0.94181303  1
  Sm3+  Sm47  1  0.86748503  0.49863829  0.94201791  1
  Sm3+  Sm48  1  0.37893145  0.74900969  0.44633599  1
  Sm3+  Sm49  1  0.62101487  0.49702437  0.94586833  1
  Sm3+  Sm50  1  0.37127942  0.74296371  0.94443179  1
  Sm3+  Sm51  1  0.12690548  -0.00159338  0.44671396  1
  Sm3+  Sm52  1  -0.00631127  0.87122869  0.05544167  1
  Sm3+  Sm53  1  0.24369070  0.62011793  0.05811313  1
  Sm3+  Sm54  1  0.37066703  -0.00421127  0.94502590  1
  Sm3+  Sm55  1  0.75617865  0.87325039  0.55589437  1
  Sm3+  Sm56  1  0.87632817  0.25001831  0.43824132  1
  Sm3+  Sm57  1  0.00506278  0.37747676  0.55560864  1
  Sm3+  Sm58  1  -0.00754110  0.62026030  0.06479754  1
  Sm3+  Sm59  1  0.25450777  0.62658185  0.56121819  1
  Sm3+  Sm60  1  0.49658695  0.87109999  0.05473762  1
  Sm3+  Sm61  1  0.24206936  0.86787786  0.05253052  1
  Sm3+  Sm62  1  0.25466193  0.87365159  0.56255664  1
  Sm3+  Sm63  1  0.86867135  -0.00334135  0.94289757  1
  Bi2+  Bi64  1  0.02965736  0.17601624  0.25900745  1
  Bi2+  Bi65  1  -0.00112205  0.09173212  0.78970693  1
  Bi2+  Bi66  1  0.04532211  0.39529042  0.28575390  1
  Bi2+  Bi67  1  -0.00963089  0.34031685  0.78486753  1
  Bi2+  Bi68  1  -0.01791841  0.65381738  0.29965835  1
  Bi2+  Bi69  1  -0.01967337  0.62852789  0.78982211  1
  Bi2+  Bi70  1  0.02707341  0.91738267  0.28767615  1
  Bi2+  Bi71  1  0.03137745  0.88959985  0.79472625  1
  Bi2+  Bi72  1  0.24309247  0.12967078  0.28955841  1
  Bi2+  Bi73  1  0.20856948  0.10345925  0.76021322  1
  Bi2+  Bi74  1  0.23113446  0.35052319  0.30787144  1
  Bi2+  Bi75  1  0.28454137  0.36145350  0.78579900  1
  Bi2+  Bi76  1  0.25307227  0.62342353  0.29299930  1
  Bi2+  Bi77  1  0.26126403  0.63583114  0.79173950  1
  Bi2+  Bi78  1  0.27565995  0.88274549  0.29542634  1
  Bi2+  Bi79  1  0.22413561  0.90626300  0.77013265  1
  Bi2+  Bi80  1  0.51103458  0.13124146  0.30512667  1
  Bi2+  Bi81  1  0.46119540  0.14142700  0.79530934  1
  Bi2+  Bi82  1  0.42111347  0.39523318  0.28004606  1
  Bi2+  Bi83  1  0.48569928  0.41936480  0.79960370  1
  Bi2+  Bi84  1  0.47885876  0.65582363  0.29684700  1
  Bi2+  Bi85  1  0.49400678  0.61946105  0.79770268  1
  Bi2+  Bi86  1  0.46924089  0.85766252  0.27829018  1
  Bi2+  Bi87  1  0.46608841  0.88361714  0.79586454  1
  Bi2+  Bi88  1  0.76457151  0.10724851  0.30898918  1
  Bi2+  Bi89  1  0.72719856  0.16977606  0.79590151  1
  Bi2+  Bi90  1  0.84719760  0.38567791  0.29267490  1
  Bi2+  Bi91  1  0.69972617  0.36432748  0.78643054  1
  Bi2+  Bi92  1  0.74154312  0.61072407  0.30194298  1
  Bi2+  Bi93  1  0.76027149  0.62074944  0.80115210  1
  Bi2+  Bi94  1  0.74613448  0.86322101  0.23862462  1
  Bi2+  Bi95  1  0.75371931  0.94827476  0.78365904  1
  Bi2+  Bi96  1  0.14805064  0.03380595  0.20174376  1
  Bi2+  Bi97  1  0.02197073  -0.02169551  0.69016100  1
  Bi2+  Bi98  1  0.14056197  0.21781570  0.16909365  1
  Bi2+  Bi99  1  0.13962526  0.24994519  0.69089333  1
  Bi2+  Bi100  1  0.18281830  0.48577795  0.22317040  1
  Bi2+  Bi101  1  0.10339959  0.48699900  0.68990407  1
  Bi2+  Bi102  1  0.20047321  0.76179744  0.21725823  1
  Bi2+  Bi103  1  0.13442006  0.75791456  0.71062386  1
  Bi2+  Bi104  1  0.36270860  -0.01551018  0.20832752  1
  Bi2+  Bi105  1  0.37389249  0.00956183  0.72140956  1
  Bi2+  Bi106  1  0.33081341  0.25188917  0.21741440  1
  Bi2+  Bi107  1  0.42366026  0.27703417  0.71700202  1
  Bi2+  Bi108  1  0.43654970  0.51082537  0.18696045  1
  Bi2+  Bi109  1  0.37751690  0.52079656  0.71689023  1
  Bi2+  Bi110  1  0.39619098  0.70654053  0.19288237  1
  Bi2+  Bi111  1  0.37046200  0.71347778  0.71278051  1
  Bi2+  Bi112  1  0.60317387  -0.00477021  0.21369517  1
  Bi2+  Bi113  1  0.62870174  0.04416245  0.71546399  1
  Bi2+  Bi114  1  0.63452667  0.27740955  0.21739045  1
  Bi2+  Bi115  1  0.61548366  0.24114066  0.70176275  1
  Bi2+  Bi116  1  0.60411384  0.51371560  0.24389112  1
  Bi2+  Bi117  1  0.60460835  0.49883744  0.71506890  1
  Bi2+  Bi118  1  0.59066522  0.75944506  0.20269556  1
  Bi2+  Bi119  1  0.62370979  0.77025670  0.70997382  1
  Bi2+  Bi120  1  0.89874591  -0.01656340  0.21133604  1
  Bi2+  Bi121  1  0.81969833  -0.00237226  0.67203460  1
  Bi2+  Bi122  1  0.88934324  0.27898820  0.19726826  1
  Bi2+  Bi123  1  0.85767365  0.17931411  0.71012743  1
  Bi2+  Bi124  1  0.91926087  0.51582975  0.20832065  1
  Bi2+  Bi125  1  0.86437290  0.43298287  0.71783802  1
  Bi2+  Bi126  1  0.90115833  0.74945600  0.20347447  1
  Bi2+  Bi127  1  0.88007217  0.82372549  0.72179546  1
  S2-  S128  1  -0.08719018  0.11627077  0.14835804  1
  S2-  S129  1  0.01356575  0.14584095  0.65492717  1
  S2-  S130  1  -0.00636688  0.38253428  0.15248298  1
  S2-  S131  1  -0.00263736  0.36009161  0.65388030  1
  S2-  S132  1  0.01640019  0.63695253  0.16286509  1
  S2-  S133  1  -0.04496801  0.56245848  0.67550008  1
  S2-  S134  1  -0.00897245  0.87882070  0.15385197  1
  S2-  S135  1  0.00021995  0.76881921  0.64818981  1
  S2-  S136  1  0.36148330  0.12262357  0.14652405  1
  S2-  S137  1  0.25816523  0.14174003  0.65821283  1
  S2-  S138  1  0.24159146  0.36878167  0.15542416  1
  S2-  S139  1  0.23539682  0.37924508  0.65407087  1
  S2-  S140  1  0.23903487  0.62164110  0.15651755  1
  S2-  S141  1  0.16420807  0.62533098  0.64436012  1
  S2-  S142  1  0.23628584  0.89486963  0.14943829  1
  S2-  S143  1  0.22710191  0.87329106  0.65952028  1
  S2-  S144  1  0.59136300  0.14120950  0.15794683  1
  S2-  S145  1  0.50005329  0.03312628  0.64662899  1
  S2-  S146  1  0.51126131  0.35484917  0.15799999  1
  S2-  S147  1  0.52465618  0.37480382  0.65128252  1
  S2-  S148  1  0.61112488  0.61909747  0.14536288  1
  S2-  S149  1  0.59220508  0.63087141  0.65023378  1
  S2-  S150  1  0.49742334  0.95080152  0.14209653  1
  S2-  S151  1  0.46751964  0.82258631  0.67104559  1
  S2-  S152  1  0.75445776  0.15970609  0.21560642  1
  S2-  S153  1  0.75550835  0.24213011  0.63673979  1
  S2-  S154  1  0.74363279  0.36602346  0.16215035  1
  S2-  S155  1  0.74808230  0.46970007  0.65138971  1
  S2-  S156  1  0.81266376  0.61903925  0.16523957  1
  S2-  S157  1  0.77772217  0.69946476  0.69333295  1
  S2-  S158  1  0.74098754  0.95361464  0.14536079  1
  S2-  S159  1  0.66220226  0.86840539  0.63990796  1
  S2-  S160  1  0.14505433  -0.03767369  0.35141052  1
  S2-  S161  1  0.13630373  0.10475488  0.85811200  1
  S2-  S162  1  0.11267130  0.18468746  0.34713326  1
  S2-  S163  1  0.13550471  0.33396336  0.84107559  1
  S2-  S164  1  0.11884038  0.59927439  0.35519065  1
  S2-  S165  1  0.07777456  0.49701059  0.78732394  1
  S2-  S166  1  0.01760864  0.78250706  0.35515415  1
  S2-  S167  1  0.11458738  0.66210644  0.85239102  1
  S2-  S168  1  0.37868002  0.09184115  0.35738215  1
  S2-  S169  1  0.38861169  0.00043332  0.84750988  1
  S2-  S170  1  0.47668790  0.27424469  0.35080136  1
  S2-  S171  1  0.34461455  0.23726060  0.84522753  1
  S2-  S172  1  0.37859537  0.52685065  0.34634561  1
  S2-  S173  1  0.29148674  0.50267491  0.85385449  1
  S2-  S174  1  0.28431379  0.75207877  0.36380073  1
  S2-  S175  1  0.38226439  0.74524200  0.84637274  1
  S2-  S176  1  0.62522802  0.00894420  0.34117350  1
  S2-  S177  1  0.60716281  -0.08796774  0.84361788  1
  S2-  S178  1  0.65881188  0.22839202  0.32443985  1
  S2-  S179  1  0.59605240  0.14590342  0.86436656  1
  S2-  S180  1  0.64426877  0.46601932  0.33650928  1
  S2-  S181  1  0.67966651  0.49740605  0.85363304  1
  S2-  S182  1  0.61773992  0.70445979  0.34770136  1
  S2-  S183  1  0.63087511  0.70497988  0.83428232  1
  S2-  S184  1  0.89222359  -0.01385046  0.33776853  1
  S2-  S185  1  0.88982075  -0.01009873  0.84477100  1
  S2-  S186  1  0.87507719  0.22990996  0.34100149  1
  S2-  S187  1  0.93282264  0.23483416  0.84887800  1
  S2-  S188  1  0.88280418  0.52628959  0.34973949  1
  S2-  S189  1  0.89211115  0.51734643  0.84490824  1
  S2-  S190  1  0.83087445  0.73494468  0.33095638  1
  S2-  S191  1  0.86488432  0.73568041  0.84332294  1
  S2-  S192  1  0.00172646  0.12379462  0.45080067  1
  S2-  S193  1  -0.00690329  0.11713954  0.95623975  1
  S2-  S194  1  0.00202114  0.37351614  0.44843234  1
  S2-  S195  1  -0.00317160  0.37970718  0.94597772  1
  S2-  S196  1  0.00465052  0.62148138  0.46327807  1
  S2-  S197  1  -0.00813966  0.61771997  0.95815017  1
  S2-  S198  1  0.00401357  0.87895278  0.46064098  1
  S2-  S199  1  -0.00498556  0.87031695  0.95015810  1
  S2-  S200  1  0.25022115  0.12117197  0.45452568  1
  S2-  S201  1  0.24813222  0.11714145  0.96014180  1
  S2-  S202  1  0.25705975  0.37127250  0.44962681  1
  S2-  S203  1  0.24452682  0.37405800  0.95086162  1
  S2-  S204  1  0.25794380  0.62053374  0.45939729  1
  S2-  S205  1  0.24845960  0.61954221  0.95490078  1
  S2-  S206  1  0.25550220  0.87811394  0.45889465  1
  S2-  S207  1  0.24588212  0.86873707  0.94643483  1
  S2-  S208  1  0.50632633  0.12413782  0.45678799  1
  S2-  S209  1  0.49029316  0.11943859  0.96608842  1
  S2-  S210  1  0.50536203  0.37743365  0.44910246  1
  S2-  S211  1  0.49914072  0.37032892  0.95171464  1
  S2-  S212  1  0.50131000  0.62485336  0.45538426  1
  S2-  S213  1  0.49591004  0.61983267  0.95640355  1
  S2-  S214  1  0.50258185  0.87308029  0.45570031  1
  S2-  S215  1  0.49225521  0.86935512  0.95182214  1
  S2-  S216  1  0.75347013  0.12710182  0.45074415  1
  S2-  S217  1  0.75098115  0.12248276  0.94995905  1
  S2-  S218  1  0.75252074  0.37233851  0.45047079  1
  S2-  S219  1  0.74403519  0.36902602  0.95429678  1
  S2-  S220  1  0.75523032  0.62503750  0.45017501  1
  S2-  S221  1  0.74284929  0.62197905  0.96003551  1
  S2-  S222  1  0.75655428  0.87330635  0.44992261  1
  S2-  S223  1  0.74583132  0.87130710  0.94929265  1
  S2-  S224  1  0.11938528  -0.00742177  0.04269909  1
  S2-  S225  1  0.13094762  -0.00110680  0.55205832  1
  S2-  S226  1  0.12079455  0.24446400  0.03704457  1
  S2-  S227  1  0.12749976  0.25011333  0.54455940  1
  S2-  S228  1  0.11906109  0.50108231  0.05359360  1
  S2-  S229  1  0.13044420  0.49844517  0.54406741  1
  S2-  S230  1  0.11756519  0.74426184  0.04911009  1
  S2-  S231  1  0.13520981  0.75230081  0.54142698  1
  S2-  S232  1  0.36493358  -0.01259816  0.04652769  1
  S2-  S233  1  0.37694579  0.00020316  0.54793444  1
  S2-  S234  1  0.36773351  0.24887602  0.05024676  1
  S2-  S235  1  0.38117923  0.24909032  0.54382536  1
  S2-  S236  1  0.36970043  0.49617236  0.04697571  1
  S2-  S237  1  0.37894245  0.50046557  0.55210549  1
  S2-  S238  1  0.36959148  0.74699690  0.04957877  1
  S2-  S239  1  0.37901658  0.75081702  0.55135478  1
  S2-  S240  1  0.62024013  -0.00387149  0.04022717  1
  S2-  S241  1  0.63464105  0.00535381  0.54398845  1
  S2-  S242  1  0.62553140  0.24066221  0.04930754  1
  S2-  S243  1  0.62796290  0.25016137  0.53590665  1
  S2-  S244  1  0.62019456  0.49124482  0.04887564  1
  S2-  S245  1  0.63100742  0.50072455  0.54225261  1
  S2-  S246  1  0.61875433  0.74930203  0.04179650  1
  S2-  S247  1  0.63379995  0.74680781  0.54574865  1
  S2-  S248  1  0.87230394  -0.00371991  0.04598979  1
  S2-  S249  1  0.87985177  -0.00044083  0.54416732  1
  S2-  S250  1  0.86948944  0.24320428  0.04874109  1
  S2-  S251  1  0.88559614  0.25242975  0.54243183  1
  S2-  S252  1  0.86824206  0.49713071  0.04870431  1
  S2-  S253  1  0.88086084  0.50068775  0.55346547  1
  S2-  S254  1  0.86984292  0.74749508  0.05009531  1
  S2-  S255  1  0.87264398  0.74592838  0.54956435  1
