# generated using pymatgen
data_La6Ce7Pr13Nd19Sm19(BiS2)64
_symmetry_space_group_name_H-M   'P 1'
_cell_length_a   16.03119259
_cell_length_b   16.04232437
_cell_length_c   27.37973651
_cell_angle_alpha   90.24902787
_cell_angle_beta   90.19376078
_cell_angle_gamma   90.11284321
_symmetry_Int_Tables_number   1
_chemical_formula_structural   La6Ce7Pr13Nd19Sm19(BiS2)64
_chemical_formula_sum   'La6 Ce7 Pr13 Nd19 Sm19 Bi64 S128'
_cell_volume   7041.33405953
_cell_formula_units_Z   1
loop_
 _symmetry_equiv_pos_site_id
 _symmetry_equiv_pos_as_xyz
  1  'x, y, z'
loop_
 _atom_type_symbol
 _atom_type_oxidation_number
  La3+  3.0
  Ce3+  3.0
  Pr3+  3.0
  Nd3+  3.0
  Sm3+  3.0
  Bi2+  2.0
  S2-  -2.0
loop_
 _atom_site_type_symbol
 _atom_site_label
 _atom_site_symmetry_multiplicity
 _atom_site_fract_x
 _atom_site_fract_y
 _atom_site_fract_z
 _atom_site_occupancy
  La3+  La0  1  0.74202186  0.15367032  0.59359675  1
  La3+  La1  1  -0.00594173  0.39788915  0.57076893  1
  La3+  La2  1  0.36124226  0.01526177  0.38933002  1
  La3+  La3  1  0.13740418  -0.02971435  0.92011594  1
  La3+  La4  1  0.63643744  -0.01983266  0.93394675  1
  La3+  La5  1  0.24494002  0.15901243  0.57017009  1
  Ce3+  Ce6  1  0.11385225  0.02229925  0.44128204  1
  Ce3+  Ce7  1  0.88896196  0.23084427  0.93465802  1
  Ce3+  Ce8  1  0.74608328  0.90174081  0.55805002  1
  Ce3+  Ce9  1  0.88907610  0.47412195  0.94666725  1
  Ce3+  Ce10  1  -0.00647495  0.90652744  0.58023001  1
  Ce3+  Ce11  1  0.38812066  -0.02425052  0.93794395  1
  Ce3+  Ce12  1  0.49846086  0.90674897  0.56017939  1
  Pr3+  Pr13  1  0.26435113  0.85020806  0.06549615  1
  Pr3+  Pr14  1  0.87237571  0.52311486  0.43077291  1
  Pr3+  Pr15  1  0.01090258  0.85442501  0.06780559  1
  Pr3+  Pr16  1  0.37084073  0.77665359  0.44007172  1
  Pr3+  Pr17  1  0.01562186  0.10580418  0.04719947  1
  Pr3+  Pr18  1  -0.00492226  0.15186179  0.57099342  1
  Pr3+  Pr19  1  0.51218878  0.09771742  0.07490960  1
  Pr3+  Pr20  1  0.64175286  0.72834676  0.92197285  1
  Pr3+  Pr21  1  0.37052847  0.26966406  0.42939429  1
  Pr3+  Pr22  1  0.49540847  0.39892335  0.56899661  1
  Pr3+  Pr23  1  0.38627075  0.21896372  0.93212125  1
  Pr3+  Pr24  1  0.52180963  0.84720095  0.07032836  1
  Pr3+  Pr25  1  0.26809559  0.34325849  0.07119928  1
  Nd3+  Nd26  1  0.14069246  0.47789251  0.94030162  1
  Nd3+  Nd27  1  0.76484666  0.85190792  0.06369015  1
  Nd3+  Nd28  1  0.02266632  0.35350506  0.06402543  1
  Nd3+  Nd29  1  0.38815056  0.73151264  0.93268793  1
  Nd3+  Nd30  1  0.63516312  0.47359642  0.92913478  1
  Nd3+  Nd31  1  0.88584212  0.72706801  0.93889023  1
  Nd3+  Nd32  1  0.63529578  0.22576490  0.93138627  1
  Nd3+  Nd33  1  0.11867351  0.26816832  0.43290946  1
  Nd3+  Nd34  1  0.87493797  0.27320039  0.43394953  1
  Nd3+  Nd35  1  0.14195109  0.23933432  0.90758865  1
  Nd3+  Nd36  1  0.24723848  0.90386380  0.56281777  1
  Nd3+  Nd37  1  0.61851076  0.02747662  0.43232921  1
  Nd3+  Nd38  1  0.11975210  0.52400436  0.44155095  1
  Nd3+  Nd39  1  0.49744593  0.15406264  0.56256351  1
  Nd3+  Nd40  1  0.74746095  0.64932239  0.55598686  1
  Nd3+  Nd41  1  0.76133712  0.59997168  0.06007514  1
  Nd3+  Nd42  1  0.76418536  0.10598263  0.05840978  1
  Nd3+  Nd43  1  0.25696185  0.09479187  0.05639805  1
  Nd3+  Nd44  1  0.37263475  0.51983730  0.43170798  1
  Sm3+  Sm45  1  0.11990233  0.77724205  0.45074899  1
  Sm3+  Sm46  1  0.38266748  0.47747125  0.94877280  1
  Sm3+  Sm47  1  0.62192271  0.52344796  0.44458650  1
  Sm3+  Sm48  1  0.76246861  0.35253854  0.05895232  1
  Sm3+  Sm49  1  0.49631321  0.64927992  0.55297896  1
  Sm3+  Sm50  1  0.51182014  0.34961877  0.05273924  1
  Sm3+  Sm51  1  0.26382418  0.60867629  0.06428370  1
  Sm3+  Sm52  1  0.87354454  0.77553434  0.45166194  1
  Sm3+  Sm53  1  0.61964380  0.27441787  0.44251238  1
  Sm3+  Sm54  1  0.01343454  0.60310356  0.05893628  1
  Sm3+  Sm55  1  0.74797084  0.39944092  0.55970424  1
  Sm3+  Sm56  1  -0.00086122  0.64639449  0.56605698  1
  Sm3+  Sm57  1  0.62108599  0.77633510  0.44439399  1
  Sm3+  Sm58  1  0.24995600  0.65008179  0.55612941  1
  Sm3+  Sm59  1  0.13598831  0.72625310  0.93974885  1
  Sm3+  Sm60  1  0.87229455  0.02399653  0.44580497  1
  Sm3+  Sm61  1  0.24738271  0.40001412  0.55487026  1
  Sm3+  Sm62  1  0.51440500  0.60402191  0.05603977  1
  Sm3+  Sm63  1  0.88847958  -0.02032572  0.93795571  1
  Bi2+  Bi64  1  -0.08516274  0.15083617  0.27762777  1
  Bi2+  Bi65  1  -0.00715750  0.08737209  0.78700100  1
  Bi2+  Bi66  1  0.02935324  0.36407809  0.30721371  1
  Bi2+  Bi67  1  -0.00705038  0.43659987  0.78222283  1
  Bi2+  Bi68  1  -0.09100470  0.61906568  0.30767989  1
  Bi2+  Bi69  1  0.10446281  0.59688378  0.82717584  1
  Bi2+  Bi70  1  -0.01260708  0.88643822  0.29638000  1
  Bi2+  Bi71  1  -0.01162716  0.75969606  0.81722708  1
  Bi2+  Bi72  1  0.22810327  0.15083794  0.28802591  1
  Bi2+  Bi73  1  0.27242257  0.11440949  0.79903283  1
  Bi2+  Bi74  1  0.30239343  0.42742129  0.26925647  1
  Bi2+  Bi75  1  0.25045249  0.39660298  0.78053500  1
  Bi2+  Bi76  1  0.18756492  0.65266950  0.29402222  1
  Bi2+  Bi77  1  0.30112221  0.63705199  0.82113554  1
  Bi2+  Bi78  1  0.22799238  0.88031413  0.29348651  1
  Bi2+  Bi79  1  0.27350200  0.82753435  0.78650860  1
  Bi2+  Bi80  1  0.50517028  0.13632366  0.28301082  1
  Bi2+  Bi81  1  0.52841019  0.21167438  0.80842710  1
  Bi2+  Bi82  1  0.50289856  0.40689355  0.28127160  1
  Bi2+  Bi83  1  0.49205931  0.43755959  0.78654157  1
  Bi2+  Bi84  1  0.37925508  0.61630570  0.30364108  1
  Bi2+  Bi85  1  0.49703508  0.66894792  0.80344837  1
  Bi2+  Bi86  1  0.52917018  0.84653099  0.27209008  1
  Bi2+  Bi87  1  0.49772118  0.86393409  0.78092018  1
  Bi2+  Bi88  1  0.76336020  0.02388573  0.31639807  1
  Bi2+  Bi89  1  0.77515151  0.11343146  0.79171816  1
  Bi2+  Bi90  1  0.77044892  0.39570863  0.28006535  1
  Bi2+  Bi91  1  0.69958556  0.40245494  0.76370996  1
  Bi2+  Bi92  1  0.71706433  0.58755785  0.29839910  1
  Bi2+  Bi93  1  0.77194440  0.58819855  0.79581538  1
  Bi2+  Bi94  1  0.73832710  0.83282262  0.29621416  1
  Bi2+  Bi95  1  0.72423889  0.82812145  0.77779485  1
  Bi2+  Bi96  1  0.08187130  -0.02748600  0.20148612  1
  Bi2+  Bi97  1  0.13451049  -0.02570818  0.70077265  1
  Bi2+  Bi98  1  0.11003760  0.25494047  0.18664790  1
  Bi2+  Bi99  1  0.13860663  0.23902063  0.70382764  1
  Bi2+  Bi100  1  0.04739210  0.53917044  0.24235076  1
  Bi2+  Bi101  1  0.13206341  0.50229242  0.71045897  1
  Bi2+  Bi102  1  0.06959235  0.78184156  0.20431311  1
  Bi2+  Bi103  1  0.11501942  0.70614053  0.72789562  1
  Bi2+  Bi104  1  0.35806219  0.05137940  0.18075994  1
  Bi2+  Bi105  1  0.38965329  -0.03836897  0.71264002  1
  Bi2+  Bi106  1  0.37617269  0.28364994  0.20438797  1
  Bi2+  Bi107  1  0.39833443  0.27199493  0.73226811  1
  Bi2+  Bi108  1  0.32287827  0.56737177  0.19069865  1
  Bi2+  Bi109  1  0.37382959  0.46863619  0.69156786  1
  Bi2+  Bi110  1  0.38462999  0.75204925  0.21441683  1
  Bi2+  Bi111  1  0.36240881  0.66948898  0.71239453  1
  Bi2+  Bi112  1  0.63967230  -0.03224142  0.20945617  1
  Bi2+  Bi113  1  0.66530891  -0.01272522  0.70025983  1
  Bi2+  Bi114  1  0.71688085  0.20702703  0.28644070  1
  Bi2+  Bi115  1  0.61293205  0.25144080  0.70685699  1
  Bi2+  Bi116  1  0.52431126  0.52518245  0.19376248  1
  Bi2+  Bi117  1  0.57121494  0.49155973  0.68577286  1
  Bi2+  Bi118  1  0.61592463  0.69295759  0.21620563  1
  Bi2+  Bi119  1  0.63852411  0.67692573  0.71864948  1
  Bi2+  Bi120  1  0.86362439  0.01219222  0.20305699  1
  Bi2+  Bi121  1  0.89910355  -0.13055152  0.73014279  1
  Bi2+  Bi122  1  0.84166211  0.25692562  0.18898286  1
  Bi2+  Bi123  1  0.88375463  0.30132156  0.72415772  1
  Bi2+  Bi124  1  0.82988625  0.51994684  0.20304502  1
  Bi2+  Bi125  1  0.84232994  0.47655069  0.68629682  1
  Bi2+  Bi126  1  0.87372261  0.75624199  0.21719297  1
  Bi2+  Bi127  1  0.90871882  0.67069557  0.72244242  1
  S2-  S128  1  0.02603022  0.10990787  0.14845021  1
  S2-  S129  1  0.00991366  0.03701010  0.65000298  1
  S2-  S130  1  -0.02507251  0.34828903  0.16079867  1
  S2-  S131  1  -0.00710362  0.27508812  0.64860858  1
  S2-  S132  1  0.03287608  0.62605042  0.15523901  1
  S2-  S133  1  -0.00257482  0.52952790  0.64038461  1
  S2-  S134  1  -0.11419418  0.86835329  0.14019434  1
  S2-  S135  1  0.03776911  0.83053784  0.66638974  1
  S2-  S136  1  0.26108101  0.19545202  0.14161183  1
  S2-  S137  1  0.22704661  0.10205515  0.67096845  1
  S2-  S138  1  0.17555281  0.38786902  0.15363124  1
  S2-  S139  1  0.22990353  0.30821147  0.63848028  1
  S2-  S140  1  0.26576231  0.72346504  0.13994458  1
  S2-  S141  1  0.21780130  0.63103007  0.65125734  1
  S2-  S142  1  0.22796211  0.97340769  0.13577570  1
  S2-  S143  1  0.26971299  0.87856305  0.66178949  1
  S2-  S144  1  0.49614558  0.16513826  0.17473294  1
  S2-  S145  1  0.59200085  0.11227354  0.64609246  1
  S2-  S146  1  0.48372874  0.37192528  0.14823932  1
  S2-  S147  1  0.47561963  0.27538638  0.64131771  1
  S2-  S148  1  0.50544948  0.70601782  0.13648590  1
  S2-  S149  1  0.50131040  0.66099343  0.64981222  1
  S2-  S150  1  0.48841205  0.96396809  0.14638415  1
  S2-  S151  1  0.52196939  0.89754547  0.65809965  1
  S2-  S152  1  0.74221270  0.10872854  0.15722484  1
  S2-  S153  1  0.79161294  0.09551502  0.68946385  1
  S2-  S154  1  0.73785260  0.38023109  0.15448075  1
  S2-  S155  1  0.75442274  0.31150229  0.64565712  1
  S2-  S156  1  0.76386143  0.65355400  0.15495491  1
  S2-  S157  1  0.77082956  0.63220329  0.65306647  1
  S2-  S158  1  0.66155472  0.85427022  0.14360458  1
  S2-  S159  1  0.77791445  0.88284743  0.65360582  1
  S2-  S160  1  0.19205424  0.02326791  0.35225925  1
  S2-  S161  1  0.12895780  0.01044371  0.81707039  1
  S2-  S162  1  0.17992851  0.28505927  0.33573315  1
  S2-  S163  1  0.09398021  0.20617905  0.80649708  1
  S2-  S164  1  0.11678980  0.50503168  0.34295839  1
  S2-  S165  1  0.12498755  0.39426452  0.85355394  1
  S2-  S166  1  0.12034353  0.77702027  0.35214222  1
  S2-  S167  1  0.14271847  0.82116606  0.85795000  1
  S2-  S168  1  0.33715948  0.00918435  0.27188686  1
  S2-  S169  1  0.39992189  0.08086797  0.85657282  1
  S2-  S170  1  0.36989401  0.17473343  0.34254448  1
  S2-  S171  1  0.28828255  0.25356259  0.84923416  1
  S2-  S172  1  0.38303818  0.40141236  0.35852442  1
  S2-  S173  1  0.36169971  0.47203792  0.85152662  1
  S2-  S174  1  0.35720093  0.84780937  0.34957443  1
  S2-  S175  1  0.37913300  0.85958208  0.86057909  1
  S2-  S176  1  0.52719533  0.01681772  0.34659584  1
  S2-  S177  1  0.63624595  0.10388336  0.85597616  1
  S2-  S178  1  0.58020890  0.24709107  0.34781501  1
  S2-  S179  1  0.63367813  0.34536197  0.85617489  1
  S2-  S180  1  0.60879714  0.48416885  0.35023768  1
  S2-  S181  1  0.62757598  0.59021656  0.85572616  1
  S2-  S182  1  0.60389944  0.76090442  0.34773994  1
  S2-  S183  1  0.61858533  0.86773425  0.85498531  1
  S2-  S184  1  0.98122530  -0.00796412  0.37219052  1
  S2-  S185  1  0.87152097  -0.01078910  0.83986828  1
  S2-  S186  1  0.99146270  0.22508837  0.35924112  1
  S2-  S187  1  0.86767574  0.22676052  0.83636313  1
  S2-  S188  1  0.87972273  0.39924065  0.35808764  1
  S2-  S189  1  0.86963528  0.47352614  0.84988204  1
  S2-  S190  1  0.88393108  0.78212896  0.35432899  1
  S2-  S191  1  0.78952790  0.73341293  0.85575334  1
  S2-  S192  1  -0.00709124  0.14702311  0.46553931  1
  S2-  S193  1  0.01504730  0.10579021  0.93930949  1
  S2-  S194  1  -0.00158491  0.40057517  0.45966460  1
  S2-  S195  1  0.01610054  0.34956197  0.95586901  1
  S2-  S196  1  -0.00351233  0.65027948  0.45941077  1
  S2-  S197  1  0.01137600  0.60161727  0.95437013  1
  S2-  S198  1  -0.00569440  0.89405326  0.47332552  1
  S2-  S199  1  0.00753974  0.85213180  0.95656564  1
  S2-  S200  1  0.24472911  0.14699207  0.45563472  1
  S2-  S201  1  0.25206388  0.10176577  0.94916288  1
  S2-  S202  1  0.24320467  0.39991751  0.45229463  1
  S2-  S203  1  0.26221709  0.35242880  0.96065239  1
  S2-  S204  1  0.24615353  0.64907841  0.45099554  1
  S2-  S205  1  0.26161862  0.60557607  0.95922948  1
  S2-  S206  1  0.24501996  0.89951656  0.45784842  1
  S2-  S207  1  0.25979070  0.84859132  0.95959811  1
  S2-  S208  1  0.49769236  0.14989761  0.45668002  1
  S2-  S209  1  0.51424528  0.10426445  0.96348185  1
  S2-  S210  1  0.50033838  0.40075047  0.46083053  1
  S2-  S211  1  0.50451605  0.35336662  0.95063780  1
  S2-  S212  1  0.49724956  0.64782501  0.44863142  1
  S2-  S213  1  0.50667332  0.60043637  0.95386537  1
  S2-  S214  1  0.49727771  0.89954054  0.45416083  1
  S2-  S215  1  0.51323624  0.85009271  0.96024623  1
  S2-  S216  1  0.74750921  0.15049228  0.44186317  1
  S2-  S217  1  0.76805147  0.10665348  0.95313376  1
  S2-  S218  1  0.74365141  0.39938898  0.45515965  1
  S2-  S219  1  0.76119088  0.35165960  0.95511769  1
  S2-  S220  1  0.74619521  0.65069001  0.45006454  1
  S2-  S221  1  0.76406160  0.59635827  0.95577051  1
  S2-  S222  1  0.74703504  0.89849251  0.45146470  1
  S2-  S223  1  0.76770849  0.85745934  0.95663010  1
  S2-  S224  1  0.12997871  -0.02662894  0.03169819  1
  S2-  S225  1  0.12449542  0.02608487  0.54840203  1
  S2-  S226  1  0.13968493  0.22950744  0.03962389  1
  S2-  S227  1  0.11917749  0.27857600  0.53944242  1
  S2-  S228  1  0.14087446  0.48442476  0.04670360  1
  S2-  S229  1  0.12665529  0.52552482  0.54554070  1
  S2-  S230  1  0.13233084  0.72773644  0.04350778  1
  S2-  S231  1  0.12331887  0.77013404  0.55411407  1
  S2-  S232  1  0.38758289  -0.02455003  0.04155438  1
  S2-  S233  1  0.37249536  0.02885891  0.56216989  1
  S2-  S234  1  0.39174332  0.22278895  0.04226265  1
  S2-  S235  1  0.36999666  0.27909670  0.53709865  1
  S2-  S236  1  0.38589977  0.48098594  0.05179106  1
  S2-  S237  1  0.37165438  0.52513151  0.54155177  1
  S2-  S238  1  0.38849864  0.72472647  0.03743060  1
  S2-  S239  1  0.37336224  0.77430433  0.54802697  1
  S2-  S240  1  0.64189144  -0.01774059  0.04319589  1
  S2-  S241  1  0.62719136  0.02751114  0.53960143  1
  S2-  S242  1  0.63722143  0.23029347  0.04804794  1
  S2-  S243  1  0.62551261  0.27703618  0.54535105  1
  S2-  S244  1  0.63487091  0.47524030  0.04326971  1
  S2-  S245  1  0.62217703  0.52451785  0.54866265  1
  S2-  S246  1  0.64225016  0.72180707  0.03514272  1
  S2-  S247  1  0.62109968  0.77310879  0.54880534  1
  S2-  S248  1  0.88833946  -0.01728963  0.04160084  1
  S2-  S249  1  0.86204510  0.03215568  0.54992120  1
  S2-  S250  1  0.88906619  0.23303987  0.04337946  1
  S2-  S251  1  0.86471461  0.27337556  0.54137253  1
  S2-  S252  1  0.89043254  0.47581684  0.05291326  1
  S2-  S253  1  0.86990563  0.52501908  0.53847632  1
  S2-  S254  1  0.88932374  0.72297568  0.04486841  1
  S2-  S255  1  0.87562346  0.77074682  0.55585424  1
