# generated using pymatgen
data_La6Ce7Pr13Nd19Sm19(BiS2)64
_symmetry_space_group_name_H-M   'P 1'
_cell_length_a   15.92875050
_cell_length_b   16.10543625
_cell_length_c   27.38231073
_cell_angle_alpha   90.05526259
_cell_angle_beta   89.68389096
_cell_angle_gamma   89.92478111
_symmetry_Int_Tables_number   1
_chemical_formula_structural   La6Ce7Pr13Nd19Sm19(BiS2)64
_chemical_formula_sum   'La6 Ce7 Pr13 Nd19 Sm19 Bi64 S128'
_cell_volume   7024.52735706
_cell_formula_units_Z   1
loop_
 _symmetry_equiv_pos_site_id
 _symmetry_equiv_pos_as_xyz
  1  'x, y, z'
loop_
 _atom_type_symbol
 _atom_type_oxidation_number
  La3+  3.0
  Ce3+  3.0
  Pr3+  3.0
  Nd3+  3.0
  Sm3+  3.0
  Bi2+  2.0
  S2-  -2.0
loop_
 _atom_site_type_symbol
 _atom_site_label
 _atom_site_symmetry_multiplicity
 _atom_site_fract_x
 _atom_site_fract_y
 _atom_site_fract_z
 _atom_site_occupancy
  La3+  La0  1  0.62112768  0.23762305  0.39945441  1
  La3+  La1  1  0.49874499  0.87720872  0.06868144  1
  La3+  La2  1  0.23226455  0.37216813  0.58647380  1
  La3+  La3  1  0.77229521  0.62987784  0.11872005  1
  La3+  La4  1  0.36006987  0.23800400  0.43625575  1
  La3+  La5  1  -0.01246557  0.85934280  0.57531244  1
  Ce3+  Ce6  1  0.48935625  0.11869232  0.56833802  1
  Ce3+  Ce7  1  0.26098908  0.62546655  0.05664348  1
  Ce3+  Ce8  1  0.11677491  0.48831054  0.44004307  1
  Ce3+  Ce9  1  0.62947581  -0.00033571  0.93586723  1
  Ce3+  Ce10  1  0.60570889  0.48819964  0.41806535  1
  Ce3+  Ce11  1  0.13184041  0.49701342  0.93806926  1
  Ce3+  Ce12  1  0.74587490  0.87690954  0.07486077  1
  Pr3+  Pr13  1  0.49069069  0.86265699  0.55366340  1
  Pr3+  Pr14  1  0.37849105  0.24877264  0.92959313  1
  Pr3+  Pr15  1  0.62933893  0.24916587  0.93466401  1
  Pr3+  Pr16  1  0.10948608  0.74372974  0.42712931  1
  Pr3+  Pr17  1  0.74457433  0.37548442  0.07799561  1
  Pr3+  Pr18  1  0.62973632  0.75046966  0.94641152  1
  Pr3+  Pr19  1  0.38551674  0.49849280  0.92865874  1
  Pr3+  Pr20  1  0.49387976  0.61302403  0.55861968  1
  Pr3+  Pr21  1  0.13066572  0.75109183  0.93236702  1
  Pr3+  Pr22  1  -0.01184540  0.11084946  0.59649659  1
  Pr3+  Pr23  1  0.38690910  0.75052868  0.92931271  1
  Pr3+  Pr24  1  0.12267149  0.25901973  0.89748382  1
  Pr3+  Pr25  1  0.01002186  0.12461210  0.06754050  1
  Nd3+  Nd26  1  0.74707668  0.12884012  0.07383565  1
  Nd3+  Nd27  1  0.00635591  0.87701119  0.06599913  1
  Nd3+  Nd28  1  0.87586250  0.00184520  0.94121143  1
  Nd3+  Nd29  1  0.00696476  0.62536683  0.06208432  1
  Nd3+  Nd30  1  0.12473897  -0.00073392  0.92265214  1
  Nd3+  Nd31  1  0.63330634  0.49847986  0.94075126  1
  Nd3+  Nd32  1  0.87466815  0.49758973  0.94519185  1
  Nd3+  Nd33  1  0.87813342  0.75053097  0.95124563  1
  Nd3+  Nd34  1  0.35565448  0.48920965  0.43422315  1
  Nd3+  Nd35  1  0.49880207  0.12656693  0.06254007  1
  Nd3+  Nd36  1  0.73690342  0.36342627  0.55606604  1
  Nd3+  Nd37  1  -0.01087619  0.36365753  0.55982964  1
  Nd3+  Nd38  1  0.00351659  0.37745684  0.06333798  1
  Nd3+  Nd39  1  0.61362477  -0.00509571  0.43697369  1
  Nd3+  Nd40  1  0.37759183  0.00206909  0.92968564  1
  Nd3+  Nd41  1  0.61174843  0.73648390  0.41108827  1
  Nd3+  Nd42  1  0.24121731  0.11779225  0.57430920  1
  Nd3+  Nd43  1  0.50676613  0.62344140  0.06747219  1
  Nd3+  Nd44  1  0.25182095  0.87709336  0.05911746  1
  Sm3+  Sm45  1  0.73271410  0.61441330  0.55628712  1
  Sm3+  Sm46  1  0.88204280  0.24858403  0.95014991  1
  Sm3+  Sm47  1  0.86523392  -0.00608244  0.44416200  1
  Sm3+  Sm48  1  0.48814397  0.36553920  0.54982443  1
  Sm3+  Sm49  1  -0.00974002  0.61775506  0.55805855  1
  Sm3+  Sm50  1  0.24603092  0.61903554  0.56202171  1
  Sm3+  Sm51  1  0.85992290  0.48956362  0.44409793  1
  Sm3+  Sm52  1  0.36360790  -0.00730677  0.44623482  1
  Sm3+  Sm53  1  0.25715448  0.37553395  0.05798493  1
  Sm3+  Sm54  1  0.86243549  0.23892447  0.44328946  1
  Sm3+  Sm55  1  0.25208554  0.12693539  0.05464049  1
  Sm3+  Sm56  1  0.36179418  0.74003791  0.42888457  1
  Sm3+  Sm57  1  0.73427421  0.11523526  0.56785053  1
  Sm3+  Sm58  1  0.11574098  0.23931845  0.44357058  1
  Sm3+  Sm59  1  0.49866262  0.37477857  0.06252864  1
  Sm3+  Sm60  1  0.11110103  -0.00718147  0.45134753  1
  Sm3+  Sm61  1  0.73884431  0.86548592  0.54956867  1
  Sm3+  Sm62  1  0.23916329  0.86382102  0.55651576  1
  Sm3+  Sm63  1  0.86520869  0.74163846  0.44187279  1
  Bi2+  Bi64  1  0.02745365  0.21386893  0.30904922  1
  Bi2+  Bi65  1  -0.08786262  0.13833358  0.79019398  1
  Bi2+  Bi66  1  0.06078391  0.40484788  0.32038049  1
  Bi2+  Bi67  1  -0.09806955  0.39546015  0.79511868  1
  Bi2+  Bi68  1  0.04469484  0.64923315  0.29412695  1
  Bi2+  Bi69  1  -0.04798239  0.64175824  0.79794014  1
  Bi2+  Bi70  1  0.01056397  0.92896463  0.29836889  1
  Bi2+  Bi71  1  -0.05033431  0.88333730  0.80702541  1
  Bi2+  Bi72  1  0.22060956  0.11544694  0.29552315  1
  Bi2+  Bi73  1  0.28073007  0.13975383  0.78448284  1
  Bi2+  Bi74  1  0.24101679  0.38094167  0.27128793  1
  Bi2+  Bi75  1  0.23089086  0.39598180  0.78116540  1
  Bi2+  Bi76  1  0.24181654  0.64755477  0.27078968  1
  Bi2+  Bi77  1  0.19954423  0.60518751  0.73608841  1
  Bi2+  Bi78  1  0.25152505  0.85181087  0.27084061  1
  Bi2+  Bi79  1  0.20293480  0.90490002  0.77536503  1
  Bi2+  Bi80  1  0.49095573  0.10657104  0.28496450  1
  Bi2+  Bi81  1  0.50032065  0.11542436  0.78669887  1
  Bi2+  Bi82  1  0.47476147  0.36239237  0.28088897  1
  Bi2+  Bi83  1  0.53620204  0.37537143  0.78580766  1
  Bi2+  Bi84  1  0.49326413  0.61734809  0.28645537  1
  Bi2+  Bi85  1  0.44006377  0.62089472  0.80439506  1
  Bi2+  Bi86  1  0.44825833  0.89095366  0.28475360  1
  Bi2+  Bi87  1  0.43846548  0.85523696  0.80318920  1
  Bi2+  Bi88  1  0.77079067  0.09489997  0.28308242  1
  Bi2+  Bi89  1  0.71709779  0.11779701  0.80656648  1
  Bi2+  Bi90  1  0.78915539  0.36640471  0.29212165  1
  Bi2+  Bi91  1  0.71998769  0.31648951  0.81607087  1
  Bi2+  Bi92  1  0.79746038  0.66549819  0.31931839  1
  Bi2+  Bi93  1  0.72985366  0.59925843  0.79452065  1
  Bi2+  Bi94  1  0.84131769  0.89408723  0.24151244  1
  Bi2+  Bi95  1  0.70733817  0.85160251  0.75092040  1
  Bi2+  Bi96  1  0.06850761  0.00078358  0.19893802  1
  Bi2+  Bi97  1  0.07496165  0.03230096  0.73150688  1
  Bi2+  Bi98  1  0.14283218  0.23364928  0.21334062  1
  Bi2+  Bi99  1  0.05304057  0.24817896  0.71815699  1
  Bi2+  Bi100  1  0.17866702  0.50174707  0.18187645  1
  Bi2+  Bi101  1  0.03126995  0.49591894  0.72603282  1
  Bi2+  Bi102  1  0.15932801  0.69619333  0.16790419  1
  Bi2+  Bi103  1  0.07428757  0.75437802  0.73125173  1
  Bi2+  Bi104  1  0.33950958  0.00858084  0.21305357  1
  Bi2+  Bi105  1  0.36074615  -0.00050600  0.71742956  1
  Bi2+  Bi106  1  0.37304948  0.23827203  0.21024358  1
  Bi2+  Bi107  1  0.42661493  0.26983058  0.69928775  1
  Bi2+  Bi108  1  0.37808500  0.49059416  0.20727325  1
  Bi2+  Bi109  1  0.37038801  0.52028772  0.69899115  1
  Bi2+  Bi110  1  0.38673685  0.75517254  0.20537606  1
  Bi2+  Bi111  1  0.35906802  0.78141258  0.69844319  1
  Bi2+  Bi112  1  0.62702597  0.00690256  0.22309330  1
  Bi2+  Bi113  1  0.56801090  -0.02648463  0.71144916  1
  Bi2+  Bi114  1  0.63919218  0.24731687  0.20946168  1
  Bi2+  Bi115  1  0.64532412  0.22730509  0.71499508  1
  Bi2+  Bi116  1  0.64407504  0.49840280  0.21324070  1
  Bi2+  Bi117  1  0.63850156  0.49387090  0.71136605  1
  Bi2+  Bi118  1  0.64423403  0.76392654  0.22054843  1
  Bi2+  Bi119  1  0.59677498  0.68714343  0.72923669  1
  Bi2+  Bi120  1  0.88376400  0.05109998  0.17503923  1
  Bi2+  Bi121  1  0.82917805  -0.00547160  0.70874295  1
  Bi2+  Bi122  1  0.91926639  0.23417136  0.21528900  1
  Bi2+  Bi123  1  0.85794335  0.28256555  0.70546165  1
  Bi2+  Bi124  1  0.99256007  0.49756816  0.22788718  1
  Bi2+  Bi125  1  0.84625996  0.55241862  0.70215804  1
  Bi2+  Bi126  1  0.99327335  0.77215488  0.20924127  1
  Bi2+  Bi127  1  0.86425076  0.74845893  0.70573430  1
  S2-  S128  1  0.14338417  0.11609735  0.13801350  1
  S2-  S129  1  0.13279198  0.13176172  0.65559461  1
  S2-  S130  1  0.00232802  0.35935907  0.16329697  1
  S2-  S131  1  0.06664138  0.36921978  0.64846556  1
  S2-  S132  1  -0.05427291  0.62615603  0.15600225  1
  S2-  S133  1  0.00189663  0.71769121  0.63923610  1
  S2-  S134  1  0.13111346  0.87445734  0.13757069  1
  S2-  S135  1  -0.01726956  0.96370042  0.65728431  1
  S2-  S136  1  0.36962483  0.12492951  0.13580615  1
  S2-  S137  1  0.37272114  0.11986746  0.64550024  1
  S2-  S138  1  0.36847940  0.36420798  0.13594135  1
  S2-  S139  1  0.27532088  0.32242675  0.68564800  1
  S2-  S140  1  0.37108305  0.62268729  0.13555182  1
  S2-  S141  1  0.22243195  0.52454715  0.64519078  1
  S2-  S142  1  0.36456119  0.88482639  0.13915829  1
  S2-  S143  1  0.22651075  0.84310345  0.65359142  1
  S2-  S144  1  0.60731838  0.11867220  0.14452898  1
  S2-  S145  1  0.61012214  0.10559152  0.64249097  1
  S2-  S146  1  0.59021959  0.37048241  0.14944971  1
  S2-  S147  1  0.47587052  0.40717166  0.64593693  1
  S2-  S148  1  0.59865123  0.63294184  0.15631626  1
  S2-  S149  1  0.38077538  0.64774266  0.63547930  1
  S2-  S150  1  0.60535257  0.88666281  0.15147575  1
  S2-  S151  1  0.50692479  0.84821188  0.65315613  1
  S2-  S152  1  0.77138973  0.24762070  0.15188507  1
  S2-  S153  1  0.83583258  0.12467274  0.65014689  1
  S2-  S154  1  0.77709578  0.46969613  0.16226383  1
  S2-  S155  1  0.72008729  0.36086126  0.65559224  1
  S2-  S156  1  0.75567685  0.63097032  0.23087804  1
  S2-  S157  1  0.62283246  0.61725526  0.63357996  1
  S2-  S158  1  0.78217873  0.79717623  0.16130615  1
  S2-  S159  1  0.76006247  0.86090672  0.64686511  1
  S2-  S160  1  0.13516734  -0.00817400  0.35331948  1
  S2-  S161  1  -0.01930264  0.01786830  0.85872275  1
  S2-  S162  1  0.22816123  0.22730173  0.36552636  1
  S2-  S163  1  0.12259768  0.16719045  0.80652973  1
  S2-  S164  1  0.21986895  0.47609022  0.36162481  1
  S2-  S165  1  0.11654771  0.41935129  0.85054797  1
  S2-  S166  1  0.23941293  0.74942252  0.35643575  1
  S2-  S167  1  0.10293178  0.85185044  0.85241513  1
  S2-  S168  1  0.38053398  0.01145708  0.34917813  1
  S2-  S169  1  0.26022024  0.00706936  0.85124923  1
  S2-  S170  1  0.46175129  0.23731615  0.34925685  1
  S2-  S171  1  0.28361578  0.27863150  0.84428308  1
  S2-  S172  1  0.44831855  0.49560437  0.34771010  1
  S2-  S173  1  0.31463529  0.51905275  0.83448431  1
  S2-  S174  1  0.46933983  0.74690286  0.34920525  1
  S2-  S175  1  0.31519103  0.75420889  0.83505230  1
  S2-  S176  1  0.62628576  0.07978667  0.35070807  1
  S2-  S177  1  0.50871809  -0.00779890  0.85864665  1
  S2-  S178  1  0.63667975  0.37941666  0.33652029  1
  S2-  S179  1  0.50899137  0.24912063  0.85578807  1
  S2-  S180  1  0.63747773  0.60103077  0.34528318  1
  S2-  S181  1  0.52476349  0.50413916  0.85776046  1
  S2-  S182  1  0.69466496  0.79390012  0.32316011  1
  S2-  S183  1  0.53235203  0.74824536  0.85969020  1
  S2-  S184  1  0.85968687  -0.00651266  0.34517362  1
  S2-  S185  1  0.75269628  -0.01376446  0.86576013  1
  S2-  S186  1  0.79219176  0.23506721  0.35247227  1
  S2-  S187  1  0.94927301  0.26382769  0.85847864  1
  S2-  S188  1  0.85191250  0.49666622  0.34596116  1
  S2-  S189  1  0.76277015  0.48338539  0.86531627  1
  S2-  S190  1  0.96504076  0.75161282  0.36036983  1
  S2-  S191  1  0.85760480  0.75923931  0.85180681  1
  S2-  S192  1  -0.01162980  0.11713525  0.44850335  1
  S2-  S193  1  0.00668205  0.12970426  0.95969014  1
  S2-  S194  1  -0.01363467  0.36356161  0.45379566  1
  S2-  S195  1  0.00449391  0.37604224  0.95871442  1
  S2-  S196  1  -0.01339287  0.61213578  0.45492744  1
  S2-  S197  1  0.00376765  0.62272360  0.95280619  1
  S2-  S198  1  -0.01318783  0.86912852  0.46297323  1
  S2-  S199  1  0.00200443  0.87483588  0.96127275  1
  S2-  S200  1  0.23640746  0.11038813  0.46696289  1
  S2-  S201  1  0.24326816  0.13339128  0.94872562  1
  S2-  S202  1  0.23311895  0.36389822  0.46726079  1
  S2-  S203  1  0.25282067  0.37574052  0.95434867  1
  S2-  S204  1  0.23630648  0.61862120  0.45659226  1
  S2-  S205  1  0.25473528  0.62498494  0.94840005  1
  S2-  S206  1  0.23779190  0.87110910  0.45334320  1
  S2-  S207  1  0.25499010  0.87323476  0.95156340  1
  S2-  S208  1  0.48916952  0.11463568  0.45933268  1
  S2-  S209  1  0.50390265  0.12462005  0.95690035  1
  S2-  S210  1  0.48835628  0.36307261  0.44821126  1
  S2-  S211  1  0.50542369  0.37341331  0.95781933  1
  S2-  S212  1  0.48546381  0.61683462  0.45175839  1
  S2-  S213  1  0.50624938  0.62319482  0.96126382  1
  S2-  S214  1  0.48929877  0.86940016  0.44767324  1
  S2-  S215  1  0.50383519  0.87719025  0.96087911  1
  S2-  S216  1  0.74050841  0.11604302  0.46008358  1
  S2-  S217  1  0.75550937  0.12967506  0.96258780  1
  S2-  S218  1  0.73878211  0.36425241  0.45163049  1
  S2-  S219  1  0.75623699  0.36855991  0.96637713  1
  S2-  S220  1  0.74219484  0.61751591  0.45276663  1
  S2-  S221  1  0.75484316  0.62697999  0.95588600  1
  S2-  S222  1  0.74193338  0.86685970  0.44552193  1
  S2-  S223  1  0.75450556  0.87330320  0.96717901  1
  S2-  S224  1  0.12933660  -0.00043548  0.03367990  1
  S2-  S225  1  0.11425526  -0.01106973  0.55457233  1
  S2-  S226  1  0.13154317  0.25854227  0.05246800  1
  S2-  S227  1  0.10926867  0.23655795  0.54739109  1
  S2-  S228  1  0.13146640  0.50018939  0.04544891  1
  S2-  S229  1  0.10985627  0.49531905  0.54473042  1
  S2-  S230  1  0.12906713  0.74765769  0.03742427  1
  S2-  S231  1  0.11806039  0.73841116  0.53850420  1
  S2-  S232  1  0.37357561  0.00288573  0.03484919  1
  S2-  S233  1  0.36303552  -0.01361193  0.55001372  1
  S2-  S234  1  0.37567151  0.25036310  0.03541061  1
  S2-  S235  1  0.35990211  0.24809950  0.54774476  1
  S2-  S236  1  0.37916951  0.49847597  0.03632231  1
  S2-  S237  1  0.36211560  0.48988567  0.54088082  1
  S2-  S238  1  0.37828446  0.75050340  0.03725303  1
  S2-  S239  1  0.36229547  0.74441799  0.53306760  1
  S2-  S240  1  0.62864944  0.00286280  0.04298966  1
  S2-  S241  1  0.61666977  -0.01247251  0.54224301  1
  S2-  S242  1  0.62354319  0.25025679  0.04233637  1
  S2-  S243  1  0.61286427  0.24353812  0.54860364  1
  S2-  S244  1  0.62461174  0.49725842  0.04651648  1
  S2-  S245  1  0.61599437  0.48641913  0.53431761  1
  S2-  S246  1  0.63005757  0.74875447  0.05108313  1
  S2-  S247  1  0.61834093  0.74262095  0.53279292  1
  S2-  S248  1  0.87867030  0.00044250  0.05109823  1
  S2-  S249  1  0.86291382  -0.00856154  0.54754000  1
  S2-  S250  1  0.88299864  0.24898373  0.05226538  1
  S2-  S251  1  0.86582097  0.23835594  0.54738888  1
  S2-  S252  1  0.87836389  0.50377588  0.04980166  1
  S2-  S253  1  0.86361727  0.49286462  0.55028685  1
  S2-  S254  1  0.88167408  0.75088496  0.05526675  1
  S2-  S255  1  0.85888674  0.73626157  0.54402712  1
