# generated using pymatgen
data_La6Ce7Pr13Nd19Sm19(BiS2)64
_symmetry_space_group_name_H-M   'P 1'
_cell_length_a   16.08389274
_cell_length_b   16.11428301
_cell_length_c   27.36144864
_cell_angle_alpha   90.06000953
_cell_angle_beta   89.92616113
_cell_angle_gamma   90.05161977
_symmetry_Int_Tables_number   1
_chemical_formula_structural   La6Ce7Pr13Nd19Sm19(BiS2)64
_chemical_formula_sum   'La6 Ce7 Pr13 Nd19 Sm19 Bi64 S128'
_cell_volume   7091.53854207
_cell_formula_units_Z   1
loop_
 _symmetry_equiv_pos_site_id
 _symmetry_equiv_pos_as_xyz
  1  'x, y, z'
loop_
 _atom_type_symbol
 _atom_type_oxidation_number
  La3+  3.0
  Ce3+  3.0
  Pr3+  3.0
  Nd3+  3.0
  Sm3+  3.0
  Bi2+  2.0
  S2-  -2.0
loop_
 _atom_site_type_symbol
 _atom_site_label
 _atom_site_symmetry_multiplicity
 _atom_site_fract_x
 _atom_site_fract_y
 _atom_site_fract_z
 _atom_site_occupancy
  La3+  La0  1  0.25902233  0.12816074  0.59844031  1
  La3+  La1  1  0.26040069  0.86467194  0.57706400  1
  La3+  La2  1  0.38496323  0.48619183  0.39047349  1
  La3+  La3  1  0.86384411  0.01039622  0.88182841  1
  La3+  La4  1  0.47728797  0.10956751  0.06712819  1
  La3+  La5  1  0.11571782  -0.01817585  0.91831598  1
  Ce3+  Ce6  1  0.75166438  0.87231013  0.55348960  1
  Ce3+  Ce7  1  0.49932123  0.87249173  0.55312518  1
  Ce3+  Ce8  1  0.87933019  0.74847254  0.44157355  1
  Ce3+  Ce9  1  0.23303958  0.61253218  0.06634587  1
  Ce3+  Ce10  1  0.38334750  -0.00161224  0.43393806  1
  Ce3+  Ce11  1  0.35831815  -0.01933790  0.93389214  1
  Ce3+  Ce12  1  0.48407139  0.36966566  0.05717091  1
  Pr3+  Pr13  1  0.73590755  0.86179874  0.06594859  1
  Pr3+  Pr14  1  -0.01784452  0.36520215  0.05598645  1
  Pr3+  Pr15  1  0.13062161  0.75325282  0.43321825  1
  Pr3+  Pr16  1  0.22963921  0.11212512  0.06291829  1
  Pr3+  Pr17  1  0.37304470  0.74548972  0.42723601  1
  Pr3+  Pr18  1  0.60962291  0.49171915  0.93758423  1
  Pr3+  Pr19  1  0.62987556  0.00003384  0.42987412  1
  Pr3+  Pr20  1  0.61189879  0.23431491  0.94514488  1
  Pr3+  Pr21  1  0.86015083  0.24304365  0.93675598  1
  Pr3+  Pr22  1  0.62465379  0.74415895  0.43486000  1
  Pr3+  Pr23  1  0.47942950  0.60929694  0.07961808  1
  Pr3+  Pr24  1  0.60755322  0.73303246  0.94150606  1
  Pr3+  Pr25  1  0.13587592  -0.00220623  0.44369116  1
  Nd3+  Nd26  1  0.23038003  0.36602768  0.05840008  1
  Nd3+  Nd27  1  0.36231940  0.73587402  0.94053582  1
  Nd3+  Nd28  1  0.11233125  0.23560157  0.93307297  1
  Nd3+  Nd29  1  0.00129211  0.36940290  0.56100444  1
  Nd3+  Nd30  1  0.75267829  0.62156417  0.55458589  1
  Nd3+  Nd31  1  -0.01132248  0.11088771  0.05343840  1
  Nd3+  Nd32  1  0.73703136  0.36467718  0.05753608  1
  Nd3+  Nd33  1  0.00222000  0.11682487  0.56827619  1
  Nd3+  Nd34  1  0.74905730  0.11620293  0.56598460  1
  Nd3+  Nd35  1  0.25248038  0.61885475  0.55717936  1
  Nd3+  Nd36  1  0.47637603  0.86025995  0.07222854  1
  Nd3+  Nd37  1  0.87761641  0.24661098  0.44336764  1
  Nd3+  Nd38  1  0.22924037  0.86294980  0.06504668  1
  Nd3+  Nd39  1  0.86408513  0.49099437  0.93205108  1
  Nd3+  Nd40  1  0.73593459  0.10976424  0.06437864  1
  Nd3+  Nd41  1  0.50013054  0.61897902  0.55174898  1
  Nd3+  Nd42  1  0.61538132  -0.02096123  0.94137576  1
  Nd3+  Nd43  1  0.75153150  0.36911293  0.56514844  1
  Nd3+  Nd44  1  0.10957044  0.49345263  0.93477046  1
  Sm3+  Sm45  1  0.36073868  0.23732576  0.94455842  1
  Sm3+  Sm46  1  0.00244528  0.62151625  0.55145456  1
  Sm3+  Sm47  1  0.35854451  0.49394603  0.93571092  1
  Sm3+  Sm48  1  0.73669143  0.61749876  0.05395920  1
  Sm3+  Sm49  1  0.13262945  0.49370683  0.43953377  1
  Sm3+  Sm50  1  0.87950892  0.49481720  0.44139363  1
  Sm3+  Sm51  1  0.62808246  0.49468973  0.44047369  1
  Sm3+  Sm52  1  0.25125375  0.37355290  0.56534432  1
  Sm3+  Sm53  1  0.62717471  0.24895110  0.44852582  1
  Sm3+  Sm54  1  0.00528861  0.87441108  0.55884302  1
  Sm3+  Sm55  1  0.37453378  0.25086195  0.44302698  1
  Sm3+  Sm56  1  0.86321607  0.74627185  0.93770778  1
  Sm3+  Sm57  1  0.49979186  0.37177547  0.55805676  1
  Sm3+  Sm58  1  0.49762847  0.12104811  0.55753390  1
  Sm3+  Sm59  1  -0.01034469  0.86554200  0.05406748  1
  Sm3+  Sm60  1  0.10969001  0.73813368  0.93741003  1
  Sm3+  Sm61  1  -0.01252307  0.61427444  0.06681351  1
  Sm3+  Sm62  1  0.87647010  0.00747151  0.42942454  1
  Sm3+  Sm63  1  0.12997037  0.24591947  0.45180819  1
  Bi2+  Bi64  1  0.05372733  0.12073910  0.30634758  1
  Bi2+  Bi65  1  -0.00366490  0.15876226  0.77955974  1
  Bi2+  Bi66  1  -0.02727178  0.42601249  0.30668827  1
  Bi2+  Bi67  1  0.00274022  0.44687358  0.78934231  1
  Bi2+  Bi68  1  0.01438874  0.61856973  0.29325246  1
  Bi2+  Bi69  1  -0.01963126  0.61837612  0.84792244  1
  Bi2+  Bi70  1  0.01687069  0.87568495  0.28867952  1
  Bi2+  Bi71  1  -0.01763669  0.79257214  0.78942896  1
  Bi2+  Bi72  1  0.24879975  0.11312195  0.27238744  1
  Bi2+  Bi73  1  0.24428372  0.15172781  0.79430274  1
  Bi2+  Bi74  1  0.24001548  0.34801531  0.29622186  1
  Bi2+  Bi75  1  0.33227231  0.39811139  0.81172578  1
  Bi2+  Bi76  1  0.20991288  0.61618410  0.27661829  1
  Bi2+  Bi77  1  0.24348523  0.60854977  0.79509920  1
  Bi2+  Bi78  1  0.27069446  0.86581734  0.30398194  1
  Bi2+  Bi79  1  0.25023727  0.86711106  0.79389075  1
  Bi2+  Bi80  1  0.54381357  0.14465858  0.28336175  1
  Bi2+  Bi81  1  0.47534644  0.11181582  0.74656419  1
  Bi2+  Bi82  1  0.48792985  0.30676577  0.23317959  1
  Bi2+  Bi83  1  0.53899807  0.45003590  0.81664066  1
  Bi2+  Bi84  1  0.54990225  0.61906916  0.29245275  1
  Bi2+  Bi85  1  0.50403490  0.70423096  0.80709445  1
  Bi2+  Bi86  1  0.55772615  0.87979670  0.29518062  1
  Bi2+  Bi87  1  0.46995297  0.90129816  0.77648840  1
  Bi2+  Bi88  1  0.77460923  0.12372183  0.29773355  1
  Bi2+  Bi89  1  0.72189296  0.14107488  0.78759916  1
  Bi2+  Bi90  1  0.76961683  0.33942198  0.30527163  1
  Bi2+  Bi91  1  0.73415331  0.43234842  0.78906460  1
  Bi2+  Bi92  1  0.78712318  0.60255978  0.25721490  1
  Bi2+  Bi93  1  0.79291358  0.61774819  0.79984052  1
  Bi2+  Bi94  1  0.82132444  0.88103269  0.28191791  1
  Bi2+  Bi95  1  0.71427948  0.88259139  0.78923755  1
  Bi2+  Bi96  1  0.13341341  -0.00472430  0.20713962  1
  Bi2+  Bi97  1  0.08448850  -0.01627125  0.72153485  1
  Bi2+  Bi98  1  0.10122587  0.22808401  0.21247821  1
  Bi2+  Bi99  1  0.14219271  0.36882372  0.72238439  1
  Bi2+  Bi100  1  0.12238551  0.48197760  0.20755140  1
  Bi2+  Bi101  1  0.21529110  0.53025752  0.68022773  1
  Bi2+  Bi102  1  0.12505659  0.75082096  0.20826187  1
  Bi2+  Bi103  1  0.09261072  0.66327807  0.73336284  1
  Bi2+  Bi104  1  0.41716714  0.00268963  0.20167712  1
  Bi2+  Bi105  1  0.33401257  -0.01216632  0.70295334  1
  Bi2+  Bi106  1  0.30420465  0.25643637  0.19908025  1
  Bi2+  Bi107  1  0.38388897  0.31080224  0.71389214  1
  Bi2+  Bi108  1  0.38424250  0.49705070  0.20664745  1
  Bi2+  Bi109  1  0.39614010  0.52165811  0.72874278  1
  Bi2+  Bi110  1  0.41195237  0.75693115  0.20320278  1
  Bi2+  Bi111  1  0.38010443  0.74064604  0.70252787  1
  Bi2+  Bi112  1  0.66935588  0.00707265  0.20314938  1
  Bi2+  Bi113  1  0.60355921  -0.01905084  0.70855491  1
  Bi2+  Bi114  1  0.67399337  0.27154761  0.20072495  1
  Bi2+  Bi115  1  0.57477041  0.28630632  0.74772107  1
  Bi2+  Bi116  1  0.63920382  0.45716097  0.25357275  1
  Bi2+  Bi117  1  0.59784174  0.50245442  0.70983342  1
  Bi2+  Bi118  1  0.67879505  0.74239218  0.20324198  1
  Bi2+  Bi119  1  0.63252438  0.69772377  0.71759377  1
  Bi2+  Bi120  1  0.93516169  0.02449002  0.23111893  1
  Bi2+  Bi121  1  0.85327373  0.02272752  0.67786988  1
  Bi2+  Bi122  1  0.90106297  0.31049897  0.22236261  1
  Bi2+  Bi123  1  0.87206939  0.27748317  0.69615607  1
  Bi2+  Bi124  1  0.92732597  0.51266159  0.19661039  1
  Bi2+  Bi125  1  0.89209521  0.53988587  0.70750973  1
  Bi2+  Bi126  1  0.92983783  0.72668093  0.20904409  1
  Bi2+  Bi127  1  0.82934710  0.75394839  0.71933503  1
  S2-  S128  1  0.09637063  0.11227026  0.13321545  1
  S2-  S129  1  -0.01688481  0.14364876  0.66699064  1
  S2-  S130  1  0.04295619  0.35237183  0.14909201  1
  S2-  S131  1  0.01027258  0.36530486  0.65980906  1
  S2-  S132  1  0.10909759  0.61695525  0.13857115  1
  S2-  S133  1  -0.00016960  0.62787211  0.64920252  1
  S2-  S134  1  0.09469945  0.87283615  0.13399203  1
  S2-  S135  1  -0.02448068  0.90557281  0.65380684  1
  S2-  S136  1  0.34218194  0.10432115  0.14177390  1
  S2-  S137  1  0.19295117  0.10332233  0.69580393  1
  S2-  S138  1  0.26029842  0.41932870  0.15150103  1
  S2-  S139  1  0.25434897  0.28954446  0.65126511  1
  S2-  S140  1  0.34000294  0.63135693  0.14810219  1
  S2-  S141  1  0.25786502  0.71173171  0.64081280  1
  S2-  S142  1  0.33831714  0.86646669  0.14664809  1
  S2-  S143  1  0.19044546  0.89904318  0.67270739  1
  S2-  S144  1  0.54303873  0.09766291  0.16131310  1
  S2-  S145  1  0.41936090  0.11779181  0.64504014  1
  S2-  S146  1  0.49419219  0.45931432  0.13953871  1
  S2-  S147  1  0.52791785  0.36535489  0.65424434  1
  S2-  S148  1  0.54564661  0.66141876  0.17401532  1
  S2-  S149  1  0.50217011  0.65425282  0.64886274  1
  S2-  S150  1  0.53437900  0.87749642  0.17062350  1
  S2-  S151  1  0.41650830  0.87198657  0.63812782  1
  S2-  S152  1  0.76112048  0.12841069  0.16310103  1
  S2-  S153  1  0.74993172  0.16824976  0.66166769  1
  S2-  S154  1  0.77890419  0.37875153  0.15279043  1
  S2-  S155  1  0.78498847  0.39708965  0.66076393  1
  S2-  S156  1  0.75986712  0.62670347  0.15042435  1
  S2-  S157  1  0.76051747  0.63375934  0.65251160  1
  S2-  S158  1  0.76705670  0.88306850  0.16487204  1
  S2-  S159  1  0.72219496  0.91934956  0.64538906  1
  S2-  S160  1  0.12991677  -0.11046605  0.36327494  1
  S2-  S161  1  0.02478955  0.02601614  0.83216751  1
  S2-  S162  1  0.12487883  0.25946978  0.35419151  1
  S2-  S163  1  0.10808871  0.23765025  0.83273310  1
  S2-  S164  1  0.21514592  0.48699051  0.35335459  1
  S2-  S165  1  0.17050477  0.46799567  0.84234838  1
  S2-  S166  1  0.24260947  0.72431577  0.35548971  1
  S2-  S167  1  0.12758177  0.82932259  0.85237788  1
  S2-  S168  1  0.29686553  0.01082587  0.34991153  1
  S2-  S169  1  0.25377116  0.01722046  0.85129249  1
  S2-  S170  1  0.37549465  0.32264886  0.35348129  1
  S2-  S171  1  0.35883796  0.23008156  0.84656256  1
  S2-  S172  1  0.39382902  0.57827886  0.30085700  1
  S2-  S173  1  0.36878006  0.61730234  0.86417870  1
  S2-  S174  1  0.42922095  0.80552715  0.33159930  1
  S2-  S175  1  0.37404961  0.84971583  0.86265146  1
  S2-  S176  1  0.51602157  0.01017717  0.35177888  1
  S2-  S177  1  0.68875812  0.01982408  0.85415762  1
  S2-  S178  1  0.64065479  0.22729445  0.35141303  1
  S2-  S179  1  0.62387220  0.23593977  0.84512447  1
  S2-  S180  1  0.56136595  0.47964362  0.35106441  1
  S2-  S181  1  0.60144493  0.60951636  0.86206245  1
  S2-  S182  1  0.65140324  0.74971785  0.33583587  1
  S2-  S183  1  0.60342755  0.82912831  0.85571778  1
  S2-  S184  1  0.75606371  -0.00724495  0.35538885  1
  S2-  S185  1  0.84078936  0.01043200  0.77255072  1
  S2-  S186  1  0.89605182  0.14539947  0.36306039  1
  S2-  S187  1  0.85840759  0.17830619  0.84387228  1
  S2-  S188  1  0.82236331  0.49258105  0.34942407  1
  S2-  S189  1  0.86676434  0.39278739  0.84867659  1
  S2-  S190  1  0.89387206  0.77355863  0.34652962  1
  S2-  S191  1  0.85395628  0.83873454  0.85405904  1
  S2-  S192  1  0.00659324  0.12105763  0.46243677  1
  S2-  S193  1  -0.01578255  0.11398855  0.94864979  1
  S2-  S194  1  0.00324071  0.37107609  0.45477109  1
  S2-  S195  1  -0.00998750  0.36444443  0.94960735  1
  S2-  S196  1  0.00541583  0.61809629  0.44654795  1
  S2-  S197  1  -0.01609636  0.61655640  0.96214828  1
  S2-  S198  1  -0.00380033  0.87994986  0.45523684  1
  S2-  S199  1  -0.01256664  0.86280847  0.95213747  1
  S2-  S200  1  0.25415297  0.12853830  0.45231235  1
  S2-  S201  1  0.23791501  0.11723108  0.95589204  1
  S2-  S202  1  0.25098742  0.37111461  0.46189111  1
  S2-  S203  1  0.23719670  0.36347209  0.95114351  1
  S2-  S204  1  0.25394754  0.61380259  0.45450301  1
  S2-  S205  1  0.23075009  0.61356935  0.95720714  1
  S2-  S206  1  0.25842659  0.87219499  0.46267084  1
  S2-  S207  1  0.23491543  0.85664414  0.95927449  1
  S2-  S208  1  0.50157752  0.13116123  0.45417702  1
  S2-  S209  1  0.48520069  0.10999950  0.95389025  1
  S2-  S210  1  0.50285794  0.37269335  0.45536236  1
  S2-  S211  1  0.48363499  0.36425650  0.95129229  1
  S2-  S212  1  0.49816588  0.61475626  0.44534020  1
  S2-  S213  1  0.48372649  0.60860684  0.96832641  1
  S2-  S214  1  0.50455227  0.87050815  0.44989789  1
  S2-  S215  1  0.48800772  0.86266669  0.96571601  1
  S2-  S216  1  0.75047958  0.12597208  0.45952450  1
  S2-  S217  1  0.73954653  0.11200536  0.95907929  1
  S2-  S218  1  0.75283944  0.37198286  0.45777921  1
  S2-  S219  1  0.73405165  0.36674558  0.95178944  1
  S2-  S220  1  0.75336021  0.61900867  0.44906511  1
  S2-  S221  1  0.74483141  0.61584598  0.95150047  1
  S2-  S222  1  0.75322237  0.87017973  0.45062918  1
  S2-  S223  1  0.73529177  0.85699983  0.96084761  1
  S2-  S224  1  0.10989171  -0.01209074  0.03068724  1
  S2-  S225  1  0.13181298  -0.00086350  0.55391084  1
  S2-  S226  1  0.10917861  0.24257912  0.03784046  1
  S2-  S227  1  0.12693540  0.24305758  0.55575702  1
  S2-  S228  1  0.10597161  0.48862000  0.04123811  1
  S2-  S229  1  0.12431264  0.49479215  0.54556415  1
  S2-  S230  1  0.10662132  0.73655575  0.03962270  1
  S2-  S231  1  0.12212803  0.74730761  0.54163811  1
  S2-  S232  1  0.35640119  -0.01526882  0.04047180  1
  S2-  S233  1  0.37467846  0.00215170  0.54145240  1
  S2-  S234  1  0.35932549  0.24525667  0.04817761  1
  S2-  S235  1  0.37657604  0.24972116  0.54703284  1
  S2-  S236  1  0.35532801  0.48741130  0.03906651  1
  S2-  S237  1  0.37693401  0.49321464  0.55932539  1
  S2-  S238  1  0.35666460  0.73705334  0.04543871  1
  S2-  S239  1  0.38051779  0.74177198  0.53512373  1
  S2-  S240  1  0.60957627  -0.01406422  0.04974684  1
  S2-  S241  1  0.62200501  -0.00040225  0.54030880  1
  S2-  S242  1  0.60998292  0.23932345  0.05217645  1
  S2-  S243  1  0.62427347  0.24526382  0.55275395  1
  S2-  S244  1  0.61833083  0.49131535  0.04404069  1
  S2-  S245  1  0.62792726  0.49426367  0.54685271  1
  S2-  S246  1  0.60918327  0.73714790  0.05166697  1
  S2-  S247  1  0.62668122  0.74496745  0.54282703  1
  S2-  S248  1  0.86598343  -0.01237915  0.05882989  1
  S2-  S249  1  0.87667832  -0.00284248  0.53998497  1
  S2-  S250  1  0.86086095  0.23632988  0.04700663  1
  S2-  S251  1  0.87606906  0.24397635  0.54914410  1
  S2-  S252  1  0.86108652  0.49368172  0.04254463  1
  S2-  S253  1  0.87763254  0.49605921  0.54639487  1
  S2-  S254  1  0.86677600  0.73890409  0.04745469  1
  S2-  S255  1  0.88005391  0.74788375  0.54824460  1
