# generated using pymatgen
data_La6Ce7Pr13Nd19Sm19(BiS2)64
_symmetry_space_group_name_H-M   'P 1'
_cell_length_a   16.11771309
_cell_length_b   16.13360748
_cell_length_c   27.16466679
_cell_angle_alpha   90.12969803
_cell_angle_beta   90.13603473
_cell_angle_gamma   89.91939541
_symmetry_Int_Tables_number   1
_chemical_formula_structural   La6Ce7Pr13Nd19Sm19(BiS2)64
_chemical_formula_sum   'La6 Ce7 Pr13 Nd19 Sm19 Bi64 S128'
_cell_volume   7063.76961300
_cell_formula_units_Z   1
loop_
 _symmetry_equiv_pos_site_id
 _symmetry_equiv_pos_as_xyz
  1  'x, y, z'
loop_
 _atom_type_symbol
 _atom_type_oxidation_number
  La3+  3.0
  Ce3+  3.0
  Pr3+  3.0
  Nd3+  3.0
  Sm3+  3.0
  Bi2+  2.0
  S2-  -2.0
loop_
 _atom_site_type_symbol
 _atom_site_label
 _atom_site_symmetry_multiplicity
 _atom_site_fract_x
 _atom_site_fract_y
 _atom_site_fract_z
 _atom_site_occupancy
  La3+  La0  1  0.37472054  -0.00133532  0.42639789  1
  La3+  La1  1  0.76654056  0.13908657  0.07920420  1
  La3+  La2  1  0.87071192  0.00286993  0.90511332  1
  La3+  La3  1  0.63155395  0.74156432  0.39051152  1
  La3+  La4  1  0.37516302  0.50376388  0.89778291  1
  La3+  La5  1  0.73728716  0.11759304  0.59065352  1
  Ce3+  Ce6  1  0.25213243  0.12438700  0.56068158  1
  Ce3+  Ce7  1  -0.00126385  0.62570593  0.56135515  1
  Ce3+  Ce8  1  0.62779378  0.50880627  0.94314850  1
  Ce3+  Ce9  1  0.86865667  0.74723345  0.44774303  1
  Ce3+  Ce10  1  -0.00448240  0.37247487  0.56722876  1
  Ce3+  Ce11  1  0.50633977  0.38246996  0.05444076  1
  Ce3+  Ce12  1  0.63194890  -0.00031732  0.42843072  1
  Pr3+  Pr13  1  0.87945907  0.51001627  0.92868786  1
  Pr3+  Pr14  1  0.26021611  0.63681642  0.06302598  1
  Pr3+  Pr15  1  0.37298588  0.49970410  0.43195045  1
  Pr3+  Pr16  1  0.88044485  0.26224956  0.92513283  1
  Pr3+  Pr17  1  0.38098536  0.75665429  0.93563377  1
  Pr3+  Pr18  1  0.37330953  0.24701167  0.42735690  1
  Pr3+  Pr19  1  0.38152589  0.00364382  0.93123612  1
  Pr3+  Pr20  1  0.36313143  0.74693344  0.40061279  1
  Pr3+  Pr21  1  0.51362993  0.89390773  0.09168185  1
  Pr3+  Pr22  1  0.87263521  0.00070548  0.44328948  1
  Pr3+  Pr23  1  0.63221451  0.00758260  0.94269114  1
  Pr3+  Pr24  1  0.74437751  0.62719771  0.56984974  1
  Pr3+  Pr25  1  0.13182336  0.25723804  0.93747354  1
  Nd3+  Nd26  1  0.12268458  0.49690998  0.44804084  1
  Nd3+  Nd27  1  0.62307501  0.50107499  0.43737270  1
  Nd3+  Nd28  1  0.76039121  0.38283078  0.05811898  1
  Nd3+  Nd29  1  0.12155159  0.74949851  0.43827281  1
  Nd3+  Nd30  1  0.25211518  0.62668189  0.56149589  1
  Nd3+  Nd31  1  0.25928247  0.38339188  0.06154746  1
  Nd3+  Nd32  1  0.87714138  0.75557717  0.93624891  1
  Nd3+  Nd33  1  0.87033286  0.24781970  0.44827867  1
  Nd3+  Nd34  1  0.75808805  0.63463025  0.06352782  1
  Nd3+  Nd35  1  0.25259168  0.87425991  0.55843056  1
  Nd3+  Nd36  1  -0.00359480  0.12297057  0.56957988  1
  Nd3+  Nd37  1  0.50518627  0.63445640  0.06305180  1
  Nd3+  Nd38  1  0.00379902  0.13376270  0.04960538  1
  Nd3+  Nd39  1  0.00070566  0.88567506  0.06154073  1
  Nd3+  Nd40  1  0.76234187  0.88629264  0.06774121  1
  Nd3+  Nd41  1  0.87018690  0.50027668  0.44843307  1
  Nd3+  Nd42  1  0.63093493  0.25835054  0.93510238  1
  Nd3+  Nd43  1  0.38069328  0.25539505  0.94259950  1
  Nd3+  Nd44  1  0.49657950  0.37356847  0.55908885  1
  Sm3+  Sm45  1  0.49818583  0.12177986  0.55547888  1
  Sm3+  Sm46  1  0.74241453  0.87478427  0.55758508  1
  Sm3+  Sm47  1  0.12746683  0.00543475  0.94464867  1
  Sm3+  Sm48  1  0.62921985  0.75721428  0.94863984  1
  Sm3+  Sm49  1  0.49753986  0.62652168  0.54939066  1
  Sm3+  Sm50  1  0.13549659  0.50979655  0.94334670  1
  Sm3+  Sm51  1  0.62475559  0.24754895  0.44418745  1
  Sm3+  Sm52  1  0.12144727  -0.00060462  0.44918539  1
  Sm3+  Sm53  1  0.49792456  0.87240106  0.54303065  1
  Sm3+  Sm54  1  0.00739469  0.63249646  0.05194140  1
  Sm3+  Sm55  1  0.00752661  0.38350201  0.05088191  1
  Sm3+  Sm56  1  0.50873513  0.13165125  0.06025606  1
  Sm3+  Sm57  1  0.12210714  0.24876022  0.45188660  1
  Sm3+  Sm58  1  0.74478330  0.37446342  0.56216961  1
  Sm3+  Sm59  1  0.26003560  0.88561386  0.05731472  1
  Sm3+  Sm60  1  -0.00326377  0.87485667  0.56192258  1
  Sm3+  Sm61  1  0.25797748  0.13001126  0.05311502  1
  Sm3+  Sm62  1  0.13107965  0.75835500  0.94736672  1
  Sm3+  Sm63  1  0.25165939  0.37361817  0.55799451  1
  Bi2+  Bi64  1  -0.00764518  0.12321842  0.30552306  1
  Bi2+  Bi65  1  0.01049195  0.14610238  0.79564033  1
  Bi2+  Bi66  1  0.02776623  0.38435929  0.28771643  1
  Bi2+  Bi67  1  -0.00223041  0.39449798  0.77194568  1
  Bi2+  Bi68  1  -0.00095801  0.65831759  0.29823606  1
  Bi2+  Bi69  1  -0.01949067  0.59307849  0.81400960  1
  Bi2+  Bi70  1  0.01139522  0.85869103  0.30813718  1
  Bi2+  Bi71  1  0.01590897  0.79333199  0.78184966  1
  Bi2+  Bi72  1  0.24227106  0.14767698  0.28258098  1
  Bi2+  Bi73  1  0.27601203  0.07285450  0.80034662  1
  Bi2+  Bi74  1  0.23222113  0.34640726  0.30263246  1
  Bi2+  Bi75  1  0.25130978  0.35982305  0.79041017  1
  Bi2+  Bi76  1  0.20869304  0.61153623  0.28764843  1
  Bi2+  Bi77  1  0.26148309  0.68557621  0.78217539  1
  Bi2+  Bi78  1  0.20902805  0.87834678  0.28118519  1
  Bi2+  Bi79  1  0.30395051  0.87391099  0.81288819  1
  Bi2+  Bi80  1  0.48526478  0.19863460  0.28526391  1
  Bi2+  Bi81  1  0.48874971  0.11540077  0.72901938  1
  Bi2+  Bi82  1  0.42424928  0.37982736  0.31671556  1
  Bi2+  Bi83  1  0.50694883  0.34733791  0.79685368  1
  Bi2+  Bi84  1  0.48588537  0.58239896  0.28527136  1
  Bi2+  Bi85  1  0.51457745  0.71899680  0.77897759  1
  Bi2+  Bi86  1  0.48825054  0.89659934  0.28863909  1
  Bi2+  Bi87  1  0.49519562  0.91281725  0.80478126  1
  Bi2+  Bi88  1  0.73415737  0.12589031  0.30956252  1
  Bi2+  Bi89  1  0.73050649  0.11938228  0.79098639  1
  Bi2+  Bi90  1  0.74445855  0.36251374  0.28644197  1
  Bi2+  Bi91  1  0.75532315  0.44099188  0.78886505  1
  Bi2+  Bi92  1  0.78711541  0.59461482  0.29448257  1
  Bi2+  Bi93  1  0.79039322  0.63324737  0.81898663  1
  Bi2+  Bi94  1  0.81693244  0.86843382  0.27871718  1
  Bi2+  Bi95  1  0.75051030  0.84655341  0.79070767  1
  Bi2+  Bi96  1  0.08555020  0.02130018  0.22361504  1
  Bi2+  Bi97  1  0.14096609  -0.05668631  0.75802827  1
  Bi2+  Bi98  1  0.08437643  0.22666998  0.22321844  1
  Bi2+  Bi99  1  0.17257725  0.20616328  0.73358329  1
  Bi2+  Bi100  1  0.07146964  0.52824748  0.21714711  1
  Bi2+  Bi101  1  0.13940645  0.52608388  0.75884746  1
  Bi2+  Bi102  1  0.08655805  0.76431850  0.21375637  1
  Bi2+  Bi103  1  0.13391590  0.72048189  0.69671095  1
  Bi2+  Bi104  1  0.34255310  0.00845952  0.20065358  1
  Bi2+  Bi105  1  0.35202646  -0.01978318  0.69792630  1
  Bi2+  Bi106  1  0.35771004  0.26362177  0.20611616  1
  Bi2+  Bi107  1  0.35336611  0.24226123  0.69651840  1
  Bi2+  Bi108  1  0.34246190  0.46073218  0.20990473  1
  Bi2+  Bi109  1  0.38094882  0.50384709  0.69401951  1
  Bi2+  Bi110  1  0.35273362  0.72472231  0.19859514  1
  Bi2+  Bi111  1  0.39449160  0.76679308  0.69138443  1
  Bi2+  Bi112  1  0.61103672  0.00110638  0.21956900  1
  Bi2+  Bi113  1  0.61859868  -0.08279405  0.71347639  1
  Bi2+  Bi114  1  0.60296937  0.26404590  0.20285441  1
  Bi2+  Bi115  1  0.60342810  0.28331963  0.70632705  1
  Bi2+  Bi116  1  0.59717342  0.44974513  0.23441259  1
  Bi2+  Bi117  1  0.61964884  0.56142079  0.74723276  1
  Bi2+  Bi118  1  0.61947362  0.73926876  0.20513305  1
  Bi2+  Bi119  1  0.67053063  0.73079842  0.68680767  1
  Bi2+  Bi120  1  0.88694205  0.01508117  0.21116148  1
  Bi2+  Bi121  1  0.89308267  -0.00487587  0.70009393  1
  Bi2+  Bi122  1  0.87732813  0.25994447  0.20610284  1
  Bi2+  Bi123  1  0.88438290  0.26604525  0.69907312  1
  Bi2+  Bi124  1  0.87781753  0.46128868  0.21780913  1
  Bi2+  Bi125  1  0.87476662  0.53995566  0.71369290  1
  Bi2+  Bi126  1  0.87659497  0.73738189  0.20260616  1
  Bi2+  Bi127  1  0.85830888  0.74420411  0.71245517  1
  S2-  S128  1  -0.07820634  0.13652553  0.13673355  1
  S2-  S129  1  -0.01165019  0.13236820  0.66888837  1
  S2-  S130  1  -0.03173972  0.37439522  0.14532126  1
  S2-  S131  1  0.01228178  0.38065575  0.66409451  1
  S2-  S132  1  -0.00315734  0.64208441  0.14888763  1
  S2-  S133  1  -0.00667546  0.63799920  0.65864861  1
  S2-  S134  1  -0.10813667  0.88506959  0.13977519  1
  S2-  S135  1  0.00103073  0.89881099  0.65908531  1
  S2-  S136  1  0.25599100  0.11085300  0.15027824  1
  S2-  S137  1  0.23799102  0.10398794  0.65748196  1
  S2-  S138  1  0.23642571  0.36162184  0.15963815  1
  S2-  S139  1  0.27674080  0.37691795  0.65503653  1
  S2-  S140  1  0.26190336  0.60248480  0.16196921  1
  S2-  S141  1  0.24859680  0.59702508  0.65950594  1
  S2-  S142  1  0.27326075  0.86757206  0.15455604  1
  S2-  S143  1  0.24332569  0.84834453  0.65714241  1
  S2-  S144  1  0.49044509  0.04707478  0.14693275  1
  S2-  S145  1  0.57847810  0.13175473  0.64321622  1
  S2-  S146  1  0.50259997  0.38449568  0.15217115  1
  S2-  S147  1  0.50915140  0.39499883  0.65851768  1
  S2-  S148  1  0.49546017  0.63958151  0.16323107  1
  S2-  S149  1  0.46565376  0.62854621  0.64728164  1
  S2-  S150  1  0.47418917  0.83762167  0.18735570  1
  S2-  S151  1  0.48235581  0.89321937  0.64228962  1
  S2-  S152  1  0.72925211  0.07589562  0.17722039  1
  S2-  S153  1  0.78367648  0.14084634  0.69038509  1
  S2-  S154  1  0.74687549  0.28737031  0.14096929  1
  S2-  S155  1  0.74398468  0.33844027  0.65799738  1
  S2-  S156  1  0.74384352  0.64470347  0.16291722  1
  S2-  S157  1  0.71416317  0.55742522  0.66063252  1
  S2-  S158  1  0.66117908  0.87858207  0.15145792  1
  S2-  S159  1  0.74260645  0.95659591  0.64397345  1
  S2-  S160  1  0.10893918  -0.01245596  0.35161901  1
  S2-  S161  1  0.11692079  0.01950822  0.84676286  1
  S2-  S162  1  0.12894674  0.22807861  0.35483268  1
  S2-  S163  1  0.10998779  0.27857643  0.83867737  1
  S2-  S164  1  0.13843673  0.48190014  0.34939330  1
  S2-  S165  1  0.21134057  0.49929228  0.85595043  1
  S2-  S166  1  0.20473860  0.74364770  0.35034467  1
  S2-  S167  1  0.14442480  0.75687736  0.84985702  1
  S2-  S168  1  0.35022257  -0.10075654  0.34319032  1
  S2-  S169  1  0.44077179  0.06337241  0.84283608  1
  S2-  S170  1  0.36911191  0.12641463  0.35297416  1
  S2-  S171  1  0.37023693  0.28337959  0.84489488  1
  S2-  S172  1  0.35212811  0.59055363  0.34656545  1
  S2-  S173  1  0.40157370  0.47163324  0.79326243  1
  S2-  S174  1  0.48700327  0.73963895  0.32810197  1
  S2-  S175  1  0.39282138  0.66095210  0.85116024  1
  S2-  S176  1  0.58699127  0.02793485  0.33211806  1
  S2-  S177  1  0.71173163  -0.00691823  0.85295643  1
  S2-  S178  1  0.64101400  0.26425830  0.34625339  1
  S2-  S179  1  0.62561462  0.22563760  0.83669375  1
  S2-  S180  1  0.63537689  0.57829640  0.34770290  1
  S2-  S181  1  0.60615937  0.47971023  0.84648318  1
  S2-  S182  1  0.65304326  0.82348515  0.29390011  1
  S2-  S183  1  0.64720545  0.74137485  0.85068995  1
  S2-  S184  1  0.79077240  -0.00325849  0.35421865  1
  S2-  S185  1  0.91145289  0.02011490  0.79985790  1
  S2-  S186  1  0.87072580  0.21181779  0.34977615  1
  S2-  S187  1  0.86022109  0.19668340  0.83067886  1
  S2-  S188  1  0.84602366  0.47024979  0.35173040  1
  S2-  S189  1  0.88340820  0.39438029  0.85257180  1
  S2-  S190  1  0.80345621  0.72874825  0.35825667  1
  S2-  S191  1  0.89002285  0.84677855  0.85380016  1
  S2-  S192  1  -0.00106629  0.12491672  0.46177057  1
  S2-  S193  1  0.00402649  0.13038789  0.94369154  1
  S2-  S194  1  -0.00362977  0.37255864  0.45802211  1
  S2-  S195  1  0.01256520  0.38868388  0.94803837  1
  S2-  S196  1  -0.00214325  0.62270405  0.45365725  1
  S2-  S197  1  0.00897564  0.63310470  0.94823702  1
  S2-  S198  1  -0.00334594  0.87371611  0.45615815  1
  S2-  S199  1  0.00745246  0.88224682  0.95499412  1
  S2-  S200  1  0.24362202  0.12385680  0.45514722  1
  S2-  S201  1  0.25476744  0.12891798  0.94822446  1
  S2-  S202  1  0.24822907  0.37115940  0.45294001  1
  S2-  S203  1  0.25872330  0.38313505  0.95507959  1
  S2-  S204  1  0.24441965  0.62349278  0.45527688  1
  S2-  S205  1  0.25612997  0.63390518  0.95613023  1
  S2-  S206  1  0.24339707  0.87547995  0.45291089  1
  S2-  S207  1  0.25298511  0.88271976  0.95259141  1
  S2-  S208  1  0.50287376  0.12592041  0.45172894  1
  S2-  S209  1  0.50648307  0.13323740  0.95574998  1
  S2-  S210  1  0.49976324  0.37267645  0.45130379  1
  S2-  S211  1  0.49979610  0.38475431  0.94808066  1
  S2-  S212  1  0.49865544  0.62676620  0.44625071  1
  S2-  S213  1  0.50470104  0.63166635  0.95580179  1
  S2-  S214  1  0.50602554  0.87001493  0.43906618  1
  S2-  S215  1  0.50747064  0.88067045  0.95031793  1
  S2-  S216  1  0.74659480  0.12611418  0.46058325  1
  S2-  S217  1  0.75660178  0.13621604  0.94901867  1
  S2-  S218  1  0.74607240  0.37387753  0.45661978  1
  S2-  S219  1  0.75207671  0.38511107  0.95208461  1
  S2-  S220  1  0.74483784  0.62254745  0.46199113  1
  S2-  S221  1  0.75393488  0.63198963  0.95674738  1
  S2-  S222  1  0.74499906  0.86981265  0.45323971  1
  S2-  S223  1  0.75407566  0.87744186  0.95921478  1
  S2-  S224  1  0.13067184  0.00704288  0.05009670  1
  S2-  S225  1  0.12246172  -0.00206438  0.55418274  1
  S2-  S226  1  0.13248205  0.25692182  0.04620195  1
  S2-  S227  1  0.12523801  0.24982009  0.55735090  1
  S2-  S228  1  0.13201730  0.50828045  0.04936977  1
  S2-  S229  1  0.12572340  0.49738247  0.55414925  1
  S2-  S230  1  0.13027930  0.76148273  0.05261982  1
  S2-  S231  1  0.12283763  0.75157039  0.54633981  1
  S2-  S232  1  0.38201961  0.00676671  0.04068309  1
  S2-  S233  1  0.37532426  -0.00038517  0.53909409  1
  S2-  S234  1  0.38129416  0.25295699  0.04978329  1
  S2-  S235  1  0.37528134  0.24815163  0.54144099  1
  S2-  S236  1  0.38144814  0.50801329  0.05245986  1
  S2-  S237  1  0.37305378  0.49949338  0.54076050  1
  S2-  S238  1  0.38530718  0.76477242  0.04729898  1
  S2-  S239  1  0.37444754  0.74944803  0.54213585  1
  S2-  S240  1  0.63599051  0.01366020  0.04889141  1
  S2-  S241  1  0.61959194  -0.00242604  0.53876105  1
  S2-  S242  1  0.62943778  0.25555321  0.04246907  1
  S2-  S243  1  0.62267499  0.25079760  0.54758096  1
  S2-  S244  1  0.63303067  0.50840819  0.05228743  1
  S2-  S245  1  0.62038860  0.49832198  0.54539628  1
  S2-  S246  1  0.62994602  0.75839060  0.05236508  1
  S2-  S247  1  0.61943913  0.75083507  0.55087359  1
  S2-  S248  1  0.88076137  0.01028658  0.03655696  1
  S2-  S249  1  0.87286234  -0.00068867  0.54966039  1
  S2-  S250  1  0.88449729  0.26306469  0.03361512  1
  S2-  S251  1  0.86755699  0.24643802  0.55520403  1
  S2-  S252  1  0.88348882  0.50896634  0.04178251  1
  S2-  S253  1  0.87072106  0.49814017  0.55534829  1
  S2-  S254  1  0.88358107  0.75389262  0.04233355  1
  S2-  S255  1  0.87101938  0.75299763  0.55477012  1
