# generated using pymatgen
data_La6Ce7Pr13Nd19Sm19(BiS2)64
_symmetry_space_group_name_H-M   'P 1'
_cell_length_a   16.09657847
_cell_length_b   16.09326922
_cell_length_c   27.36159438
_cell_angle_alpha   89.75958351
_cell_angle_beta   89.83028766
_cell_angle_gamma   89.96449696
_symmetry_Int_Tables_number   1
_chemical_formula_structural   La6Ce7Pr13Nd19Sm19(BiS2)64
_chemical_formula_sum   'La6 Ce7 Pr13 Nd19 Sm19 Bi64 S128'
_cell_volume   7087.83239470
_cell_formula_units_Z   1
loop_
 _symmetry_equiv_pos_site_id
 _symmetry_equiv_pos_as_xyz
  1  'x, y, z'
loop_
 _atom_type_symbol
 _atom_type_oxidation_number
  La3+  3.0
  Ce3+  3.0
  Pr3+  3.0
  Nd3+  3.0
  Sm3+  3.0
  Bi2+  2.0
  S2-  -2.0
loop_
 _atom_site_type_symbol
 _atom_site_label
 _atom_site_symmetry_multiplicity
 _atom_site_fract_x
 _atom_site_fract_y
 _atom_site_fract_z
 _atom_site_occupancy
  La3+  La0  1  0.37360535  0.24395425  0.43058956  1
  La3+  La1  1  0.50490758  0.85918668  0.56782975  1
  La3+  La2  1  0.12418957  0.51155291  0.88026521  1
  La3+  La3  1  0.61724388  0.75080170  0.38987409  1
  La3+  La4  1  0.49347172  0.36205279  0.10599376  1
  La3+  La5  1  0.51001944  0.36653030  0.56238515  1
  Ce3+  Ce6  1  0.74793922  0.87171467  0.06160670  1
  Ce3+  Ce7  1  0.12334130  0.00005497  0.93833021  1
  Ce3+  Ce8  1  0.37976366  -0.01471589  0.44991518  1
  Ce3+  Ce9  1  0.37443204  0.00135774  0.94454027  1
  Ce3+  Ce10  1  0.87194222  0.50284612  0.93001609  1
  Ce3+  Ce11  1  0.11777081  0.25867633  0.92957031  1
  Ce3+  Ce12  1  0.37756196  0.49945360  0.93330072  1
  Pr3+  Pr13  1  0.00410428  0.10731460  0.57153739  1
  Pr3+  Pr14  1  0.75171451  0.37662131  0.06442732  1
  Pr3+  Pr15  1  0.37746652  0.75184417  0.93021624  1
  Pr3+  Pr16  1  0.75715537  0.61783391  0.55857346  1
  Pr3+  Pr17  1  -0.00088946  0.87049282  0.06188721  1
  Pr3+  Pr18  1  0.50480916  0.11811059  0.55605843  1
  Pr3+  Pr19  1  0.49691666  0.87201881  0.06744329  1
  Pr3+  Pr20  1  0.88210050  0.49125270  0.43948396  1
  Pr3+  Pr21  1  0.25070238  0.62123297  0.05363204  1
  Pr3+  Pr22  1  0.24869079  0.12922075  0.05381996  1
  Pr3+  Pr23  1  0.24763898  0.87378561  0.06051635  1
  Pr3+  Pr24  1  0.26164260  0.36282048  0.59335945  1
  Pr3+  Pr25  1  0.49006286  0.62072371  0.06611122  1
  Nd3+  Nd26  1  0.37136133  0.74310253  0.43289326  1
  Nd3+  Nd27  1  0.88307755  -0.00083776  0.43306834  1
  Nd3+  Nd28  1  -0.00077710  0.12635256  0.06061772  1
  Nd3+  Nd29  1  0.87393866  0.25317461  0.93328548  1
  Nd3+  Nd30  1  0.00694566  0.35757333  0.57331327  1
  Nd3+  Nd31  1  0.87417712  0.74783163  0.94336205  1
  Nd3+  Nd32  1  0.74866133  0.12736320  0.05785135  1
  Nd3+  Nd33  1  0.74230254  0.62090656  0.06713319  1
  Nd3+  Nd34  1  0.00352709  0.86046161  0.56909119  1
  Nd3+  Nd35  1  0.87538973  -0.00190534  0.94565510  1
  Nd3+  Nd36  1  0.88008708  0.75344632  0.42789749  1
  Nd3+  Nd37  1  0.13364239  0.75923513  0.91098814  1
  Nd3+  Nd38  1  0.62203630  0.74908545  0.93580803  1
  Nd3+  Nd39  1  0.88127394  0.24071503  0.43759633  1
  Nd3+  Nd40  1  0.64088917  0.49440438  0.42735388  1
  Nd3+  Nd41  1  0.12971098  0.49025700  0.43962000  1
  Nd3+  Nd42  1  -0.00332661  0.37833451  0.05765703  1
  Nd3+  Nd43  1  0.75403501  0.11714486  0.55670718  1
  Nd3+  Nd44  1  0.25376120  0.85573445  0.57417293  1
  Sm3+  Sm45  1  0.62371825  0.00029448  0.95082649  1
  Sm3+  Sm46  1  0.13277733  0.24239430  0.44151555  1
  Sm3+  Sm47  1  0.75559365  0.86494003  0.55164903  1
  Sm3+  Sm48  1  0.50805580  0.61709362  0.54690664  1
  Sm3+  Sm49  1  0.25617606  0.11921067  0.56221625  1
  Sm3+  Sm50  1  0.62143869  0.24183211  0.42790328  1
  Sm3+  Sm51  1  0.25613915  0.61316601  0.56193042  1
  Sm3+  Sm52  1  0.25059765  0.37488681  0.05225414  1
  Sm3+  Sm53  1  0.62438562  0.25167395  0.94503472  1
  Sm3+  Sm54  1  0.13034618  -0.00845166  0.45347540  1
  Sm3+  Sm55  1  0.00512438  0.61750204  0.54937906  1
  Sm3+  Sm56  1  0.62718988  -0.01234275  0.44188827  1
  Sm3+  Sm57  1  0.37528486  0.25494041  0.93618459  1
  Sm3+  Sm58  1  0.00284149  0.62222940  0.04573543  1
  Sm3+  Sm59  1  0.49846851  0.12923258  0.05724296  1
  Sm3+  Sm60  1  0.38191806  0.49413432  0.43844536  1
  Sm3+  Sm61  1  0.75390970  0.36657867  0.56017388  1
  Sm3+  Sm62  1  0.13087844  0.74665102  0.43735056  1
  Sm3+  Sm63  1  0.61857584  0.49771128  0.94487985  1
  Bi2+  Bi64  1  0.01458754  0.22609061  0.31875636  1
  Bi2+  Bi65  1  0.01936630  0.09361551  0.79775601  1
  Bi2+  Bi66  1  -0.00111849  0.42002343  0.32729907  1
  Bi2+  Bi67  1  -0.06656860  0.34139490  0.78243655  1
  Bi2+  Bi68  1  -0.02520290  0.61240023  0.29594113  1
  Bi2+  Bi69  1  -0.12079810  0.60276308  0.77621642  1
  Bi2+  Bi70  1  0.02556323  0.79523850  0.32332655  1
  Bi2+  Bi71  1  -0.02809233  0.87868669  0.79466007  1
  Bi2+  Bi72  1  0.18441109  0.11155721  0.28983562  1
  Bi2+  Bi73  1  0.21351463  0.13077337  0.78898608  1
  Bi2+  Bi74  1  0.25873643  0.35443677  0.28564148  1
  Bi2+  Bi75  1  0.27076830  0.38967279  0.78466725  1
  Bi2+  Bi76  1  0.20345681  0.61993779  0.28406164  1
  Bi2+  Bi77  1  0.24063893  0.64718149  0.77954823  1
  Bi2+  Bi78  1  0.19211591  0.88307014  0.29547152  1
  Bi2+  Bi79  1  0.24030666  0.89855493  0.78088067  1
  Bi2+  Bi80  1  0.45175994  0.10444583  0.28113541  1
  Bi2+  Bi81  1  0.56803046  0.11731547  0.78441911  1
  Bi2+  Bi82  1  0.50872222  0.37019106  0.30046487  1
  Bi2+  Bi83  1  0.51429076  0.37529806  0.79280499  1
  Bi2+  Bi84  1  0.47632387  0.60924713  0.28586324  1
  Bi2+  Bi85  1  0.54008016  0.58873255  0.77330302  1
  Bi2+  Bi86  1  0.45695928  0.89733555  0.29310796  1
  Bi2+  Bi87  1  0.50408232  0.87774615  0.79676346  1
  Bi2+  Bi88  1  0.73671767  0.15281896  0.30495793  1
  Bi2+  Bi89  1  0.77045369  0.22448075  0.81179425  1
  Bi2+  Bi90  1  0.81528204  0.37066017  0.28785147  1
  Bi2+  Bi91  1  0.75562482  0.42076101  0.82074139  1
  Bi2+  Bi92  1  0.75808594  0.61464528  0.28491857  1
  Bi2+  Bi93  1  0.70827166  0.60765095  0.84114716  1
  Bi2+  Bi94  1  0.79862920  0.89764671  0.26381547  1
  Bi2+  Bi95  1  0.73281884  0.78924795  0.80119623  1
  Bi2+  Bi96  1  0.05725333  0.00122804  0.22932844  1
  Bi2+  Bi97  1  0.12340567  0.01009604  0.70893080  1
  Bi2+  Bi98  1  0.09230835  0.32454838  0.22469823  1
  Bi2+  Bi99  1  0.11651902  0.24318671  0.71149581  1
  Bi2+  Bi100  1  0.11508409  0.51129806  0.18732173  1
  Bi2+  Bi101  1  0.10723341  0.55254039  0.67779888  1
  Bi2+  Bi102  1  0.11658068  0.71499208  0.19941661  1
  Bi2+  Bi103  1  0.05346245  0.82261211  0.69774155  1
  Bi2+  Bi104  1  0.31041636  0.00983789  0.21921692  1
  Bi2+  Bi105  1  0.38761978  0.05185086  0.75693205  1
  Bi2+  Bi106  1  0.35079238  0.23554187  0.20961546  1
  Bi2+  Bi107  1  0.39161389  0.23105091  0.70827388  1
  Bi2+  Bi108  1  0.30608763  0.50411065  0.21104573  1
  Bi2+  Bi109  1  0.41076231  0.51271349  0.70569409  1
  Bi2+  Bi110  1  0.37004870  0.75662462  0.20437867  1
  Bi2+  Bi111  1  0.37370371  0.77806952  0.69198818  1
  Bi2+  Bi112  1  0.62611775  0.00853980  0.26157042  1
  Bi2+  Bi113  1  0.67387579  -0.03996913  0.75478701  1
  Bi2+  Bi114  1  0.63713146  0.21492418  0.21232071  1
  Bi2+  Bi115  1  0.64558461  0.22437242  0.69683476  1
  Bi2+  Bi116  1  0.64893846  0.49336694  0.20418226  1
  Bi2+  Bi117  1  0.67516788  0.47517237  0.71725500  1
  Bi2+  Bi118  1  0.65027037  0.75301678  0.18855908  1
  Bi2+  Bi119  1  0.62189008  0.73297063  0.68742331  1
  Bi2+  Bi120  1  0.87134336  0.06203579  0.21918741  1
  Bi2+  Bi121  1  0.83918767  0.06780471  0.75057072  1
  Bi2+  Bi122  1  0.90475399  0.25743048  0.20952087  1
  Bi2+  Bi123  1  0.83711199  0.26983753  0.68954866  1
  Bi2+  Bi124  1  0.90117745  0.50406496  0.20805848  1
  Bi2+  Bi125  1  0.87841472  0.46263380  0.69426267  1
  Bi2+  Bi126  1  0.93356945  0.77799078  0.22039239  1
  Bi2+  Bi127  1  0.85928955  0.78540237  0.71109373  1
  S2-  S128  1  0.00681096  0.12786058  0.15914076  1
  S2-  S129  1  -0.00559894  0.22121339  0.64727192  1
  S2-  S130  1  -0.11568783  0.38171439  0.13578832  1
  S2-  S131  1  0.11367543  0.38591524  0.65185665  1
  S2-  S132  1  -0.00590536  0.62293078  0.14444570  1
  S2-  S133  1  -0.00035000  0.67942587  0.64111986  1
  S2-  S134  1  0.03996383  0.87654142  0.15939162  1
  S2-  S135  1  -0.01136329  0.97497622  0.64447105  1
  S2-  S136  1  0.25203052  0.13155196  0.15447622  1
  S2-  S137  1  0.25688374  0.20789991  0.64688062  1
  S2-  S138  1  0.32277736  0.36600913  0.14213013  1
  S2-  S139  1  0.26942604  0.51507316  0.64714463  1
  S2-  S140  1  0.35110880  0.62703003  0.13864511  1
  S2-  S141  1  0.24492297  0.71921721  0.64240180  1
  S2-  S142  1  0.27596562  0.86264847  0.15963129  1
  S2-  S143  1  0.28072656  0.91609152  0.66944810  1
  S2-  S144  1  0.49450799  0.19590451  0.14757034  1
  S2-  S145  1  0.51176448  0.13888755  0.65491349  1
  S2-  S146  1  0.49687480  0.43371374  0.20475772  1
  S2-  S147  1  0.41493296  0.36360335  0.64987971  1
  S2-  S148  1  0.56870934  0.62268200  0.15596617  1
  S2-  S149  1  0.48579410  0.63991152  0.64490676  1
  S2-  S150  1  0.50384650  0.84355521  0.16677812  1
  S2-  S151  1  0.50864390  0.87268922  0.66839995  1
  S2-  S152  1  0.74117566  0.13110431  0.15668581  1
  S2-  S153  1  0.76184788  0.10747858  0.65531256  1
  S2-  S154  1  0.65981944  0.35720857  0.15071017  1
  S2-  S155  1  0.63917578  0.36960487  0.63519410  1
  S2-  S156  1  0.76777961  0.61910161  0.16674662  1
  S2-  S157  1  0.72365340  0.61680226  0.65880505  1
  S2-  S158  1  0.76687557  0.87644084  0.15767731  1
  S2-  S159  1  0.74010648  0.84939628  0.65002381  1
  S2-  S160  1  0.11385314  0.00024180  0.35597251  1
  S2-  S161  1  0.12090302  -0.09169352  0.85391503  1
  S2-  S162  1  0.23910450  0.23577811  0.35968235  1
  S2-  S163  1  0.15674694  0.34497041  0.84575584  1
  S2-  S164  1  0.16749364  0.48280532  0.34216028  1
  S2-  S165  1  0.13960840  0.50382057  0.76495462  1
  S2-  S166  1  0.23777215  0.74950772  0.35936350  1
  S2-  S167  1  0.10657916  0.66589561  0.82988667  1
  S2-  S168  1  0.36603809  -0.01096523  0.35311664  1
  S2-  S169  1  0.37473393  -0.03610072  0.84989324  1
  S2-  S170  1  0.48198770  0.23177877  0.35162081  1
  S2-  S171  1  0.38354078  0.29024896  0.83827022  1
  S2-  S172  1  0.39133142  0.48079507  0.33985570  1
  S2-  S173  1  0.29803634  0.52437058  0.84521323  1
  S2-  S174  1  0.45194987  0.74560268  0.34503739  1
  S2-  S175  1  0.28176870  0.76676742  0.84339316  1
  S2-  S176  1  0.61432095  -0.08131411  0.35207471  1
  S2-  S177  1  0.61200889  -0.01472823  0.85438143  1
  S2-  S178  1  0.67262589  0.30394514  0.33985843  1
  S2-  S179  1  0.59815361  0.25183777  0.84765723  1
  S2-  S180  1  0.58752019  0.51871515  0.33082858  1
  S2-  S181  1  0.51212166  0.49368729  0.86284696  1
  S2-  S182  1  0.61518374  0.71431302  0.28228805  1
  S2-  S183  1  0.50900305  0.75554093  0.85880885  1
  S2-  S184  1  0.89077813  -0.10115852  0.35193646  1
  S2-  S185  1  0.87275965  -0.00600647  0.84704297  1
  S2-  S186  1  0.88679375  0.12723606  0.36176561  1
  S2-  S187  1  0.98648873  0.23201473  0.85784959  1
  S2-  S188  1  0.78236278  0.49306978  0.35735689  1
  S2-  S189  1  0.95611310  0.49498029  0.84335886  1
  S2-  S190  1  0.77792662  0.72657635  0.34959121  1
  S2-  S191  1  0.89561897  0.74868968  0.84479637  1
  S2-  S192  1  0.01122791  0.11897363  0.46432391  1
  S2-  S193  1  -0.00086879  0.12201924  0.95618789  1
  S2-  S194  1  0.00667100  0.36221721  0.46041008  1
  S2-  S195  1  -0.00537548  0.37979043  0.95344320  1
  S2-  S196  1  0.00563547  0.62149828  0.44493841  1
  S2-  S197  1  0.00370593  0.62790601  0.94423201  1
  S2-  S198  1  0.00848015  0.86918162  0.46154959  1
  S2-  S199  1  -0.00087924  0.87170148  0.95563225  1
  S2-  S200  1  0.25406102  0.11235158  0.45953748  1
  S2-  S201  1  0.24848833  0.12964271  0.94620517  1
  S2-  S202  1  0.25568626  0.37285901  0.45416070  1
  S2-  S203  1  0.25242446  0.37441522  0.95100938  1
  S2-  S204  1  0.25309010  0.61323894  0.45507117  1
  S2-  S205  1  0.24644176  0.62842231  0.94892220  1
  S2-  S206  1  0.25139711  0.86763498  0.46433835  1
  S2-  S207  1  0.24996305  0.87798546  0.95547569  1
  S2-  S208  1  0.50474930  0.11178420  0.45079768  1
  S2-  S209  1  0.50016297  0.12644492  0.95204888  1
  S2-  S210  1  0.50842696  0.37257004  0.45047818  1
  S2-  S211  1  0.50100749  0.36839290  0.95559646  1
  S2-  S212  1  0.50889232  0.61914908  0.44378619  1
  S2-  S213  1  0.50112530  0.62566837  0.95978291  1
  S2-  S214  1  0.50620469  0.86190811  0.45777772  1
  S2-  S215  1  0.50081475  0.87951871  0.96102619  1
  S2-  S216  1  0.74584897  0.11746640  0.45138503  1
  S2-  S217  1  0.74909256  0.12444534  0.95199636  1
  S2-  S218  1  0.75567737  0.36157374  0.45656238  1
  S2-  S219  1  0.74707039  0.37555402  0.95533272  1
  S2-  S220  1  0.75906447  0.62080062  0.45411029  1
  S2-  S221  1  0.74543599  0.62514129  0.95972226  1
  S2-  S222  1  0.75298082  0.87149635  0.45003269  1
  S2-  S223  1  0.74756236  0.87495251  0.95438090  1
  S2-  S224  1  0.12343871  0.00084015  0.04717762  1
  S2-  S225  1  0.13677551  -0.01100234  0.55626034  1
  S2-  S226  1  0.12162965  0.25375574  0.04453103  1
  S2-  S227  1  0.13320380  0.24083249  0.54465073  1
  S2-  S228  1  0.12488089  0.49696878  0.04905323  1
  S2-  S229  1  0.12558937  0.49500639  0.54455420  1
  S2-  S230  1  0.12495749  0.74701600  0.04657272  1
  S2-  S231  1  0.12751606  0.73984746  0.54024901  1
  S2-  S232  1  0.37541277  0.00318225  0.05218693  1
  S2-  S233  1  0.37857623  -0.00882431  0.55583612  1
  S2-  S234  1  0.37628674  0.25018316  0.04100580  1
  S2-  S235  1  0.37934417  0.24181790  0.54063191  1
  S2-  S236  1  0.37555499  0.49148047  0.04087120  1
  S2-  S237  1  0.38416600  0.49440215  0.54189119  1
  S2-  S238  1  0.37324924  0.75347759  0.03976612  1
  S2-  S239  1  0.37946836  0.73717822  0.54014009  1
  S2-  S240  1  0.62207262  0.00243613  0.05568638  1
  S2-  S241  1  0.63040805  -0.01049955  0.54808862  1
  S2-  S242  1  0.62273802  0.24924494  0.04683091  1
  S2-  S243  1  0.63174449  0.23976007  0.53565728  1
  S2-  S244  1  0.61942243  0.49594235  0.04900523  1
  S2-  S245  1  0.63330022  0.49558808  0.53650336  1
  S2-  S246  1  0.62319823  0.74911809  0.04592508  1
  S2-  S247  1  0.63171087  0.74082434  0.54755926  1
  S2-  S248  1  0.87427286  -0.00004097  0.05221112  1
  S2-  S249  1  0.87571278  -0.00947880  0.54040655  1
  S2-  S250  1  0.87464205  0.24736257  0.03971100  1
  S2-  S251  1  0.87612580  0.24160685  0.54345561  1
  S2-  S252  1  0.87340087  0.50703977  0.03820318  1
  S2-  S253  1  0.88365526  0.48787378  0.54737837  1
  S2-  S254  1  0.87374869  0.74453135  0.04957843  1
  S2-  S255  1  0.88043790  0.74410511  0.53950132  1
