# generated using pymatgen
data_La6Ce7Pr13Nd19Sm19(BiS2)64
_symmetry_space_group_name_H-M   'P 1'
_cell_length_a   16.04839330
_cell_length_b   16.08688790
_cell_length_c   27.24649037
_cell_angle_alpha   90.11790124
_cell_angle_beta   89.91396767
_cell_angle_gamma   89.99036241
_symmetry_Int_Tables_number   1
_chemical_formula_structural   La6Ce7Pr13Nd19Sm19(BiS2)64
_chemical_formula_sum   'La6 Ce7 Pr13 Nd19 Sm19 Bi64 S128'
_cell_volume   7034.16817961
_cell_formula_units_Z   1
loop_
 _symmetry_equiv_pos_site_id
 _symmetry_equiv_pos_as_xyz
  1  'x, y, z'
loop_
 _atom_type_symbol
 _atom_type_oxidation_number
  La3+  3.0
  Ce3+  3.0
  Pr3+  3.0
  Nd3+  3.0
  Sm3+  3.0
  Bi2+  2.0
  S2-  -2.0
loop_
 _atom_site_type_symbol
 _atom_site_label
 _atom_site_symmetry_multiplicity
 _atom_site_fract_x
 _atom_site_fract_y
 _atom_site_fract_z
 _atom_site_occupancy
  La3+  La0  1  0.89454826  0.49847788  0.92266602  1
  La3+  La1  1  0.62746410  0.25568963  0.41535253  1
  La3+  La2  1  0.38911565  -0.01333752  0.92053212  1
  La3+  La3  1  0.00856770  0.11676344  0.61729673  1
  La3+  La4  1  0.15137272  0.48187573  0.91710515  1
  La3+  La5  1  0.50456749  0.86560309  0.06703222  1
  Ce3+  Ce6  1  0.62333235  0.75836390  0.43342605  1
  Ce3+  Ce7  1  0.50392345  0.12685873  0.57312553  1
  Ce3+  Ce8  1  0.86928775  0.25721101  0.45399550  1
  Ce3+  Ce9  1  0.24815983  0.13186315  0.56209738  1
  Ce3+  Ce10  1  0.51891745  0.36615364  0.07124521  1
  Ce3+  Ce11  1  0.37532684  0.75490607  0.44245844  1
  Ce3+  Ce12  1  0.87193513  0.49986405  0.44252725  1
  Pr3+  Pr13  1  0.11981120  0.75462394  0.44229617  1
  Pr3+  Pr14  1  0.75014066  0.13142982  0.57019910  1
  Pr3+  Pr15  1  0.88805743  0.74024354  0.93085791  1
  Pr3+  Pr16  1  0.49705266  0.63434880  0.56797063  1
  Pr3+  Pr17  1  0.88099105  -0.01130763  0.93501702  1
  Pr3+  Pr18  1  0.12717713  0.23032793  0.92514528  1
  Pr3+  Pr19  1  0.39325009  0.73984757  0.92664522  1
  Pr3+  Pr20  1  0.26278313  0.87432360  0.06588550  1
  Pr3+  Pr21  1  0.00762638  0.11188650  0.06890864  1
  Pr3+  Pr22  1  0.37722185  0.50554515  0.43837573  1
  Pr3+  Pr23  1  0.75941181  0.86474290  0.06173340  1
  Pr3+  Pr24  1  0.74779582  0.62876483  0.56273547  1
  Pr3+  Pr25  1  0.62838139  0.24417263  0.92824546  1
  Nd3+  Nd26  1  0.00885954  0.86385609  0.06793151  1
  Nd3+  Nd27  1  0.63755773  -0.01017339  0.93322266  1
  Nd3+  Nd28  1  0.62618545  0.50569376  0.43629571  1
  Nd3+  Nd29  1  0.51808729  0.11572332  0.06166056  1
  Nd3+  Nd30  1  0.37407844  0.25330319  0.43747885  1
  Nd3+  Nd31  1  -0.00166351  0.88040666  0.56396033  1
  Nd3+  Nd32  1  0.87648388  0.24459043  0.92568815  1
  Nd3+  Nd33  1  0.49931973  0.87996592  0.56897400  1
  Nd3+  Nd34  1  0.00160766  0.37850223  0.57475141  1
  Nd3+  Nd35  1  0.76176456  0.11841254  0.06058161  1
  Nd3+  Nd36  1  0.12036945  0.00765718  0.44321572  1
  Nd3+  Nd37  1  0.76589477  0.36615172  0.05800884  1
  Nd3+  Nd38  1  0.73882306  0.38305384  0.58398299  1
  Nd3+  Nd39  1  0.37668177  0.00612594  0.44267493  1
  Nd3+  Nd40  1  0.62148801  0.00367161  0.43739915  1
  Nd3+  Nd41  1  0.01291791  0.61716024  0.06201777  1
  Nd3+  Nd42  1  0.13550157  -0.01227702  0.93556946  1
  Nd3+  Nd43  1  0.49867855  0.37863355  0.56055837  1
  Nd3+  Nd44  1  0.87348554  0.01027559  0.43828257  1
  Sm3+  Sm45  1  0.13896232  0.74777317  0.94145706  1
  Sm3+  Sm46  1  0.24791945  0.37810595  0.55908167  1
  Sm3+  Sm47  1  0.25767735  0.36186878  0.06172014  1
  Sm3+  Sm48  1  0.63288667  0.73744068  0.94722259  1
  Sm3+  Sm49  1  0.50627209  0.61311900  0.06095621  1
  Sm3+  Sm50  1  0.25988140  0.61529425  0.05359981  1
  Sm3+  Sm51  1  0.38610315  0.23758651  0.94192382  1
  Sm3+  Sm52  1  0.12164521  0.50366684  0.44319223  1
  Sm3+  Sm53  1  0.38598905  0.48754930  0.94619978  1
  Sm3+  Sm54  1  0.24751095  0.62957001  0.55445959  1
  Sm3+  Sm55  1  0.87388979  0.75325503  0.44780343  1
  Sm3+  Sm56  1  0.00877757  0.36478107  0.05391781  1
  Sm3+  Sm57  1  0.26765519  0.12092937  0.06736558  1
  Sm3+  Sm58  1  -0.00168621  0.62408388  0.56613161  1
  Sm3+  Sm59  1  0.24482271  0.88206170  0.55550871  1
  Sm3+  Sm60  1  0.63644823  0.48990507  0.94260232  1
  Sm3+  Sm61  1  0.76304329  0.61376009  0.06063961  1
  Sm3+  Sm62  1  0.75121658  0.88262851  0.55583963  1
  Sm3+  Sm63  1  0.12649644  0.25618040  0.43944070  1
  Bi2+  Bi64  1  0.01510893  0.13530411  0.28396090  1
  Bi2+  Bi65  1  -0.02070087  0.06748674  0.81891530  1
  Bi2+  Bi66  1  0.00955714  0.32865445  0.29522919  1
  Bi2+  Bi67  1  0.02464097  0.38484812  0.79830266  1
  Bi2+  Bi68  1  -0.02053523  0.56108924  0.28709440  1
  Bi2+  Bi69  1  -0.01244911  0.68352265  0.79541602  1
  Bi2+  Bi70  1  0.02491414  0.86019168  0.29909425  1
  Bi2+  Bi71  1  -0.04087410  0.87510266  0.82759163  1
  Bi2+  Bi72  1  0.22723968  0.12005481  0.28942078  1
  Bi2+  Bi73  1  0.25808185  0.19724896  0.80107298  1
  Bi2+  Bi74  1  0.20858342  0.35377269  0.28558796  1
  Bi2+  Bi75  1  0.32864473  0.37380724  0.71138668  1
  Bi2+  Bi76  1  0.18774801  0.62097295  0.28242659  1
  Bi2+  Bi77  1  0.24607189  0.61384862  0.79376219  1
  Bi2+  Bi78  1  0.20507121  0.90148314  0.26038091  1
  Bi2+  Bi79  1  0.22838626  0.80877883  0.78101645  1
  Bi2+  Bi80  1  0.49937023  0.11751242  0.29216625  1
  Bi2+  Bi81  1  0.50529792  0.12291254  0.79783473  1
  Bi2+  Bi82  1  0.47668662  0.37965479  0.28757105  1
  Bi2+  Bi83  1  0.47978839  0.38996608  0.78756799  1
  Bi2+  Bi84  1  0.46586239  0.62261894  0.29126455  1
  Bi2+  Bi85  1  0.44180834  0.58642813  0.78936764  1
  Bi2+  Bi86  1  0.49856970  0.87180601  0.29606825  1
  Bi2+  Bi87  1  0.49820452  0.84391483  0.78981273  1
  Bi2+  Bi88  1  0.77299030  0.12408093  0.29930455  1
  Bi2+  Bi89  1  0.73103374  0.11110174  0.78390480  1
  Bi2+  Bi90  1  0.74765812  0.38553609  0.29503323  1
  Bi2+  Bi91  1  0.73197155  0.38091494  0.78280685  1
  Bi2+  Bi92  1  0.64990232  0.63802351  0.32307600  1
  Bi2+  Bi93  1  0.69366267  0.65305950  0.81343429  1
  Bi2+  Bi94  1  0.75441229  0.79865278  0.29388870  1
  Bi2+  Bi95  1  0.76929265  0.84434394  0.79442943  1
  Bi2+  Bi96  1  0.12428291  0.10293625  0.19072337  1
  Bi2+  Bi97  1  0.16749021  -0.03599637  0.71677046  1
  Bi2+  Bi98  1  0.08422853  0.30720682  0.18350469  1
  Bi2+  Bi99  1  0.13962025  0.25285173  0.71508738  1
  Bi2+  Bi100  1  0.05362957  0.50816188  0.17778601  1
  Bi2+  Bi101  1  0.12259381  0.58009661  0.70764319  1
  Bi2+  Bi102  1  0.12378877  0.75470128  0.20109361  1
  Bi2+  Bi103  1  0.06323669  0.76313452  0.69641476  1
  Bi2+  Bi104  1  0.39395117  -0.01427869  0.19245806  1
  Bi2+  Bi105  1  0.36130248  -0.00183550  0.71948813  1
  Bi2+  Bi106  1  0.33789695  0.23667804  0.22586973  1
  Bi2+  Bi107  1  0.39257598  0.18824824  0.69447156  1
  Bi2+  Bi108  1  0.24495799  0.48794747  0.20176586  1
  Bi2+  Bi109  1  0.45992685  0.50825570  0.67718130  1
  Bi2+  Bi110  1  0.32153205  0.75124468  0.22347493  1
  Bi2+  Bi111  1  0.37721217  0.71716313  0.71232853  1
  Bi2+  Bi112  1  0.66803730  0.00238603  0.20888030  1
  Bi2+  Bi113  1  0.61575531  0.01506539  0.71264161  1
  Bi2+  Bi114  1  0.55030667  0.24561080  0.18808336  1
  Bi2+  Bi115  1  0.57552136  0.26378140  0.71728079  1
  Bi2+  Bi116  1  0.60770444  0.50031725  0.19112055  1
  Bi2+  Bi117  1  0.63068302  0.58177121  0.71406177  1
  Bi2+  Bi118  1  0.59700853  0.74199435  0.22974159  1
  Bi2+  Bi119  1  0.63826812  0.77622458  0.71179637  1
  Bi2+  Bi120  1  0.89559451  -0.00100205  0.20845790  1
  Bi2+  Bi121  1  0.85920562  -0.04491491  0.71113614  1
  Bi2+  Bi122  1  0.89403914  0.25049010  0.21276601  1
  Bi2+  Bi123  1  0.87778580  0.22631964  0.72800416  1
  Bi2+  Bi124  1  0.86237383  0.49508091  0.20171852  1
  Bi2+  Bi125  1  0.88126707  0.54679714  0.71731853  1
  Bi2+  Bi126  1  0.91658665  0.73280450  0.23787315  1
  Bi2+  Bi127  1  0.86524569  0.73406996  0.70153869  1
  S2-  S128  1  -0.12640751  0.12830706  0.14131518  1
  S2-  S129  1  0.02446979  0.11955626  0.73168996  1
  S2-  S130  1  -0.10953830  0.36510237  0.13136840  1
  S2-  S131  1  -0.00188629  0.28076233  0.65833554  1
  S2-  S132  1  -0.01326737  0.73443061  0.13898562  1
  S2-  S133  1  -0.00825356  0.51444859  0.64427940  1
  S2-  S134  1  0.01867718  0.97633754  0.14626715  1
  S2-  S135  1  0.00934350  0.94782760  0.65557797  1
  S2-  S136  1  0.24650877  0.00340780  0.14123714  1
  S2-  S137  1  0.18129374  0.12147943  0.65172260  1
  S2-  S138  1  0.24886757  0.25356536  0.13953956  1
  S2-  S139  1  0.18786667  0.38259336  0.65083637  1
  S2-  S140  1  0.29095215  0.62615496  0.15017674  1
  S2-  S141  1  0.25936256  0.62817858  0.65244580  1
  S2-  S142  1  0.37847599  0.83625603  0.14148319  1
  S2-  S143  1  0.26867993  0.88825594  0.65300943  1
  S2-  S144  1  0.41892101  0.12738376  0.14669038  1
  S2-  S145  1  0.62710928  0.14340472  0.64568164  1
  S2-  S146  1  0.46606932  0.40309976  0.16802794  1
  S2-  S147  1  0.58785261  0.38348926  0.64598235  1
  S2-  S148  1  0.52218078  0.62761917  0.15903924  1
  S2-  S149  1  0.50298015  0.75739533  0.64260241  1
  S2-  S150  1  0.55378166  0.93278394  0.15874844  1
  S2-  S151  1  0.48532611  0.99100490  0.64803488  1
  S2-  S152  1  0.64650354  0.12163107  0.13860294  1
  S2-  S153  1  0.84541796  0.10564049  0.65756675  1
  S2-  S154  1  0.65945261  0.35879235  0.13893588  1
  S2-  S155  1  0.78450739  0.33014594  0.68352491  1
  S2-  S156  1  0.74954062  0.59606941  0.15948762  1
  S2-  S157  1  0.75511547  0.53205863  0.64686527  1
  S2-  S158  1  0.78570788  0.89713333  0.16103267  1
  S2-  S159  1  0.72183034  0.90723671  0.65184094  1
  S2-  S160  1  0.13951399  -0.01095029  0.34470134  1
  S2-  S161  1  0.14295936  0.09493685  0.85415256  1
  S2-  S162  1  0.24330769  0.24760439  0.36340370  1
  S2-  S163  1  0.16833925  0.33889467  0.84641053  1
  S2-  S164  1  0.12320552  0.49088437  0.34559630  1
  S2-  S165  1  0.03824598  0.52437694  0.84524698  1
  S2-  S166  1  0.13211194  0.74836531  0.34287622  1
  S2-  S167  1  0.13167422  0.85557993  0.86251088  1
  S2-  S168  1  0.41003495  0.00348459  0.34355541  1
  S2-  S169  1  0.34675611  0.07037522  0.82912054  1
  S2-  S170  1  0.47202980  0.25219736  0.35286494  1
  S2-  S171  1  0.48715425  0.26754519  0.85998139  1
  S2-  S172  1  0.38398755  0.48289122  0.33766185  1
  S2-  S173  1  0.31181646  0.49480030  0.85719769  1
  S2-  S174  1  0.39495253  0.75350751  0.34536613  1
  S2-  S175  1  0.36071972  0.84866929  0.84852632  1
  S2-  S176  1  0.62712315  0.10474172  0.35519796  1
  S2-  S177  1  0.53509983  -0.02117562  0.85121062  1
  S2-  S178  1  0.65823876  0.24897844  0.25747326  1
  S2-  S179  1  0.73973248  0.24114692  0.84813523  1
  S2-  S180  1  0.61739204  0.40729848  0.35179265  1
  S2-  S181  1  0.64083104  0.48252013  0.84316304  1
  S2-  S182  1  0.62290353  0.87956887  0.35961822  1
  S2-  S183  1  0.54615713  0.72919333  0.86056837  1
  S2-  S184  1  0.85624767  0.00193722  0.33767480  1
  S2-  S185  1  0.76008646  -0.00657385  0.85708320  1
  S2-  S186  1  0.79421950  0.26212691  0.36432849  1
  S2-  S187  1  0.98442606  0.23335449  0.84736371  1
  S2-  S188  1  0.84381482  0.50597722  0.34544827  1
  S2-  S189  1  0.86396658  0.40678435  0.83558467  1
  S2-  S190  1  0.89423439  0.75980579  0.35040977  1
  S2-  S191  1  0.84878492  0.63081781  0.85335419  1
  S2-  S192  1  0.00030311  0.13551239  0.44063321  1
  S2-  S193  1  0.00340695  0.10967256  0.95666056  1
  S2-  S194  1  0.00186844  0.37829227  0.45551042  1
  S2-  S195  1  0.01310170  0.36828258  0.95088288  1
  S2-  S196  1  -0.00284472  0.62705021  0.45840545  1
  S2-  S197  1  0.02035208  0.62258805  0.95569099  1
  S2-  S198  1  -0.00421053  0.88067517  0.45616774  1
  S2-  S199  1  0.00777214  0.86399776  0.96181055  1
  S2-  S200  1  0.24786216  0.12637397  0.45708353  1
  S2-  S201  1  0.26484861  0.11657243  0.95789382  1
  S2-  S202  1  0.24827596  0.38419886  0.45504076  1
  S2-  S203  1  0.26609655  0.35968353  0.95898055  1
  S2-  S204  1  0.24642964  0.62832280  0.44891337  1
  S2-  S205  1  0.26073693  0.62087301  0.95001125  1
  S2-  S206  1  0.24695363  0.88071897  0.45044376  1
  S2-  S207  1  0.26527476  0.86620226  0.95904694  1
  S2-  S208  1  0.49740420  0.12908243  0.46196513  1
  S2-  S209  1  0.51020943  0.11450737  0.95385440  1
  S2-  S210  1  0.49843745  0.38081570  0.45599513  1
  S2-  S211  1  0.50937998  0.37214942  0.96181783  1
  S2-  S212  1  0.50030491  0.63155045  0.45647488  1
  S2-  S213  1  0.50975724  0.60837350  0.95608497  1
  S2-  S214  1  0.49606261  0.87857687  0.46131440  1
  S2-  S215  1  0.51332432  0.86342648  0.95887795  1
  S2-  S216  1  0.74873778  0.12778650  0.46171617  1
  S2-  S217  1  0.75767920  0.11863671  0.95434333  1
  S2-  S218  1  0.74549678  0.38364879  0.46437124  1
  S2-  S219  1  0.76068244  0.37277615  0.95196566  1
  S2-  S220  1  0.75075358  0.63149081  0.45538993  1
  S2-  S221  1  0.75568822  0.61546751  0.95696120  1
  S2-  S222  1  0.75577441  0.87925482  0.45308224  1
  S2-  S223  1  0.75743084  0.85653899  0.95389815  1
  S2-  S224  1  0.13334179  -0.00772018  0.04033804  1
  S2-  S225  1  0.12043769  0.00667859  0.54828132  1
  S2-  S226  1  0.12994912  0.23996031  0.03957329  1
  S2-  S227  1  0.12350583  0.25561671  0.54351045  1
  S2-  S228  1  0.13728610  0.48840038  0.04403908  1
  S2-  S229  1  0.12581489  0.50569975  0.54646193  1
  S2-  S230  1  0.14140115  0.74279071  0.04586128  1
  S2-  S231  1  0.12204008  0.75247997  0.54991947  1
  S2-  S232  1  0.38868561  -0.00287884  0.03981696  1
  S2-  S233  1  0.36867967  0.00429611  0.54772410  1
  S2-  S234  1  0.39095145  0.24683640  0.04434292  1
  S2-  S235  1  0.37268963  0.25565555  0.54848797  1
  S2-  S236  1  0.38170313  0.48836227  0.05016914  1
  S2-  S237  1  0.37048420  0.50580547  0.54596231  1
  S2-  S238  1  0.38593256  0.73239213  0.03676905  1
  S2-  S239  1  0.36659715  0.75666957  0.54718718  1
  S2-  S240  1  0.63877696  -0.01255116  0.03968564  1
  S2-  S241  1  0.62606209  0.00041951  0.54400621  1
  S2-  S242  1  0.63813965  0.24380565  0.03424454  1
  S2-  S243  1  0.62302731  0.25744380  0.54486427  1
  S2-  S244  1  0.63665734  0.49690191  0.04647371  1
  S2-  S245  1  0.61881926  0.51019205  0.54337842  1
  S2-  S246  1  0.63404616  0.73545754  0.05244672  1
  S2-  S247  1  0.62864979  0.75711396  0.54282585  1
  S2-  S248  1  0.88239704  -0.01371203  0.04143590  1
  S2-  S249  1  0.87769469  0.00421613  0.54612906  1
  S2-  S250  1  0.88815686  0.24078344  0.03297709  1
  S2-  S251  1  0.86910451  0.26355014  0.55662261  1
  S2-  S252  1  0.88935352  0.49825687  0.03715606  1
  S2-  S253  1  0.87431003  0.50242805  0.54614006  1
  S2-  S254  1  0.88115856  0.73779450  0.03922039  1
  S2-  S255  1  0.87582398  0.75299630  0.55328361  1
