# generated using pymatgen
data_La6Ce7Pr13Nd19Sm19(BiS2)64
_symmetry_space_group_name_H-M   'P 1'
_cell_length_a   16.09841955
_cell_length_b   16.11836821
_cell_length_c   27.24067419
_cell_angle_alpha   90.06304665
_cell_angle_beta   89.94494512
_cell_angle_gamma   89.98912837
_symmetry_Int_Tables_number   1
_chemical_formula_structural   La6Ce7Pr13Nd19Sm19(BiS2)64
_chemical_formula_sum   'La6 Ce7 Pr13 Nd19 Sm19 Bi64 S128'
_cell_volume   7068.40938272
_cell_formula_units_Z   1
loop_
 _symmetry_equiv_pos_site_id
 _symmetry_equiv_pos_as_xyz
  1  'x, y, z'
loop_
 _atom_type_symbol
 _atom_type_oxidation_number
  La3+  3.0
  Ce3+  3.0
  Pr3+  3.0
  Nd3+  3.0
  Sm3+  3.0
  Bi2+  2.0
  S2-  -2.0
loop_
 _atom_site_type_symbol
 _atom_site_label
 _atom_site_symmetry_multiplicity
 _atom_site_fract_x
 _atom_site_fract_y
 _atom_site_fract_z
 _atom_site_occupancy
  La3+  La0  1  0.00998229  0.87005305  0.58383267  1
  La3+  La1  1  0.49689947  0.37739849  0.57286845  1
  La3+  La2  1  0.61422032  0.74048595  0.91664354  1
  La3+  La3  1  0.75213436  0.12727075  0.58830208  1
  La3+  La4  1  0.73906923  0.38037407  0.11659660  1
  La3+  La5  1  0.23065170  0.86086015  0.11380486  1
  Ce3+  Ce6  1  -0.01041439  0.37255695  0.06093277  1
  Ce3+  Ce7  1  0.87471267  0.49984682  0.44136587  1
  Ce3+  Ce8  1  0.12699232  0.74628388  0.93937223  1
  Ce3+  Ce9  1  0.49782133  0.87399511  0.55814663  1
  Ce3+  Ce10  1  0.37493055  0.49147737  0.43685751  1
  Ce3+  Ce11  1  0.49925229  0.12499367  0.56416341  1
  Ce3+  Ce12  1  0.24658847  0.37339251  0.06613305  1
  Pr3+  Pr13  1  0.62331515  -0.00581807  0.93434710  1
  Pr3+  Pr14  1  0.24829636  0.12026457  0.06760056  1
  Pr3+  Pr15  1  0.87073547  0.74611615  0.92535623  1
  Pr3+  Pr16  1  -0.00166054  0.62482133  0.05680695  1
  Pr3+  Pr17  1  0.49504489  0.86961667  0.06543716  1
  Pr3+  Pr18  1  -0.00026492  0.37954770  0.56036315  1
  Pr3+  Pr19  1  -0.00121025  0.11828171  0.05373649  1
  Pr3+  Pr20  1  0.87144921  0.49566547  0.93921141  1
  Pr3+  Pr21  1  0.74591085  0.37950415  0.58089077  1
  Pr3+  Pr22  1  0.37285765  -0.00356846  0.94212294  1
  Pr3+  Pr23  1  0.25297208  0.61535299  0.06581962  1
  Pr3+  Pr24  1  0.38487825  0.73936972  0.41952380  1
  Pr3+  Pr25  1  0.75032743  0.86617474  0.57441338  1
  Nd3+  Nd26  1  0.24541705  0.12241478  0.56300855  1
  Nd3+  Nd27  1  0.49041415  0.62929952  0.57489221  1
  Nd3+  Nd28  1  0.24866087  0.37972870  0.57038593  1
  Nd3+  Nd29  1  0.87652721  0.75314369  0.43620038  1
  Nd3+  Nd30  1  0.50168005  0.12217358  0.05738605  1
  Nd3+  Nd31  1  0.12828966  0.75981963  0.41988723  1
  Nd3+  Nd32  1  0.12192346  0.00675642  0.42870579  1
  Nd3+  Nd33  1  0.62977223  0.25024631  0.44856191  1
  Nd3+  Nd34  1  0.62527343  0.49553947  0.93428642  1
  Nd3+  Nd35  1  0.62669450  0.24495416  0.93613700  1
  Nd3+  Nd36  1  0.37345925  0.74480327  0.93749235  1
  Nd3+  Nd37  1  0.62318953  0.49866272  0.44629469  1
  Nd3+  Nd38  1  0.12334945  0.49415410  0.94149406  1
  Nd3+  Nd39  1  0.50335524  0.62087863  0.05758050  1
  Nd3+  Nd40  1  0.62834852  0.00184930  0.45355425  1
  Nd3+  Nd41  1  0.12665085  -0.00413703  0.93575895  1
  Nd3+  Nd42  1  0.12550053  0.50072811  0.43325892  1
  Nd3+  Nd43  1  0.24941520  0.87203738  0.55034921  1
  Nd3+  Nd44  1  0.50662336  0.37083343  0.05254877  1
  Sm3+  Sm45  1  0.74979657  0.62678304  0.55260361  1
  Sm3+  Sm46  1  0.37689567  0.00217658  0.44373406  1
  Sm3+  Sm47  1  0.74976510  0.12247108  0.05874959  1
  Sm3+  Sm48  1  0.74847010  0.62646217  0.05933601  1
  Sm3+  Sm49  1  0.00003385  0.12351067  0.55999676  1
  Sm3+  Sm50  1  0.87300705  0.24582367  0.93981361  1
  Sm3+  Sm51  1  0.87393886  -0.00496898  0.93714455  1
  Sm3+  Sm52  1  0.87450968  -0.00327816  0.45455219  1
  Sm3+  Sm53  1  0.62249284  0.75033614  0.44427299  1
  Sm3+  Sm54  1  0.87209181  0.25099890  0.44916158  1
  Sm3+  Sm55  1  0.00169362  0.87033738  0.05208067  1
  Sm3+  Sm56  1  0.12333513  0.24646799  0.44465307  1
  Sm3+  Sm57  1  0.12440724  0.24590059  0.94559950  1
  Sm3+  Sm58  1  0.00268173  0.62839366  0.55264411  1
  Sm3+  Sm59  1  0.37283559  0.24580605  0.94728032  1
  Sm3+  Sm60  1  0.25028180  0.62885381  0.55068721  1
  Sm3+  Sm61  1  0.37478161  0.25033035  0.44593535  1
  Sm3+  Sm62  1  0.74769262  0.86734637  0.05306785  1
  Sm3+  Sm63  1  0.37253618  0.49279771  0.93848619  1
  Bi2+  Bi64  1  -0.02562701  0.11897511  0.30439004  1
  Bi2+  Bi65  1  0.06216763  0.17002316  0.75351161  1
  Bi2+  Bi66  1  0.00987937  0.30757284  0.23854996  1
  Bi2+  Bi67  1  0.04174392  0.37721659  0.79455140  1
  Bi2+  Bi68  1  -0.02269202  0.58528143  0.29494916  1
  Bi2+  Bi69  1  0.04220145  0.56679756  0.75994694  1
  Bi2+  Bi70  1  -0.04457747  0.92311031  0.27234582  1
  Bi2+  Bi71  1  0.03836152  0.85475984  0.78245672  1
  Bi2+  Bi72  1  0.23505320  0.14526741  0.28374384  1
  Bi2+  Bi73  1  0.22986705  0.12508885  0.80645854  1
  Bi2+  Bi74  1  0.25277616  0.35705286  0.28813749  1
  Bi2+  Bi75  1  0.25576160  0.39312192  0.78714142  1
  Bi2+  Bi76  1  0.23665891  0.59352974  0.30211846  1
  Bi2+  Bi77  1  0.26577332  0.67487120  0.78345291  1
  Bi2+  Bi78  1  0.27435929  0.92164185  0.30940152  1
  Bi2+  Bi79  1  0.23777156  0.87262667  0.78140928  1
  Bi2+  Bi80  1  0.50412599  0.07568130  0.28857708  1
  Bi2+  Bi81  1  0.47752402  0.19007040  0.78486970  1
  Bi2+  Bi82  1  0.51117846  0.36017861  0.30161846  1
  Bi2+  Bi83  1  0.45670724  0.38825003  0.77790260  1
  Bi2+  Bi84  1  0.54264151  0.61857625  0.30022473  1
  Bi2+  Bi85  1  0.50367769  0.62029993  0.78127856  1
  Bi2+  Bi86  1  0.53035167  0.88191563  0.28474892  1
  Bi2+  Bi87  1  0.50528187  0.88881940  0.79324379  1
  Bi2+  Bi88  1  0.70949873  0.08317301  0.26646378  1
  Bi2+  Bi89  1  0.74526263  0.13350039  0.81134377  1
  Bi2+  Bi90  1  0.75341778  0.35452600  0.32202478  1
  Bi2+  Bi91  1  0.74458399  0.43364622  0.79147087  1
  Bi2+  Bi92  1  0.74498411  0.69156831  0.28544177  1
  Bi2+  Bi93  1  0.76331386  0.63270247  0.79399071  1
  Bi2+  Bi94  1  0.73631114  0.88784907  0.29971274  1
  Bi2+  Bi95  1  0.79236197  0.88085985  0.77816678  1
  Bi2+  Bi96  1  0.09504591  0.04447171  0.22289399  1
  Bi2+  Bi97  1  0.12069660  0.00904980  0.69302129  1
  Bi2+  Bi98  1  0.16513105  0.24243281  0.17627777  1
  Bi2+  Bi99  1  0.14976337  0.32172761  0.69217589  1
  Bi2+  Bi100  1  0.13648420  0.43479607  0.19816681  1
  Bi2+  Bi101  1  0.13068678  0.51808224  0.65605314  1
  Bi2+  Bi102  1  0.10190122  0.74086312  0.21362537  1
  Bi2+  Bi103  1  0.15483213  0.71626861  0.68835343  1
  Bi2+  Bi104  1  0.38450447  0.04364097  0.19971329  1
  Bi2+  Bi105  1  0.35438847  0.01834300  0.74043410  1
  Bi2+  Bi106  1  0.35521985  0.24510065  0.21128024  1
  Bi2+  Bi107  1  0.34272901  0.26709104  0.71151783  1
  Bi2+  Bi108  1  0.39132149  0.49676949  0.25475631  1
  Bi2+  Bi109  1  0.30996816  0.52917518  0.70671017  1
  Bi2+  Bi110  1  0.36710970  0.74672998  0.21687474  1
  Bi2+  Bi111  1  0.36404106  0.78545095  0.70738666  1
  Bi2+  Bi112  1  0.61071437  -0.02869341  0.18534352  1
  Bi2+  Bi113  1  0.59051487  0.01892903  0.72313169  1
  Bi2+  Bi114  1  0.61066644  0.25838563  0.21345070  1
  Bi2+  Bi115  1  0.63366813  0.25893222  0.71231050  1
  Bi2+  Bi116  1  0.57952156  0.53949661  0.20013194  1
  Bi2+  Bi117  1  0.69795116  0.52026661  0.69454968  1
  Bi2+  Bi118  1  0.62715757  0.77783565  0.20358309  1
  Bi2+  Bi119  1  0.62636078  0.75401004  0.69873409  1
  Bi2+  Bi120  1  0.81442189  -0.02654177  0.18786150  1
  Bi2+  Bi121  1  0.89342970  0.04123583  0.73000980  1
  Bi2+  Bi122  1  0.86573634  0.17956610  0.21464302  1
  Bi2+  Bi123  1  0.86813169  0.30830173  0.74142309  1
  Bi2+  Bi124  1  0.88786614  0.53023835  0.20436314  1
  Bi2+  Bi125  1  0.90222235  0.48669382  0.68515715  1
  Bi2+  Bi126  1  0.86177570  0.78385823  0.20929255  1
  Bi2+  Bi127  1  0.89581062  0.67695700  0.71550425  1
  S2-  S128  1  -0.01579626  0.10324647  0.15349987  1
  S2-  S129  1  -0.00859680  0.12217595  0.65741723  1
  S2-  S130  1  -0.08886003  0.38274960  0.14868339  1
  S2-  S131  1  -0.01997001  0.33944006  0.65737463  1
  S2-  S132  1  0.00618406  0.61837810  0.15867529  1
  S2-  S133  1  0.00293762  0.71718244  0.63709591  1
  S2-  S134  1  0.05715203  0.85371430  0.14455431  1
  S2-  S135  1  -0.03856588  0.91507415  0.68464441  1
  S2-  S136  1  0.23296069  0.02683716  0.15201903  1
  S2-  S137  1  0.25631525  0.09044606  0.66053635  1
  S2-  S138  1  0.26315142  0.48303173  0.14040828  1
  S2-  S139  1  0.37002918  0.39390076  0.64406354  1
  S2-  S140  1  0.23766441  0.69636341  0.15566273  1
  S2-  S141  1  0.34429525  0.65191233  0.63412674  1
  S2-  S142  1  0.22446954  0.84997602  0.22513177  1
  S2-  S143  1  0.16775958  0.87072128  0.63858362  1
  S2-  S144  1  0.48999004  0.16176498  0.15447113  1
  S2-  S145  1  0.52545308  0.14210569  0.66027885  1
  S2-  S146  1  0.56336765  0.38691622  0.14578215  1
  S2-  S147  1  0.60757688  0.38303047  0.65257761  1
  S2-  S148  1  0.46897745  0.63990329  0.15557434  1
  S2-  S149  1  0.54355667  0.60212392  0.67376803  1
  S2-  S150  1  0.40033131  0.86338190  0.15219312  1
  S2-  S151  1  0.50275094  0.84750658  0.65483191  1
  S2-  S152  1  0.73298069  0.20545784  0.14441854  1
  S2-  S153  1  0.73174031  0.07031605  0.68662788  1
  S2-  S154  1  0.72931213  0.36861310  0.22675858  1
  S2-  S155  1  0.77077592  0.26168236  0.65728054  1
  S2-  S156  1  0.74002073  0.54799726  0.14915022  1
  S2-  S157  1  0.75868497  0.67911080  0.64541634  1
  S2-  S158  1  0.75259634  0.75823757  0.12975705  1
  S2-  S159  1  0.73147762  0.87027632  0.67625574  1
  S2-  S160  1  0.12595525  -0.10246555  0.35196161  1
  S2-  S161  1  0.11738068  -0.00783265  0.83618417  1
  S2-  S162  1  0.12286028  0.14720853  0.36340414  1
  S2-  S163  1  0.11166897  0.23844600  0.84870268  1
  S2-  S164  1  0.13620967  0.46230317  0.33699720  1
  S2-  S165  1  0.14237559  0.49646410  0.84301921  1
  S2-  S166  1  0.10916041  0.68643376  0.32673350  1
  S2-  S167  1  0.12578052  0.74200910  0.84152965  1
  S2-  S168  1  0.36438843  0.06408163  0.35201895  1
  S2-  S169  1  0.39649791  -0.01612645  0.84232651  1
  S2-  S170  1  0.37869575  0.35537720  0.36851580  1
  S2-  S171  1  0.34901808  0.22138831  0.85184071  1
  S2-  S172  1  0.39305613  0.58415912  0.35444873  1
  S2-  S173  1  0.40883965  0.51258605  0.84252282  1
  S2-  S174  1  0.31322840  0.77013475  0.32722361  1
  S2-  S175  1  0.46802768  0.74932422  0.85139473  1
  S2-  S176  1  0.62753052  0.00126672  0.35458038  1
  S2-  S177  1  0.62428702  0.00550443  0.83312638  1
  S2-  S178  1  0.61590461  0.25105158  0.34886442  1
  S2-  S179  1  0.62887114  0.24236749  0.83584966  1
  S2-  S180  1  0.62555300  0.47699854  0.34714220  1
  S2-  S181  1  0.61393466  0.59017681  0.84969377  1
  S2-  S182  1  0.53476273  0.75466573  0.35972779  1
  S2-  S183  1  0.69914207  0.79008806  0.83111677  1
  S2-  S184  1  0.88126046  -0.00781777  0.35615399  1
  S2-  S185  1  0.86548387  0.00701346  0.83872544  1
  S2-  S186  1  0.86519765  0.24445162  0.35103282  1
  S2-  S187  1  0.86150784  0.23703071  0.84159867  1
  S2-  S188  1  0.87536179  0.48018518  0.34334186  1
  S2-  S189  1  0.87105787  0.52410205  0.83994227  1
  S2-  S190  1  0.89112731  0.71837337  0.33847095  1
  S2-  S191  1  0.91276292  0.78922067  0.82961405  1
  S2-  S192  1  -0.00776564  0.12597691  0.45745840  1
  S2-  S193  1  -0.00202646  0.12063851  0.94703161  1
  S2-  S194  1  0.00131997  0.37150306  0.45204535  1
  S2-  S195  1  -0.00214366  0.36854963  0.95198189  1
  S2-  S196  1  0.00145862  0.62619217  0.44791569  1
  S2-  S197  1  -0.00103541  0.62189978  0.94771771  1
  S2-  S198  1  -0.00197756  0.87623418  0.45372251  1
  S2-  S199  1  -0.00111229  0.87329918  0.94669002  1
  S2-  S200  1  0.25274218  0.12706858  0.45830435  1
  S2-  S201  1  0.24754025  0.12324463  0.95883036  1
  S2-  S202  1  0.24292744  0.36870906  0.46222984  1
  S2-  S203  1  0.24881723  0.36936887  0.95471375  1
  S2-  S204  1  0.24735461  0.62597565  0.44628068  1
  S2-  S205  1  0.25123487  0.61683095  0.95188054  1
  S2-  S206  1  0.25720899  0.87885521  0.44692804  1
  S2-  S207  1  0.25057422  0.87070235  0.94083796  1
  S2-  S208  1  0.50051856  0.12713668  0.45731449  1
  S2-  S209  1  0.49919888  0.12310443  0.94995147  1
  S2-  S210  1  0.50445546  0.37028717  0.46521126  1
  S2-  S211  1  0.49891671  0.36934318  0.94508064  1
  S2-  S212  1  0.50366487  0.62210590  0.46308348  1
  S2-  S213  1  0.49449559  0.61462215  0.95298469  1
  S2-  S214  1  0.50054318  0.88047889  0.45310688  1
  S2-  S215  1  0.49832593  0.87215855  0.95599029  1
  S2-  S216  1  0.75369327  0.12402872  0.46558401  1
  S2-  S217  1  0.75108565  0.11873066  0.95264135  1
  S2-  S218  1  0.75108993  0.37631453  0.46664984  1
  S2-  S219  1  0.74915158  0.36917982  0.94075359  1
  S2-  S220  1  0.74763220  0.62776134  0.44735581  1
  S2-  S221  1  0.74774188  0.62390214  0.95133511  1
  S2-  S222  1  0.74831842  0.87256591  0.46105761  1
  S2-  S223  1  0.74985242  0.87228268  0.94852938  1
  S2-  S224  1  0.12452843  -0.00733441  0.04248212  1
  S2-  S225  1  0.12159425  0.00089616  0.53904163  1
  S2-  S226  1  0.12054161  0.24831986  0.04926811  1
  S2-  S227  1  0.12312549  0.24901453  0.54958448  1
  S2-  S228  1  0.11868581  0.49494571  0.04677045  1
  S2-  S229  1  0.12636305  0.50340190  0.53939795  1
  S2-  S230  1  0.12815930  0.74671216  0.04398464  1
  S2-  S231  1  0.12682830  0.74879334  0.53094068  1
  S2-  S232  1  0.37687067  0.00011227  0.04747232  1
  S2-  S233  1  0.37251175  -0.00027908  0.54996138  1
  S2-  S234  1  0.37548776  0.24872743  0.05107979  1
  S2-  S235  1  0.37057299  0.24652990  0.55022296  1
  S2-  S236  1  0.38122571  0.49291844  0.04202131  1
  S2-  S237  1  0.37038461  0.50289449  0.54149493  1
  S2-  S238  1  0.37491137  0.74204769  0.04259981  1
  S2-  S239  1  0.37513834  0.75309569  0.53240317  1
  S2-  S240  1  0.62662330  -0.00424153  0.04356092  1
  S2-  S241  1  0.62745516  -0.00255274  0.55955485  1
  S2-  S242  1  0.62718046  0.24515265  0.04101094  1
  S2-  S243  1  0.62684465  0.24635648  0.55343306  1
  S2-  S244  1  0.62914703  0.49705619  0.03956810  1
  S2-  S245  1  0.62381565  0.50847725  0.55162740  1
  S2-  S246  1  0.61998834  0.74868043  0.03510715  1
  S2-  S247  1  0.62150381  0.74787185  0.54813152  1
  S2-  S248  1  0.87215380  -0.00825873  0.04297551  1
  S2-  S249  1  0.87588523  -0.00396034  0.55982891  1
  S2-  S250  1  0.87245576  0.24258261  0.04399445  1
  S2-  S251  1  0.87778803  0.24946916  0.55234447  1
  S2-  S252  1  0.87070842  0.50200703  0.04452334  1
  S2-  S253  1  0.87489119  0.50582351  0.54834435  1
  S2-  S254  1  0.87766467  0.75054239  0.03391647  1
  S2-  S255  1  0.87579372  0.75063041  0.54212322  1
