# generated using pymatgen
data_La6Ce7Pr13Nd19Sm19(BiS2)64
_symmetry_space_group_name_H-M   'P 1'
_cell_length_a   16.09393516
_cell_length_b   16.11146146
_cell_length_c   27.26273279
_cell_angle_alpha   89.73769535
_cell_angle_beta   89.91416061
_cell_angle_gamma   90.11101685
_symmetry_Int_Tables_number   1
_chemical_formula_structural   La6Ce7Pr13Nd19Sm19(BiS2)64
_chemical_formula_sum   'La6 Ce7 Pr13 Nd19 Sm19 Bi64 S128'
_cell_volume   7069.04443316
_cell_formula_units_Z   1
loop_
 _symmetry_equiv_pos_site_id
 _symmetry_equiv_pos_as_xyz
  1  'x, y, z'
loop_
 _atom_type_symbol
 _atom_type_oxidation_number
  La3+  3.0
  Ce3+  3.0
  Pr3+  3.0
  Nd3+  3.0
  Sm3+  3.0
  Bi2+  2.0
  S2-  -2.0
loop_
 _atom_site_type_symbol
 _atom_site_label
 _atom_site_symmetry_multiplicity
 _atom_site_fract_x
 _atom_site_fract_y
 _atom_site_fract_z
 _atom_site_occupancy
  La3+  La0  1  0.74879495  0.61256676  0.60503699  1
  La3+  La1  1  0.75641462  0.35964099  0.56289516  1
  La3+  La2  1  0.49940177  0.37473005  0.10706275  1
  La3+  La3  1  0.40400951  0.25555603  0.88798361  1
  La3+  La4  1  0.64077044  0.49893213  0.41016988  1
  La3+  La5  1  0.48949485  0.64390482  0.08040638  1
  Ce3+  Ce6  1  0.13338024  0.01703075  0.93860568  1
  Ce3+  Ce7  1  0.75685073  0.11287041  0.56601057  1
  Ce3+  Ce8  1  0.25683786  0.14592906  0.05033319  1
  Ce3+  Ce9  1  0.38466849  0.23787086  0.44223809  1
  Ce3+  Ce10  1  0.00140596  0.60891757  0.56753030  1
  Ce3+  Ce11  1  0.25654689  0.35934974  0.56756295  1
  Ce3+  Ce12  1  0.12914084  0.51305390  0.93303571  1
  Pr3+  Pr13  1  0.37858763  0.73542716  0.43247604  1
  Pr3+  Pr14  1  0.62845322  0.23109805  0.43240459  1
  Pr3+  Pr15  1  0.75535008  0.14044364  0.05951960  1
  Pr3+  Pr16  1  0.37370702  0.48207378  0.42727926  1
  Pr3+  Pr17  1  0.25437655  0.88863609  0.05553634  1
  Pr3+  Pr18  1  0.75718639  0.39064188  0.06973347  1
  Pr3+  Pr19  1  0.88171848  0.47869350  0.44163023  1
  Pr3+  Pr20  1  0.50372838  0.35774120  0.56843068  1
  Pr3+  Pr21  1  0.62870118  0.01493097  0.94300386  1
  Pr3+  Pr22  1  0.38490083  0.51374613  0.92898571  1
  Pr3+  Pr23  1  0.00541591  0.39723182  0.07010901  1
  Pr3+  Pr24  1  0.87898598  0.26984627  0.93537432  1
  Pr3+  Pr25  1  0.12897948  0.48286893  0.44294769  1
  Nd3+  Nd26  1  0.25505362  0.85693932  0.55829589  1
  Nd3+  Nd27  1  0.13137363  0.26871575  0.93325388  1
  Nd3+  Nd28  1  0.87618981  -0.01013142  0.42830652  1
  Nd3+  Nd29  1  0.50476538  0.13914842  0.06295685  1
  Nd3+  Nd30  1  0.75692034  0.86456944  0.56622940  1
  Nd3+  Nd31  1  0.87911241  0.23518141  0.43656168  1
  Nd3+  Nd32  1  0.87139670  0.52114845  0.92617443  1
  Nd3+  Nd33  1  0.13086363  0.76618097  0.94043961  1
  Nd3+  Nd34  1  0.87994788  0.01444330  0.94105026  1
  Nd3+  Nd35  1  0.13172696  0.23508702  0.43917991  1
  Nd3+  Nd36  1  0.01309425  0.34928215  0.58165525  1
  Nd3+  Nd37  1  0.13196307  -0.01535695  0.44437425  1
  Nd3+  Nd38  1  0.50673004  0.85902532  0.55556309  1
  Nd3+  Nd39  1  0.88036297  0.76464811  0.93641334  1
  Nd3+  Nd40  1  0.00559308  0.88896617  0.05964000  1
  Nd3+  Nd41  1  0.26223258  0.38878275  0.05278192  1
  Nd3+  Nd42  1  0.25553594  0.60896534  0.55666428  1
  Nd3+  Nd43  1  0.11642213  0.73453061  0.42995976  1
  Nd3+  Nd44  1  0.75321012  0.63712281  0.06600877  1
  Sm3+  Sm45  1  0.25807091  0.63717131  0.04735874  1
  Sm3+  Sm46  1  0.00393419  0.63575320  0.05436011  1
  Sm3+  Sm47  1  0.00654532  0.14319426  0.05166320  1
  Sm3+  Sm48  1  0.75661747  0.88680826  0.05720762  1
  Sm3+  Sm49  1  0.50543689  0.60593897  0.55308685  1
  Sm3+  Sm50  1  0.50247689  0.88678622  0.05586666  1
  Sm3+  Sm51  1  0.25629719  0.10935167  0.55749682  1
  Sm3+  Sm52  1  0.38171161  0.01730274  0.94191259  1
  Sm3+  Sm53  1  0.62873930  0.76255494  0.94805712  1
  Sm3+  Sm54  1  0.63270815  -0.01369983  0.43933653  1
  Sm3+  Sm55  1  0.50755849  0.11115181  0.56611178  1
  Sm3+  Sm56  1  0.38279287  0.76099433  0.92790987  1
  Sm3+  Sm57  1  0.63373858  0.73463997  0.44823016  1
  Sm3+  Sm58  1  0.00476694  0.85976415  0.55408489  1
  Sm3+  Sm59  1  0.62375406  0.51308169  0.95614816  1
  Sm3+  Sm60  1  0.62952062  0.26921657  0.94482168  1
  Sm3+  Sm61  1  0.38128820  -0.01600231  0.44512941  1
  Sm3+  Sm62  1  0.00435429  0.10776184  0.55668184  1
  Sm3+  Sm63  1  0.87602173  0.73208543  0.44672347  1
  Bi2+  Bi64  1  -0.02449945  0.07494346  0.28003090  1
  Bi2+  Bi65  1  0.00818677  0.06027781  0.76677595  1
  Bi2+  Bi66  1  0.02223983  0.38567110  0.28638029  1
  Bi2+  Bi67  1  -0.01056276  0.34763393  0.79459731  1
  Bi2+  Bi68  1  -0.00705111  0.59665337  0.29498080  1
  Bi2+  Bi69  1  -0.01407401  0.68446179  0.77799391  1
  Bi2+  Bi70  1  -0.06250718  0.87706960  0.31057622  1
  Bi2+  Bi71  1  -0.05531229  0.88627627  0.81657933  1
  Bi2+  Bi72  1  0.18295217  0.13794620  0.27480794  1
  Bi2+  Bi73  1  0.28221368  0.01135977  0.79037875  1
  Bi2+  Bi74  1  0.24079251  0.36449944  0.29110159  1
  Bi2+  Bi75  1  0.23595089  0.37972036  0.79833112  1
  Bi2+  Bi76  1  0.18628362  0.61073257  0.28198421  1
  Bi2+  Bi77  1  0.28053141  0.62677953  0.79357015  1
  Bi2+  Bi78  1  0.21819877  0.90264620  0.29178996  1
  Bi2+  Bi79  1  0.25051432  0.81921893  0.81648652  1
  Bi2+  Bi80  1  0.46828272  0.09952744  0.29928484  1
  Bi2+  Bi81  1  0.52856357  0.05785868  0.77430292  1
  Bi2+  Bi82  1  0.50367597  0.35782236  0.30786840  1
  Bi2+  Bi83  1  0.52464439  0.35368653  0.77518820  1
  Bi2+  Bi84  1  0.50841294  0.63999204  0.28960037  1
  Bi2+  Bi85  1  0.47636619  0.62602962  0.75881070  1
  Bi2+  Bi86  1  0.48875432  0.89200247  0.29495786  1
  Bi2+  Bi87  1  0.44130362  0.86927279  0.80026138  1
  Bi2+  Bi88  1  0.73842097  0.08382758  0.29288444  1
  Bi2+  Bi89  1  0.76325795  0.09405849  0.76809166  1
  Bi2+  Bi90  1  0.77795018  0.39151755  0.30077135  1
  Bi2+  Bi91  1  0.73530497  0.37101736  0.80752301  1
  Bi2+  Bi92  1  0.73974111  0.72261272  0.28061971  1
  Bi2+  Bi93  1  0.71740561  0.63633983  0.80831716  1
  Bi2+  Bi94  1  0.74270369  0.89982643  0.33219274  1
  Bi2+  Bi95  1  0.74098084  0.88128885  0.80703074  1
  Bi2+  Bi96  1  0.11343288  -0.00724826  0.20955730  1
  Bi2+  Bi97  1  0.11912496  -0.07375172  0.72434689  1
  Bi2+  Bi98  1  0.09152716  0.26726372  0.18652230  1
  Bi2+  Bi99  1  0.13302801  0.21828928  0.70596610  1
  Bi2+  Bi100  1  0.14149145  0.45567555  0.20159025  1
  Bi2+  Bi101  1  0.11986421  0.55377780  0.73670853  1
  Bi2+  Bi102  1  0.08065448  0.75029155  0.23215442  1
  Bi2+  Bi103  1  0.11036821  0.73492935  0.69221104  1
  Bi2+  Bi104  1  0.37966567  -0.01535506  0.20664838  1
  Bi2+  Bi105  1  0.40968698  -0.02260774  0.70215952  1
  Bi2+  Bi106  1  0.35186944  0.17965012  0.21860265  1
  Bi2+  Bi107  1  0.37384964  0.23078266  0.70216539  1
  Bi2+  Bi108  1  0.37374615  0.51938888  0.20741810  1
  Bi2+  Bi109  1  0.36221957  0.50183464  0.70617804  1
  Bi2+  Bi110  1  0.35496845  0.77198770  0.20622549  1
  Bi2+  Bi111  1  0.35124137  0.76168960  0.71182792  1
  Bi2+  Bi112  1  0.57653250  0.01813520  0.20931885  1
  Bi2+  Bi113  1  0.64887554  0.02154622  0.67194455  1
  Bi2+  Bi114  1  0.63986314  0.21756192  0.21225830  1
  Bi2+  Bi115  1  0.63554961  0.22176361  0.71586697  1
  Bi2+  Bi116  1  0.64433625  0.49897110  0.20844146  1
  Bi2+  Bi117  1  0.60288194  0.47195095  0.70141311  1
  Bi2+  Bi118  1  0.61387012  0.82281767  0.21505199  1
  Bi2+  Bi119  1  0.62192500  0.84192481  0.71892672  1
  Bi2+  Bi120  1  0.84119429  -0.03467515  0.22113667  1
  Bi2+  Bi121  1  0.84613796  0.01677544  0.67505335  1
  Bi2+  Bi122  1  0.89866014  0.23778772  0.20958004  1
  Bi2+  Bi123  1  0.88214679  0.24688739  0.71083493  1
  Bi2+  Bi124  1  0.90207144  0.50880714  0.20652282  1
  Bi2+  Bi125  1  0.86128440  0.51085763  0.71910355  1
  Bi2+  Bi126  1  0.88978978  0.76751702  0.21103090  1
  Bi2+  Bi127  1  0.85796701  0.83128162  0.71737880  1
  S2-  S128  1  -0.00975279  0.13564820  0.14907945  1
  S2-  S129  1  0.01001806  0.18448017  0.64572704  1
  S2-  S130  1  -0.11707781  0.37139958  0.14382072  1
  S2-  S131  1  -0.04887516  0.38997610  0.67683418  1
  S2-  S132  1  0.02340640  0.54235195  0.13599843  1
  S2-  S133  1  -0.08977993  0.61480291  0.65117516  1
  S2-  S134  1  0.02729360  0.87282240  0.15738894  1
  S2-  S135  1  0.00444266  0.85659510  0.65200840  1
  S2-  S136  1  0.23373908  0.18156819  0.14434426  1
  S2-  S137  1  0.25265384  0.12916265  0.65596269  1
  S2-  S138  1  0.33215482  0.40707477  0.14353604  1
  S2-  S139  1  0.15435863  0.34403474  0.64762888  1
  S2-  S140  1  0.31845331  0.64700707  0.13908872  1
  S2-  S141  1  0.23462660  0.58005744  0.65436091  1
  S2-  S142  1  0.26116583  0.87643422  0.15604467  1
  S2-  S143  1  0.24070963  0.86225247  0.65661806  1
  S2-  S144  1  0.49588399  0.21178381  0.15341454  1
  S2-  S145  1  0.51495179  0.22496011  0.64086984  1
  S2-  S146  1  0.49353768  0.40343789  0.21441899  1
  S2-  S147  1  0.37403824  0.37375957  0.64173758  1
  S2-  S148  1  0.52426093  0.60081883  0.17901227  1
  S2-  S149  1  0.49581203  0.59273872  0.65225441  1
  S2-  S150  1  0.48592674  0.80018661  0.13977373  1
  S2-  S151  1  0.48612306  0.83925314  0.65351111  1
  S2-  S152  1  0.76247843  0.15616710  0.16000207  1
  S2-  S153  1  0.75915737  0.23311020  0.63982277  1
  S2-  S154  1  0.66232541  0.36003857  0.15388910  1
  S2-  S155  1  0.74528427  0.44942453  0.65109006  1
  S2-  S156  1  0.77457773  0.59127193  0.16071804  1
  S2-  S157  1  0.71027967  0.60688760  0.71347605  1
  S2-  S158  1  0.76023057  0.85339012  0.15290233  1
  S2-  S159  1  0.73512980  0.77625533  0.65074764  1
  S2-  S160  1  0.12096776  0.00490923  0.34660125  1
  S2-  S161  1  0.13657649  0.03334719  0.84154665  1
  S2-  S162  1  0.11971150  0.25785449  0.34011811  1
  S2-  S163  1  0.10900476  0.26241205  0.83328246  1
  S2-  S164  1  0.22526307  0.48418352  0.35761283  1
  S2-  S165  1  0.10782996  0.49013012  0.83639864  1
  S2-  S166  1  0.19781216  0.75699455  0.34290702  1
  S2-  S167  1  0.08427142  0.76610950  0.84501113  1
  S2-  S168  1  0.35955494  -0.01734598  0.34784161  1
  S2-  S169  1  0.41172048  0.08226877  0.85348970  1
  S2-  S170  1  0.35955236  0.28350162  0.34901444  1
  S2-  S171  1  0.31767156  0.23639170  0.79235800  1
  S2-  S172  1  0.43214648  0.51360569  0.33271356  1
  S2-  S173  1  0.37689174  0.41587223  0.84175493  1
  S2-  S174  1  0.40993003  0.74538849  0.33273544  1
  S2-  S175  1  0.41943605  0.64260167  0.85849509  1
  S2-  S176  1  0.60897721  0.09155873  0.36229551  1
  S2-  S177  1  0.65523763  0.02598066  0.84427735  1
  S2-  S178  1  0.65772745  0.29151492  0.33714678  1
  S2-  S179  1  0.57341395  0.25638391  0.85078053  1
  S2-  S180  1  0.62380836  0.47962307  0.30736739  1
  S2-  S181  1  0.65571708  0.50575139  0.85796072  1
  S2-  S182  1  0.63507453  0.67328603  0.35660739  1
  S2-  S183  1  0.63021763  0.76423341  0.84997315  1
  S2-  S184  1  0.87323283  0.12004119  0.35826087  1
  S2-  S185  1  0.89409751  0.04950179  0.84432404  1
  S2-  S186  1  0.90675952  0.34828856  0.36059060  1
  S2-  S187  1  0.85056418  0.26105862  0.83520232  1
  S2-  S188  1  0.79971332  0.52168753  0.35525593  1
  S2-  S189  1  0.87004317  0.46075305  0.83005535  1
  S2-  S190  1  0.97370505  0.72645977  0.36431309  1
  S2-  S191  1  0.86755940  0.66140336  0.85739742  1
  S2-  S192  1  0.00813038  0.10876925  0.45346213  1
  S2-  S193  1  0.00456126  0.14145093  0.94719568  1
  S2-  S194  1  0.01122377  0.35534349  0.46392893  1
  S2-  S195  1  0.00143739  0.39399887  0.95115221  1
  S2-  S196  1  0.00302374  0.60701182  0.46102636  1
  S2-  S197  1  0.00644069  0.63932422  0.95144097  1
  S2-  S198  1  0.00046601  0.86658115  0.45190345  1
  S2-  S199  1  0.00555786  0.89042436  0.95379521  1
  S2-  S200  1  0.25842032  0.10891488  0.45145739  1
  S2-  S201  1  0.25995939  0.14526002  0.94412604  1
  S2-  S202  1  0.25479598  0.35659928  0.45947957  1
  S2-  S203  1  0.25485740  0.38908085  0.94620783  1
  S2-  S204  1  0.25057389  0.61676567  0.45149771  1
  S2-  S205  1  0.25362952  0.64104058  0.94398029  1
  S2-  S206  1  0.25493940  0.86015851  0.45295488  1
  S2-  S207  1  0.25954597  0.89062955  0.94834073  1
  S2-  S208  1  0.50060249  0.10612303  0.46182138  1
  S2-  S209  1  0.50750623  0.14136302  0.95763553  1
  S2-  S210  1  0.50956522  0.36597364  0.45001214  1
  S2-  S211  1  0.50718109  0.38740812  0.94656525  1
  S2-  S212  1  0.50555438  0.61135286  0.44965800  1
  S2-  S213  1  0.50847926  0.64270410  0.96518751  1
  S2-  S214  1  0.50839986  0.86119574  0.44919703  1
  S2-  S215  1  0.50291618  0.88818620  0.95071167  1
  S2-  S216  1  0.75429534  0.10769349  0.45960356  1
  S2-  S217  1  0.75434612  0.14103429  0.95207649  1
  S2-  S218  1  0.74924248  0.36066969  0.45457960  1
  S2-  S219  1  0.75336972  0.39214230  0.95867831  1
  S2-  S220  1  0.75545313  0.61344366  0.46137825  1
  S2-  S221  1  0.74953340  0.64085017  0.96039152  1
  S2-  S222  1  0.75586987  0.86071755  0.45894029  1
  S2-  S223  1  0.75525549  0.88782762  0.95297615  1
  S2-  S224  1  0.12929760  0.01666515  0.04638190  1
  S2-  S225  1  0.13078292  -0.01517875  0.55099125  1
  S2-  S226  1  0.12641832  0.26980561  0.04007941  1
  S2-  S227  1  0.13323328  0.22699276  0.54366493  1
  S2-  S228  1  0.13581939  0.51499547  0.03848971  1
  S2-  S229  1  0.12877554  0.48597764  0.54915786  1
  S2-  S230  1  0.12930664  0.75948777  0.04792737  1
  S2-  S231  1  0.12782989  0.73553665  0.54272309  1
  S2-  S232  1  0.38101800  0.01389547  0.04792674  1
  S2-  S233  1  0.38093746  -0.01514988  0.55045719  1
  S2-  S234  1  0.38444118  0.26439752  0.04759930  1
  S2-  S235  1  0.37917503  0.22929708  0.54526839  1
  S2-  S236  1  0.38051805  0.51619375  0.03717431  1
  S2-  S237  1  0.37970114  0.48789445  0.53736109  1
  S2-  S238  1  0.37616801  0.76742255  0.03285969  1
  S2-  S239  1  0.38117216  0.73431173  0.54310600  1
  S2-  S240  1  0.63012311  0.00913351  0.05139217  1
  S2-  S241  1  0.62887426  -0.01432588  0.54417223  1
  S2-  S242  1  0.62867742  0.26392269  0.04741346  1
  S2-  S243  1  0.62778866  0.23121419  0.53972971  1
  S2-  S244  1  0.62284581  0.51362932  0.05972390  1
  S2-  S245  1  0.62480444  0.48634721  0.55252344  1
  S2-  S246  1  0.63114910  0.76514309  0.05195992  1
  S2-  S247  1  0.62827508  0.73253213  0.55090866  1
  S2-  S248  1  0.88096956  0.01328510  0.04866506  1
  S2-  S249  1  0.88229990  -0.01514788  0.53994849  1
  S2-  S250  1  0.88253095  0.26292624  0.04177439  1
  S2-  S251  1  0.88656638  0.23240989  0.54255443  1
  S2-  S252  1  0.87835107  0.51748814  0.03839607  1
  S2-  S253  1  0.88802841  0.47879522  0.54994612  1
  S2-  S254  1  0.88132478  0.76172224  0.04580051  1
  S2-  S255  1  0.87985187  0.73952190  0.54940044  1
