# generated using pymatgen
data_La6Ce7Pr13Nd19Sm19(BiS2)64
_symmetry_space_group_name_H-M   'P 1'
_cell_length_a   16.09662680
_cell_length_b   16.08027670
_cell_length_c   27.32464194
_cell_angle_alpha   90.02178004
_cell_angle_beta   89.86578394
_cell_angle_gamma   90.03271569
_symmetry_Int_Tables_number   1
_chemical_formula_structural   La6Ce7Pr13Nd19Sm19(BiS2)64
_chemical_formula_sum   'La6 Ce7 Pr13 Nd19 Sm19 Bi64 S128'
_cell_volume   7072.64042275
_cell_formula_units_Z   1
loop_
 _symmetry_equiv_pos_site_id
 _symmetry_equiv_pos_as_xyz
  1  'x, y, z'
loop_
 _atom_type_symbol
 _atom_type_oxidation_number
  La3+  3.0
  Ce3+  3.0
  Pr3+  3.0
  Nd3+  3.0
  Sm3+  3.0
  Bi2+  2.0
  S2-  -2.0
loop_
 _atom_site_type_symbol
 _atom_site_label
 _atom_site_symmetry_multiplicity
 _atom_site_fract_x
 _atom_site_fract_y
 _atom_site_fract_z
 _atom_site_occupancy
  La3+  La0  1  -0.00869445  0.37769449  0.09779025  1
  La3+  La1  1  0.24978183  0.62096864  0.07572245  1
  La3+  La2  1  0.62727161  -0.01763619  0.43160447  1
  La3+  La3  1  0.75323646  0.10132287  0.58487475  1
  La3+  La4  1  0.87678802  -0.01720535  0.40665232  1
  La3+  La5  1  0.24353915  0.61147523  0.60683573  1
  Ce3+  Ce6  1  0.00086561  0.87691374  0.05713126  1
  Ce3+  Ce7  1  0.87291503  0.25029020  0.94386193  1
  Ce3+  Ce8  1  0.75335377  0.62227541  0.05081659  1
  Ce3+  Ce9  1  0.62568592  0.49962488  0.93469479  1
  Ce3+  Ce10  1  0.25050339  0.12796665  0.06481917  1
  Ce3+  Ce11  1  0.75016529  0.87783372  0.06121369  1
  Ce3+  Ce12  1  0.12386921  0.48465083  0.44753438  1
  Pr3+  Pr13  1  0.74452114  0.38353563  0.07325747  1
  Pr3+  Pr14  1  -0.00451893  0.10541445  0.55866895  1
  Pr3+  Pr15  1  0.63148612  0.24970640  0.93125214  1
  Pr3+  Pr16  1  0.24810847  0.85717116  0.56056350  1
  Pr3+  Pr17  1  0.87634078  0.48055106  0.43263722  1
  Pr3+  Pr18  1  0.87643950  0.75268933  0.94269175  1
  Pr3+  Pr19  1  0.86810683  0.49781122  0.92799731  1
  Pr3+  Pr20  1  0.63620810  -0.00522571  0.90136352  1
  Pr3+  Pr21  1  0.36930659  0.72737718  0.43235402  1
  Pr3+  Pr22  1  0.49597984  0.62695087  0.06078613  1
  Pr3+  Pr23  1  0.49851935  0.10302825  0.56388534  1
  Pr3+  Pr24  1  0.12444329  0.23213086  0.43922562  1
  Pr3+  Pr25  1  0.74842788  0.85605125  0.56486577  1
  Nd3+  Nd26  1  0.62734464  0.22692133  0.44803745  1
  Nd3+  Nd27  1  0.24778280  0.10839082  0.56099168  1
  Nd3+  Nd28  1  0.12522212  0.75060808  0.93842082  1
  Nd3+  Nd29  1  -0.00537433  0.60376716  0.57237289  1
  Nd3+  Nd30  1  0.00531865  0.62450024  0.06556748  1
  Nd3+  Nd31  1  0.62583677  0.48218948  0.44261095  1
  Nd3+  Nd32  1  0.37203371  0.49957221  0.94112821  1
  Nd3+  Nd33  1  0.50417387  0.37484950  0.06239919  1
  Nd3+  Nd34  1  0.11805841  0.50083498  0.93772684  1
  Nd3+  Nd35  1  0.50194483  0.87824421  0.05173962  1
  Nd3+  Nd36  1  0.12290704  0.25259614  0.95065470  1
  Nd3+  Nd37  1  0.25033595  0.35460784  0.56860122  1
  Nd3+  Nd38  1  0.62350166  0.75397342  0.93855211  1
  Nd3+  Nd39  1  0.50341284  0.12426325  0.05223673  1
  Nd3+  Nd40  1  -0.00109928  0.12515975  0.06520536  1
  Nd3+  Nd41  1  0.37678418  0.24925740  0.94454587  1
  Nd3+  Nd42  1  0.37735552  -0.02032823  0.42580754  1
  Nd3+  Nd43  1  0.37010359  0.47972062  0.43458437  1
  Nd3+  Nd44  1  0.74936187  0.60525067  0.56969284  1
  Sm3+  Sm45  1  0.87278012  0.23361762  0.43077448  1
  Sm3+  Sm46  1  -0.00451030  0.35617880  0.56057805  1
  Sm3+  Sm47  1  0.37350430  0.23492427  0.43575750  1
  Sm3+  Sm48  1  0.12638878  0.00385159  0.94579216  1
  Sm3+  Sm49  1  0.62606035  0.73292945  0.44420805  1
  Sm3+  Sm50  1  0.37337737  0.75177896  0.93542056  1
  Sm3+  Sm51  1  0.12385791  0.73012147  0.44838470  1
  Sm3+  Sm52  1  0.49668372  0.85592785  0.55568463  1
  Sm3+  Sm53  1  0.37593815  0.00348234  0.94095755  1
  Sm3+  Sm54  1  0.24744156  0.37636341  0.06344452  1
  Sm3+  Sm55  1  0.25117081  0.87613462  0.05076383  1
  Sm3+  Sm56  1  0.49328412  0.60461659  0.55458454  1
  Sm3+  Sm57  1  0.49811205  0.35547832  0.55569414  1
  Sm3+  Sm58  1  0.12239314  -0.01628963  0.43580283  1
  Sm3+  Sm59  1  -0.00431983  0.85649901  0.55490737  1
  Sm3+  Sm60  1  0.87400124  0.72851065  0.43903765  1
  Sm3+  Sm61  1  0.75007390  0.12669391  0.05766215  1
  Sm3+  Sm62  1  0.74991855  0.35533575  0.55695000  1
  Sm3+  Sm63  1  0.87528373  0.00112563  0.93971613  1
  Bi2+  Bi64  1  0.00729675  0.11095903  0.28693764  1
  Bi2+  Bi65  1  -0.02363919  0.11561826  0.78309324  1
  Bi2+  Bi66  1  0.00803877  0.37575033  0.29519101  1
  Bi2+  Bi67  1  0.04281238  0.29966416  0.76900711  1
  Bi2+  Bi68  1  0.01759539  0.63504659  0.29687461  1
  Bi2+  Bi69  1  -0.00633625  0.67780331  0.79376446  1
  Bi2+  Bi70  1  -0.01291109  0.84695321  0.28209267  1
  Bi2+  Bi71  1  0.02459262  0.92282962  0.78228792  1
  Bi2+  Bi72  1  0.26052232  0.07837756  0.32713326  1
  Bi2+  Bi73  1  0.22896140  0.12641332  0.80171081  1
  Bi2+  Bi74  1  0.30319376  0.39097344  0.23324802  1
  Bi2+  Bi75  1  0.26796134  0.37777506  0.81003121  1
  Bi2+  Bi76  1  0.21652100  0.60887811  0.29775062  1
  Bi2+  Bi77  1  0.27894444  0.63097778  0.82119131  1
  Bi2+  Bi78  1  0.25538382  0.87974111  0.28557084  1
  Bi2+  Bi79  1  0.24162994  0.85453278  0.78428556  1
  Bi2+  Bi80  1  0.43760567  0.16564831  0.30817738  1
  Bi2+  Bi81  1  0.47303975  0.15897769  0.79552928  1
  Bi2+  Bi82  1  0.47519421  0.37918235  0.29436036  1
  Bi2+  Bi83  1  0.54525507  0.42540155  0.75604983  1
  Bi2+  Bi84  1  0.44033821  0.64979043  0.27489171  1
  Bi2+  Bi85  1  0.52989275  0.61662422  0.78297744  1
  Bi2+  Bi86  1  0.50558239  0.88547264  0.29381566  1
  Bi2+  Bi87  1  0.55218254  0.80926064  0.76620592  1
  Bi2+  Bi88  1  0.73706384  0.12283613  0.28464704  1
  Bi2+  Bi89  1  0.73587283  0.15193502  0.79369892  1
  Bi2+  Bi90  1  0.68236033  0.35680234  0.28929904  1
  Bi2+  Bi91  1  0.74109270  0.40625515  0.75914019  1
  Bi2+  Bi92  1  0.75278603  0.61390843  0.29515682  1
  Bi2+  Bi93  1  0.72988442  0.61675317  0.78755124  1
  Bi2+  Bi94  1  0.74675534  0.85433188  0.28428342  1
  Bi2+  Bi95  1  0.77723444  0.88246135  0.78572884  1
  Bi2+  Bi96  1  0.15322993  0.01868400  0.22958232  1
  Bi2+  Bi97  1  0.19584460  -0.00835621  0.66617933  1
  Bi2+  Bi98  1  0.18651916  0.23392795  0.24957317  1
  Bi2+  Bi99  1  0.11108719  0.15923508  0.69800187  1
  Bi2+  Bi100  1  0.10901095  0.51313746  0.20458864  1
  Bi2+  Bi101  1  0.11817986  0.49517140  0.71713139  1
  Bi2+  Bi102  1  0.12254884  0.79231055  0.20513607  1
  Bi2+  Bi103  1  0.10964874  0.82493428  0.69695403  1
  Bi2+  Bi104  1  0.37604627  0.02304324  0.23623978  1
  Bi2+  Bi105  1  0.34234174  -0.00065919  0.74063174  1
  Bi2+  Bi106  1  0.35354957  0.21388292  0.18929539  1
  Bi2+  Bi107  1  0.31323442  0.25107604  0.72920695  1
  Bi2+  Bi108  1  0.45066691  0.50612095  0.19333640  1
  Bi2+  Bi109  1  0.37594469  0.49344821  0.71059488  1
  Bi2+  Bi110  1  0.38460643  0.78921762  0.19971647  1
  Bi2+  Bi111  1  0.41340185  0.76070564  0.69827853  1
  Bi2+  Bi112  1  0.62692999  -0.00674581  0.18415419  1
  Bi2+  Bi113  1  0.59919672  0.01001774  0.69979759  1
  Bi2+  Bi114  1  0.54799060  0.24803288  0.21797918  1
  Bi2+  Bi115  1  0.57660684  0.25773344  0.69931885  1
  Bi2+  Bi116  1  0.63723649  0.49605277  0.20953460  1
  Bi2+  Bi117  1  0.63734487  0.57001575  0.68537710  1
  Bi2+  Bi118  1  0.61064827  0.72669364  0.24326442  1
  Bi2+  Bi119  1  0.67606037  0.76122076  0.67983029  1
  Bi2+  Bi120  1  0.88237488  -0.00050273  0.18994137  1
  Bi2+  Bi121  1  0.88384560  -0.01173037  0.71143951  1
  Bi2+  Bi122  1  0.84284954  0.23189583  0.21991937  1
  Bi2+  Bi123  1  0.89158307  0.27996739  0.69502629  1
  Bi2+  Bi124  1  0.84901657  0.50115606  0.21880922  1
  Bi2+  Bi125  1  0.89519245  0.52373772  0.74626023  1
  Bi2+  Bi126  1  0.88107745  0.70977517  0.22482680  1
  Bi2+  Bi127  1  0.86126554  0.72620833  0.70734671  1
  S2-  S128  1  -0.03428854  0.14181789  0.16295198  1
  S2-  S129  1  -0.09674246  0.12276641  0.64393113  1
  S2-  S130  1  0.06524189  0.35201087  0.19268203  1
  S2-  S131  1  0.01269385  0.38237061  0.65808417  1
  S2-  S132  1  -0.03035574  0.53128656  0.14776983  1
  S2-  S133  1  0.08626822  0.61719384  0.65757393  1
  S2-  S134  1  0.00241865  0.90615601  0.15367352  1
  S2-  S135  1  -0.04606214  0.85464383  0.65108337  1
  S2-  S136  1  0.19764371  0.12607184  0.15709907  1
  S2-  S137  1  0.25564553  0.22198538  0.63845825  1
  S2-  S138  1  0.24416162  0.47339921  0.14374504  1
  S2-  S139  1  0.24348701  0.44961993  0.65278020  1
  S2-  S140  1  0.12557524  0.65982761  0.14553014  1
  S2-  S141  1  0.24917766  0.60729814  0.72902152  1
  S2-  S142  1  0.25601147  0.85937837  0.14829699  1
  S2-  S143  1  0.26864008  0.77426775  0.64849641  1
  S2-  S144  1  0.52936571  0.10815800  0.14997054  1
  S2-  S145  1  0.48524436  0.13017624  0.66339112  1
  S2-  S146  1  0.60815916  0.35542642  0.14166753  1
  S2-  S147  1  0.47357510  0.37422533  0.65195428  1
  S2-  S148  1  0.38676884  0.64971158  0.14002836  1
  S2-  S149  1  0.41601970  0.61587385  0.64203235  1
  S2-  S150  1  0.52251625  0.87648546  0.15037318  1
  S2-  S151  1  0.48588120  0.90214787  0.65074141  1
  S2-  S152  1  0.74813146  0.11544058  0.15662399  1
  S2-  S153  1  0.69815223  0.15251246  0.68410865  1
  S2-  S154  1  0.84282340  0.35384091  0.15612908  1
  S2-  S155  1  0.76312008  0.36548013  0.65483637  1
  S2-  S156  1  0.74270077  0.55206164  0.13811720  1
  S2-  S157  1  0.86598915  0.59098445  0.64428417  1
  S2-  S158  1  0.76099553  0.88407166  0.15884751  1
  S2-  S159  1  0.72840735  0.95619322  0.64805446  1
  S2-  S160  1  0.03387330  -0.02100210  0.34999610  1
  S2-  S161  1  0.11356224  0.01865679  0.84911960  1
  S2-  S162  1  0.08891711  0.24536755  0.34038826  1
  S2-  S163  1  0.14601542  0.26313972  0.85219555  1
  S2-  S164  1  0.12162295  0.47759489  0.34740214  1
  S2-  S165  1  0.17058492  0.50245504  0.84295441  1
  S2-  S166  1  0.14213833  0.73111436  0.34942257  1
  S2-  S167  1  0.14036833  0.74109093  0.83999024  1
  S2-  S168  1  0.50788168  0.01099287  0.35548407  1
  S2-  S169  1  0.37197484  0.03490668  0.84533432  1
  S2-  S170  1  0.35301159  0.35268119  0.36224609  1
  S2-  S171  1  0.39512147  0.28033172  0.84884403  1
  S2-  S172  1  0.36218540  0.59734654  0.35857826  1
  S2-  S173  1  0.38705155  0.50270855  0.84241209  1
  S2-  S174  1  0.37211298  0.84568817  0.35631199  1
  S2-  S175  1  0.37321711  0.78252646  0.83844868  1
  S2-  S176  1  0.72919251  -0.01423681  0.34576479  1
  S2-  S177  1  0.59446849  0.03815419  0.80431869  1
  S2-  S178  1  0.65023427  0.21856283  0.34874376  1
  S2-  S179  1  0.60837817  0.24402835  0.83084079  1
  S2-  S180  1  0.63991171  0.49955796  0.34470232  1
  S2-  S181  1  0.72913725  0.47907248  0.85703794  1
  S2-  S182  1  0.62039198  0.77648099  0.34881034  1
  S2-  S183  1  0.64324987  0.83703246  0.85215695  1
  S2-  S184  1  0.87846830  0.13491609  0.34748098  1
  S2-  S185  1  0.79433519  0.01078479  0.85253031  1
  S2-  S186  1  0.88436258  0.35948360  0.35572539  1
  S2-  S187  1  0.81569171  0.25038077  0.85153237  1
  S2-  S188  1  0.88378967  0.60919177  0.36383439  1
  S2-  S189  1  0.96089267  0.53757111  0.84398867  1
  S2-  S190  1  0.86716422  0.82647004  0.35456450  1
  S2-  S191  1  0.88097765  0.78235261  0.84410121  1
  S2-  S192  1  -0.00087847  0.10796317  0.45296605  1
  S2-  S193  1  -0.00049116  0.12426405  0.95612101  1
  S2-  S194  1  0.00105166  0.35588436  0.45690245  1
  S2-  S195  1  -0.00251716  0.37366687  0.94216346  1
  S2-  S196  1  0.00037818  0.60908382  0.46339656  1
  S2-  S197  1  0.00027544  0.62828101  0.95768178  1
  S2-  S198  1  0.00108029  0.85620645  0.45260633  1
  S2-  S199  1  0.00254401  0.87998783  0.94974288  1
  S2-  S200  1  0.25129344  0.10694772  0.45487283  1
  S2-  S201  1  0.25053496  0.12650261  0.95769290  1
  S2-  S202  1  0.24531581  0.35511296  0.46246232  1
  S2-  S203  1  0.24973191  0.37516450  0.95908620  1
  S2-  S204  1  0.24396497  0.60661260  0.45881316  1
  S2-  S205  1  0.25004443  0.62598473  0.95751219  1
  S2-  S206  1  0.24233320  0.86054204  0.45345367  1
  S2-  S207  1  0.25101042  0.87942607  0.94603815  1
  S2-  S208  1  0.49445513  0.11175708  0.45722551  1
  S2-  S209  1  0.50543647  0.12147826  0.94633020  1
  S2-  S210  1  0.50338773  0.35456376  0.45182326  1
  S2-  S211  1  0.50199063  0.37453451  0.95419463  1
  S2-  S212  1  0.50279709  0.60700125  0.45165403  1
  S2-  S213  1  0.49796606  0.62822237  0.94952427  1
  S2-  S214  1  0.50082744  0.85427145  0.45393975  1
  S2-  S215  1  0.49747184  0.87942002  0.94514665  1
  S2-  S216  1  0.75430839  0.10837640  0.45627756  1
  S2-  S217  1  0.74893700  0.12099121  0.95346403  1
  S2-  S218  1  0.74714211  0.35605877  0.45268947  1
  S2-  S219  1  0.74758245  0.37400463  0.96218872  1
  S2-  S220  1  0.74633382  0.60853924  0.46175255  1
  S2-  S221  1  0.74795068  0.63035052  0.94640566  1
  S2-  S222  1  0.74955488  0.85244988  0.45837030  1
  S2-  S223  1  0.75122275  0.87869318  0.95570447  1
  S2-  S224  1  0.12727523  0.00129245  0.05010013  1
  S2-  S225  1  0.12060723  -0.01820672  0.54057614  1
  S2-  S226  1  0.12017918  0.25591974  0.05701887  1
  S2-  S227  1  0.11831265  0.23257133  0.54606014  1
  S2-  S228  1  0.11851153  0.49115033  0.04439094  1
  S2-  S229  1  0.12030317  0.48002423  0.55187164  1
  S2-  S230  1  0.12741826  0.75618617  0.04226101  1
  S2-  S231  1  0.12063325  0.73233835  0.55127143  1
  S2-  S232  1  0.37467066  0.00150093  0.04683206  1
  S2-  S233  1  0.37268958  -0.01768223  0.54143468  1
  S2-  S234  1  0.37627403  0.25307108  0.05112127  1
  S2-  S235  1  0.37777710  0.23159725  0.54017693  1
  S2-  S236  1  0.37774258  0.49454126  0.04571387  1
  S2-  S237  1  0.37725300  0.47737459  0.54056942  1
  S2-  S238  1  0.37447407  0.75577229  0.03841493  1
  S2-  S239  1  0.37657676  0.73366043  0.53877177  1
  S2-  S240  1  0.62810458  0.00160172  0.04374533  1
  S2-  S241  1  0.62117513  -0.01888001  0.54228192  1
  S2-  S242  1  0.62706066  0.24612313  0.04000067  1
  S2-  S243  1  0.62577004  0.23115764  0.55358400  1
  S2-  S244  1  0.61897447  0.50518160  0.04017380  1
  S2-  S245  1  0.62276389  0.47984781  0.54891771  1
  S2-  S246  1  0.62438939  0.74962584  0.04528970  1
  S2-  S247  1  0.61933641  0.72824439  0.54859989  1
  S2-  S248  1  0.87454814  0.00263524  0.04461024  1
  S2-  S249  1  0.87398797  -0.02125432  0.54576184  1
  S2-  S250  1  0.87600254  0.24982351  0.04908687  1
  S2-  S251  1  0.87085828  0.23452369  0.54032136  1
  S2-  S252  1  0.87752624  0.49862753  0.03775536  1
  S2-  S253  1  0.87148256  0.47702760  0.54162096  1
  S2-  S254  1  0.87684244  0.75003821  0.05110589  1
  S2-  S255  1  0.87290823  0.73156496  0.54570348  1
