# generated using pymatgen
data_La6Ce7Pr13Nd19Sm19(BiS2)64
_symmetry_space_group_name_H-M   'P 1'
_cell_length_a   16.06830501
_cell_length_b   16.04976502
_cell_length_c   27.47526752
_cell_angle_alpha   90.00237706
_cell_angle_beta   90.05807398
_cell_angle_gamma   90.02927319
_symmetry_Int_Tables_number   1
_chemical_formula_structural   La6Ce7Pr13Nd19Sm19(BiS2)64
_chemical_formula_sum   'La6 Ce7 Pr13 Nd19 Sm19 Bi64 S128'
_cell_volume   7085.66139745
_cell_formula_units_Z   1
loop_
 _symmetry_equiv_pos_site_id
 _symmetry_equiv_pos_as_xyz
  1  'x, y, z'
loop_
 _atom_type_symbol
 _atom_type_oxidation_number
  La3+  3.0
  Ce3+  3.0
  Pr3+  3.0
  Nd3+  3.0
  Sm3+  3.0
  Bi2+  2.0
  S2-  -2.0
loop_
 _atom_site_type_symbol
 _atom_site_label
 _atom_site_symmetry_multiplicity
 _atom_site_fract_x
 _atom_site_fract_y
 _atom_site_fract_z
 _atom_site_occupancy
  La3+  La0  1  0.60263505  0.00406924  0.92615104  1
  La3+  La1  1  0.22400015  0.87171540  0.11753500  1
  La3+  La2  1  0.60209935  0.26237844  0.91486554  1
  La3+  La3  1  0.48571146  0.88794695  0.07715572  1
  La3+  La4  1  0.77272155  0.10483588  0.61176893  1
  La3+  La5  1  0.88724925  0.48014374  0.42229411  1
  Ce3+  Ce6  1  0.23649920  0.12655670  0.06963591  1
  Ce3+  Ce7  1  0.75197606  0.86739125  0.55312012  1
  Ce3+  Ce8  1  0.62656161  -0.00777797  0.43797352  1
  Ce3+  Ce9  1  0.00370157  0.61412755  0.55243157  1
  Ce3+  Ce10  1  0.00305436  0.36479120  0.56238824  1
  Ce3+  Ce11  1  0.62805996  0.73306485  0.42506594  1
  Ce3+  Ce12  1  0.50912770  0.86250830  0.55958233  1
  Pr3+  Pr13  1  0.23750014  0.38065093  0.06748677  1
  Pr3+  Pr14  1  -0.01735414  0.63223090  0.06982154  1
  Pr3+  Pr15  1  0.50973863  0.11927981  0.56509743  1
  Pr3+  Pr16  1  0.13601764  0.75401393  0.41011315  1
  Pr3+  Pr17  1  0.87806277  -0.00951181  0.43660461  1
  Pr3+  Pr18  1  0.26016780  0.11621970  0.57406039  1
  Pr3+  Pr19  1  0.48751581  0.37927718  0.04765451  1
  Pr3+  Pr20  1  0.25659071  0.86021775  0.56128405  1
  Pr3+  Pr21  1  -0.01002675  0.12721836  0.05103133  1
  Pr3+  Pr22  1  0.25398770  0.61483114  0.55833828  1
  Pr3+  Pr23  1  0.37624461  0.48755739  0.43275004  1
  Pr3+  Pr24  1  0.48743967  0.62901075  0.06495714  1
  Pr3+  Pr25  1  0.61341972  0.51349715  0.92792263  1
  Nd3+  Nd26  1  0.63367058  0.48421817  0.43016882  1
  Nd3+  Nd27  1  0.86103817  0.25429385  0.93175396  1
  Nd3+  Nd28  1  0.75499258  0.36493019  0.56878178  1
  Nd3+  Nd29  1  0.38333940  0.73580213  0.41491578  1
  Nd3+  Nd30  1  0.13059433  0.49346325  0.43745460  1
  Nd3+  Nd31  1  0.75414734  0.60950563  0.55979425  1
  Nd3+  Nd32  1  0.73490924  0.13345049  0.05458010  1
  Nd3+  Nd33  1  0.13130572  0.23727126  0.44742460  1
  Nd3+  Nd34  1  0.73882158  0.62528171  0.06752833  1
  Nd3+  Nd35  1  0.11855567  0.50702010  0.93246586  1
  Nd3+  Nd36  1  0.87943256  0.73880277  0.43977441  1
  Nd3+  Nd37  1  0.73675311  0.37608953  0.06053203  1
  Nd3+  Nd38  1  0.25571128  0.36524022  0.56373505  1
  Nd3+  Nd39  1  -0.01475385  0.87998877  0.06327147  1
  Nd3+  Nd40  1  0.86145137  0.50827812  0.93356790  1
  Nd3+  Nd41  1  0.00293575  0.86463805  0.55758966  1
  Nd3+  Nd42  1  0.86497104  0.75650934  0.93795096  1
  Nd3+  Nd43  1  0.11220196  0.75044287  0.93870122  1
  Nd3+  Nd44  1  0.23355804  0.62689352  0.07138746  1
  Sm3+  Sm45  1  0.86109137  0.00374261  0.93875059  1
  Sm3+  Sm46  1  0.38178189  -0.00886801  0.45186881  1
  Sm3+  Sm47  1  0.87963216  0.23767551  0.44660212  1
  Sm3+  Sm48  1  0.13503457  -0.01003946  0.44897697  1
  Sm3+  Sm49  1  0.00398477  0.11325062  0.55805370  1
  Sm3+  Sm50  1  0.35534824  0.00084819  0.94419093  1
  Sm3+  Sm51  1  0.48677618  0.13084618  0.05747450  1
  Sm3+  Sm52  1  0.63151556  0.24388111  0.44048074  1
  Sm3+  Sm53  1  0.35892453  0.75512595  0.95371574  1
  Sm3+  Sm54  1  0.37831780  0.23976354  0.43609753  1
  Sm3+  Sm55  1  0.50699217  0.36572120  0.55694379  1
  Sm3+  Sm56  1  0.11712467  -0.00483193  0.94065129  1
  Sm3+  Sm57  1  0.35393458  0.25205730  0.93497930  1
  Sm3+  Sm58  1  -0.01328101  0.38162639  0.04599902  1
  Sm3+  Sm59  1  0.35801587  0.51104268  0.93991588  1
  Sm3+  Sm60  1  0.50563970  0.61354116  0.55254658  1
  Sm3+  Sm61  1  0.73546333  0.88231177  0.04785917  1
  Sm3+  Sm62  1  0.11695321  0.25229678  0.94067208  1
  Sm3+  Sm63  1  0.61050152  0.75073608  0.94638386  1
  Bi2+  Bi64  1  -0.02914447  0.18287890  0.31240291  1
  Bi2+  Bi65  1  0.06188048  0.14722836  0.77839949  1
  Bi2+  Bi66  1  0.02224787  0.31093802  0.23008418  1
  Bi2+  Bi67  1  0.06975325  0.34768819  0.77665900  1
  Bi2+  Bi68  1  -0.04937219  0.60851473  0.30200596  1
  Bi2+  Bi69  1  0.00208900  0.72793225  0.78881256  1
  Bi2+  Bi70  1  0.00804917  0.99652817  0.28471950  1
  Bi2+  Bi71  1  0.12397551  0.95667104  0.78649056  1
  Bi2+  Bi72  1  0.29774224  0.15608190  0.30603066  1
  Bi2+  Bi73  1  0.27415238  0.12477220  0.79930609  1
  Bi2+  Bi74  1  0.23631359  0.34635877  0.29499318  1
  Bi2+  Bi75  1  0.27092617  0.37148196  0.78891518  1
  Bi2+  Bi76  1  0.20361273  0.53634836  0.31557691  1
  Bi2+  Bi77  1  0.23027753  0.62097796  0.79729807  1
  Bi2+  Bi78  1  0.26738003  0.91530714  0.29850631  1
  Bi2+  Bi79  1  0.26795590  0.81200882  0.78992823  1
  Bi2+  Bi80  1  0.50763069  0.16366881  0.30019555  1
  Bi2+  Bi81  1  0.52618768  0.11457686  0.80291441  1
  Bi2+  Bi82  1  0.50225553  0.36438431  0.29088082  1
  Bi2+  Bi83  1  0.47852712  0.42369553  0.77866681  1
  Bi2+  Bi84  1  0.49894158  0.63625048  0.29130371  1
  Bi2+  Bi85  1  0.46950600  0.61854809  0.75108420  1
  Bi2+  Bi86  1  0.55590383  0.89690539  0.27410735  1
  Bi2+  Bi87  1  0.45321867  0.87712275  0.78304649  1
  Bi2+  Bi88  1  0.76953287  0.08809062  0.29636831  1
  Bi2+  Bi89  1  0.79666414  0.09834704  0.81337271  1
  Bi2+  Bi90  1  0.76715886  0.35938291  0.28882201  1
  Bi2+  Bi91  1  0.77172266  0.36300399  0.79791840  1
  Bi2+  Bi92  1  0.71421064  0.61079093  0.26509605  1
  Bi2+  Bi93  1  0.73589437  0.59054123  0.79874685  1
  Bi2+  Bi94  1  0.73416244  0.81477348  0.28467237  1
  Bi2+  Bi95  1  0.82740799  0.83809751  0.77973482  1
  Bi2+  Bi96  1  0.12886429  0.10784204  0.21968268  1
  Bi2+  Bi97  1  0.18370974  0.05797850  0.69316772  1
  Bi2+  Bi98  1  0.20190271  0.27310314  0.17812038  1
  Bi2+  Bi99  1  0.19081045  0.25437899  0.68891379  1
  Bi2+  Bi100  1  0.13196351  0.47897733  0.21844784  1
  Bi2+  Bi101  1  0.05636232  0.54279834  0.76059330  1
  Bi2+  Bi102  1  0.10743909  0.72956535  0.22450337  1
  Bi2+  Bi103  1  0.13292586  0.74753417  0.68440766  1
  Bi2+  Bi104  1  0.40019033  0.08560546  0.21420884  1
  Bi2+  Bi105  1  0.38436279  0.03470198  0.72173330  1
  Bi2+  Bi106  1  0.40213088  0.27640074  0.18934773  1
  Bi2+  Bi107  1  0.38427280  0.26717938  0.71598125  1
  Bi2+  Bi108  1  0.38797170  0.47228326  0.20432118  1
  Bi2+  Bi109  1  0.34102310  0.49194562  0.69972772  1
  Bi2+  Bi110  1  0.37580311  0.73823875  0.21890964  1
  Bi2+  Bi111  1  0.38504601  0.77440774  0.69017181  1
  Bi2+  Bi112  1  0.65951714  0.00602769  0.19788102  1
  Bi2+  Bi113  1  0.64240237  -0.03254298  0.70971722  1
  Bi2+  Bi114  1  0.65663937  0.20020808  0.22585264  1
  Bi2+  Bi115  1  0.64362042  0.23317921  0.71175222  1
  Bi2+  Bi116  1  0.63161488  0.44948248  0.22042572  1
  Bi2+  Bi117  1  0.61226367  0.48360587  0.70185350  1
  Bi2+  Bi118  1  0.60050451  0.73951903  0.20626076  1
  Bi2+  Bi119  1  0.61722812  0.75672570  0.77557257  1
  Bi2+  Bi120  1  0.86485859  0.00583022  0.20018810  1
  Bi2+  Bi121  1  0.91394831  -0.03973280  0.70974286  1
  Bi2+  Bi122  1  0.85862991  0.20420603  0.19825744  1
  Bi2+  Bi123  1  0.94128613  0.25512723  0.70729399  1
  Bi2+  Bi124  1  0.88434076  0.50796398  0.18614167  1
  Bi2+  Bi125  1  0.88975150  0.54388094  0.69802529  1
  Bi2+  Bi126  1  0.87601821  0.79417788  0.20650441  1
  Bi2+  Bi127  1  0.76654207  0.69880176  0.70250750  1
  S2-  S128  1  -0.00844610  0.10098128  0.14971108  1
  S2-  S129  1  -0.05476841  0.10131331  0.64978922  1
  S2-  S130  1  -0.05445173  0.37763367  0.14061527  1
  S2-  S131  1  -0.03863152  0.39274903  0.65576073  1
  S2-  S132  1  0.03963393  0.58968298  0.16495580  1
  S2-  S133  1  0.02618625  0.63071372  0.64882847  1
  S2-  S134  1  0.01935797  0.83190671  0.15642408  1
  S2-  S135  1  0.00630595  0.86186466  0.65719146  1
  S2-  S136  1  0.24544023  0.04072466  0.15417647  1
  S2-  S137  1  0.38995547  0.14492461  0.64279643  1
  S2-  S138  1  0.25582879  0.49672172  0.14346819  1
  S2-  S139  1  0.20737098  0.41917836  0.65379190  1
  S2-  S140  1  0.23626527  0.70912567  0.16052844  1
  S2-  S141  1  0.26543921  0.64724252  0.65694712  1
  S2-  S142  1  0.18009454  0.87488210  0.22187722  1
  S2-  S143  1  0.24799584  0.87268776  0.66088313  1
  S2-  S144  1  0.51194051  0.03755341  0.14041185  1
  S2-  S145  1  0.60417355  0.10211649  0.65003252  1
  S2-  S146  1  0.51980808  0.38842990  0.14581217  1
  S2-  S147  1  0.54944951  0.34525191  0.65133476  1
  S2-  S148  1  0.46212716  0.61326073  0.16362807  1
  S2-  S149  1  0.52658259  0.60138159  0.64997983  1
  S2-  S150  1  0.38871101  0.86098207  0.16089826  1
  S2-  S151  1  0.52997970  0.86643139  0.65646318  1
  S2-  S152  1  0.73162702  0.24584079  0.13099085  1
  S2-  S153  1  0.75964704  0.09636424  0.71983489  1
  S2-  S154  1  0.73204630  0.49063015  0.13732851  1
  S2-  S155  1  0.76653254  0.26934342  0.65422609  1
  S2-  S156  1  0.85089515  0.66143076  0.14301816  1
  S2-  S157  1  0.75375097  0.49757577  0.63746379  1
  S2-  S158  1  0.76056830  0.88690592  0.14434752  1
  S2-  S159  1  0.76854303  0.92866974  0.64494168  1
  S2-  S160  1  0.13063736  -0.05751876  0.35635639  1
  S2-  S161  1  0.23479461  0.00790761  0.86732956  1
  S2-  S162  1  0.14078547  0.22379192  0.34940040  1
  S2-  S163  1  0.22715589  0.25241841  0.86634863  1
  S2-  S164  1  0.03663894  0.48625184  0.35321810  1
  S2-  S165  1  0.08975322  0.63064478  0.86172972  1
  S2-  S166  1  0.04924231  0.73117775  0.32309675  1
  S2-  S167  1  0.07395616  0.84361139  0.85439741  1
  S2-  S168  1  0.36989618  0.02606573  0.35715658  1
  S2-  S169  1  0.45949213  -0.01254086  0.86303523  1
  S2-  S170  1  0.37708820  0.35526254  0.36120671  1
  S2-  S171  1  0.45819549  0.23350083  0.85370135  1
  S2-  S172  1  0.36764321  0.58725094  0.34911922  1
  S2-  S173  1  0.25344013  0.49191500  0.86348128  1
  S2-  S174  1  0.26868757  0.77293506  0.34274312  1
  S2-  S175  1  0.34552832  0.70971618  0.85869257  1
  S2-  S176  1  0.60913885  0.02460724  0.34214572  1
  S2-  S177  1  0.66255627  0.00156334  0.82962617  1
  S2-  S178  1  0.63813196  0.35045459  0.36096536  1
  S2-  S179  1  0.67108638  0.22300533  0.82310402  1
  S2-  S180  1  0.62772440  0.60239367  0.35576175  1
  S2-  S181  1  0.62255915  0.41729150  0.84426106  1
  S2-  S182  1  0.51316213  0.77950621  0.35055122  1
  S2-  S183  1  0.60931821  0.65672051  0.86383626  1
  S2-  S184  1  0.86648322  -0.03881738  0.33835611  1
  S2-  S185  1  0.88742663  -0.03070737  0.84442278  1
  S2-  S186  1  0.88433028  0.31456488  0.35916606  1
  S2-  S187  1  0.88671825  0.25045684  0.83411556  1
  S2-  S188  1  0.81088393  0.50360800  0.33084311  1
  S2-  S189  1  0.86322944  0.48055787  0.83502543  1
  S2-  S190  1  0.83925153  0.72240320  0.34425425  1
  S2-  S191  1  0.85516065  0.69788442  0.84558575  1
  S2-  S192  1  0.00662507  0.11173064  0.45367543  1
  S2-  S193  1  -0.00761822  0.12535490  0.94415218  1
  S2-  S194  1  0.00933489  0.35947790  0.45813920  1
  S2-  S195  1  -0.00844231  0.37913108  0.94146658  1
  S2-  S196  1  0.00937469  0.62270715  0.44796506  1
  S2-  S197  1  -0.01745389  0.62873020  0.96152589  1
  S2-  S198  1  0.00670615  0.86594990  0.45137476  1
  S2-  S199  1  -0.01537239  0.88289436  0.95850094  1
  S2-  S200  1  0.25734341  0.11471272  0.46428372  1
  S2-  S201  1  0.23456350  0.12709172  0.96493722  1
  S2-  S202  1  0.25089039  0.36378916  0.45756457  1
  S2-  S203  1  0.23686800  0.37981933  0.96307053  1
  S2-  S204  1  0.25121735  0.62260252  0.45222276  1
  S2-  S205  1  0.23622336  0.62983266  0.96485121  1
  S2-  S206  1  0.26004891  0.86702057  0.45629247  1
  S2-  S207  1  0.23612250  0.87262694  0.95756867  1
  S2-  S208  1  0.50383037  0.12136167  0.45572823  1
  S2-  S209  1  0.47971736  0.12961559  0.95656277  1
  S2-  S210  1  0.50302842  0.36350940  0.45560255  1
  S2-  S211  1  0.47693080  0.38647699  0.94363265  1
  S2-  S212  1  0.50206072  0.61180471  0.45146294  1
  S2-  S213  1  0.48300017  0.63007169  0.95945513  1
  S2-  S214  1  0.50301189  0.86619857  0.45521941  1
  S2-  S215  1  0.48655234  0.87177657  0.96369374  1
  S2-  S216  1  0.75368475  0.11943940  0.44124341  1
  S2-  S217  1  0.73711491  0.12916645  0.94673122  1
  S2-  S218  1  0.75861495  0.36274669  0.46135234  1
  S2-  S219  1  0.73920489  0.37968438  0.95017002  1
  S2-  S220  1  0.75904800  0.61075922  0.45492630  1
  S2-  S221  1  0.74098698  0.63264123  0.96011942  1
  S2-  S222  1  0.75059868  0.86385469  0.44736136  1
  S2-  S223  1  0.73463441  0.87707229  0.94383478  1
  S2-  S224  1  0.11406324  -0.00174259  0.04742728  1
  S2-  S225  1  0.13014264  -0.00950316  0.55281058  1
  S2-  S226  1  0.11072459  0.25609999  0.04440229  1
  S2-  S227  1  0.12923572  0.23667583  0.55351290  1
  S2-  S228  1  0.10878035  0.50269880  0.04218484  1
  S2-  S229  1  0.12900197  0.48919262  0.54293940  1
  S2-  S230  1  0.11065570  0.75534331  0.04982533  1
  S2-  S231  1  0.12802924  0.74138657  0.54364670  1
  S2-  S232  1  0.36282036  0.00768834  0.04765587  1
  S2-  S233  1  0.38227572  -0.01242616  0.55511967  1
  S2-  S234  1  0.36154685  0.25291103  0.04430745  1
  S2-  S235  1  0.38022221  0.24564501  0.54030044  1
  S2-  S236  1  0.36379298  0.50571718  0.04269114  1
  S2-  S237  1  0.38076875  0.48906034  0.54473368  1
  S2-  S238  1  0.36047772  0.75350813  0.05563490  1
  S2-  S239  1  0.38369892  0.73725751  0.54560523  1
  S2-  S240  1  0.61487832  0.00687095  0.03608738  1
  S2-  S241  1  0.63080609  -0.00854656  0.54242024  1
  S2-  S242  1  0.60869375  0.25306426  0.03048943  1
  S2-  S243  1  0.63077003  0.24441977  0.54245525  1
  S2-  S244  1  0.61153519  0.50599557  0.03637054  1
  S2-  S245  1  0.62621696  0.48883307  0.53764950  1
  S2-  S246  1  0.61398189  0.75623994  0.05114557  1
  S2-  S247  1  0.63185402  0.73533237  0.54199266  1
  S2-  S248  1  0.85903031  0.00626326  0.04271490  1
  S2-  S249  1  0.87895403  -0.00773602  0.54246854  1
  S2-  S250  1  0.86650536  0.25352135  0.03575877  1
  S2-  S251  1  0.87998305  0.23489832  0.54871647  1
  S2-  S252  1  0.86298946  0.50163960  0.03862373  1
  S2-  S253  1  0.88322043  0.48888304  0.53743445  1
  S2-  S254  1  0.85823249  0.76063845  0.04158358  1
  S2-  S255  1  0.87680734  0.73974409  0.54720750  1
