# generated using pymatgen
data_La6Ce7Pr13Nd19Sm19(BiS2)64
_symmetry_space_group_name_H-M   'P 1'
_cell_length_a   16.14359650
_cell_length_b   16.15138165
_cell_length_c   27.12714554
_cell_angle_alpha   90.08131101
_cell_angle_beta   90.04270369
_cell_angle_gamma   89.97750317
_symmetry_Int_Tables_number   1
_chemical_formula_structural   La6Ce7Pr13Nd19Sm19(BiS2)64
_chemical_formula_sum   'La6 Ce7 Pr13 Nd19 Sm19 Bi64 S128'
_cell_volume   7073.15995687
_cell_formula_units_Z   1
loop_
 _symmetry_equiv_pos_site_id
 _symmetry_equiv_pos_as_xyz
  1  'x, y, z'
loop_
 _atom_type_symbol
 _atom_type_oxidation_number
  La3+  3.0
  Ce3+  3.0
  Pr3+  3.0
  Nd3+  3.0
  Sm3+  3.0
  Bi2+  2.0
  S2-  -2.0
loop_
 _atom_site_type_symbol
 _atom_site_label
 _atom_site_symmetry_multiplicity
 _atom_site_fract_x
 _atom_site_fract_y
 _atom_site_fract_z
 _atom_site_occupancy
  La3+  La0  1  0.24641862  0.86327725  0.59546346  1
  La3+  La1  1  0.75386154  0.12668872  0.06340999  1
  La3+  La2  1  0.01232061  0.88909004  0.08084246  1
  La3+  La3  1  0.86471985  0.48376282  0.40691643  1
  La3+  La4  1  0.24432411  0.37287150  0.57598055  1
  La3+  La5  1  0.00395849  0.64090287  0.10681933  1
  Ce3+  Ce6  1  0.74823816  0.11977265  0.55819338  1
  Ce3+  Ce7  1  0.25950738  0.88393624  0.05951560  1
  Ce3+  Ce8  1  0.62835866  0.75348183  0.94462226  1
  Ce3+  Ce9  1  0.12198657  0.24565491  0.44834720  1
  Ce3+  Ce10  1  0.50237467  0.63003350  0.06597135  1
  Ce3+  Ce11  1  0.49793540  0.62056843  0.55953654  1
  Ce3+  Ce12  1  0.24458759  0.62360364  0.55634160  1
  Pr3+  Pr13  1  -0.00151248  0.11651444  0.56541215  1
  Pr3+  Pr14  1  0.62969829  0.50385156  0.94037903  1
  Pr3+  Pr15  1  0.38759696  -0.01186938  0.91373208  1
  Pr3+  Pr16  1  0.12363178  -0.00981070  0.91540466  1
  Pr3+  Pr17  1  0.36964806  0.74395327  0.44048686  1
  Pr3+  Pr18  1  0.50351606  0.88279392  0.06924083  1
  Pr3+  Pr19  1  0.88451809  0.75391782  0.94496800  1
  Pr3+  Pr20  1  0.13447040  0.48123165  0.40784269  1
  Pr3+  Pr21  1  0.63272935  0.25590548  0.93612562  1
  Pr3+  Pr22  1  0.00768953  0.38198822  0.06461649  1
  Pr3+  Pr23  1  0.88378861  0.50451485  0.94442125  1
  Pr3+  Pr24  1  0.62258760  0.24449658  0.44473677  1
  Pr3+  Pr25  1  0.50587162  0.37732294  0.05703413  1
  Nd3+  Nd26  1  0.38120371  0.75008102  0.94108144  1
  Nd3+  Nd27  1  0.87773872  0.00456090  0.93488034  1
  Nd3+  Nd28  1  0.75609818  0.63165106  0.06396114  1
  Nd3+  Nd29  1  0.37113970  0.49476375  0.44434397  1
  Nd3+  Nd30  1  0.25687296  0.37582625  0.06224713  1
  Nd3+  Nd31  1  0.36739444  -0.00788624  0.44573046  1
  Nd3+  Nd32  1  0.12172159  -0.00748181  0.44391312  1
  Nd3+  Nd33  1  0.62313222  -0.00426911  0.44335357  1
  Nd3+  Nd34  1  0.36932706  0.24613362  0.44774073  1
  Nd3+  Nd35  1  0.49737843  0.87007943  0.56092657  1
  Nd3+  Nd36  1  0.37818248  0.25426683  0.92679886  1
  Nd3+  Nd37  1  0.62386556  0.74310944  0.44157943  1
  Nd3+  Nd38  1  0.25746619  0.63083050  0.06989113  1
  Nd3+  Nd39  1  0.13056190  0.25238835  0.93552831  1
  Nd3+  Nd40  1  0.74831353  0.37322633  0.56473791  1
  Nd3+  Nd41  1  0.25718601  0.12552669  0.04233621  1
  Nd3+  Nd42  1  0.24606448  0.11993557  0.56801171  1
  Nd3+  Nd43  1  0.49858156  0.37059674  0.56260992  1
  Nd3+  Nd44  1  0.00855515  0.12666473  0.05377614  1
  Sm3+  Sm45  1  0.74990326  0.61942696  0.55367344  1
  Sm3+  Sm46  1  0.13039493  0.50428304  0.95084974  1
  Sm3+  Sm47  1  0.74829552  0.86887976  0.55012440  1
  Sm3+  Sm48  1  0.87441377  -0.00535694  0.44425642  1
  Sm3+  Sm49  1  0.49504318  0.11829940  0.55957025  1
  Sm3+  Sm50  1  -0.00286626  0.86560184  0.55472321  1
  Sm3+  Sm51  1  0.87360492  0.74125013  0.43327735  1
  Sm3+  Sm52  1  0.62954430  0.00450607  0.93782666  1
  Sm3+  Sm53  1  -0.00313363  0.37495123  0.55554657  1
  Sm3+  Sm54  1  0.12987037  0.75473035  0.94857433  1
  Sm3+  Sm55  1  0.50364934  0.13076781  0.04572746  1
  Sm3+  Sm56  1  0.62045527  0.49269445  0.43775153  1
  Sm3+  Sm57  1  0.12082380  0.74269093  0.43440563  1
  Sm3+  Sm58  1  0.87999885  0.25511520  0.94897940  1
  Sm3+  Sm59  1  -0.00320788  0.61804293  0.54376183  1
  Sm3+  Sm60  1  0.75748035  0.87931026  0.05260524  1
  Sm3+  Sm61  1  0.87428573  0.24714412  0.44709324  1
  Sm3+  Sm62  1  0.37736400  0.50350531  0.94390716  1
  Sm3+  Sm63  1  0.75664485  0.38191065  0.06328625  1
  Bi2+  Bi64  1  -0.00576991  0.11452349  0.30540227  1
  Bi2+  Bi65  1  -0.06043609  0.12315037  0.78699029  1
  Bi2+  Bi66  1  0.00113860  0.37104430  0.29678614  1
  Bi2+  Bi67  1  0.00408503  0.43579362  0.79255815  1
  Bi2+  Bi68  1  -0.00953001  0.65816303  0.29842520  1
  Bi2+  Bi69  1  -0.03255702  0.65115110  0.79369878  1
  Bi2+  Bi70  1  0.01126114  0.92284835  0.27793626  1
  Bi2+  Bi71  1  -0.01970522  0.85364430  0.79301696  1
  Bi2+  Bi72  1  0.27658462  0.12318164  0.29262074  1
  Bi2+  Bi73  1  0.25704232  0.14995551  0.78591595  1
  Bi2+  Bi74  1  0.27050207  0.34427001  0.29518100  1
  Bi2+  Bi75  1  0.24927503  0.38395260  0.81069508  1
  Bi2+  Bi76  1  0.33079407  0.62236605  0.28514164  1
  Bi2+  Bi77  1  0.24087183  0.63862290  0.79095254  1
  Bi2+  Bi78  1  0.26146192  0.88659565  0.29890170  1
  Bi2+  Bi79  1  0.24233233  0.88490372  0.79632594  1
  Bi2+  Bi80  1  0.53045424  0.10410767  0.26406388  1
  Bi2+  Bi81  1  0.57960599  0.08469895  0.77271525  1
  Bi2+  Bi82  1  0.50332340  0.36547776  0.27728161  1
  Bi2+  Bi83  1  0.50614453  0.38671468  0.80161473  1
  Bi2+  Bi84  1  0.50528002  0.54946717  0.31055971  1
  Bi2+  Bi85  1  0.52886304  0.62879603  0.77653163  1
  Bi2+  Bi86  1  0.53844586  0.82658821  0.27396592  1
  Bi2+  Bi87  1  0.50435516  0.85000998  0.79042737  1
  Bi2+  Bi88  1  0.73323727  0.12358405  0.29421838  1
  Bi2+  Bi89  1  0.75745187  0.07716860  0.82170709  1
  Bi2+  Bi90  1  0.72582905  0.35223406  0.29199249  1
  Bi2+  Bi91  1  0.75084233  0.39618110  0.80803340  1
  Bi2+  Bi92  1  0.72833788  0.63347352  0.29044092  1
  Bi2+  Bi93  1  0.79140927  0.63370527  0.74276662  1
  Bi2+  Bi94  1  0.71425886  0.92202515  0.27672566  1
  Bi2+  Bi95  1  0.76493997  0.88642833  0.79252555  1
  Bi2+  Bi96  1  0.14505951  0.03847011  0.19962434  1
  Bi2+  Bi97  1  0.11254350  0.01752666  0.70548543  1
  Bi2+  Bi98  1  0.12608303  0.21804542  0.24218824  1
  Bi2+  Bi99  1  0.10019609  0.28477001  0.71418215  1
  Bi2+  Bi100  1  0.13611287  0.49229526  0.21027698  1
  Bi2+  Bi101  1  0.15700540  0.50454995  0.71607796  1
  Bi2+  Bi102  1  0.13571031  0.78066091  0.21422169  1
  Bi2+  Bi103  1  0.10741116  0.69728276  0.71476841  1
  Bi2+  Bi104  1  0.38471175  -0.01468519  0.22631833  1
  Bi2+  Bi105  1  0.38574980  0.00046300  0.70166767  1
  Bi2+  Bi106  1  0.37888170  0.23744682  0.18185621  1
  Bi2+  Bi107  1  0.40918008  0.25717418  0.71184860  1
  Bi2+  Bi108  1  0.38434161  0.48228642  0.20979522  1
  Bi2+  Bi109  1  0.35032389  0.50191247  0.73182676  1
  Bi2+  Bi110  1  0.39769356  0.75312061  0.20521355  1
  Bi2+  Bi111  1  0.37578556  0.69626357  0.71500303  1
  Bi2+  Bi112  1  0.57966684  -0.04319880  0.19118264  1
  Bi2+  Bi113  1  0.65029036  -0.04385347  0.69837893  1
  Bi2+  Bi114  1  0.65029386  0.22000368  0.20576875  1
  Bi2+  Bi115  1  0.68207201  0.22480691  0.72119212  1
  Bi2+  Bi116  1  0.62546367  0.51500399  0.21611578  1
  Bi2+  Bi117  1  0.61666829  0.48813559  0.69270333  1
  Bi2+  Bi118  1  0.59061706  0.69973781  0.18096721  1
  Bi2+  Bi119  1  0.64400862  0.76487820  0.72158503  1
  Bi2+  Bi120  1  0.87828840  0.00946982  0.21236395  1
  Bi2+  Bi121  1  0.84920770  0.00404169  0.71294721  1
  Bi2+  Bi122  1  0.87605379  0.22370308  0.23830939  1
  Bi2+  Bi123  1  0.86792482  0.28389237  0.74394685  1
  Bi2+  Bi124  1  0.87143202  0.48021528  0.20241807  1
  Bi2+  Bi125  1  0.92450823  0.50907024  0.70056025  1
  Bi2+  Bi126  1  0.77046102  0.76626156  0.20811760  1
  Bi2+  Bi127  1  0.91451381  0.79176067  0.68967755  1
  S2-  S128  1  0.00351594  0.04189349  0.14056307  1
  S2-  S129  1  0.03306048  0.14354828  0.66311139  1
  S2-  S130  1  0.01038546  0.39473913  0.16509477  1
  S2-  S131  1  0.01085168  0.37200892  0.65400473  1
  S2-  S132  1  0.00195136  0.58746378  0.20607975  1
  S2-  S133  1  -0.01785407  0.64222977  0.64147620  1
  S2-  S134  1  -0.00430282  0.78877877  0.16497771  1
  S2-  S135  1  0.04734036  0.88627121  0.64779760  1
  S2-  S136  1  0.26754070  0.13346350  0.14224182  1
  S2-  S137  1  0.25152011  0.09432765  0.66682505  1
  S2-  S138  1  0.25493885  0.38162634  0.16196248  1
  S2-  S139  1  0.25856802  0.30688207  0.66922720  1
  S2-  S140  1  0.16948304  0.63763855  0.15775107  1
  S2-  S141  1  0.24122486  0.70553506  0.64255479  1
  S2-  S142  1  0.16491306  0.89797423  0.14269242  1
  S2-  S143  1  0.24293894  0.90278595  0.69535510  1
  S2-  S144  1  0.50284253  0.15212210  0.14378802  1
  S2-  S145  1  0.48021942  0.12909186  0.65751880  1
  S2-  S146  1  0.48213022  0.37097450  0.15635699  1
  S2-  S147  1  0.49047832  0.37026422  0.66296181  1
  S2-  S148  1  0.38746305  0.61935298  0.14139142  1
  S2-  S149  1  0.50281437  0.61411157  0.65667552  1
  S2-  S150  1  0.37547931  0.89566111  0.13839639  1
  S2-  S151  1  0.43769258  0.87073035  0.65386781  1
  S2-  S152  1  0.78016915  0.13742554  0.16212539  1
  S2-  S153  1  0.76525390  0.12640847  0.65516948  1
  S2-  S154  1  0.72920306  0.39746520  0.15973240  1
  S2-  S155  1  0.71878749  0.37251978  0.66347790  1
  S2-  S156  1  0.83268090  0.62194679  0.15281200  1
  S2-  S157  1  0.73625408  0.59001788  0.64970376  1
  S2-  S158  1  0.78356685  0.90390357  0.14812192  1
  S2-  S159  1  0.75769540  0.83845322  0.64585298  1
  S2-  S160  1  0.13490742  -0.02004911  0.34482348  1
  S2-  S161  1  0.15501762  0.03466747  0.81383009  1
  S2-  S162  1  0.13130620  0.31926922  0.36039764  1
  S2-  S163  1  0.13938873  0.25559969  0.83556161  1
  S2-  S164  1  0.09700697  0.51923375  0.31035107  1
  S2-  S165  1  0.13774924  0.48463073  0.85305993  1
  S2-  S166  1  0.11668503  0.74420870  0.33523279  1
  S2-  S167  1  0.12107658  0.82761888  0.85846727  1
  S2-  S168  1  0.36603417  -0.00095182  0.34641672  1
  S2-  S169  1  0.34894057  0.02541171  0.81344853  1
  S2-  S170  1  0.36622861  0.24242180  0.34770287  1
  S2-  S171  1  0.38934415  0.25607386  0.82571395  1
  S2-  S172  1  0.29156303  0.48272377  0.35609598  1
  S2-  S173  1  0.38303738  0.49058579  0.84619393  1
  S2-  S174  1  0.35536253  0.76674258  0.34125412  1
  S2-  S175  1  0.37462043  0.82382142  0.85089429  1
  S2-  S176  1  0.61445667  0.02278933  0.34607205  1
  S2-  S177  1  0.54096724  -0.01849212  0.85482108  1
  S2-  S178  1  0.60500818  0.29105873  0.34816175  1
  S2-  S179  1  0.61599312  0.28411832  0.83682708  1
  S2-  S180  1  0.71048486  0.49015603  0.35464785  1
  S2-  S181  1  0.61765493  0.50284757  0.83921308  1
  S2-  S182  1  0.60856490  0.71883455  0.34380599  1
  S2-  S183  1  0.58856526  0.73536117  0.84990623  1
  S2-  S184  1  0.89240461  -0.01069284  0.34739933  1
  S2-  S185  1  0.97379902  -0.00736403  0.85344511  1
  S2-  S186  1  0.86897656  0.31785236  0.35750589  1
  S2-  S187  1  0.86022018  0.27781167  0.85272303  1
  S2-  S188  1  0.89668486  0.51040691  0.30586352  1
  S2-  S189  1  0.85687245  0.50324964  0.84481484  1
  S2-  S190  1  0.85008947  0.73613839  0.33643551  1
  S2-  S191  1  0.85197084  0.75696789  0.84552255  1
  S2-  S192  1  -0.00450926  0.12025169  0.45673139  1
  S2-  S193  1  0.00291242  0.13265472  0.94804792  1
  S2-  S194  1  -0.00242784  0.37476808  0.45318728  1
  S2-  S195  1  0.00714235  0.37695350  0.95574537  1
  S2-  S196  1  -0.00328176  0.61352309  0.43824623  1
  S2-  S197  1  0.01065211  0.62864459  0.94715655  1
  S2-  S198  1  -0.00399684  0.86707134  0.44840443  1
  S2-  S199  1  0.00381957  0.87737335  0.96225488  1
  S2-  S200  1  0.24598499  0.11929524  0.45853644  1
  S2-  S201  1  0.25634701  0.12549484  0.93588250  1
  S2-  S202  1  0.24697212  0.37063041  0.46608933  1
  S2-  S203  1  0.25461549  0.37842887  0.95439477  1
  S2-  S204  1  0.24127642  0.61850290  0.44986771  1
  S2-  S205  1  0.25375125  0.62818308  0.95542689  1
  S2-  S206  1  0.24279694  0.86660437  0.45302092  1
  S2-  S207  1  0.25711442  0.87773918  0.95289974  1
  S2-  S208  1  0.49463281  0.11851719  0.45377395  1
  S2-  S209  1  0.50561469  0.13171890  0.94119891  1
  S2-  S210  1  0.49548781  0.37143664  0.45549876  1
  S2-  S211  1  0.50231337  0.37905904  0.94956635  1
  S2-  S212  1  0.49835954  0.61855347  0.45248393  1
  S2-  S213  1  0.50236050  0.62470514  0.95658712  1
  S2-  S214  1  0.49830636  0.87026412  0.45208604  1
  S2-  S215  1  0.50758166  0.87571454  0.95990087  1
  S2-  S216  1  0.75177063  0.12063873  0.45107737  1
  S2-  S217  1  0.75483705  0.13006736  0.95480176  1
  S2-  S218  1  0.74670047  0.36854780  0.45902952  1
  S2-  S219  1  0.75676822  0.37982733  0.95773968  1
  S2-  S220  1  0.74979912  0.61876096  0.44952875  1
  S2-  S221  1  0.75560670  0.62856255  0.95528120  1
  S2-  S222  1  0.74971803  0.86974181  0.44454054  1
  S2-  S223  1  0.75233484  0.88082413  0.94755688  1
  S2-  S224  1  0.13213482  0.00726001  0.03099366  1
  S2-  S225  1  0.12588781  -0.00918300  0.55010282  1
  S2-  S226  1  0.13091539  0.25259417  0.04496129  1
  S2-  S227  1  0.12014343  0.24665400  0.55331569  1
  S2-  S228  1  0.13261628  0.50526504  0.05468557  1
  S2-  S229  1  0.11995134  0.49815343  0.55387251  1
  S2-  S230  1  0.13095247  0.75137854  0.05042241  1
  S2-  S231  1  0.11829806  0.74535215  0.54063673  1
  S2-  S232  1  0.38577322  0.00863994  0.03051679  1
  S2-  S233  1  0.36901996  -0.00638012  0.55191308  1
  S2-  S234  1  0.38053706  0.25362196  0.03510843  1
  S2-  S235  1  0.37283902  0.24454385  0.55382909  1
  S2-  S236  1  0.37846663  0.49930724  0.04654348  1
  S2-  S237  1  0.37189293  0.49589460  0.55276177  1
  S2-  S238  1  0.38211709  0.75417533  0.04471067  1
  S2-  S239  1  0.37268052  0.74683592  0.54677854  1
  S2-  S240  1  0.62838559  0.00437923  0.04352674  1
  S2-  S241  1  0.62243248  -0.00541210  0.55007655  1
  S2-  S242  1  0.63270605  0.25523320  0.04477485  1
  S2-  S243  1  0.62035900  0.24343759  0.55258575  1
  S2-  S244  1  0.63127438  0.50485699  0.04945371  1
  S2-  S245  1  0.62344993  0.49545993  0.54351043  1
  S2-  S246  1  0.63157810  0.75780485  0.05069238  1
  S2-  S247  1  0.62476909  0.74503357  0.54860379  1
  S2-  S248  1  0.87847334  0.00466315  0.04075776  1
  S2-  S249  1  0.87293253  -0.00962047  0.54978367  1
  S2-  S250  1  0.88136940  0.25514022  0.05491359  1
  S2-  S251  1  0.87484551  0.24811316  0.55269601  1
  S2-  S252  1  0.88208040  0.50441480  0.05100704  1
  S2-  S253  1  0.87220928  0.49576571  0.54541015  1
  S2-  S254  1  0.88155588  0.75644747  0.05101834  1
  S2-  S255  1  0.87163961  0.74389164  0.53875883  1
