# generated using pymatgen
data_La6Ce7Pr13Nd19Sm19(BiS2)64
_symmetry_space_group_name_H-M   'P 1'
_cell_length_a   16.09303572
_cell_length_b   16.10390693
_cell_length_c   27.42779946
_cell_angle_alpha   90.06843438
_cell_angle_beta   89.94235599
_cell_angle_gamma   90.01439689
_symmetry_Int_Tables_number   1
_chemical_formula_structural   La6Ce7Pr13Nd19Sm19(BiS2)64
_chemical_formula_sum   'La6 Ce7 Pr13 Nd19 Sm19 Bi64 S128'
_cell_volume   7108.20017076
_cell_formula_units_Z   1
loop_
 _symmetry_equiv_pos_site_id
 _symmetry_equiv_pos_as_xyz
  1  'x, y, z'
loop_
 _atom_type_symbol
 _atom_type_oxidation_number
  La3+  3.0
  Ce3+  3.0
  Pr3+  3.0
  Nd3+  3.0
  Sm3+  3.0
  Bi2+  2.0
  S2-  -2.0
loop_
 _atom_site_type_symbol
 _atom_site_label
 _atom_site_symmetry_multiplicity
 _atom_site_fract_x
 _atom_site_fract_y
 _atom_site_fract_z
 _atom_site_occupancy
  La3+  La0  1  0.86130389  0.51246653  0.88267149  1
  La3+  La1  1  0.60830859  -0.00204972  0.92922171  1
  La3+  La2  1  0.01357010  0.89095794  0.57524286  1
  La3+  La3  1  0.87721791  0.49967366  0.39355820  1
  La3+  La4  1  0.61067315  0.49939511  0.93275929  1
  La3+  La5  1  0.73529487  0.88517899  0.10271666  1
  Ce3+  Ce6  1  0.13328195  0.75551754  0.44431596  1
  Ce3+  Ce7  1  0.13336131  0.25817167  0.43853174  1
  Ce3+  Ce8  1  0.86160579  0.25810615  0.93738749  1
  Ce3+  Ce9  1  0.51054767  0.13060783  0.56720238  1
  Ce3+  Ce10  1  0.48341096  0.37684278  0.06148694  1
  Ce3+  Ce11  1  0.36358929  0.50145427  0.93441876  1
  Ce3+  Ce12  1  0.10596950  0.50016644  0.93861995  1
  Pr3+  Pr13  1  0.38786724  0.00541596  0.44042730  1
  Pr3+  Pr14  1  0.26095667  0.63007610  0.56678106  1
  Pr3+  Pr15  1  0.25680121  0.38317006  0.57207171  1
  Pr3+  Pr16  1  0.75445470  0.12313556  0.58020192  1
  Pr3+  Pr17  1  0.73784240  0.62819783  0.05835243  1
  Pr3+  Pr18  1  0.63792107  0.25659070  0.44499702  1
  Pr3+  Pr19  1  -0.02183918  0.37109766  0.06816155  1
  Pr3+  Pr20  1  0.76882328  0.85531482  0.61600853  1
  Pr3+  Pr21  1  0.00763045  0.12944090  0.55673893  1
  Pr3+  Pr22  1  0.51236554  0.87983765  0.56867613  1
  Pr3+  Pr23  1  0.36028366  0.25088560  0.94598182  1
  Pr3+  Pr24  1  0.01006223  0.37837224  0.56180282  1
  Pr3+  Pr25  1  0.48565905  0.12158773  0.06047990  1
  Nd3+  Nd26  1  0.88587271  -0.00321145  0.44020551  1
  Nd3+  Nd27  1  0.85447192  -0.00052838  0.92703290  1
  Nd3+  Nd28  1  0.11093536  0.75158159  0.94510742  1
  Nd3+  Nd29  1  0.26121379  0.88184635  0.56742260  1
  Nd3+  Nd30  1  0.00661764  0.63149039  0.55678626  1
  Nd3+  Nd31  1  0.50945761  0.62861600  0.55322128  1
  Nd3+  Nd32  1  0.85864350  0.75603714  0.93198570  1
  Nd3+  Nd33  1  0.38030941  0.50590915  0.43325261  1
  Nd3+  Nd34  1  0.76066992  0.62595676  0.56084963  1
  Nd3+  Nd35  1  0.61267935  0.75177907  0.94362224  1
  Nd3+  Nd36  1  0.10884391  0.25001884  0.94385239  1
  Nd3+  Nd37  1  0.23346387  0.62151391  0.05998102  1
  Nd3+  Nd38  1  -0.01821811  0.62676637  0.05553742  1
  Nd3+  Nd39  1  0.48281867  0.87587156  0.06600283  1
  Nd3+  Nd40  1  0.48620559  0.62629839  0.05858584  1
  Nd3+  Nd41  1  0.73491831  0.37667139  0.06134816  1
  Nd3+  Nd42  1  0.76323965  0.37940901  0.56856764  1
  Nd3+  Nd43  1  0.23709718  0.87750255  0.06635576  1
  Nd3+  Nd44  1  0.13352581  0.50730300  0.43361047  1
  Sm3+  Sm45  1  0.88386981  0.25690601  0.43968529  1
  Sm3+  Sm46  1  -0.01743784  0.12222075  0.05191996  1
  Sm3+  Sm47  1  0.38678144  0.25785656  0.44853103  1
  Sm3+  Sm48  1  0.26135426  0.13165303  0.55253133  1
  Sm3+  Sm49  1  0.63844703  0.75628396  0.44783963  1
  Sm3+  Sm50  1  0.63799044  0.00356318  0.44666150  1
  Sm3+  Sm51  1  0.73543547  0.11939771  0.05453449  1
  Sm3+  Sm52  1  0.88178195  0.75724173  0.44068621  1
  Sm3+  Sm53  1  0.23416782  0.12376831  0.05127508  1
  Sm3+  Sm54  1  0.63793061  0.50556355  0.44304839  1
  Sm3+  Sm55  1  0.13585259  0.00458940  0.44097112  1
  Sm3+  Sm56  1  0.11034385  -0.00103556  0.94141263  1
  Sm3+  Sm57  1  0.36438155  -0.00118502  0.93274948  1
  Sm3+  Sm58  1  0.35983790  0.75048211  0.94463113  1
  Sm3+  Sm59  1  0.61232149  0.25194471  0.94684969  1
  Sm3+  Sm60  1  0.38510307  0.75560623  0.44223397  1
  Sm3+  Sm61  1  -0.01759910  0.87669317  0.05642313  1
  Sm3+  Sm62  1  0.51215666  0.38091503  0.56226098  1
  Sm3+  Sm63  1  0.23246920  0.37742498  0.05490233  1
  Bi2+  Bi64  1  -0.02232128  0.10274184  0.30560216  1
  Bi2+  Bi65  1  0.00751604  0.13243559  0.79827678  1
  Bi2+  Bi66  1  0.01597255  0.35792171  0.28846484  1
  Bi2+  Bi67  1  0.00473913  0.36159802  0.78542793  1
  Bi2+  Bi68  1  0.01211447  0.62922353  0.29067491  1
  Bi2+  Bi69  1  0.09869214  0.62092492  0.78505645  1
  Bi2+  Bi70  1  -0.00736375  0.88091780  0.23854358  1
  Bi2+  Bi71  1  0.04155528  0.87875637  0.79465438  1
  Bi2+  Bi72  1  0.26699152  0.09814874  0.29081038  1
  Bi2+  Bi73  1  0.27609036  0.13560740  0.78416885  1
  Bi2+  Bi74  1  0.27286745  0.43677758  0.26152774  1
  Bi2+  Bi75  1  0.24647956  0.36511146  0.77289884  1
  Bi2+  Bi76  1  0.25805238  0.63935820  0.29926494  1
  Bi2+  Bi77  1  0.26967368  0.54773978  0.82005502  1
  Bi2+  Bi78  1  0.21657034  0.91513660  0.30209573  1
  Bi2+  Bi79  1  0.30476727  0.86043087  0.77044535  1
  Bi2+  Bi80  1  0.51444073  0.17732832  0.29787807  1
  Bi2+  Bi81  1  0.46076435  0.08021073  0.75509722  1
  Bi2+  Bi82  1  0.46566612  0.42739610  0.31019164  1
  Bi2+  Bi83  1  0.45067804  0.35098242  0.79123166  1
  Bi2+  Bi84  1  0.49938403  0.61526350  0.28947310  1
  Bi2+  Bi85  1  0.45706719  0.62533823  0.79647662  1
  Bi2+  Bi86  1  0.50717974  0.92394096  0.29513967  1
  Bi2+  Bi87  1  0.51250549  0.86639799  0.80116954  1
  Bi2+  Bi88  1  0.73848206  0.16537651  0.27415472  1
  Bi2+  Bi89  1  0.79670799  0.13194424  0.78471234  1
  Bi2+  Bi90  1  0.73713745  0.36922375  0.28552823  1
  Bi2+  Bi91  1  0.72529532  0.35798503  0.78922192  1
  Bi2+  Bi92  1  0.74734742  0.63352156  0.29198508  1
  Bi2+  Bi93  1  0.72830907  0.63793921  0.78437824  1
  Bi2+  Bi94  1  0.75245409  0.87895984  0.30589797  1
  Bi2+  Bi95  1  0.76141373  0.87641029  0.79887232  1
  Bi2+  Bi96  1  0.14184350  -0.01088871  0.19217421  1
  Bi2+  Bi97  1  0.20519081  0.00212255  0.71070698  1
  Bi2+  Bi98  1  0.11446231  0.19768783  0.24846626  1
  Bi2+  Bi99  1  0.11280239  0.22169656  0.70904965  1
  Bi2+  Bi100  1  0.13958454  0.51794247  0.18655968  1
  Bi2+  Bi101  1  0.11261100  0.48979202  0.69948677  1
  Bi2+  Bi102  1  0.16138436  0.79790101  0.20360159  1
  Bi2+  Bi103  1  0.18018038  0.74661320  0.71073126  1
  Bi2+  Bi104  1  0.36040399  0.03559308  0.19693666  1
  Bi2+  Bi105  1  0.38973825  -0.04658848  0.67555783  1
  Bi2+  Bi106  1  0.38392841  0.27865145  0.24568551  1
  Bi2+  Bi107  1  0.36521358  0.24879632  0.70405734  1
  Bi2+  Bi108  1  0.38024224  0.56963305  0.19965656  1
  Bi2+  Bi109  1  0.36290811  0.51196052  0.72187979  1
  Bi2+  Bi110  1  0.35962809  0.83403793  0.23877379  1
  Bi2+  Bi111  1  0.35604900  0.75827719  0.66406234  1
  Bi2+  Bi112  1  0.60809656  0.02282925  0.21182999  1
  Bi2+  Bi113  1  0.64500878  0.01128898  0.71452688  1
  Bi2+  Bi114  1  0.62694659  0.27979239  0.20628428  1
  Bi2+  Bi115  1  0.62039157  0.21175579  0.74653543  1
  Bi2+  Bi116  1  0.60215879  0.47449667  0.22527350  1
  Bi2+  Bi117  1  0.59646280  0.47822616  0.69563687  1
  Bi2+  Bi118  1  0.56117656  0.77168034  0.22693753  1
  Bi2+  Bi119  1  0.53480253  0.74365990  0.71505607  1
  Bi2+  Bi120  1  0.87453086  0.03587069  0.21735717  1
  Bi2+  Bi121  1  0.92784605  0.00178563  0.72088500  1
  Bi2+  Bi122  1  0.90044447  0.23824743  0.21669212  1
  Bi2+  Bi123  1  0.90661585  0.23821803  0.71393281  1
  Bi2+  Bi124  1  0.89092853  0.49596781  0.17756687  1
  Bi2+  Bi125  1  0.86610052  0.50576034  0.68033247  1
  Bi2+  Bi126  1  0.86831798  0.73045543  0.19685212  1
  Bi2+  Bi127  1  0.92789078  0.73266345  0.72802822  1
  S2-  S128  1  -0.02668823  0.13359003  0.14868775  1
  S2-  S129  1  0.01463644  0.05653911  0.64692317  1
  S2-  S130  1  0.03770019  0.39781987  0.16309056  1
  S2-  S131  1  -0.10368941  0.35097738  0.63887000  1
  S2-  S132  1  0.00253108  0.62981003  0.15479883  1
  S2-  S133  1  0.00094052  0.61719984  0.65712019  1
  S2-  S134  1  -0.09452952  0.87480938  0.14299521  1
  S2-  S135  1  -0.06895681  0.84410652  0.65929756  1
  S2-  S136  1  0.23504624  0.12012075  0.14795261  1
  S2-  S137  1  0.24508308  0.14937581  0.64977342  1
  S2-  S138  1  0.25331800  0.41101651  0.14930193  1
  S2-  S139  1  0.12369671  0.35430396  0.64188742  1
  S2-  S140  1  0.24332937  0.65814028  0.15668361  1
  S2-  S141  1  0.25828954  0.51593350  0.64260949  1
  S2-  S142  1  0.35648547  0.88757322  0.13795759  1
  S2-  S143  1  0.15083318  0.88110705  0.64573471  1
  S2-  S144  1  0.49666762  0.12072650  0.16031523  1
  S2-  S145  1  0.61099591  0.14098119  0.64711220  1
  S2-  S146  1  0.50942775  0.38393023  0.15660391  1
  S2-  S147  1  0.46618452  0.38010577  0.65633825  1
  S2-  S148  1  0.49945111  0.66377104  0.15481873  1
  S2-  S149  1  0.50883857  0.61056951  0.65072354  1
  S2-  S150  1  0.57614852  0.89664175  0.14942578  1
  S2-  S151  1  0.60595109  0.87639705  0.65434444  1
  S2-  S152  1  0.73833338  0.04851663  0.14384544  1
  S2-  S153  1  0.78471508  0.01339830  0.65742587  1
  S2-  S154  1  0.82727483  0.35216467  0.14398817  1
  S2-  S155  1  0.68757842  0.36631935  0.66045922  1
  S2-  S156  1  0.75955692  0.60987378  0.15793356  1
  S2-  S157  1  0.72578871  0.58024405  0.65631174  1
  S2-  S158  1  0.73355448  0.82008862  0.20487796  1
  S2-  S159  1  0.77095405  0.76969146  0.71170441  1
  S2-  S160  1  0.07690952  -0.01491630  0.35000360  1
  S2-  S161  1  0.11226490  0.00733457  0.84417408  1
  S2-  S162  1  0.13446552  0.27965016  0.34230788  1
  S2-  S163  1  0.09675918  0.26347204  0.84569592  1
  S2-  S164  1  0.03913178  0.50053600  0.34810518  1
  S2-  S165  1  0.03076933  0.49640147  0.85106880  1
  S2-  S166  1  0.12448744  0.72080241  0.34804487  1
  S2-  S167  1  0.12377391  0.76555084  0.84712406  1
  S2-  S168  1  0.41276344  0.04627365  0.34442710  1
  S2-  S169  1  0.47767678  0.00127543  0.85745365  1
  S2-  S170  1  0.38770538  0.27921159  0.35241716  1
  S2-  S171  1  0.37326549  0.23400941  0.84723372  1
  S2-  S172  1  0.25978671  0.50345549  0.36134095  1
  S2-  S173  1  0.47703937  0.48628348  0.85918894  1
  S2-  S174  1  0.38078722  0.70904767  0.34865327  1
  S2-  S175  1  0.38435502  0.76471925  0.84804381  1
  S2-  S176  1  0.65067699  -0.01022502  0.34843020  1
  S2-  S177  1  0.72403401  0.01005288  0.85087556  1
  S2-  S178  1  0.63514419  0.26187165  0.34561920  1
  S2-  S179  1  0.61603636  0.26597669  0.84950448  1
  S2-  S180  1  0.70942722  0.50749171  0.35417567  1
  S2-  S181  1  0.69400931  0.50144389  0.84366115  1
  S2-  S182  1  0.66152703  0.75303730  0.35001116  1
  S2-  S183  1  0.64356245  0.76116916  0.84452422  1
  S2-  S184  1  0.87696485  -0.11997751  0.36532831  1
  S2-  S185  1  0.89297283  -0.11738799  0.85366704  1
  S2-  S186  1  0.87880087  0.33529400  0.35204640  1
  S2-  S187  1  0.85974342  0.33873442  0.85126647  1
  S2-  S188  1  0.87448309  0.52285926  0.27191540  1
  S2-  S189  1  0.85148133  0.51734018  0.77258699  1
  S2-  S190  1  0.87973235  0.66691011  0.35327737  1
  S2-  S191  1  0.85487656  0.67592262  0.84231488  1
  S2-  S192  1  0.00869293  0.12942732  0.45042760  1
  S2-  S193  1  -0.01535346  0.12260500  0.94758044  1
  S2-  S194  1  0.00688345  0.37886657  0.45509717  1
  S2-  S195  1  -0.01185607  0.37337895  0.96000521  1
  S2-  S196  1  0.00705464  0.63223995  0.45354826  1
  S2-  S197  1  -0.01578787  0.62894565  0.95010728  1
  S2-  S198  1  0.01418096  0.88083853  0.46408674  1
  S2-  S199  1  -0.01067939  0.87788129  0.95504857  1
  S2-  S200  1  0.26145326  0.13176050  0.44803161  1
  S2-  S201  1  0.23624341  0.12163720  0.94662278  1
  S2-  S202  1  0.26131246  0.37769191  0.46105864  1
  S2-  S203  1  0.23443241  0.37623727  0.94947461  1
  S2-  S204  1  0.26239896  0.63392861  0.46018649  1
  S2-  S205  1  0.23544094  0.62647040  0.95356281  1
  S2-  S206  1  0.26131123  0.88067042  0.45507848  1
  S2-  S207  1  0.23850998  0.87865246  0.95436247  1
  S2-  S208  1  0.51086156  0.13229513  0.45853015  1
  S2-  S209  1  0.48631069  0.12835652  0.95497646  1
  S2-  S210  1  0.51033229  0.38318291  0.45578885  1
  S2-  S211  1  0.48639886  0.37158560  0.95828342  1
  S2-  S212  1  0.51116250  0.62970945  0.44825494  1
  S2-  S213  1  0.48462901  0.62982292  0.95386918  1
  S2-  S214  1  0.51158241  0.87836188  0.45605696  1
  S2-  S215  1  0.48163993  0.87227545  0.95870089  1
  S2-  S216  1  0.76172763  0.12808928  0.44679828  1
  S2-  S217  1  0.73584077  0.13056200  0.95139821  1
  S2-  S218  1  0.76191259  0.38290381  0.45827859  1
  S2-  S219  1  0.73353507  0.37503729  0.95704938  1
  S2-  S220  1  0.75789407  0.62999379  0.45740532  1
  S2-  S221  1  0.73750011  0.62589195  0.95179122  1
  S2-  S222  1  0.75452812  0.87933579  0.46015670  1
  S2-  S223  1  0.73460112  0.87602357  0.95128964  1
  S2-  S224  1  0.10969356  -0.00048392  0.04608613  1
  S2-  S225  1  0.14296122  0.01012081  0.54304999  1
  S2-  S226  1  0.11056433  0.24791562  0.04951868  1
  S2-  S227  1  0.13733782  0.25109062  0.54217464  1
  S2-  S228  1  0.10766377  0.49926617  0.04471556  1
  S2-  S229  1  0.13175263  0.50818593  0.54066779  1
  S2-  S230  1  0.11058832  0.75419540  0.05055001  1
  S2-  S231  1  0.13593475  0.75382261  0.54992640  1
  S2-  S232  1  0.35755889  0.00330100  0.03665937  1
  S2-  S233  1  0.38534616  0.00656379  0.54643641  1
  S2-  S234  1  0.35646640  0.25024662  0.05250174  1
  S2-  S235  1  0.38507677  0.25775313  0.55212908  1
  S2-  S236  1  0.35983629  0.50083964  0.04275746  1
  S2-  S237  1  0.38726979  0.50276314  0.54055232  1
  S2-  S238  1  0.35709391  0.74702990  0.04719604  1
  S2-  S239  1  0.38657338  0.75691921  0.54442511  1
  S2-  S240  1  0.61093133  -0.00046920  0.04006720  1
  S2-  S241  1  0.63183609  0.00661420  0.54863884  1
  S2-  S242  1  0.61271134  0.24765457  0.05172539  1
  S2-  S243  1  0.63520849  0.25642781  0.54861872  1
  S2-  S244  1  0.61063083  0.50130757  0.04657571  1
  S2-  S245  1  0.63248573  0.50214413  0.54558565  1
  S2-  S246  1  0.61285068  0.75448279  0.05010236  1
  S2-  S247  1  0.63665610  0.75190705  0.55299886  1
  S2-  S248  1  0.86083261  0.00006789  0.03778248  1
  S2-  S249  1  0.88022775  0.00555431  0.54506075  1
  S2-  S250  1  0.85809394  0.24280207  0.04232955  1
  S2-  S251  1  0.87530577  0.24381910  0.54173112  1
  S2-  S252  1  0.86046059  0.50076473  0.04928323  1
  S2-  S253  1  0.88501839  0.50551392  0.54938364  1
  S2-  S254  1  0.86025954  0.75450900  0.04183597  1
  S2-  S255  1  0.87918010  0.75593839  0.54984692  1
