# generated using pymatgen
data_La6Ce7Pr13Nd19Sm19(BiS2)64
_symmetry_space_group_name_H-M   'P 1'
_cell_length_a   16.14969641
_cell_length_b   16.13706343
_cell_length_c   27.18339283
_cell_angle_alpha   89.97901172
_cell_angle_beta   89.95918854
_cell_angle_gamma   89.98630615
_symmetry_Int_Tables_number   1
_chemical_formula_structural   La6Ce7Pr13Nd19Sm19(BiS2)64
_chemical_formula_sum   'La6 Ce7 Pr13 Nd19 Sm19 Bi64 S128'
_cell_volume   7084.22552009
_cell_formula_units_Z   1
loop_
 _symmetry_equiv_pos_site_id
 _symmetry_equiv_pos_as_xyz
  1  'x, y, z'
loop_
 _atom_type_symbol
 _atom_type_oxidation_number
  La3+  3.0
  Ce3+  3.0
  Pr3+  3.0
  Nd3+  3.0
  Sm3+  3.0
  Bi2+  2.0
  S2-  -2.0
loop_
 _atom_site_type_symbol
 _atom_site_label
 _atom_site_symmetry_multiplicity
 _atom_site_fract_x
 _atom_site_fract_y
 _atom_site_fract_z
 _atom_site_occupancy
  La3+  La0  1  0.75489644  0.35809646  0.58540350  1
  La3+  La1  1  0.01111788  0.87721710  0.10550451  1
  La3+  La2  1  0.62815340  0.00113200  0.93652867  1
  La3+  La3  1  0.23709542  0.10888465  0.59585698  1
  La3+  La4  1  0.88003934  0.76363597  0.89341888  1
  La3+  La5  1  0.37443222  0.23636064  0.89357259  1
  Ce3+  Ce6  1  -0.00269301  0.11352332  0.55607909  1
  Ce3+  Ce7  1  0.12233428  0.50420347  0.93550776  1
  Ce3+  Ce8  1  0.75488497  0.12440944  0.06205560  1
  Ce3+  Ce9  1  0.38055752  0.49881005  0.93506626  1
  Ce3+  Ce10  1  0.37508393  0.74066394  0.44453451  1
  Ce3+  Ce11  1  0.12008317  0.74028262  0.43990005  1
  Ce3+  Ce12  1  0.87955204  0.25359470  0.94560475  1
  Pr3+  Pr13  1  0.49638989  0.35745889  0.57595453  1
  Pr3+  Pr14  1  0.62187264  -0.00918553  0.43731683  1
  Pr3+  Pr15  1  0.61468261  0.73634842  0.42038864  1
  Pr3+  Pr16  1  0.49907534  0.86655123  0.56892830  1
  Pr3+  Pr17  1  0.37129300  -0.00698020  0.44682444  1
  Pr3+  Pr18  1  0.50191971  0.37862062  0.06153861  1
  Pr3+  Pr19  1  0.62059193  0.24352572  0.44634882  1
  Pr3+  Pr20  1  0.74951546  0.88340454  0.07879809  1
  Pr3+  Pr21  1  0.75392402  0.38121712  0.06021775  1
  Pr3+  Pr22  1  0.12355022  0.75442889  0.93818858  1
  Pr3+  Pr23  1  0.88135916  0.50223993  0.92491877  1
  Pr3+  Pr24  1  -0.00723412  0.61858094  0.56528252  1
  Pr3+  Pr25  1  0.50309536  0.63001402  0.06244638  1
  Nd3+  Nd26  1  0.00124723  0.62916247  0.06358770  1
  Nd3+  Nd27  1  0.12102866  0.49286707  0.44040265  1
  Nd3+  Nd28  1  0.24387177  0.86561077  0.56010349  1
  Nd3+  Nd29  1  0.24981715  0.62849240  0.05405493  1
  Nd3+  Nd30  1  0.37140486  0.23711557  0.45026536  1
  Nd3+  Nd31  1  0.87985143  -0.00158872  0.94771544  1
  Nd3+  Nd32  1  0.87154558  -0.01117064  0.43326016  1
  Nd3+  Nd33  1  0.86848506  0.48631918  0.43511928  1
  Nd3+  Nd34  1  0.25217666  0.12829461  0.06149466  1
  Nd3+  Nd35  1  0.63107443  0.75230393  0.94036663  1
  Nd3+  Nd36  1  0.50033695  0.12864396  0.05747918  1
  Nd3+  Nd37  1  0.62018941  0.48918581  0.44841423  1
  Nd3+  Nd38  1  0.75961477  0.63351243  0.05583717  1
  Nd3+  Nd39  1  0.12195498  0.24101746  0.44035407  1
  Nd3+  Nd40  1  0.62725998  0.25510577  0.94505033  1
  Nd3+  Nd41  1  0.00390981  0.38098527  0.06673391  1
  Nd3+  Nd42  1  0.88415056  0.73202678  0.40872480  1
  Nd3+  Nd43  1  0.00359262  0.12685782  0.06286449  1
  Nd3+  Nd44  1  0.49539378  0.61243330  0.56890040  1
  Sm3+  Sm45  1  0.37484052  0.00064044  0.94767762  1
  Sm3+  Sm46  1  0.74850985  0.11413057  0.55493195  1
  Sm3+  Sm47  1  0.63174334  0.50426493  0.94173641  1
  Sm3+  Sm48  1  0.12041931  -0.00818342  0.43999072  1
  Sm3+  Sm49  1  0.25293479  0.37765720  0.05267756  1
  Sm3+  Sm50  1  0.24464413  0.61652175  0.55636659  1
  Sm3+  Sm51  1  0.87112063  0.24582383  0.43919979  1
  Sm3+  Sm52  1  0.49770831  0.11363545  0.57260829  1
  Sm3+  Sm53  1  0.37275115  0.48974774  0.45038853  1
  Sm3+  Sm54  1  0.24499202  0.36431464  0.55626919  1
  Sm3+  Sm55  1  0.74649262  0.85977899  0.54306455  1
  Sm3+  Sm56  1  0.12822071  0.00177229  0.94279481  1
  Sm3+  Sm57  1  -0.00312359  0.36732444  0.56047859  1
  Sm3+  Sm58  1  0.74563553  0.61635913  0.55334862  1
  Sm3+  Sm59  1  0.13129301  0.25209554  0.94103574  1
  Sm3+  Sm60  1  0.50261621  0.87720901  0.05517022  1
  Sm3+  Sm61  1  0.37699096  0.75089626  0.94391963  1
  Sm3+  Sm62  1  0.24944285  0.87771408  0.06278471  1
  Sm3+  Sm63  1  -0.00854899  0.86286159  0.55515374  1
  Bi2+  Bi64  1  0.03187789  0.15081909  0.27735545  1
  Bi2+  Bi65  1  -0.01642807  0.10126231  0.78762221  1
  Bi2+  Bi66  1  -0.03617666  0.33376105  0.28671963  1
  Bi2+  Bi67  1  0.05162520  0.37289496  0.79977605  1
  Bi2+  Bi68  1  0.03197022  0.59387045  0.29315691  1
  Bi2+  Bi69  1  0.02893366  0.63849626  0.78035620  1
  Bi2+  Bi70  1  -0.00748326  0.89558836  0.30355023  1
  Bi2+  Bi71  1  -0.00714014  0.90022848  0.78283930  1
  Bi2+  Bi72  1  0.27519237  0.13573253  0.30351355  1
  Bi2+  Bi73  1  0.26628599  0.11364650  0.78990021  1
  Bi2+  Bi74  1  0.21894753  0.40799724  0.29168978  1
  Bi2+  Bi75  1  0.24319439  0.42449916  0.78634748  1
  Bi2+  Bi76  1  0.23586512  0.61108236  0.29734976  1
  Bi2+  Bi77  1  0.22153918  0.61954724  0.79806797  1
  Bi2+  Bi78  1  0.27261839  0.86828231  0.27360991  1
  Bi2+  Bi79  1  0.23146023  0.87572386  0.78340126  1
  Bi2+  Bi80  1  0.49891030  0.10884013  0.31488386  1
  Bi2+  Bi81  1  0.51544591  0.06785942  0.78103374  1
  Bi2+  Bi82  1  0.49692575  0.34946019  0.29739754  1
  Bi2+  Bi83  1  0.52963093  0.39651497  0.79852461  1
  Bi2+  Bi84  1  0.51498080  0.60709118  0.30619875  1
  Bi2+  Bi85  1  0.41586646  0.64600884  0.81862619  1
  Bi2+  Bi86  1  0.46882462  0.86207385  0.24616266  1
  Bi2+  Bi87  1  0.50258775  0.81550298  0.79758478  1
  Bi2+  Bi88  1  0.75749050  0.18076757  0.25285879  1
  Bi2+  Bi89  1  0.79225061  0.12121852  0.74946956  1
  Bi2+  Bi90  1  0.75417544  0.37464981  0.27748067  1
  Bi2+  Bi91  1  0.74859766  0.35028913  0.79995261  1
  Bi2+  Bi92  1  0.75308584  0.59124028  0.28849052  1
  Bi2+  Bi93  1  0.70938762  0.63012469  0.79578519  1
  Bi2+  Bi94  1  0.73682050  0.88742842  0.28894669  1
  Bi2+  Bi95  1  0.74671490  0.90218854  0.78280431  1
  Bi2+  Bi96  1  0.14884250  0.00945403  0.21927851  1
  Bi2+  Bi97  1  0.10956470  -0.00409628  0.70819228  1
  Bi2+  Bi98  1  0.10925645  0.29122959  0.19427039  1
  Bi2+  Bi99  1  0.13085889  0.26389848  0.71151189  1
  Bi2+  Bi100  1  0.14286323  0.48846151  0.19492922  1
  Bi2+  Bi101  1  0.10481404  0.49176246  0.71042222  1
  Bi2+  Bi102  1  0.14605441  0.74007403  0.21997614  1
  Bi2+  Bi103  1  0.21846598  0.74679334  0.70017176  1
  Bi2+  Bi104  1  0.36551444  0.01626216  0.21418673  1
  Bi2+  Bi105  1  0.40063233  -0.06698432  0.72583180  1
  Bi2+  Bi106  1  0.30035436  0.26722505  0.22203652  1
  Bi2+  Bi107  1  0.38145640  0.28547571  0.70350776  1
  Bi2+  Bi108  1  0.38312044  0.49459157  0.25149108  1
  Bi2+  Bi109  1  0.36838753  0.54453163  0.72303391  1
  Bi2+  Bi110  1  0.34943303  0.71294149  0.21521224  1
  Bi2+  Bi111  1  0.41604398  0.74518411  0.68907241  1
  Bi2+  Bi112  1  0.60116507  0.03263157  0.20953872  1
  Bi2+  Bi113  1  0.64360940  -0.00174893  0.70231915  1
  Bi2+  Bi114  1  0.58719009  0.24390620  0.21541271  1
  Bi2+  Bi115  1  0.64922017  0.24401184  0.71283646  1
  Bi2+  Bi116  1  0.63026179  0.49453738  0.19388911  1
  Bi2+  Bi117  1  0.59246358  0.52227608  0.72255429  1
  Bi2+  Bi118  1  0.62297106  0.73265660  0.19934312  1
  Bi2+  Bi119  1  0.62692165  0.79764958  0.70842173  1
  Bi2+  Bi120  1  0.88084075  0.05057174  0.20821000  1
  Bi2+  Bi121  1  0.91361770  -0.00102403  0.69282515  1
  Bi2+  Bi122  1  0.92486797  0.23778897  0.18012416  1
  Bi2+  Bi123  1  0.93838016  0.26564969  0.72655121  1
  Bi2+  Bi124  1  0.89004700  0.47782934  0.21949322  1
  Bi2+  Bi125  1  0.85079613  0.49986044  0.70586197  1
  Bi2+  Bi126  1  0.87746220  0.72902203  0.20785345  1
  Bi2+  Bi127  1  0.87072895  0.74703520  0.69039816  1
  S2-  S128  1  0.02510356  0.04593877  0.15002034  1
  S2-  S129  1  0.07921635  0.13556258  0.64282266  1
  S2-  S130  1  -0.00497862  0.50257694  0.13809909  1
  S2-  S131  1  -0.09314875  0.37123050  0.64452752  1
  S2-  S132  1  0.01229339  0.71434344  0.15358681  1
  S2-  S133  1  -0.01864079  0.58924588  0.66546945  1
  S2-  S134  1  -0.05832882  0.88270014  0.20280974  1
  S2-  S135  1  -0.00172942  0.81107055  0.64844082  1
  S2-  S136  1  0.25163273  0.11170746  0.16101566  1
  S2-  S137  1  0.31107808  0.14168981  0.68725325  1
  S2-  S138  1  0.27368647  0.38600279  0.15044415  1
  S2-  S139  1  0.23690280  0.35001722  0.65364172  1
  S2-  S140  1  0.23641873  0.62553531  0.15328950  1
  S2-  S141  1  0.21709387  0.59642218  0.65215950  1
  S2-  S142  1  0.17227543  0.87537145  0.15057796  1
  S2-  S143  1  0.23409053  0.94968638  0.64694844  1
  S2-  S144  1  0.49475136  0.12187076  0.15752797  1
  S2-  S145  1  0.51379735  0.22321905  0.65023500  1
  S2-  S146  1  0.52535863  0.38306335  0.16125516  1
  S2-  S147  1  0.46799516  0.44226694  0.66372497  1
  S2-  S148  1  0.51408002  0.61057902  0.16184455  1
  S2-  S149  1  0.56459652  0.65560793  0.65597690  1
  S2-  S150  1  0.53887931  0.86547915  0.15015550  1
  S2-  S151  1  0.50235148  0.98796656  0.64317290  1
  S2-  S152  1  0.73570635  0.03115231  0.14387849  1
  S2-  S153  1  0.75805284  0.19405578  0.64182677  1
  S2-  S154  1  0.76149299  0.39939154  0.15976201  1
  S2-  S155  1  0.70271679  0.40993007  0.68022993  1
  S2-  S156  1  0.74385606  0.62653096  0.15682462  1
  S2-  S157  1  0.78118888  0.61220725  0.65045019  1
  S2-  S158  1  0.74546145  0.83176247  0.17917788  1
  S2-  S159  1  0.75855377  0.84532749  0.64080171  1
  S2-  S160  1  0.11126223  -0.01220598  0.34200272  1
  S2-  S161  1  0.16927064  -0.00188030  0.84566540  1
  S2-  S162  1  0.14251046  0.22351528  0.34215718  1
  S2-  S163  1  0.21043956  0.22721706  0.85366330  1
  S2-  S164  1  0.07027351  0.46027265  0.34665763  1
  S2-  S165  1  0.01671104  0.51452044  0.85739031  1
  S2-  S166  1  0.04463021  0.74490324  0.35221161  1
  S2-  S167  1  0.04347516  0.76650905  0.84768588  1
  S2-  S168  1  0.38110078  0.00654933  0.34675629  1
  S2-  S169  1  0.38851008  0.05568865  0.85595504  1
  S2-  S170  1  0.38455309  0.24583774  0.35103014  1
  S2-  S171  1  0.41161002  0.21922687  0.79015249  1
  S2-  S172  1  0.42373102  0.48152012  0.35726596  1
  S2-  S173  1  0.38394440  0.40231185  0.85270103  1
  S2-  S174  1  0.46332249  0.73510914  0.36137670  1
  S2-  S175  1  0.34476143  0.80362464  0.85211131  1
  S2-  S176  1  0.61150970  -0.01019813  0.33699679  1
  S2-  S177  1  0.64104863  0.01390971  0.83684764  1
  S2-  S178  1  0.60421442  0.24788789  0.34644600  1
  S2-  S179  1  0.61038415  0.26357558  0.84614596  1
  S2-  S180  1  0.63923234  0.50900886  0.34940652  1
  S2-  S181  1  0.58982283  0.53691384  0.84787725  1
  S2-  S182  1  0.66304596  0.74556180  0.31984856  1
  S2-  S183  1  0.71062254  0.77220551  0.85291212  1
  S2-  S184  1  0.85730024  -0.00687427  0.33412642  1
  S2-  S185  1  0.86788551  -0.07131693  0.85507987  1
  S2-  S186  1  0.84712986  0.35649388  0.36553471  1
  S2-  S187  1  0.87896971  0.29329591  0.85164657  1
  S2-  S188  1  0.87639296  0.58552171  0.35179883  1
  S2-  S189  1  0.79944113  0.49490697  0.83141140  1
  S2-  S190  1  0.85566030  0.78456583  0.31127647  1
  S2-  S191  1  0.86945193  0.69301712  0.79256701  1
  S2-  S192  1  -0.00582027  0.11787750  0.44699765  1
  S2-  S193  1  0.00638127  0.12772651  0.95352047  1
  S2-  S194  1  -0.00186103  0.36467193  0.45696102  1
  S2-  S195  1  0.00625849  0.37390091  0.95911931  1
  S2-  S196  1  -0.00240477  0.61412144  0.45669434  1
  S2-  S197  1  -0.00558384  0.63672918  0.95552397  1
  S2-  S198  1  -0.00481826  0.86713585  0.44996241  1
  S2-  S199  1  0.00535670  0.88168878  0.95093502  1
  S2-  S200  1  0.24267990  0.11461633  0.45417832  1
  S2-  S201  1  0.25451074  0.12563424  0.95714776  1
  S2-  S202  1  0.24776774  0.36670582  0.45089128  1
  S2-  S203  1  0.24888534  0.37779053  0.94948380  1
  S2-  S204  1  0.24885915  0.61447833  0.45088805  1
  S2-  S205  1  0.25323090  0.62800047  0.94779912  1
  S2-  S206  1  0.24498510  0.86652080  0.45060455  1
  S2-  S207  1  0.25226880  0.87824927  0.95793175  1
  S2-  S208  1  0.49833524  0.11547404  0.46423610  1
  S2-  S209  1  0.49986027  0.13116264  0.95172157  1
  S2-  S210  1  0.49369369  0.36503759  0.46549869  1
  S2-  S211  1  0.50823254  0.38100965  0.95579232  1
  S2-  S212  1  0.49606007  0.61244029  0.46275433  1
  S2-  S213  1  0.50328684  0.63005491  0.95515262  1
  S2-  S214  1  0.49794520  0.86822446  0.45956836  1
  S2-  S215  1  0.50010572  0.87593880  0.95007111  1
  S2-  S216  1  0.74956321  0.11919451  0.44871462  1
  S2-  S217  1  0.75402851  0.12804776  0.95288855  1
  S2-  S218  1  0.74389203  0.36476670  0.46810418  1
  S2-  S219  1  0.75224836  0.37991399  0.95315032  1
  S2-  S220  1  0.74308028  0.61780255  0.44912295  1
  S2-  S221  1  0.75610860  0.62938461  0.94864783  1
  S2-  S222  1  0.74761606  0.86032472  0.43819438  1
  S2-  S223  1  0.75346215  0.87737251  0.96239721  1
  S2-  S224  1  0.12971713  0.00188898  0.04662560  1
  S2-  S225  1  0.11589844  -0.01383282  0.54441029  1
  S2-  S226  1  0.12792645  0.25335038  0.04759754  1
  S2-  S227  1  0.12118101  0.24446428  0.54545000  1
  S2-  S228  1  0.12983279  0.50209850  0.04110474  1
  S2-  S229  1  0.12125334  0.49012548  0.54769023  1
  S2-  S230  1  0.12747471  0.75543842  0.04526861  1
  S2-  S231  1  0.12076173  0.74108585  0.54613591  1
  S2-  S232  1  0.37661938  -0.00038721  0.05319128  1
  S2-  S233  1  0.36776044  -0.00722456  0.55162795  1
  S2-  S234  1  0.37604180  0.25356635  0.05386168  1
  S2-  S235  1  0.36409167  0.23457180  0.55554199  1
  S2-  S236  1  0.37615321  0.50399254  0.04542237  1
  S2-  S237  1  0.36640319  0.49138782  0.55398375  1
  S2-  S238  1  0.37526789  0.75570494  0.05059824  1
  S2-  S239  1  0.37038979  0.74050805  0.55048224  1
  S2-  S240  1  0.62164712  0.00254539  0.04377299  1
  S2-  S241  1  0.62881310  -0.00988517  0.54418786  1
  S2-  S242  1  0.62900318  0.25082089  0.05263609  1
  S2-  S243  1  0.62345370  0.23705622  0.55067805  1
  S2-  S244  1  0.62994625  0.50708921  0.04712795  1
  S2-  S245  1  0.62315152  0.48983329  0.55579474  1
  S2-  S246  1  0.62871338  0.75474900  0.04698213  1
  S2-  S247  1  0.62095488  0.74032530  0.53909715  1
  S2-  S248  1  0.88275556  -0.00031566  0.05265024  1
  S2-  S249  1  0.86936098  -0.01205959  0.54056692  1
  S2-  S250  1  0.87865912  0.25346845  0.05085744  1
  S2-  S251  1  0.87760557  0.23887290  0.54220501  1
  S2-  S252  1  0.87634455  0.50296706  0.03740731  1
  S2-  S253  1  0.87132516  0.49265412  0.54281365  1
  S2-  S254  1  0.87779201  0.76046969  0.06363696  1
  S2-  S255  1  0.87011754  0.73903770  0.53655743  1
