# generated using pymatgen
data_La6Ce7Pr13Nd19Sm19(BiS2)64
_symmetry_space_group_name_H-M   'P 1'
_cell_length_a   16.13814594
_cell_length_b   16.12497453
_cell_length_c   27.28150030
_cell_angle_alpha   89.99239439
_cell_angle_beta   89.96738119
_cell_angle_gamma   90.02633616
_symmetry_Int_Tables_number   1
_chemical_formula_structural   La6Ce7Pr13Nd19Sm19(BiS2)64
_chemical_formula_sum   'La6 Ce7 Pr13 Nd19 Sm19 Bi64 S128'
_cell_volume   7099.38626022
_cell_formula_units_Z   1
loop_
 _symmetry_equiv_pos_site_id
 _symmetry_equiv_pos_as_xyz
  1  'x, y, z'
loop_
 _atom_type_symbol
 _atom_type_oxidation_number
  La3+  3.0
  Ce3+  3.0
  Pr3+  3.0
  Nd3+  3.0
  Sm3+  3.0
  Bi2+  2.0
  S2-  -2.0
loop_
 _atom_site_type_symbol
 _atom_site_label
 _atom_site_symmetry_multiplicity
 _atom_site_fract_x
 _atom_site_fract_y
 _atom_site_fract_z
 _atom_site_occupancy
  La3+  La0  1  0.11080901  0.75900191  0.42188130  1
  La3+  La1  1  0.24159695  0.13277907  0.60558176  1
  La3+  La2  1  0.24895473  0.86180997  0.60434634  1
  La3+  La3  1  -0.00731865  0.38365862  0.09220994  1
  La3+  La4  1  0.38216310  0.50702234  0.92242382  1
  La3+  La5  1  0.12705332  0.24313833  0.42588932  1
  Ce3+  Ce6  1  0.87027733  0.49914853  0.43588024  1
  Ce3+  Ce7  1  -0.00103890  0.62980196  0.55523342  1
  Ce3+  Ce8  1  0.74801096  0.13227876  0.06168411  1
  Ce3+  Ce9  1  0.24578315  0.13242819  0.05999787  1
  Ce3+  Ce10  1  -0.00490296  0.37139485  0.54577104  1
  Ce3+  Ce11  1  0.87459240  0.75389268  0.94033587  1
  Ce3+  Ce12  1  0.12202962  0.01291934  0.92697105  1
  Pr3+  Pr13  1  0.49663126  0.87978345  0.06593403  1
  Pr3+  Pr14  1  0.86377792  0.23853687  0.41254036  1
  Pr3+  Pr15  1  0.74566760  0.62756576  0.55407955  1
  Pr3+  Pr16  1  0.00888905  0.63371523  0.06964707  1
  Pr3+  Pr17  1  0.49832380  0.38198299  0.06224668  1
  Pr3+  Pr18  1  0.62027192  0.75710265  0.43964298  1
  Pr3+  Pr19  1  -0.00083987  0.13335806  0.06426698  1
  Pr3+  Pr20  1  0.74889717  0.87915023  0.57114309  1
  Pr3+  Pr21  1  0.37405353  0.76801223  0.41650914  1
  Pr3+  Pr22  1  0.74921835  0.63063798  0.05932019  1
  Pr3+  Pr23  1  0.24273103  0.88338509  0.06279357  1
  Pr3+  Pr24  1  0.87527316  0.50411502  0.94626446  1
  Pr3+  Pr25  1  0.37021175  0.75728320  0.93272468  1
  Nd3+  Nd26  1  0.49343261  0.63655729  0.06844586  1
  Nd3+  Nd27  1  -0.00308231  0.88109701  0.56913717  1
  Nd3+  Nd28  1  0.61795993  0.50451370  0.44199830  1
  Nd3+  Nd29  1  -0.00960943  0.13941896  0.57110441  1
  Nd3+  Nd30  1  0.74424390  0.37791038  0.55291111  1
  Nd3+  Nd31  1  0.74113045  0.38010911  0.06834720  1
  Nd3+  Nd32  1  0.48803308  0.63355121  0.55950168  1
  Nd3+  Nd33  1  0.24870126  0.38069814  0.05310183  1
  Nd3+  Nd34  1  0.37444694  0.25597162  0.94231060  1
  Nd3+  Nd35  1  0.37218825  0.00652340  0.94195826  1
  Nd3+  Nd36  1  0.11491886  0.25830549  0.93355334  1
  Nd3+  Nd37  1  0.00016935  0.88040920  0.05670730  1
  Nd3+  Nd38  1  0.49031968  0.37784919  0.55524190  1
  Nd3+  Nd39  1  0.36793972  0.50633507  0.43989035  1
  Nd3+  Nd40  1  0.11634033  0.75777978  0.92820352  1
  Nd3+  Nd41  1  0.87371644  0.00593832  0.94390339  1
  Nd3+  Nd42  1  0.11935903  0.49942283  0.43603335  1
  Nd3+  Nd43  1  0.87016897  0.00266551  0.44366133  1
  Nd3+  Nd44  1  0.61777572  0.25061484  0.43714800  1
  Sm3+  Sm45  1  0.12164583  0.50572244  0.94243498  1
  Sm3+  Sm46  1  0.74969620  0.87950956  0.05448914  1
  Sm3+  Sm47  1  0.49985873  0.12928507  0.05174725  1
  Sm3+  Sm48  1  0.24328111  0.63553846  0.54542499  1
  Sm3+  Sm49  1  0.48909081  0.12766524  0.56018981  1
  Sm3+  Sm50  1  0.62167262  0.75528283  0.94243038  1
  Sm3+  Sm51  1  0.87293353  0.25703824  0.93929002  1
  Sm3+  Sm52  1  0.49406500  0.88005822  0.56383876  1
  Sm3+  Sm53  1  0.62419722  0.00389166  0.94268243  1
  Sm3+  Sm54  1  0.86725005  0.75703614  0.44176942  1
  Sm3+  Sm55  1  0.61901696  0.00271943  0.45006335  1
  Sm3+  Sm56  1  0.62500080  0.50538239  0.94108555  1
  Sm3+  Sm57  1  0.36482636  -0.00090176  0.45373193  1
  Sm3+  Sm58  1  0.25350705  0.62955370  0.05571392  1
  Sm3+  Sm59  1  0.74536937  0.13248098  0.56365569  1
  Sm3+  Sm60  1  0.12167373  0.00327322  0.45687460  1
  Sm3+  Sm61  1  0.24241831  0.37327287  0.55599468  1
  Sm3+  Sm62  1  0.36940291  0.25007268  0.43980209  1
  Sm3+  Sm63  1  0.62977108  0.25619017  0.93403208  1
  Bi2+  Bi64  1  0.00604964  0.13123548  0.30237452  1
  Bi2+  Bi65  1  -0.00877158  0.16567465  0.79600907  1
  Bi2+  Bi66  1  -0.01296701  0.40790318  0.29426720  1
  Bi2+  Bi67  1  -0.02459613  0.37690916  0.76638545  1
  Bi2+  Bi68  1  -0.04821856  0.62914614  0.23291723  1
  Bi2+  Bi69  1  -0.04816033  0.63655195  0.77610255  1
  Bi2+  Bi70  1  0.01586192  0.88170334  0.30360482  1
  Bi2+  Bi71  1  -0.04917214  0.90455179  0.79561413  1
  Bi2+  Bi72  1  0.30164723  0.12189270  0.27769611  1
  Bi2+  Bi73  1  0.27696853  0.12224081  0.80262520  1
  Bi2+  Bi74  1  0.22774860  0.37768759  0.30635478  1
  Bi2+  Bi75  1  0.24148151  0.35893130  0.78280461  1
  Bi2+  Bi76  1  0.29523610  0.57214154  0.26432694  1
  Bi2+  Bi77  1  0.24610130  0.61142706  0.79960575  1
  Bi2+  Bi78  1  0.26867784  0.85866763  0.29360750  1
  Bi2+  Bi79  1  0.27044988  0.86205122  0.81410963  1
  Bi2+  Bi80  1  0.49749295  0.13016590  0.29809320  1
  Bi2+  Bi81  1  0.52975686  0.17844191  0.78350316  1
  Bi2+  Bi82  1  0.47800654  0.32668457  0.30034963  1
  Bi2+  Bi83  1  0.57125296  0.35903390  0.81680132  1
  Bi2+  Bi84  1  0.58142526  0.65041908  0.28449643  1
  Bi2+  Bi85  1  0.57496020  0.61201105  0.77349440  1
  Bi2+  Bi86  1  0.50274822  0.90276027  0.29317425  1
  Bi2+  Bi87  1  0.55228760  0.89313491  0.78447013  1
  Bi2+  Bi88  1  0.68966842  0.10719526  0.28292684  1
  Bi2+  Bi89  1  0.72106496  0.11904941  0.78271639  1
  Bi2+  Bi90  1  0.66815625  0.37495160  0.29322998  1
  Bi2+  Bi91  1  0.76326409  0.36736411  0.79463918  1
  Bi2+  Bi92  1  0.78102129  0.66858848  0.28651445  1
  Bi2+  Bi93  1  0.76189858  0.56636545  0.79875653  1
  Bi2+  Bi94  1  0.74632166  0.84640522  0.32476878  1
  Bi2+  Bi95  1  0.74441092  0.83745095  0.79407857  1
  Bi2+  Bi96  1  0.14815428  0.00865187  0.25304334  1
  Bi2+  Bi97  1  0.11234089  -0.00121122  0.72847972  1
  Bi2+  Bi98  1  0.13522692  0.22432553  0.19076535  1
  Bi2+  Bi99  1  0.11093695  0.25940317  0.70920157  1
  Bi2+  Bi100  1  0.13970230  0.51785023  0.20353257  1
  Bi2+  Bi101  1  0.12349701  0.49619323  0.73629941  1
  Bi2+  Bi102  1  0.14662994  0.77083831  0.20283722  1
  Bi2+  Bi103  1  0.11447508  0.73621792  0.70547407  1
  Bi2+  Bi104  1  0.41674819  0.01048881  0.20794652  1
  Bi2+  Bi105  1  0.47860164  0.02802578  0.71183338  1
  Bi2+  Bi106  1  0.33216227  0.28531568  0.21029018  1
  Bi2+  Bi107  1  0.38162168  0.28435092  0.71342235  1
  Bi2+  Bi108  1  0.42998462  0.45311053  0.21298939  1
  Bi2+  Bi109  1  0.40721689  0.48851203  0.72159952  1
  Bi2+  Bi110  1  0.39226736  0.72197950  0.20445463  1
  Bi2+  Bi111  1  0.37358947  0.73129168  0.70823227  1
  Bi2+  Bi112  1  0.60493284  0.00555672  0.19463217  1
  Bi2+  Bi113  1  0.65213792  -0.04300991  0.67766602  1
  Bi2+  Bi114  1  0.60910310  0.25024101  0.21014738  1
  Bi2+  Bi115  1  0.62958971  0.15934606  0.68316418  1
  Bi2+  Bi116  1  0.59647422  0.53926753  0.18989844  1
  Bi2+  Bi117  1  0.62194932  0.44119226  0.71657572  1
  Bi2+  Bi118  1  0.63625690  0.81647585  0.22243159  1
  Bi2+  Bi119  1  0.62921282  0.76452411  0.70561631  1
  Bi2+  Bi120  1  0.85535493  -0.02969823  0.26354037  1
  Bi2+  Bi121  1  0.83858260  -0.00298020  0.71821822  1
  Bi2+  Bi122  1  0.87281838  0.23923075  0.20608143  1
  Bi2+  Bi123  1  0.86267566  0.25588923  0.70072220  1
  Bi2+  Bi124  1  0.78478107  0.48962747  0.22568945  1
  Bi2+  Bi125  1  0.84807517  0.49656802  0.69867820  1
  Bi2+  Bi126  1  0.90247884  0.80597135  0.19961309  1
  Bi2+  Bi127  1  0.83347307  0.74304722  0.70641034  1
  S2-  S128  1  -0.00332037  0.13573837  0.16562622  1
  S2-  S129  1  0.08213859  0.11139943  0.65644830  1
  S2-  S130  1  0.02327874  0.33919332  0.19530807  1
  S2-  S131  1  -0.00830762  0.30584341  0.63517827  1
  S2-  S132  1  -0.00972788  0.53193796  0.15205522  1
  S2-  S133  1  0.00747118  0.65695077  0.65169401  1
  S2-  S134  1  0.04660676  0.87998436  0.15205954  1
  S2-  S135  1  0.09071320  0.87387912  0.65434130  1
  S2-  S136  1  0.22752760  0.08238829  0.15045008  1
  S2-  S137  1  0.25165199  0.07043596  0.70749841  1
  S2-  S138  1  0.22114357  0.38530512  0.15196191  1
  S2-  S139  1  0.24206899  0.29989134  0.64517620  1
  S2-  S140  1  0.15070240  0.64830387  0.13713339  1
  S2-  S141  1  0.24547095  0.68822452  0.63984412  1
  S2-  S142  1  0.28109806  0.83689337  0.15810575  1
  S2-  S143  1  0.25747465  0.85720870  0.71750070  1
  S2-  S144  1  0.50549906  0.13655763  0.14950913  1
  S2-  S145  1  0.41170421  0.14794680  0.64647055  1
  S2-  S146  1  0.61123757  0.37352936  0.13896073  1
  S2-  S147  1  0.48403772  0.38141227  0.65448292  1
  S2-  S148  1  0.36509219  0.60819342  0.13451247  1
  S2-  S149  1  0.46499826  0.61247562  0.65752076  1
  S2-  S150  1  0.50950111  0.76470180  0.14288675  1
  S2-  S151  1  0.41416810  0.84578557  0.64692096  1
  S2-  S152  1  0.75951601  0.15591454  0.15827220  1
  S2-  S153  1  0.85580911  0.12858702  0.64071570  1
  S2-  S154  1  0.83822179  0.37466571  0.15052332  1
  S2-  S155  1  0.74849314  0.36966159  0.65199129  1
  S2-  S156  1  0.74584445  0.61326817  0.15911539  1
  S2-  S157  1  0.75156109  0.61470312  0.65381913  1
  S2-  S158  1  0.76017012  0.86561840  0.15130496  1
  S2-  S159  1  0.87211165  0.87973598  0.64463672  1
  S2-  S160  1  0.11336508  0.01771395  0.35550334  1
  S2-  S161  1  0.11555611  -0.05965239  0.83452388  1
  S2-  S162  1  0.09238099  0.27588131  0.32679288  1
  S2-  S163  1  0.13142533  0.14434412  0.85589088  1
  S2-  S164  1  0.11638072  0.50483915  0.33672176  1
  S2-  S165  1  0.13140507  0.50765405  0.84423990  1
  S2-  S166  1  0.14215033  0.76096457  0.31781422  1
  S2-  S167  1  0.15751399  0.73755681  0.83179532  1
  S2-  S168  1  0.37397427  -0.06402126  0.36131647  1
  S2-  S169  1  0.37071899  0.00342368  0.84280898  1
  S2-  S170  1  0.27794248  0.23518875  0.35792864  1
  S2-  S171  1  0.34947470  0.26017283  0.84458028  1
  S2-  S172  1  0.36028473  0.46980923  0.34368408  1
  S2-  S173  1  0.34833494  0.47948778  0.82404966  1
  S2-  S174  1  0.33869702  0.70778328  0.32001514  1
  S2-  S175  1  0.37866070  0.73157851  0.83252923  1
  S2-  S176  1  0.63793751  -0.01938603  0.35388796  1
  S2-  S177  1  0.63320334  0.00530294  0.84461411  1
  S2-  S178  1  0.71081879  0.23411498  0.35503267  1
  S2-  S179  1  0.75527277  0.24452409  0.86368749  1
  S2-  S180  1  0.60059768  0.51056842  0.34399087  1
  S2-  S181  1  0.53478106  0.51864485  0.85933102  1
  S2-  S182  1  0.52450318  0.76500048  0.35713865  1
  S2-  S183  1  0.63374981  0.73495810  0.84560663  1
  S2-  S184  1  0.87582844  0.07689130  0.35425286  1
  S2-  S185  1  0.89519525  0.03837051  0.84735287  1
  S2-  S186  1  0.89789251  0.26961369  0.31097846  1
  S2-  S187  1  0.98220377  0.28612533  0.86151312  1
  S2-  S188  1  0.86758202  0.48936859  0.33894231  1
  S2-  S189  1  0.90781023  0.52740518  0.84802752  1
  S2-  S190  1  0.95569100  0.76191335  0.35982363  1
  S2-  S191  1  0.95089857  0.75742346  0.85358802  1
  S2-  S192  1  -0.00515290  0.12730690  0.45778716  1
  S2-  S193  1  -0.00660609  0.13288911  0.95780553  1
  S2-  S194  1  -0.00623691  0.37072312  0.44090223  1
  S2-  S195  1  -0.00061563  0.38434085  0.96303064  1
  S2-  S196  1  -0.00622591  0.62435335  0.44979644  1
  S2-  S197  1  0.00127538  0.63007696  0.95881741  1
  S2-  S198  1  -0.00749029  0.88264419  0.46119731  1
  S2-  S199  1  -0.00184796  0.88390223  0.95175300  1
  S2-  S200  1  0.24893581  0.12130985  0.45639330  1
  S2-  S201  1  0.25040786  0.13361471  0.95492878  1
  S2-  S202  1  0.24668190  0.37744439  0.45275590  1
  S2-  S203  1  0.24709031  0.38093382  0.94692175  1
  S2-  S204  1  0.24163801  0.63002289  0.44106227  1
  S2-  S205  1  0.24712813  0.62923905  0.94982813  1
  S2-  S206  1  0.23874042  0.87782797  0.44804162  1
  S2-  S207  1  0.24577984  0.88272709  0.95139006  1
  S2-  S208  1  0.49194177  0.12446387  0.45364428  1
  S2-  S209  1  0.50291401  0.13109885  0.94654347  1
  S2-  S210  1  0.49268467  0.37699557  0.44997604  1
  S2-  S211  1  0.50382607  0.37613512  0.95532526  1
  S2-  S212  1  0.49294323  0.62916314  0.45293596  1
  S2-  S213  1  0.49859980  0.63696151  0.95795962  1
  S2-  S214  1  0.49705439  0.88188018  0.46153918  1
  S2-  S215  1  0.49957322  0.88118606  0.95383375  1
  S2-  S216  1  0.74072676  0.12410099  0.45957634  1
  S2-  S217  1  0.74622610  0.12544022  0.95729617  1
  S2-  S218  1  0.74161168  0.37812438  0.44759645  1
  S2-  S219  1  0.74529061  0.38383923  0.95928003  1
  S2-  S220  1  0.74542050  0.62982133  0.44676344  1
  S2-  S221  1  0.74623277  0.63086519  0.95183084  1
  S2-  S222  1  0.74437340  0.87983972  0.46355612  1
  S2-  S223  1  0.74754125  0.87957494  0.94965755  1
  S2-  S224  1  0.12099017  0.00759248  0.03977880  1
  S2-  S225  1  0.12839573  0.00316832  0.55711125  1
  S2-  S226  1  0.12088965  0.25941631  0.04661932  1
  S2-  S227  1  0.12371683  0.24998152  0.53884869  1
  S2-  S228  1  0.12606747  0.50310343  0.04614874  1
  S2-  S229  1  0.12344969  0.50150832  0.54474078  1
  S2-  S230  1  0.12642139  0.75866518  0.03628907  1
  S2-  S231  1  0.11993855  0.75516968  0.53815862  1
  S2-  S232  1  0.37447490  0.00588343  0.04859553  1
  S2-  S233  1  0.36611536  0.00051592  0.55685268  1
  S2-  S234  1  0.37593196  0.25415825  0.04927027  1
  S2-  S235  1  0.36810761  0.25353542  0.54229495  1
  S2-  S236  1  0.37484257  0.50087041  0.03279664  1
  S2-  S237  1  0.36382292  0.50361837  0.54740295  1
  S2-  S238  1  0.36974145  0.76130072  0.03961458  1
  S2-  S239  1  0.36738338  0.75523390  0.53640480  1
  S2-  S240  1  0.62321764  0.00288963  0.04775816  1
  S2-  S241  1  0.61775012  0.00678892  0.55338997  1
  S2-  S242  1  0.62206602  0.25162285  0.03901718  1
  S2-  S243  1  0.61569030  0.25222857  0.54447281  1
  S2-  S244  1  0.61849653  0.51242081  0.04375150  1
  S2-  S245  1  0.61538261  0.50425979  0.54886254  1
  S2-  S246  1  0.62635078  0.75826255  0.04561096  1
  S2-  S247  1  0.61831809  0.75515069  0.54983513  1
  S2-  S248  1  0.87327807  0.00389592  0.05151252  1
  S2-  S249  1  0.86916927  0.00731291  0.54654348  1
  S2-  S250  1  0.87274484  0.25671387  0.04554697  1
  S2-  S251  1  0.86305549  0.25461124  0.53279645  1
  S2-  S252  1  0.87207829  0.50560498  0.05059261  1
  S2-  S253  1  0.87142250  0.50127044  0.54356936  1
  S2-  S254  1  0.87572154  0.75517355  0.04757520  1
  S2-  S255  1  0.87124554  0.75134957  0.54488985  1
