# generated using pymatgen
data_La6Ce7Pr13Nd19Sm19(BiS2)64
_symmetry_space_group_name_H-M   'P 1'
_cell_length_a   16.11429185
_cell_length_b   16.12162060
_cell_length_c   27.20634867
_cell_angle_alpha   89.98929218
_cell_angle_beta   89.85577242
_cell_angle_gamma   89.92862323
_symmetry_Int_Tables_number   1
_chemical_formula_structural   La6Ce7Pr13Nd19Sm19(BiS2)64
_chemical_formula_sum   'La6 Ce7 Pr13 Nd19 Sm19 Bi64 S128'
_cell_volume   7067.86850278
_cell_formula_units_Z   1
loop_
 _symmetry_equiv_pos_site_id
 _symmetry_equiv_pos_as_xyz
  1  'x, y, z'
loop_
 _atom_type_symbol
 _atom_type_oxidation_number
  La3+  3.0
  Ce3+  3.0
  Pr3+  3.0
  Nd3+  3.0
  Sm3+  3.0
  Bi2+  2.0
  S2-  -2.0
loop_
 _atom_site_type_symbol
 _atom_site_label
 _atom_site_symmetry_multiplicity
 _atom_site_fract_x
 _atom_site_fract_y
 _atom_site_fract_z
 _atom_site_occupancy
  La3+  La0  1  0.75303943  0.13809681  0.10486184  1
  La3+  La1  1  0.13150044  0.76151974  0.42149736  1
  La3+  La2  1  0.00156471  0.61625601  0.08163136  1
  La3+  La3  1  0.61900661  0.23541912  0.91833951  1
  La3+  La4  1  0.73755158  0.86756461  0.09606452  1
  La3+  La5  1  0.11667939  0.24863049  0.90696603  1
  Ce3+  Ce6  1  0.24080775  0.12330462  0.05565301  1
  Ce3+  Ce7  1  0.50338151  0.63176267  0.56304998  1
  Ce3+  Ce8  1  0.50153302  0.12381964  0.06039182  1
  Ce3+  Ce9  1  0.25154404  0.37658264  0.56135822  1
  Ce3+  Ce10  1  0.00438705  0.12436096  0.06733666  1
  Ce3+  Ce11  1  0.11839658  0.49991384  0.93289082  1
  Ce3+  Ce12  1  0.37119541  0.49883831  0.93255145  1
  Pr3+  Pr13  1  0.00293667  0.88036456  0.56187108  1
  Pr3+  Pr14  1  0.62810610  0.75628537  0.43819528  1
  Pr3+  Pr15  1  0.51399723  0.13322593  0.57890967  1
  Pr3+  Pr16  1  -0.00542392  0.86821625  0.07838949  1
  Pr3+  Pr17  1  0.24927795  0.87991881  0.56938642  1
  Pr3+  Pr18  1  0.62687244  0.50778124  0.43369791  1
  Pr3+  Pr19  1  0.24374130  0.37187839  0.05032018  1
  Pr3+  Pr20  1  0.73837800  0.61938994  0.06946124  1
  Pr3+  Pr21  1  0.49710073  0.61882972  0.06007081  1
  Pr3+  Pr22  1  0.61491811  0.25810883  0.42644754  1
  Pr3+  Pr23  1  0.51378590  0.38612527  0.58433315  1
  Pr3+  Pr24  1  0.37632703  0.75898280  0.43360562  1
  Pr3+  Pr25  1  0.73804349  0.37320915  0.05331716  1
  Nd3+  Nd26  1  0.49442851  0.87749405  0.57280804  1
  Nd3+  Nd27  1  0.37067652  0.74832042  0.94579083  1
  Nd3+  Nd28  1  0.75800549  0.87906161  0.55668761  1
  Nd3+  Nd29  1  -0.00309994  0.12729357  0.55424650  1
  Nd3+  Nd30  1  0.11366162  -0.00623498  0.93463913  1
  Nd3+  Nd31  1  0.86689724  -0.00500722  0.41471354  1
  Nd3+  Nd32  1  0.87137137  0.49920650  0.94433361  1
  Nd3+  Nd33  1  0.62181321  0.75014514  0.93911527  1
  Nd3+  Nd34  1  0.25039860  0.63057715  0.55749791  1
  Nd3+  Nd35  1  0.37799621  0.00912850  0.45342600  1
  Nd3+  Nd36  1  0.12714926  0.00999926  0.43664344  1
  Nd3+  Nd37  1  0.37746403  0.50222011  0.44506552  1
  Nd3+  Nd38  1  0.24144694  0.13300303  0.58017165  1
  Nd3+  Nd39  1  0.75683007  0.63165631  0.56235753  1
  Nd3+  Nd40  1  0.63280913  0.50757283  0.91301377  1
  Nd3+  Nd41  1  0.00025177  0.37825553  0.55498686  1
  Nd3+  Nd42  1  0.36880471  0.24589498  0.93505710  1
  Nd3+  Nd43  1  0.88489545  0.74293730  0.41371233  1
  Nd3+  Nd44  1  0.87135436  -0.00186452  0.95715251  1
  Sm3+  Sm45  1  0.49681293  0.37107337  0.04142139  1
  Sm3+  Sm46  1  0.87266308  0.25263345  0.44381783  1
  Sm3+  Sm47  1  -0.00664905  0.37077436  0.05858342  1
  Sm3+  Sm48  1  0.12800444  0.50063700  0.44310367  1
  Sm3+  Sm49  1  0.75131549  0.12502054  0.55358600  1
  Sm3+  Sm50  1  0.00326347  0.63003649  0.55214097  1
  Sm3+  Sm51  1  0.36745621  -0.00184970  0.94553671  1
  Sm3+  Sm52  1  0.24354125  0.87149805  0.05935538  1
  Sm3+  Sm53  1  0.12832826  0.25100840  0.43641988  1
  Sm3+  Sm54  1  0.74820149  0.37907208  0.55376047  1
  Sm3+  Sm55  1  0.38157350  0.25427659  0.45651462  1
  Sm3+  Sm56  1  0.87759035  0.50256355  0.43656592  1
  Sm3+  Sm57  1  0.62568733  0.00469800  0.44444736  1
  Sm3+  Sm58  1  0.49692409  0.87361655  0.06065775  1
  Sm3+  Sm59  1  0.62304586  -0.00254024  0.94544206  1
  Sm3+  Sm60  1  0.11676682  0.74987419  0.93908196  1
  Sm3+  Sm61  1  0.24444775  0.62095163  0.05725703  1
  Sm3+  Sm62  1  0.86946596  0.24509448  0.94335921  1
  Sm3+  Sm63  1  0.87023698  0.74936641  0.95277891  1
  Bi2+  Bi64  1  0.06502966  0.17953597  0.27196714  1
  Bi2+  Bi65  1  -0.01590210  0.11051499  0.78760984  1
  Bi2+  Bi66  1  0.02942074  0.36987950  0.30000878  1
  Bi2+  Bi67  1  -0.04022746  0.37601777  0.78070010  1
  Bi2+  Bi68  1  0.00018265  0.58813201  0.28758365  1
  Bi2+  Bi69  1  -0.00672638  0.63899574  0.78024699  1
  Bi2+  Bi70  1  0.00911575  0.88776477  0.29906916  1
  Bi2+  Bi71  1  -0.01770377  0.86576383  0.80180869  1
  Bi2+  Bi72  1  0.26248068  0.16256021  0.29072522  1
  Bi2+  Bi73  1  0.24826048  0.11165782  0.78868573  1
  Bi2+  Bi74  1  0.22538466  0.36892803  0.30076232  1
  Bi2+  Bi75  1  0.19887808  0.43739615  0.78001247  1
  Bi2+  Bi76  1  0.29729664  0.62957535  0.27575169  1
  Bi2+  Bi77  1  0.17540005  0.63395434  0.81865003  1
  Bi2+  Bi78  1  0.28121005  0.88734522  0.29451644  1
  Bi2+  Bi79  1  0.23341955  0.81962801  0.78555478  1
  Bi2+  Bi80  1  0.50073292  0.11873294  0.30997800  1
  Bi2+  Bi81  1  0.49613712  0.08236983  0.79362526  1
  Bi2+  Bi82  1  0.42083479  0.36947127  0.28209776  1
  Bi2+  Bi83  1  0.47988229  0.35734856  0.79449074  1
  Bi2+  Bi84  1  0.49732830  0.59445440  0.27995729  1
  Bi2+  Bi85  1  0.48626018  0.67946521  0.79091113  1
  Bi2+  Bi86  1  0.47066249  0.84779229  0.29977138  1
  Bi2+  Bi87  1  0.57519218  0.87350798  0.80208665  1
  Bi2+  Bi88  1  0.77351556  0.13459514  0.30382868  1
  Bi2+  Bi89  1  0.79393276  0.04916870  0.77320671  1
  Bi2+  Bi90  1  0.79715075  0.39043107  0.28848597  1
  Bi2+  Bi91  1  0.74328610  0.37914761  0.79385326  1
  Bi2+  Bi92  1  0.71156501  0.57299626  0.29700102  1
  Bi2+  Bi93  1  0.77084637  0.64442143  0.79300942  1
  Bi2+  Bi94  1  0.69502152  0.86965566  0.28935507  1
  Bi2+  Bi95  1  0.77432196  0.84758435  0.79093195  1
  Bi2+  Bi96  1  0.16997406  0.02419683  0.21222337  1
  Bi2+  Bi97  1  0.04112183  -0.02248757  0.70708897  1
  Bi2+  Bi98  1  0.15930048  0.29589300  0.19574904  1
  Bi2+  Bi99  1  0.11801383  0.25334156  0.69911337  1
  Bi2+  Bi100  1  0.17858735  0.51266781  0.21754696  1
  Bi2+  Bi101  1  0.06333554  0.50042156  0.69649624  1
  Bi2+  Bi102  1  0.12471046  0.77618404  0.20091347  1
  Bi2+  Bi103  1  0.13073375  0.72188040  0.70564456  1
  Bi2+  Bi104  1  0.36646197  0.01049377  0.21063321  1
  Bi2+  Bi105  1  0.40263172  -0.07611445  0.75103421  1
  Bi2+  Bi106  1  0.40188965  0.20694934  0.21247007  1
  Bi2+  Bi107  1  0.35222620  0.23656698  0.71077753  1
  Bi2+  Bi108  1  0.41228722  0.49503717  0.19358571  1
  Bi2+  Bi109  1  0.33888603  0.56661914  0.74920035  1
  Bi2+  Bi110  1  0.41327118  0.72911549  0.20489442  1
  Bi2+  Bi111  1  0.36195686  0.74333577  0.69370687  1
  Bi2+  Bi112  1  0.55839461  -0.02047599  0.23184762  1
  Bi2+  Bi113  1  0.66517957  -0.03957825  0.70664416  1
  Bi2+  Bi114  1  0.59472067  0.27086346  0.20473653  1
  Bi2+  Bi115  1  0.61296691  0.23546099  0.70377877  1
  Bi2+  Bi116  1  0.68649358  0.45481089  0.19349023  1
  Bi2+  Bi117  1  0.61884267  0.49747231  0.70518832  1
  Bi2+  Bi118  1  0.60656256  0.71871561  0.20260138  1
  Bi2+  Bi119  1  0.62316332  0.73855890  0.71520915  1
  Bi2+  Bi120  1  0.91401270  0.03762741  0.21394196  1
  Bi2+  Bi121  1  0.86860358  0.00081072  0.65352775  1
  Bi2+  Bi122  1  0.94402818  0.33330982  0.19961336  1
  Bi2+  Bi123  1  0.85613496  0.22769615  0.73563019  1
  Bi2+  Bi124  1  0.86766761  0.52666482  0.20832529  1
  Bi2+  Bi125  1  0.86744924  0.51860747  0.71571733  1
  Bi2+  Bi126  1  0.86164239  0.76550463  0.22912978  1
  Bi2+  Bi127  1  0.90363950  0.82191515  0.69668985  1
  S2-  S128  1  -0.07556271  0.16828904  0.15090022  1
  S2-  S129  1  0.07498193  0.13194659  0.64288820  1
  S2-  S130  1  -0.00050386  0.46611275  0.14216622  1
  S2-  S131  1  0.00675111  0.34764350  0.65289686  1
  S2-  S132  1  -0.01940844  0.73738108  0.15405329  1
  S2-  S133  1  -0.04755658  0.61149886  0.64506165  1
  S2-  S134  1  0.04165572  0.93005030  0.17202627  1
  S2-  S135  1  0.12044007  0.86619075  0.64074385  1
  S2-  S136  1  0.14660166  0.13628559  0.13754246  1
  S2-  S137  1  0.26185637  0.10885981  0.68102761  1
  S2-  S138  1  0.26528961  0.40950331  0.14878920  1
  S2-  S139  1  0.24351169  0.34848354  0.65820056  1
  S2-  S140  1  0.16114427  0.63010216  0.14376449  1
  S2-  S141  1  0.24646407  0.61454113  0.65729139  1
  S2-  S142  1  0.24319562  0.85403731  0.15735128  1
  S2-  S143  1  0.36207486  0.89566714  0.64884367  1
  S2-  S144  1  0.58667535  0.13639420  0.14472665  1
  S2-  S145  1  0.47701079  0.13340455  0.68134617  1
  S2-  S146  1  0.50242208  0.37566562  0.14010632  1
  S2-  S147  1  0.47761942  0.34525061  0.68537760  1
  S2-  S148  1  0.60510883  0.58428838  0.13728415  1
  S2-  S149  1  0.50088228  0.53296176  0.64393176  1
  S2-  S150  1  0.58075785  0.87244340  0.14755169  1
  S2-  S151  1  0.51118551  0.74877443  0.63953933  1
  S2-  S152  1  0.76156862  0.10198892  0.21046335  1
  S2-  S153  1  0.66824205  0.13435307  0.63915530  1
  S2-  S154  1  0.73360386  0.30075897  0.14558879  1
  S2-  S155  1  0.67677814  0.36714667  0.64344765  1
  S2-  S156  1  0.75868753  0.71739806  0.15628435  1
  S2-  S157  1  0.71541254  0.60453352  0.65928386  1
  S2-  S158  1  0.81455441  0.90360533  0.18831327  1
  S2-  S159  1  0.73878257  0.82809448  0.65246795  1
  S2-  S160  1  0.14124679  -0.08762516  0.35360685  1
  S2-  S161  1  0.11731632  0.09540922  0.85193601  1
  S2-  S162  1  0.14562122  0.13623774  0.36353877  1
  S2-  S163  1  0.21301629  0.26175410  0.81537266  1
  S2-  S164  1  0.12499989  0.51954962  0.34596992  1
  S2-  S165  1  0.07955872  0.40735627  0.85256702  1
  S2-  S166  1  0.02436555  0.73315655  0.34187869  1
  S2-  S167  1  0.11796690  0.86430238  0.86349002  1
  S2-  S168  1  0.39462180  -0.01152165  0.35414193  1
  S2-  S169  1  0.35605441  0.00275046  0.84679773  1
  S2-  S170  1  0.44859971  0.25371333  0.36602696  1
  S2-  S171  1  0.42183975  0.21848733  0.84093681  1
  S2-  S172  1  0.38713067  0.51072166  0.34571063  1
  S2-  S173  1  0.35573865  0.46273150  0.83655696  1
  S2-  S174  1  0.27105799  0.74291247  0.35359114  1
  S2-  S175  1  0.36420388  0.75401964  0.84675628  1
  S2-  S176  1  0.70221272  0.00066072  0.35572426  1
  S2-  S177  1  0.61705265  0.07651886  0.85730175  1
  S2-  S178  1  0.63715734  0.21296406  0.32834643  1
  S2-  S179  1  0.62869058  0.27061977  0.81579937  1
  S2-  S180  1  0.64204939  0.43847536  0.34152947  1
  S2-  S181  1  0.59264097  0.47025823  0.81242892  1
  S2-  S182  1  0.65239921  0.73162584  0.33915143  1
  S2-  S183  1  0.63154088  0.65999958  0.85482961  1
  S2-  S184  1  0.93124752  0.04039324  0.32315102  1
  S2-  S185  1  0.91106381  -0.00223658  0.85864728  1
  S2-  S186  1  0.86795962  0.26682784  0.34610206  1
  S2-  S187  1  0.86786525  0.26462802  0.84421427  1
  S2-  S188  1  0.86438206  0.59582754  0.35386898  1
  S2-  S189  1  0.78922059  0.50911726  0.85722896  1
  S2-  S190  1  0.85034422  0.84885228  0.33703151  1
  S2-  S191  1  0.89000226  0.73054118  0.85435348  1
  S2-  S192  1  -0.00502850  0.13193669  0.44886788  1
  S2-  S193  1  -0.00456809  0.12634830  0.95788227  1
  S2-  S194  1  0.00166768  0.37615079  0.44846891  1
  S2-  S195  1  -0.00905129  0.37055810  0.95546519  1
  S2-  S196  1  0.00491441  0.62183795  0.45050845  1
  S2-  S197  1  -0.00424078  0.62439753  0.95739639  1
  S2-  S198  1  -0.00400069  0.88179760  0.44982743  1
  S2-  S199  1  -0.00657428  0.86935840  0.96731723  1
  S2-  S200  1  0.25681174  0.13512638  0.46691191  1
  S2-  S201  1  0.24441562  0.12294521  0.95056856  1
  S2-  S202  1  0.25221835  0.37468763  0.45259564  1
  S2-  S203  1  0.24410387  0.37144446  0.94364856  1
  S2-  S204  1  0.25026509  0.62430065  0.45199780  1
  S2-  S205  1  0.24438161  0.62556087  0.95285867  1
  S2-  S206  1  0.25567504  0.88520345  0.46069258  1
  S2-  S207  1  0.24785222  0.87286389  0.95555156  1
  S2-  S208  1  0.50577359  0.12817403  0.46595467  1
  S2-  S209  1  0.49072247  0.11748515  0.95581956  1
  S2-  S210  1  0.50238698  0.38362047  0.46220415  1
  S2-  S211  1  0.49740973  0.37259930  0.93711725  1
  S2-  S212  1  0.49950598  0.63110550  0.45087274  1
  S2-  S213  1  0.49472289  0.62324671  0.95166752  1
  S2-  S214  1  0.50272902  0.88162286  0.45979152  1
  S2-  S215  1  0.49460421  0.87558462  0.95465463  1
  S2-  S216  1  0.74793279  0.13222776  0.45043027  1
  S2-  S217  1  0.74959324  0.12072292  0.95012103  1
  S2-  S218  1  0.75244289  0.37974419  0.44949301  1
  S2-  S219  1  0.74415561  0.36864838  0.94654459  1
  S2-  S220  1  0.75447951  0.62993455  0.45450999  1
  S2-  S221  1  0.74763856  0.62713788  0.96153785  1
  S2-  S222  1  0.75163912  0.87658722  0.45206577  1
  S2-  S223  1  0.74622623  0.87343385  0.94979810  1
  S2-  S224  1  0.12225058  -0.00772741  0.04356662  1
  S2-  S225  1  0.12677081  0.00818774  0.54341825  1
  S2-  S226  1  0.11776592  0.25273693  0.03751688  1
  S2-  S227  1  0.12430774  0.25393345  0.54071076  1
  S2-  S228  1  0.12184104  0.49728531  0.03922043  1
  S2-  S229  1  0.12555194  0.50279465  0.54816705  1
  S2-  S230  1  0.12302427  0.74790551  0.04338811  1
  S2-  S231  1  0.12488716  0.75102981  0.53658820  1
  S2-  S232  1  0.37002597  -0.00405661  0.05208184  1
  S2-  S233  1  0.37808545  0.01699509  0.55737624  1
  S2-  S234  1  0.37073401  0.24664399  0.04353549  1
  S2-  S235  1  0.38124507  0.25488482  0.56068168  1
  S2-  S236  1  0.37040064  0.49809781  0.03982042  1
  S2-  S237  1  0.37345405  0.50229465  0.55012169  1
  S2-  S238  1  0.37059346  0.74726874  0.05205729  1
  S2-  S239  1  0.37280818  0.75502606  0.54127331  1
  S2-  S240  1  0.62424329  -0.00499121  0.04849024  1
  S2-  S241  1  0.62659597  -0.00333355  0.54838380  1
  S2-  S242  1  0.61751074  0.24746416  0.03278012  1
  S2-  S243  1  0.62958500  0.25579412  0.53791724  1
  S2-  S244  1  0.61631745  0.49468899  0.02778943  1
  S2-  S245  1  0.63283840  0.50783698  0.54104977  1
  S2-  S246  1  0.61788398  0.74982532  0.04422039  1
  S2-  S247  1  0.63220944  0.75594971  0.54351977  1
  S2-  S248  1  0.86581199  -0.00053637  0.06357737  1
  S2-  S249  1  0.87571404  0.00482460  0.53049056  1
  S2-  S250  1  0.86832417  0.25027524  0.04582164  1
  S2-  S251  1  0.87140760  0.25283785  0.54985068  1
  S2-  S252  1  0.86660451  0.49744227  0.04919173  1
  S2-  S253  1  0.87578977  0.50109089  0.54166154  1
  S2-  S254  1  0.86625392  0.74855596  0.05375716  1
  S2-  S255  1  0.88140472  0.75318978  0.54258882  1
