# generated using pymatgen
data_La6Ce7Pr13Nd19Sm19(BiS2)64
_symmetry_space_group_name_H-M   'P 1'
_cell_length_a   16.05401476
_cell_length_b   16.00927802
_cell_length_c   27.39919661
_cell_angle_alpha   90.09766718
_cell_angle_beta   89.81857348
_cell_angle_gamma   90.05893800
_symmetry_Int_Tables_number   1
_chemical_formula_structural   La6Ce7Pr13Nd19Sm19(BiS2)64
_chemical_formula_sum   'La6 Ce7 Pr13 Nd19 Sm19 Bi64 S128'
_cell_volume   7041.90558565
_cell_formula_units_Z   1
loop_
 _symmetry_equiv_pos_site_id
 _symmetry_equiv_pos_as_xyz
  1  'x, y, z'
loop_
 _atom_type_symbol
 _atom_type_oxidation_number
  La3+  3.0
  Ce3+  3.0
  Pr3+  3.0
  Nd3+  3.0
  Sm3+  3.0
  Bi2+  2.0
  S2-  -2.0
loop_
 _atom_site_type_symbol
 _atom_site_label
 _atom_site_symmetry_multiplicity
 _atom_site_fract_x
 _atom_site_fract_y
 _atom_site_fract_z
 _atom_site_occupancy
  La3+  La0  1  0.72966073  0.36379416  0.58143438  1
  La3+  La1  1  0.63432658  0.48615459  0.89347702  1
  La3+  La2  1  0.13093930  0.74820132  0.93544588  1
  La3+  La3  1  -0.00574825  0.37136856  0.60325639  1
  La3+  La4  1  0.87448848  0.75381853  0.89215319  1
  La3+  La5  1  0.12224431  0.24113138  0.92678031  1
  Ce3+  Ce6  1  0.61452429  0.74494852  0.44550291  1
  Ce3+  Ce7  1  0.00607113  0.87058909  0.07098768  1
  Ce3+  Ce8  1  -0.01125583  0.61750917  0.55987883  1
  Ce3+  Ce9  1  0.61578078  -0.01769976  0.43502134  1
  Ce3+  Ce10  1  0.36320220  0.24191631  0.43408952  1
  Ce3+  Ce11  1  0.63252451  0.74802699  0.93787482  1
  Ce3+  Ce12  1  0.86120997  0.48610859  0.45295425  1
  Pr3+  Pr13  1  0.24083478  0.36561432  0.56507910  1
  Pr3+  Pr14  1  0.10117109  -0.00575889  0.42601797  1
  Pr3+  Pr15  1  0.50911009  0.86616110  0.07149915  1
  Pr3+  Pr16  1  0.01216430  0.12422389  0.08167445  1
  Pr3+  Pr17  1  0.38173137  0.49221464  0.93098689  1
  Pr3+  Pr18  1  0.63326239  0.24109712  0.93044803  1
  Pr3+  Pr19  1  -0.00388862  0.11789039  0.57721728  1
  Pr3+  Pr20  1  0.88410064  -0.00518829  0.94786195  1
  Pr3+  Pr21  1  0.48662442  0.86723487  0.57280706  1
  Pr3+  Pr22  1  0.26099818  0.86262895  0.08700838  1
  Pr3+  Pr23  1  0.88629007  0.49394869  0.92971129  1
  Pr3+  Pr24  1  0.86249508  0.74022772  0.44098691  1
  Pr3+  Pr25  1  0.63391009  -0.00617884  0.94082800  1
  Nd3+  Nd26  1  0.74714349  0.38385134  0.07582854  1
  Nd3+  Nd27  1  0.50930075  0.37401312  0.05309638  1
  Nd3+  Nd28  1  0.75584317  0.12927943  0.07345379  1
  Nd3+  Nd29  1  0.75358432  0.87691818  0.07342448  1
  Nd3+  Nd30  1  0.74177985  0.86657789  0.57397558  1
  Nd3+  Nd31  1  0.12678170  0.49405601  0.92982967  1
  Nd3+  Nd32  1  0.11320156  0.48808579  0.44231661  1
  Nd3+  Nd33  1  0.36283180  0.74400553  0.43868343  1
  Nd3+  Nd34  1  0.25656403  0.62131785  0.05721927  1
  Nd3+  Nd35  1  0.13207629  -0.00300830  0.95081251  1
  Nd3+  Nd36  1  0.48716008  0.11361235  0.55084678  1
  Nd3+  Nd37  1  0.61627470  0.48810931  0.43578445  1
  Nd3+  Nd38  1  0.00972874  0.37785843  0.07137724  1
  Nd3+  Nd39  1  0.73834099  0.11949605  0.56233727  1
  Nd3+  Nd40  1  0.36044136  -0.01146209  0.43470105  1
  Nd3+  Nd41  1  0.48713522  0.36279662  0.56306523  1
  Nd3+  Nd42  1  0.11219219  0.74142484  0.43669838  1
  Nd3+  Nd43  1  0.25236347  0.37314281  0.05830791  1
  Nd3+  Nd44  1  0.73859335  0.61373712  0.56757989  1
  Sm3+  Sm45  1  0.86189192  0.24195506  0.44874411  1
  Sm3+  Sm46  1  0.36394204  0.49042368  0.44547052  1
  Sm3+  Sm47  1  0.10979009  0.24276094  0.44441128  1
  Sm3+  Sm48  1  0.37832265  0.74833551  0.93662078  1
  Sm3+  Sm49  1  0.48897456  0.61734989  0.55333146  1
  Sm3+  Sm50  1  0.23358874  0.86898549  0.56184471  1
  Sm3+  Sm51  1  0.60850156  0.23989046  0.43170441  1
  Sm3+  Sm52  1  0.00352512  0.62693020  0.05947726  1
  Sm3+  Sm53  1  0.23778252  0.61723365  0.55496735  1
  Sm3+  Sm54  1  0.25445928  0.12317697  0.06741700  1
  Sm3+  Sm55  1  0.38057161  0.24408746  0.94678010  1
  Sm3+  Sm56  1  0.38014522  -0.00701178  0.95488014  1
  Sm3+  Sm57  1  0.75874741  0.61815484  0.04137768  1
  Sm3+  Sm58  1  -0.00844237  0.86430140  0.57040520  1
  Sm3+  Sm59  1  0.23295066  0.11709469  0.55122952  1
  Sm3+  Sm60  1  0.86292022  -0.00764577  0.45083283  1
  Sm3+  Sm61  1  0.87956722  0.24811529  0.95034179  1
  Sm3+  Sm62  1  0.50860940  0.12563119  0.05946569  1
  Sm3+  Sm63  1  0.50927384  0.61756773  0.04334713  1
  Bi2+  Bi64  1  -0.01752040  0.14664344  0.30119377  1
  Bi2+  Bi65  1  -0.00427645  0.11934777  0.79995667  1
  Bi2+  Bi66  1  -0.00721755  0.40425153  0.27294974  1
  Bi2+  Bi67  1  -0.01188118  0.39185463  0.79903666  1
  Bi2+  Bi68  1  -0.01433022  0.60485561  0.26628394  1
  Bi2+  Bi69  1  0.12584005  0.62942624  0.80036443  1
  Bi2+  Bi70  1  0.00746308  0.87790886  0.30616785  1
  Bi2+  Bi71  1  0.05884692  0.93439048  0.82378490  1
  Bi2+  Bi72  1  0.31072381  0.21977783  0.30279991  1
  Bi2+  Bi73  1  0.29116329  0.08008608  0.74998181  1
  Bi2+  Bi74  1  0.17932532  0.37490643  0.30982300  1
  Bi2+  Bi75  1  0.25098214  0.33337044  0.78267954  1
  Bi2+  Bi76  1  0.26970332  0.58962036  0.28993988  1
  Bi2+  Bi77  1  0.30367188  0.55234069  0.81170766  1
  Bi2+  Bi78  1  0.26486974  0.86227345  0.30355050  1
  Bi2+  Bi79  1  0.26554521  0.88618671  0.79306838  1
  Bi2+  Bi80  1  0.49553659  0.12715133  0.25194539  1
  Bi2+  Bi81  1  0.48922279  0.08073123  0.78978565  1
  Bi2+  Bi82  1  0.46664201  0.39987975  0.28797093  1
  Bi2+  Bi83  1  0.47399383  0.33800180  0.78830143  1
  Bi2+  Bi84  1  0.54784493  0.66658982  0.27542930  1
  Bi2+  Bi85  1  0.44663926  0.68923435  0.79633517  1
  Bi2+  Bi86  1  0.50570857  0.86085331  0.27817030  1
  Bi2+  Bi87  1  0.46608900  0.87638687  0.83691237  1
  Bi2+  Bi88  1  0.75872651  0.13312924  0.29538927  1
  Bi2+  Bi89  1  0.76457565  0.15242246  0.81375499  1
  Bi2+  Bi90  1  0.74211143  0.38862659  0.29802707  1
  Bi2+  Bi91  1  0.72207014  0.39827502  0.76616832  1
  Bi2+  Bi92  1  0.79851754  0.63876980  0.29966081  1
  Bi2+  Bi93  1  0.71181381  0.71911952  0.76597061  1
  Bi2+  Bi94  1  0.73734283  0.90520708  0.30387090  1
  Bi2+  Bi95  1  0.77617820  0.96649913  0.78093568  1
  Bi2+  Bi96  1  0.10770820  0.02214866  0.22423919  1
  Bi2+  Bi97  1  0.10753352  -0.00724676  0.71493823  1
  Bi2+  Bi98  1  0.10779257  0.27337948  0.21621424  1
  Bi2+  Bi99  1  0.12583753  0.22437270  0.71266287  1
  Bi2+  Bi100  1  0.13509795  0.52529675  0.19459276  1
  Bi2+  Bi101  1  0.23663655  0.49310648  0.70968402  1
  Bi2+  Bi102  1  0.14667768  0.75100766  0.21255857  1
  Bi2+  Bi103  1  0.16361677  0.76291105  0.72229129  1
  Bi2+  Bi104  1  0.32007498  0.11698030  0.20437354  1
  Bi2+  Bi105  1  0.43788248  0.00099653  0.68910688  1
  Bi2+  Bi106  1  0.36699427  0.31093771  0.20017187  1
  Bi2+  Bi107  1  0.34033228  0.24248757  0.68659572  1
  Bi2+  Bi108  1  0.33520842  0.50447597  0.19817490  1
  Bi2+  Bi109  1  0.41906371  0.42203870  0.68715328  1
  Bi2+  Bi110  1  0.41039227  0.73659084  0.20425145  1
  Bi2+  Bi111  1  0.36458862  0.73398960  0.69927216  1
  Bi2+  Bi112  1  0.61897340  -0.02107660  0.21008080  1
  Bi2+  Bi113  1  0.70609023  0.01711703  0.68025162  1
  Bi2+  Bi114  1  0.61562169  0.26377632  0.20947540  1
  Bi2+  Bi115  1  0.61597398  0.17514700  0.72032027  1
  Bi2+  Bi116  1  0.61158143  0.53303677  0.19847558  1
  Bi2+  Bi117  1  0.61616542  0.54702594  0.69284926  1
  Bi2+  Bi118  1  0.70353232  0.73392787  0.21451237  1
  Bi2+  Bi119  1  0.53736647  0.83630787  0.73405214  1
  Bi2+  Bi120  1  0.87049855  -0.03631552  0.22269968  1
  Bi2+  Bi121  1  0.90627017  0.03077955  0.70142072  1
  Bi2+  Bi122  1  0.87054134  0.18098900  0.21024211  1
  Bi2+  Bi123  1  0.84552587  0.22885898  0.72553883  1
  Bi2+  Bi124  1  0.85538415  0.48837370  0.20749433  1
  Bi2+  Bi125  1  0.87463683  0.57016193  0.70832868  1
  Bi2+  Bi126  1  0.89855296  0.76190583  0.21017821  1
  Bi2+  Bi127  1  0.95510517  0.79145470  0.71924928  1
  S2-  S128  1  -0.00197739  -0.01300429  0.15043450  1
  S2-  S129  1  -0.02619554  0.22665931  0.65861217  1
  S2-  S130  1  -0.01942442  0.25905769  0.14850848  1
  S2-  S131  1  -0.02105657  0.44917314  0.69987675  1
  S2-  S132  1  -0.01022581  0.51689571  0.13716628  1
  S2-  S133  1  -0.01180166  0.66486817  0.65403468  1
  S2-  S134  1  0.02396248  0.74467773  0.14206648  1
  S2-  S135  1  0.11706256  0.87143356  0.63893672  1
  S2-  S136  1  0.16098554  0.13823787  0.15063127  1
  S2-  S137  1  0.14984737  0.10488103  0.63688378  1
  S2-  S138  1  0.15652696  0.37882417  0.14132220  1
  S2-  S139  1  0.15253010  0.36438516  0.65137661  1
  S2-  S140  1  0.25517357  0.70743738  0.14535273  1
  S2-  S141  1  0.23285201  0.64101311  0.65115063  1
  S2-  S142  1  0.19853884  0.90538028  0.18435446  1
  S2-  S143  1  0.34915649  0.87832457  0.63893233  1
  S2-  S144  1  0.55205038  0.12290444  0.15404054  1
  S2-  S145  1  0.48574324  0.16378518  0.64616728  1
  S2-  S146  1  0.58566470  0.38880514  0.14277650  1
  S2-  S147  1  0.57774234  0.38873792  0.64603020  1
  S2-  S148  1  0.50932866  0.62668595  0.14162803  1
  S2-  S149  1  0.49486688  0.63425974  0.65068366  1
  S2-  S150  1  0.40376629  0.87352698  0.15161415  1
  S2-  S151  1  0.61502748  0.87258896  0.64360505  1
  S2-  S152  1  0.75578090  0.00851601  0.14927376  1
  S2-  S153  1  0.72935776  0.22093481  0.64534417  1
  S2-  S154  1  0.74737238  0.25705863  0.14873275  1
  S2-  S155  1  0.76899276  0.45618689  0.66761311  1
  S2-  S156  1  0.74702842  0.53836406  0.13151278  1
  S2-  S157  1  0.73267556  0.66795904  0.66272294  1
  S2-  S158  1  0.62930095  0.84664250  0.14602924  1
  S2-  S159  1  0.87424590  0.85971688  0.64711586  1
  S2-  S160  1  0.15700118  -0.01264247  0.32747622  1
  S2-  S161  1  0.12795484  0.09255879  0.86460340  1
  S2-  S162  1  0.11318462  0.21535242  0.34758985  1
  S2-  S163  1  0.13742510  0.36782537  0.85389166  1
  S2-  S164  1  0.13225179  0.53162433  0.34722480  1
  S2-  S165  1  0.01121715  0.52696062  0.85310481  1
  S2-  S166  1  0.11708119  0.77001546  0.33840344  1
  S2-  S167  1  0.03853540  0.76226595  0.84910112  1
  S2-  S168  1  0.38868737  -0.04420799  0.33812558  1
  S2-  S169  1  0.36313900  0.01663819  0.85789317  1
  S2-  S170  1  0.45984246  0.25805286  0.35411689  1
  S2-  S171  1  0.36933303  0.25464019  0.84929923  1
  S2-  S172  1  0.37240945  0.48756457  0.34769729  1
  S2-  S173  1  0.46981912  0.47911913  0.84387459  1
  S2-  S174  1  0.34312584  0.72734182  0.34068125  1
  S2-  S175  1  0.26406247  0.77229698  0.86352722  1
  S2-  S176  1  0.64838319  0.04354259  0.34451587  1
  S2-  S177  1  0.62006412  0.10263634  0.86128540  1
  S2-  S178  1  0.66734949  0.26185682  0.33954426  1
  S2-  S179  1  0.62751632  0.33230871  0.84100581  1
  S2-  S180  1  0.60782385  0.46902009  0.33659149  1
  S2-  S181  1  0.65954347  0.55514008  0.79753021  1
  S2-  S182  1  0.61128182  0.83872657  0.36426488  1
  S2-  S183  1  0.70267356  0.78909195  0.85250859  1
  S2-  S184  1  0.95015117  0.00836903  0.36720275  1
  S2-  S185  1  0.88863293  -0.07848711  0.85457352  1
  S2-  S186  1  0.87513483  0.24835567  0.34968625  1
  S2-  S187  1  0.96338246  0.25208831  0.86269181  1
  S2-  S188  1  0.83339018  0.49792885  0.35724397  1
  S2-  S189  1  0.82814329  0.43703730  0.83348283  1
  S2-  S190  1  0.86275192  0.79330827  0.34552160  1
  S2-  S191  1  0.86756412  0.69195908  0.79160877  1
  S2-  S192  1  -0.01350179  0.12230453  0.46576084  1
  S2-  S193  1  0.00287664  0.12108733  0.96987612  1
  S2-  S194  1  -0.01152382  0.36518253  0.44829051  1
  S2-  S195  1  0.00660716  0.37150921  0.96235165  1
  S2-  S196  1  -0.01156795  0.61444170  0.45170267  1
  S2-  S197  1  -0.00368001  0.63112998  0.95584086  1
  S2-  S198  1  -0.01352122  0.86430012  0.46189028  1
  S2-  S199  1  0.00727148  0.87208890  0.96349834  1
  S2-  S200  1  0.23492645  0.11575306  0.44719490  1
  S2-  S201  1  0.26005688  0.12132034  0.96387754  1
  S2-  S202  1  0.23965832  0.36534999  0.45498599  1
  S2-  S203  1  0.25792289  0.36872386  0.95433637  1
  S2-  S204  1  0.23955783  0.61578215  0.45115239  1
  S2-  S205  1  0.25792302  0.61736051  0.95201399  1
  S2-  S206  1  0.23424688  0.86710456  0.45275227  1
  S2-  S207  1  0.25878655  0.87501049  0.96824002  1
  S2-  S208  1  0.48776289  0.11131144  0.44590701  1
  S2-  S209  1  0.50138532  0.11951853  0.95786430  1
  S2-  S210  1  0.48873409  0.36873967  0.45683919  1
  S2-  S211  1  0.50602861  0.36582969  0.94935474  1
  S2-  S212  1  0.48885985  0.61621548  0.44793302  1
  S2-  S213  1  0.50580627  0.62449485  0.93926710  1
  S2-  S214  1  0.48382761  0.86618992  0.46266749  1
  S2-  S215  1  0.50632188  0.87049342  0.96216150  1
  S2-  S216  1  0.73889104  0.11744895  0.45600202  1
  S2-  S217  1  0.75899413  0.12056213  0.96288187  1
  S2-  S218  1  0.73401710  0.36185944  0.45919980  1
  S2-  S219  1  0.75513596  0.36890141  0.94753933  1
  S2-  S220  1  0.73613876  0.61580234  0.45850165  1
  S2-  S221  1  0.75621419  0.61997170  0.93587492  1
  S2-  S222  1  0.74319792  0.86675441  0.46485981  1
  S2-  S223  1  0.75851729  0.86941882  0.96293042  1
  S2-  S224  1  0.13993874  -0.00731467  0.05470349  1
  S2-  S225  1  0.11179480  -0.01007952  0.53561909  1
  S2-  S226  1  0.13373961  0.24527091  0.04095097  1
  S2-  S227  1  0.11158659  0.24794283  0.54666423  1
  S2-  S228  1  0.13231674  0.50201449  0.03672084  1
  S2-  S229  1  0.11309916  0.49154334  0.54953311  1
  S2-  S230  1  0.13416045  0.74541852  0.04307312  1
  S2-  S231  1  0.11517821  0.74014806  0.54264275  1
  S2-  S232  1  0.38281786  0.00369636  0.05776853  1
  S2-  S233  1  0.35567015  -0.00461394  0.54078878  1
  S2-  S234  1  0.38062252  0.24814825  0.05272599  1
  S2-  S235  1  0.36054810  0.23843800  0.54082037  1
  S2-  S236  1  0.38186840  0.49573286  0.04110653  1
  S2-  S237  1  0.36406707  0.49417257  0.54951626  1
  S2-  S238  1  0.38509671  0.74173820  0.04037679  1
  S2-  S239  1  0.36101333  0.73958068  0.54380272  1
  S2-  S240  1  0.62725147  0.00031676  0.04586461  1
  S2-  S241  1  0.61435768  -0.00646751  0.54264218  1
  S2-  S242  1  0.63085796  0.24831859  0.04005737  1
  S2-  S243  1  0.60891811  0.23971104  0.53861078  1
  S2-  S244  1  0.63002166  0.49706207  0.02905391  1
  S2-  S245  1  0.61203953  0.49418359  0.54269659  1
  S2-  S246  1  0.63371537  0.73946701  0.04188942  1
  S2-  S247  1  0.61423856  0.73893885  0.54823316  1
  S2-  S248  1  0.88023421  0.00044849  0.05165103  1
  S2-  S249  1  0.86664397  -0.00390029  0.55275557  1
  S2-  S250  1  0.87442675  0.25733804  0.04979391  1
  S2-  S251  1  0.86770859  0.24790380  0.55174485  1
  S2-  S252  1  0.87835272  0.49420447  0.03609013  1
  S2-  S253  1  0.86739453  0.48733730  0.55703416  1
  S2-  S254  1  0.87161016  0.74529303  0.05796593  1
  S2-  S255  1  0.86267153  0.73864609  0.54681779  1
