# generated using pymatgen
data_La6Ce7Pr13Nd19Sm19(BiS2)64
_symmetry_space_group_name_H-M   'P 1'
_cell_length_a   16.05695316
_cell_length_b   16.08909503
_cell_length_c   27.33336343
_cell_angle_alpha   89.90885977
_cell_angle_beta   90.12948189
_cell_angle_gamma   90.13393296
_symmetry_Int_Tables_number   1
_chemical_formula_structural   La6Ce7Pr13Nd19Sm19(BiS2)64
_chemical_formula_sum   'La6 Ce7 Pr13 Nd19 Sm19 Bi64 S128'
_cell_volume   7061.30534789
_cell_formula_units_Z   1
loop_
 _symmetry_equiv_pos_site_id
 _symmetry_equiv_pos_as_xyz
  1  'x, y, z'
loop_
 _atom_type_symbol
 _atom_type_oxidation_number
  La3+  3.0
  Ce3+  3.0
  Pr3+  3.0
  Nd3+  3.0
  Sm3+  3.0
  Bi2+  2.0
  S2-  -2.0
loop_
 _atom_site_type_symbol
 _atom_site_label
 _atom_site_symmetry_multiplicity
 _atom_site_fract_x
 _atom_site_fract_y
 _atom_site_fract_z
 _atom_site_occupancy
  La3+  La0  1  0.00526391  0.38878212  0.60759479  1
  La3+  La1  1  0.49890853  0.11554943  0.11336280  1
  La3+  La2  1  0.00753044  0.11946277  0.60162239  1
  La3+  La3  1  0.25788892  0.87587025  0.57730496  1
  La3+  La4  1  0.48231803  0.37805402  0.08298549  1
  La3+  La5  1  0.11459966  0.00172026  0.92255453  1
  Ce3+  Ce6  1  0.00593613  0.87609091  0.56412287  1
  Ce3+  Ce7  1  0.23658524  0.62687999  0.04773072  1
  Ce3+  Ce8  1  0.74161151  0.87889291  0.06473161  1
  Ce3+  Ce9  1  0.61823667  0.00733558  0.94655599  1
  Ce3+  Ce10  1  0.50129281  0.37460081  0.56080359  1
  Ce3+  Ce11  1  0.23943348  0.88049876  0.05469636  1
  Ce3+  Ce12  1  0.48987789  0.62389683  0.06941267  1
  Pr3+  Pr13  1  0.48973578  0.87919627  0.06135027  1
  Pr3+  Pr14  1  0.11402858  0.49655550  0.92355142  1
  Pr3+  Pr15  1  0.85493715  0.25708294  0.90094010  1
  Pr3+  Pr16  1  0.13279389  0.76128624  0.42955744  1
  Pr3+  Pr17  1  0.64473564  0.26440996  0.41523364  1
  Pr3+  Pr18  1  0.22863263  0.37769268  0.06786441  1
  Pr3+  Pr19  1  0.74677424  0.36925657  0.58022559  1
  Pr3+  Pr20  1  0.87870530  0.49862875  0.44478568  1
  Pr3+  Pr21  1  0.37872775  0.00301171  0.43825164  1
  Pr3+  Pr22  1  0.63097847  0.00296045  0.42913056  1
  Pr3+  Pr23  1  0.61208264  0.50296534  0.93536365  1
  Pr3+  Pr24  1  0.51219080  0.89326324  0.58013078  1
  Pr3+  Pr25  1  0.88151454  0.75798141  0.43209817  1
  Nd3+  Nd26  1  0.12852536  0.00404767  0.44143207  1
  Nd3+  Nd27  1  0.62614673  0.50102175  0.44354610  1
  Nd3+  Nd28  1  0.75565838  0.87726488  0.56230507  1
  Nd3+  Nd29  1  0.62820987  0.75470467  0.44176732  1
  Nd3+  Nd30  1  0.36886129  0.00504654  0.93846402  1
  Nd3+  Nd31  1  0.36793550  0.25420355  0.42972560  1
  Nd3+  Nd32  1  0.25159616  0.62944399  0.56080430  1
  Nd3+  Nd33  1  0.86475613  0.75367970  0.94113106  1
  Nd3+  Nd34  1  0.75503864  0.62578928  0.55621317  1
  Nd3+  Nd35  1  0.50268588  0.62875143  0.55755335  1
  Nd3+  Nd36  1  0.61541339  0.25589568  0.94465065  1
  Nd3+  Nd37  1  0.73885281  0.37608908  0.05683839  1
  Nd3+  Nd38  1  0.36505092  0.25349990  0.95063167  1
  Nd3+  Nd39  1  0.86494603  0.52250674  0.89004523  1
  Nd3+  Nd40  1  -0.00775832  0.87872181  0.05891246  1
  Nd3+  Nd41  1  0.11463783  0.24870248  0.91638118  1
  Nd3+  Nd42  1  -0.00845396  0.62606992  0.05835983  1
  Nd3+  Nd43  1  0.75280407  0.13108093  0.55950336  1
  Nd3+  Nd44  1  0.00398620  0.62743617  0.55938719  1
  Sm3+  Sm45  1  0.61799632  0.75182856  0.95047269  1
  Sm3+  Sm46  1  -0.01294045  0.37610940  0.04035730  1
  Sm3+  Sm47  1  -0.00411835  0.13138507  0.05629580  1
  Sm3+  Sm48  1  0.36848369  0.75179990  0.94605271  1
  Sm3+  Sm49  1  0.86636737  0.00860033  0.94963929  1
  Sm3+  Sm50  1  0.74018926  0.13113220  0.06373482  1
  Sm3+  Sm51  1  0.50377069  0.13020935  0.54670505  1
  Sm3+  Sm52  1  0.25086863  0.37541078  0.55879048  1
  Sm3+  Sm53  1  0.88196741  0.25456210  0.45535502  1
  Sm3+  Sm54  1  0.87977240  0.00518184  0.45042531  1
  Sm3+  Sm55  1  0.11542049  0.75352951  0.93360360  1
  Sm3+  Sm56  1  0.12695938  0.25223706  0.44880284  1
  Sm3+  Sm57  1  0.37920100  0.75543087  0.44448229  1
  Sm3+  Sm58  1  0.74311659  0.62397339  0.05707633  1
  Sm3+  Sm59  1  0.23736373  0.12807230  0.06077503  1
  Sm3+  Sm60  1  0.37675371  0.50272418  0.44187140  1
  Sm3+  Sm61  1  0.12580513  0.50465770  0.44070422  1
  Sm3+  Sm62  1  0.25257363  0.12475110  0.57120554  1
  Sm3+  Sm63  1  0.36861345  0.50009096  0.94343693  1
  Bi2+  Bi64  1  0.01370163  0.11528317  0.30307842  1
  Bi2+  Bi65  1  0.00596053  0.10201043  0.78651103  1
  Bi2+  Bi66  1  -0.00429108  0.31534687  0.28484239  1
  Bi2+  Bi67  1  0.01920409  0.39031768  0.79001752  1
  Bi2+  Bi68  1  0.01907578  0.57578411  0.28495160  1
  Bi2+  Bi69  1  -0.01381259  0.67627358  0.77249308  1
  Bi2+  Bi70  1  0.00125446  0.84357978  0.30798259  1
  Bi2+  Bi71  1  -0.00894736  0.87374272  0.78062520  1
  Bi2+  Bi72  1  0.20837865  0.13520327  0.28176856  1
  Bi2+  Bi73  1  0.30595212  0.14215426  0.79058580  1
  Bi2+  Bi74  1  0.19692515  0.36329219  0.28832464  1
  Bi2+  Bi75  1  0.28735328  0.43515573  0.78607519  1
  Bi2+  Bi76  1  0.25617679  0.65301540  0.25052245  1
  Bi2+  Bi77  1  0.25493825  0.63094124  0.79116546  1
  Bi2+  Bi78  1  0.23434917  0.85016019  0.25597371  1
  Bi2+  Bi79  1  0.26984806  0.85360912  0.79682685  1
  Bi2+  Bi80  1  0.49585436  0.10048726  0.31951443  1
  Bi2+  Bi81  1  0.54379428  0.10001336  0.78015487  1
  Bi2+  Bi82  1  0.51261643  0.36835911  0.30268034  1
  Bi2+  Bi83  1  0.49729259  0.36118933  0.80638251  1
  Bi2+  Bi84  1  0.49436052  0.59101219  0.28316205  1
  Bi2+  Bi85  1  0.47422723  0.63210095  0.79112851  1
  Bi2+  Bi86  1  0.45914576  0.83973029  0.30606172  1
  Bi2+  Bi87  1  0.50928191  0.83000072  0.74270299  1
  Bi2+  Bi88  1  0.81395210  0.14015806  0.28831778  1
  Bi2+  Bi89  1  0.74943022  0.10804824  0.79812623  1
  Bi2+  Bi90  1  0.79379510  0.39527418  0.29764384  1
  Bi2+  Bi91  1  0.69667162  0.37805490  0.78302110  1
  Bi2+  Bi92  1  0.76677523  0.59704965  0.24794284  1
  Bi2+  Bi93  1  0.72489770  0.64864575  0.78785877  1
  Bi2+  Bi94  1  0.75627195  0.86335902  0.30757213  1
  Bi2+  Bi95  1  0.67715420  0.84731173  0.80283230  1
  Bi2+  Bi96  1  0.10194900  0.01514215  0.21633462  1
  Bi2+  Bi97  1  0.15091372  0.00572281  0.71367395  1
  Bi2+  Bi98  1  0.12469265  0.25899317  0.19601492  1
  Bi2+  Bi99  1  0.17973180  0.26767339  0.72616679  1
  Bi2+  Bi100  1  0.13133634  0.49322302  0.20031241  1
  Bi2+  Bi101  1  0.17111744  0.52694771  0.70621028  1
  Bi2+  Bi102  1  0.11595171  0.75693253  0.18430017  1
  Bi2+  Bi103  1  0.14059696  0.78600629  0.72159949  1
  Bi2+  Bi104  1  0.35862489  -0.01484362  0.21167418  1
  Bi2+  Bi105  1  0.41243804  -0.00340640  0.71232338  1
  Bi2+  Bi106  1  0.36892206  0.24131082  0.21344924  1
  Bi2+  Bi107  1  0.36577163  0.23884655  0.69147127  1
  Bi2+  Bi108  1  0.34379112  0.47636353  0.23511972  1
  Bi2+  Bi109  1  0.37434606  0.43647044  0.67817629  1
  Bi2+  Bi110  1  0.42565219  0.73062979  0.20602598  1
  Bi2+  Bi111  1  0.35688707  0.63390287  0.68923498  1
  Bi2+  Bi112  1  0.63524490  -0.02411043  0.21873364  1
  Bi2+  Bi113  1  0.66460593  0.04941271  0.69232338  1
  Bi2+  Bi114  1  0.66486359  0.25130431  0.21337778  1
  Bi2+  Bi115  1  0.56008850  0.25842961  0.71272277  1
  Bi2+  Bi116  1  0.61858285  0.48314594  0.21578111  1
  Bi2+  Bi117  1  0.55784067  0.49045484  0.72181560  1
  Bi2+  Bi118  1  0.61387264  0.73202949  0.23721567  1
  Bi2+  Bi119  1  0.66645847  0.73680892  0.69338202  1
  Bi2+  Bi120  1  0.89922659  0.01296662  0.21870380  1
  Bi2+  Bi121  1  0.81344452  -0.06299024  0.73699164  1
  Bi2+  Bi122  1  0.91401912  0.20546344  0.19732359  1
  Bi2+  Bi123  1  0.84552500  0.24835589  0.71458666  1
  Bi2+  Bi124  1  0.91383882  0.46003879  0.21682201  1
  Bi2+  Bi125  1  0.87579807  0.54804602  0.71144394  1
  Bi2+  Bi126  1  0.86588878  0.77075250  0.19234268  1
  Bi2+  Bi127  1  0.88909325  0.77711449  0.68859742  1
  S2-  S128  1  0.10813187  0.12056776  0.13169806  1
  S2-  S129  1  -0.08187080  0.11058449  0.69131618  1
  S2-  S130  1  0.07568518  0.38369435  0.12698959  1
  S2-  S131  1  0.01171285  0.30088532  0.69891702  1
  S2-  S132  1  -0.01976262  0.66800230  0.15647376  1
  S2-  S133  1  0.02087111  0.55500552  0.65044006  1
  S2-  S134  1  -0.01225451  0.88814332  0.15833209  1
  S2-  S135  1  0.03831330  0.95111535  0.64869467  1
  S2-  S136  1  0.32757365  0.11673195  0.14856756  1
  S2-  S137  1  0.15237108  0.15146095  0.65569557  1
  S2-  S138  1  0.32979175  0.37741990  0.15374253  1
  S2-  S139  1  0.17556404  0.38842374  0.64660138  1
  S2-  S140  1  0.21202896  0.62007346  0.14386571  1
  S2-  S141  1  0.22781211  0.73431227  0.64076896  1
  S2-  S142  1  0.24343819  0.88109784  0.15217240  1
  S2-  S143  1  0.27436022  1.00311570  0.64694935  1
  S2-  S144  1  0.47866654  0.10531210  0.22438715  1
  S2-  S145  1  0.51581776  0.05643979  0.63519137  1
  S2-  S146  1  0.51310369  0.27268356  0.16348912  1
  S2-  S147  1  0.60077668  0.38386436  0.64165353  1
  S2-  S148  1  0.50517412  0.52241051  0.14661575  1
  S2-  S149  1  0.52646460  0.63745604  0.65554621  1
  S2-  S150  1  0.49944083  0.94445233  0.15437140  1
  S2-  S151  1  0.41269082  0.85033525  0.65912835  1
  S2-  S152  1  0.67034009  0.11018024  0.15459752  1
  S2-  S153  1  0.73147494  0.21075890  0.64641960  1
  S2-  S154  1  0.72142934  0.37108204  0.15756642  1
  S2-  S155  1  0.84775058  0.40026725  0.66113219  1
  S2-  S156  1  0.75481452  0.65679798  0.15322096  1
  S2-  S157  1  0.75228872  0.59538747  0.65420349  1
  S2-  S158  1  0.73534024  0.88843771  0.16374350  1
  S2-  S159  1  0.65604080  0.89273609  0.64241498  1
  S2-  S160  1  0.12894978  -0.09820401  0.36008596  1
  S2-  S161  1  0.14306868  0.11179644  0.84499094  1
  S2-  S162  1  0.21709012  0.23936381  0.36499641  1
  S2-  S163  1  0.15968781  0.37703301  0.84978363  1
  S2-  S164  1  0.13713004  0.49402852  0.34296915  1
  S2-  S165  1  0.02070261  0.53806881  0.83890105  1
  S2-  S166  1  0.07174159  0.70488611  0.33941593  1
  S2-  S167  1  0.11651714  0.86045253  0.85571970  1
  S2-  S168  1  0.37125610  -0.01683864  0.33783179  1
  S2-  S169  1  0.34559895  -0.01226919  0.83963995  1
  S2-  S170  1  0.41181463  0.25009458  0.33151004  1
  S2-  S171  1  0.37457227  0.25830438  0.84929848  1
  S2-  S172  1  0.39419958  0.48472276  0.34519123  1
  S2-  S173  1  0.47419491  0.50798331  0.86539832  1
  S2-  S174  1  0.34541104  0.74818485  0.34882274  1
  S2-  S175  1  0.37264841  0.74915662  0.84811581  1
  S2-  S176  1  0.63978968  -0.00375370  0.32710915  1
  S2-  S177  1  0.60584115  -0.00928053  0.84978535  1
  S2-  S178  1  0.61370724  0.22489353  0.31484062  1
  S2-  S179  1  0.69442372  0.24057154  0.85424712  1
  S2-  S180  1  0.65047245  0.41983999  0.35864540  1
  S2-  S181  1  0.70297015  0.51108060  0.84778745  1
  S2-  S182  1  0.61760069  0.76729437  0.34343111  1
  S2-  S183  1  0.59944911  0.71212918  0.85621750  1
  S2-  S184  1  0.88021362  -0.05432070  0.35824447  1
  S2-  S185  1  0.88387698  0.03427482  0.85337213  1
  S2-  S186  1  0.81152698  0.25852802  0.36490011  1
  S2-  S187  1  0.99219992  0.23811524  0.83851166  1
  S2-  S188  1  0.88244523  0.51425869  0.34537573  1
  S2-  S189  1  0.85759726  0.38566371  0.82522772  1
  S2-  S190  1  0.85605639  0.74320921  0.33180280  1
  S2-  S191  1  0.85863900  0.68769210  0.84949672  1
  S2-  S192  1  0.00277745  0.12878602  0.44901539  1
  S2-  S193  1  -0.01383713  0.13243903  0.95322788  1
  S2-  S194  1  0.00647671  0.37524202  0.44568628  1
  S2-  S195  1  -0.02111055  0.37982419  0.93977535  1
  S2-  S196  1  0.00306754  0.62844384  0.45318232  1
  S2-  S197  1  -0.00929141  0.63074227  0.95105279  1
  S2-  S198  1  0.00186989  0.88053112  0.46023530  1
  S2-  S199  1  -0.01356084  0.87869910  0.95285069  1
  S2-  S200  1  0.25327302  0.12534234  0.46244679  1
  S2-  S201  1  0.24266494  0.12638222  0.95442201  1
  S2-  S202  1  0.25057717  0.38274672  0.45507315  1
  S2-  S203  1  0.24470904  0.38076454  0.95847754  1
  S2-  S204  1  0.25371098  0.62772624  0.45265904  1
  S2-  S205  1  0.24148629  0.62807573  0.94183248  1
  S2-  S206  1  0.25808820  0.87859457  0.46172226  1
  S2-  S207  1  0.24515618  0.87505680  0.95117349  1
  S2-  S208  1  0.50593995  0.13349315  0.44219230  1
  S2-  S209  1  0.49232620  0.12983709  0.94558122  1
  S2-  S210  1  0.49806637  0.37635961  0.45320445  1
  S2-  S211  1  0.49002839  0.37692728  0.96599414  1
  S2-  S212  1  0.50180337  0.62752922  0.44999854  1
  S2-  S213  1  0.49050961  0.63146424  0.96415531  1
  S2-  S214  1  0.50462022  0.87863439  0.45290688  1
  S2-  S215  1  0.49298905  0.87502536  0.95400128  1
  S2-  S216  1  0.75590783  0.12706314  0.45327202  1
  S2-  S217  1  0.74571643  0.13183988  0.95955296  1
  S2-  S218  1  0.75558934  0.37685508  0.46831690  1
  S2-  S219  1  0.74439757  0.37826504  0.95235699  1
  S2-  S220  1  0.75280921  0.62832174  0.44896319  1
  S2-  S221  1  0.74272878  0.62678716  0.95470308  1
  S2-  S222  1  0.75411222  0.87898017  0.45650985  1
  S2-  S223  1  0.74254092  0.87936731  0.95646533  1
  S2-  S224  1  0.11369946  0.00033221  0.03414216  1
  S2-  S225  1  0.12812948  0.00563042  0.54535512  1
  S2-  S226  1  0.11250230  0.25243354  0.02876797  1
  S2-  S227  1  0.12612656  0.25224990  0.55024202  1
  S2-  S228  1  0.11008973  0.50526289  0.03095888  1
  S2-  S229  1  0.12878765  0.50274785  0.54403555  1
  S2-  S230  1  0.11376298  0.75439318  0.03841678  1
  S2-  S231  1  0.12535270  0.75308491  0.53897747  1
  S2-  S232  1  0.36644287  0.00427183  0.04461938  1
  S2-  S233  1  0.38114436  0.00468473  0.54293613  1
  S2-  S234  1  0.35875417  0.25251374  0.05288241  1
  S2-  S235  1  0.37453231  0.25023683  0.54305761  1
  S2-  S236  1  0.36037585  0.50459984  0.04661391  1
  S2-  S237  1  0.37539403  0.50332702  0.54629892  1
  S2-  S238  1  0.36430980  0.75189996  0.05118700  1
  S2-  S239  1  0.38304865  0.75367212  0.54722175  1
  S2-  S240  1  0.61682486  0.00505045  0.05000260  1
  S2-  S241  1  0.63251707  0.00787493  0.53511702  1
  S2-  S242  1  0.61461795  0.24929964  0.04983834  1
  S2-  S243  1  0.62471648  0.25084280  0.53656723  1
  S2-  S244  1  0.61934538  0.50359308  0.04469411  1
  S2-  S245  1  0.62721134  0.50457102  0.54668747  1
  S2-  S246  1  0.61741200  0.75044354  0.05567795  1
  S2-  S247  1  0.62854972  0.75270307  0.54644585  1
  S2-  S248  1  0.86778642  0.00774367  0.05471129  1
  S2-  S249  1  0.87876087  0.00538935  0.55536215  1
  S2-  S250  1  0.86829742  0.25204588  0.05643270  1
  S2-  S251  1  0.89100049  0.24902833  0.55837734  1
  S2-  S252  1  0.86760269  0.50090027  0.05621813  1
  S2-  S253  1  0.88096974  0.50057964  0.55008872  1
  S2-  S254  1  0.86578251  0.75264626  0.04662391  1
  S2-  S255  1  0.87815527  0.75223376  0.54336311  1
