# generated using pymatgen
data_La6Ce7Pr13Nd19Sm19(BiS2)64
_symmetry_space_group_name_H-M   'P 1'
_cell_length_a   16.09386009
_cell_length_b   16.03128270
_cell_length_c   27.42903882
_cell_angle_alpha   90.11513660
_cell_angle_beta   90.22979988
_cell_angle_gamma   90.08388764
_symmetry_Int_Tables_number   1
_chemical_formula_structural   La6Ce7Pr13Nd19Sm19(BiS2)64
_chemical_formula_sum   'La6 Ce7 Pr13 Nd19 Sm19 Bi64 S128'
_cell_volume   7076.75634024
_cell_formula_units_Z   1
loop_
 _symmetry_equiv_pos_site_id
 _symmetry_equiv_pos_as_xyz
  1  'x, y, z'
loop_
 _atom_type_symbol
 _atom_type_oxidation_number
  La3+  3.0
  Ce3+  3.0
  Pr3+  3.0
  Nd3+  3.0
  Sm3+  3.0
  Bi2+  2.0
  S2-  -2.0
loop_
 _atom_site_type_symbol
 _atom_site_label
 _atom_site_symmetry_multiplicity
 _atom_site_fract_x
 _atom_site_fract_y
 _atom_site_fract_z
 _atom_site_occupancy
  La3+  La0  1  0.85742923  0.47786963  0.41453090  1
  La3+  La1  1  0.87620227  0.50545247  0.92422413  1
  La3+  La2  1  0.62358664  0.51284872  0.92025596  1
  La3+  La3  1  0.23952257  0.11819052  0.55929773  1
  La3+  La4  1  0.25579966  0.63981621  0.09304139  1
  La3+  La5  1  0.75257174  0.10403315  0.60133332  1
  Ce3+  Ce6  1  0.75696572  0.87431721  0.06408579  1
  Ce3+  Ce7  1  0.11249572  -0.01549568  0.43679519  1
  Ce3+  Ce8  1  0.00313344  0.38384271  0.06884975  1
  Ce3+  Ce9  1  -0.01103871  0.85919813  0.54778555  1
  Ce3+  Ce10  1  0.48821574  0.60922739  0.55447181  1
  Ce3+  Ce11  1  0.49180025  0.35195192  0.56979057  1
  Ce3+  Ce12  1  0.74044093  0.60986173  0.56015748  1
  Pr3+  Pr13  1  0.48849487  0.86230871  0.55836987  1
  Pr3+  Pr14  1  0.37758212  0.50877522  0.92844593  1
  Pr3+  Pr15  1  0.50202710  0.37584712  0.05978823  1
  Pr3+  Pr16  1  0.61437091  0.73460087  0.43809568  1
  Pr3+  Pr17  1  0.38046711  -0.00085850  0.92989548  1
  Pr3+  Pr18  1  0.10852164  0.72888831  0.40969645  1
  Pr3+  Pr19  1  0.23891139  0.36563558  0.55947748  1
  Pr3+  Pr20  1  0.36870418  0.22828190  0.43299533  1
  Pr3+  Pr21  1  0.25534362  0.88694872  0.06771293  1
  Pr3+  Pr22  1  0.50463209  0.13196693  0.06608400  1
  Pr3+  Pr23  1  0.85651954  0.73527482  0.42700149  1
  Pr3+  Pr24  1  0.37561779  0.25331036  0.93712198  1
  Pr3+  Pr25  1  0.36608514  0.47479969  0.43051875  1
  Nd3+  Nd26  1  0.87729958  0.75206465  0.93656886  1
  Nd3+  Nd27  1  0.62585353  0.25226826  0.93024706  1
  Nd3+  Nd28  1  0.00271645  0.86904326  0.06982949  1
  Nd3+  Nd29  1  0.11118024  0.23853706  0.43017630  1
  Nd3+  Nd30  1  0.37605628  0.75287390  0.93952112  1
  Nd3+  Nd31  1  0.75789821  0.13060617  0.05469245  1
  Nd3+  Nd32  1  0.11469406  0.48182711  0.43034169  1
  Nd3+  Nd33  1  0.23858020  0.86111299  0.55061101  1
  Nd3+  Nd34  1  0.12844086  0.75268598  0.94511757  1
  Nd3+  Nd35  1  -0.01808582  0.36175522  0.55841894  1
  Nd3+  Nd36  1  0.88386794  0.26072006  0.92764542  1
  Nd3+  Nd37  1  0.87890325  0.00264678  0.94214787  1
  Nd3+  Nd38  1  0.23784724  0.61393843  0.55301697  1
  Nd3+  Nd39  1  0.75454579  0.61629882  0.06574322  1
  Nd3+  Nd40  1  0.50441721  0.87612524  0.06034232  1
  Nd3+  Nd41  1  0.50328522  0.61797736  0.06784321  1
  Nd3+  Nd42  1  0.12918418  0.50658229  0.95034196  1
  Nd3+  Nd43  1  0.73421257  0.36874030  0.57694050  1
  Nd3+  Nd44  1  0.00194117  0.13059825  0.05710989  1
  Sm3+  Sm45  1  0.25552724  0.38269864  0.05985718  1
  Sm3+  Sm46  1  0.36396447  -0.01453030  0.43302032  1
  Sm3+  Sm47  1  0.36309572  0.73224685  0.43617673  1
  Sm3+  Sm48  1  0.75257626  0.38027848  0.04873898  1
  Sm3+  Sm49  1  0.85945054  0.23503439  0.44440419  1
  Sm3+  Sm50  1  0.13048433  0.25449310  0.95068905  1
  Sm3+  Sm51  1  -0.01351482  0.11102950  0.55338318  1
  Sm3+  Sm52  1  0.12596972  0.00298629  0.94573648  1
  Sm3+  Sm53  1  0.86350859  -0.01287388  0.43584100  1
  Sm3+  Sm54  1  -0.01242904  0.60951396  0.54538561  1
  Sm3+  Sm55  1  0.74266802  0.86124655  0.55988135  1
  Sm3+  Sm56  1  -0.00023707  0.62452489  0.06932939  1
  Sm3+  Sm57  1  0.49166822  0.11017164  0.56309960  1
  Sm3+  Sm58  1  0.63107525  0.00494886  0.94797754  1
  Sm3+  Sm59  1  0.62822733  0.75007044  0.94921388  1
  Sm3+  Sm60  1  0.61866938  0.23360827  0.45372769  1
  Sm3+  Sm61  1  0.25263036  0.12548767  0.05993753  1
  Sm3+  Sm62  1  0.61622426  0.47934027  0.44044074  1
  Sm3+  Sm63  1  0.61612547  -0.01401859  0.44841024  1
  Bi2+  Bi64  1  0.03063098  0.17120871  0.31183472  1
  Bi2+  Bi65  1  -0.03273245  0.07360595  0.79471518  1
  Bi2+  Bi66  1  -0.02656769  0.35980453  0.28533870  1
  Bi2+  Bi67  1  0.03957380  0.44015647  0.78142921  1
  Bi2+  Bi68  1  0.02504583  0.64507643  0.27665413  1
  Bi2+  Bi69  1  0.00909719  0.67711985  0.78136080  1
  Bi2+  Bi70  1  -0.00651057  0.98447900  0.28944005  1
  Bi2+  Bi71  1  -0.00514368  0.87114546  0.80698316  1
  Bi2+  Bi72  1  0.22723912  0.18804521  0.28049360  1
  Bi2+  Bi73  1  0.25786230  0.03371101  0.79800284  1
  Bi2+  Bi74  1  0.25306535  0.39540439  0.29392002  1
  Bi2+  Bi75  1  0.26175268  0.34445184  0.81728584  1
  Bi2+  Bi76  1  0.25314168  0.64855195  0.28660158  1
  Bi2+  Bi77  1  0.24931339  0.61178312  0.79656176  1
  Bi2+  Bi78  1  0.30012175  0.99936316  0.28833129  1
  Bi2+  Bi79  1  0.27360747  0.84087345  0.77827182  1
  Bi2+  Bi80  1  0.48059658  0.24347328  0.29481552  1
  Bi2+  Bi81  1  0.44863146  0.05330548  0.76028151  1
  Bi2+  Bi82  1  0.52090530  0.44934123  0.28051177  1
  Bi2+  Bi83  1  0.44440191  0.36772221  0.77294743  1
  Bi2+  Bi84  1  0.54156037  0.64766118  0.29471004  1
  Bi2+  Bi85  1  0.50433303  0.61371488  0.78849480  1
  Bi2+  Bi86  1  0.45555590  0.89261341  0.30415812  1
  Bi2+  Bi87  1  0.51948696  0.87852430  0.79631795  1
  Bi2+  Bi88  1  0.83330388  0.12288156  0.30852605  1
  Bi2+  Bi89  1  0.70847553  0.11214916  0.80139919  1
  Bi2+  Bi90  1  0.71730045  0.36603705  0.29704430  1
  Bi2+  Bi91  1  0.79854402  0.35628155  0.78942372  1
  Bi2+  Bi92  1  0.78467006  0.63647264  0.29882300  1
  Bi2+  Bi93  1  0.75582632  0.62491181  0.79375487  1
  Bi2+  Bi94  1  0.70232341  0.89045187  0.28487654  1
  Bi2+  Bi95  1  0.79489329  0.83945494  0.81016832  1
  Bi2+  Bi96  1  0.13549380  0.06396871  0.19735192  1
  Bi2+  Bi97  1  0.11092785  0.05435063  0.71826332  1
  Bi2+  Bi98  1  0.09957997  0.26006990  0.19997482  1
  Bi2+  Bi99  1  0.10154006  0.25047863  0.75651416  1
  Bi2+  Bi100  1  0.13367872  0.45347288  0.20712905  1
  Bi2+  Bi101  1  0.12933677  0.56618971  0.70926245  1
  Bi2+  Bi102  1  0.12724361  0.82187185  0.20880155  1
  Bi2+  Bi103  1  0.11055311  0.83840041  0.71334775  1
  Bi2+  Bi104  1  0.47439992  0.02497767  0.21072637  1
  Bi2+  Bi105  1  0.35500216  -0.07349602  0.68535083  1
  Bi2+  Bi106  1  0.37733084  0.19245868  0.20133454  1
  Bi2+  Bi107  1  0.33057249  0.18965187  0.70726152  1
  Bi2+  Bi108  1  0.38982603  0.49066748  0.20256390  1
  Bi2+  Bi109  1  0.29633578  0.44073850  0.71422578  1
  Bi2+  Bi110  1  0.42300572  0.75572620  0.22256276  1
  Bi2+  Bi111  1  0.38227882  0.70437292  0.69308043  1
  Bi2+  Bi112  1  0.63973962  0.07777325  0.26606657  1
  Bi2+  Bi113  1  0.61861949  -0.02232016  0.71439764  1
  Bi2+  Bi114  1  0.63282255  0.26338924  0.21165093  1
  Bi2+  Bi115  1  0.58069206  0.25410809  0.72194707  1
  Bi2+  Bi116  1  0.63564854  0.55189239  0.20700231  1
  Bi2+  Bi117  1  0.60865040  0.51181395  0.71331719  1
  Bi2+  Bi118  1  0.62183026  0.76282452  0.21439641  1
  Bi2+  Bi119  1  0.65256642  0.77705582  0.73362199  1
  Bi2+  Bi120  1  0.85317825  0.06204293  0.20246301  1
  Bi2+  Bi121  1  0.88927052  -0.03553672  0.70989080  1
  Bi2+  Bi122  1  0.83065304  0.28089628  0.21710975  1
  Bi2+  Bi123  1  0.93329175  0.25116520  0.70317555  1
  Bi2+  Bi124  1  0.85248008  0.52868734  0.20285368  1
  Bi2+  Bi125  1  0.90271288  0.49320398  0.68598436  1
  Bi2+  Bi126  1  0.88355490  0.80222265  0.20208961  1
  Bi2+  Bi127  1  0.84669863  0.74315058  0.71523678  1
  S2-  S128  1  -0.01964870  0.15499998  0.15374256  1
  S2-  S129  1  -0.08321147  0.10641090  0.64321247  1
  S2-  S130  1  -0.01507702  0.49896362  0.14325354  1
  S2-  S131  1  0.02385740  0.37644621  0.65424506  1
  S2-  S132  1  0.01169140  0.73376044  0.14729116  1
  S2-  S133  1  -0.00821595  0.61034639  0.64399882  1
  S2-  S134  1  0.02489472  0.93465672  0.16213303  1
  S2-  S135  1  -0.01912842  0.86417508  0.64517543  1
  S2-  S136  1  0.26225113  0.02443746  0.13932512  1
  S2-  S137  1  0.24344520  0.05898784  0.65313550  1
  S2-  S138  1  0.28650333  0.38708659  0.15635920  1
  S2-  S139  1  0.25503848  0.29463321  0.65055098  1
  S2-  S140  1  0.19114846  0.60178539  0.19016838  1
  S2-  S141  1  0.27518646  0.57473122  0.64714507  1
  S2-  S142  1  0.25265625  0.79545851  0.15329680  1
  S2-  S143  1  0.23894243  0.80167501  0.64316449  1
  S2-  S144  1  0.50386051  0.25489404  0.13836383  1
  S2-  S145  1  0.46966522  0.19944615  0.64587589  1
  S2-  S146  1  0.52537935  0.48399710  0.13844088  1
  S2-  S147  1  0.59622996  0.37644092  0.64774853  1
  S2-  S148  1  0.40327263  0.64037786  0.14961639  1
  S2-  S149  1  0.49989062  0.59581472  0.65268454  1
  S2-  S150  1  0.51267488  0.87375266  0.15905826  1
  S2-  S151  1  0.48176970  0.81773498  0.65522947  1
  S2-  S152  1  0.73523851  0.15461276  0.15074921  1
  S2-  S153  1  0.69599074  0.14760306  0.69670515  1
  S2-  S154  1  0.75282620  0.47007539  0.13347048  1
  S2-  S155  1  0.81146518  0.33883774  0.66592982  1
  S2-  S156  1  0.80398205  0.68644081  0.15660284  1
  S2-  S157  1  0.74311760  0.54724105  0.65124907  1
  S2-  S158  1  0.78276154  0.91562829  0.15821445  1
  S2-  S159  1  0.74854372  0.94324660  0.64631506  1
  S2-  S160  1  0.14304504  -0.01248631  0.34155039  1
  S2-  S161  1  0.11064859  -0.01157735  0.84915801  1
  S2-  S162  1  0.11356881  0.35988711  0.35640923  1
  S2-  S163  1  0.14332282  0.23539560  0.85471524  1
  S2-  S164  1  0.12267290  0.58499101  0.34858108  1
  S2-  S165  1  0.16121133  0.48906179  0.85280067  1
  S2-  S166  1  0.13174143  0.77444461  0.31047155  1
  S2-  S167  1  0.14224860  0.72377199  0.84699252  1
  S2-  S168  1  0.37750197  0.09824588  0.35971824  1
  S2-  S169  1  0.37940769  -0.13106664  0.86116126  1
  S2-  S170  1  0.37130157  0.34071815  0.35672033  1
  S2-  S171  1  0.38876757  0.23247750  0.83845399  1
  S2-  S172  1  0.33289080  0.53686033  0.33581515  1
  S2-  S173  1  0.49605749  0.47747482  0.85008083  1
  S2-  S174  1  0.34975210  0.76372685  0.34105280  1
  S2-  S175  1  0.37489703  0.64336991  0.85683657  1
  S2-  S176  1  0.59667537  -0.02467225  0.35139454  1
  S2-  S177  1  0.59353688  0.01700684  0.85345205  1
  S2-  S178  1  0.61374190  0.25540843  0.35605237  1
  S2-  S179  1  0.63109192  0.25272812  0.82958230  1
  S2-  S180  1  0.70758414  0.50302901  0.35797729  1
  S2-  S181  1  0.73893045  0.47780618  0.84401995  1
  S2-  S182  1  0.71783928  0.74718672  0.35769435  1
  S2-  S183  1  0.62074982  0.67295992  0.86025769  1
  S2-  S184  1  0.84437358  -0.05518207  0.34135557  1
  S2-  S185  1  0.82803732  0.00462020  0.84729233  1
  S2-  S186  1  0.85333266  0.32269902  0.36032649  1
  S2-  S187  1  0.84360242  0.21497364  0.83179508  1
  S2-  S188  1  0.92170322  0.51737935  0.31807783  1
  S2-  S189  1  0.92956080  0.38827659  0.85367301  1
  S2-  S190  1  0.92739737  0.72924091  0.33334728  1
  S2-  S191  1  0.89478695  0.64195529  0.85851894  1
  S2-  S192  1  -0.01366878  0.11222367  0.44900066  1
  S2-  S193  1  0.00323386  0.13054324  0.95096786  1
  S2-  S194  1  -0.01433395  0.35954581  0.45428807  1
  S2-  S195  1  0.01024735  0.37656388  0.96277080  1
  S2-  S196  1  -0.01686861  0.60649434  0.44309793  1
  S2-  S197  1  0.00529272  0.62915162  0.96229121  1
  S2-  S198  1  -0.01207938  0.85888563  0.44180565  1
  S2-  S199  1  0.00186946  0.87737633  0.95820294  1
  S2-  S200  1  0.23421551  0.11070574  0.45160937  1
  S2-  S201  1  0.25225744  0.12336868  0.95522386  1
  S2-  S202  1  0.23899621  0.35568471  0.45568695  1
  S2-  S203  1  0.25378053  0.37977166  0.95621833  1
  S2-  S204  1  0.24211776  0.60947962  0.44892115  1
  S2-  S205  1  0.25207507  0.63038645  0.95978113  1
  S2-  S206  1  0.24077658  0.85877196  0.44398463  1
  S2-  S207  1  0.24928369  0.88274478  0.95893142  1
  S2-  S208  1  0.49538352  0.10756774  0.45982741  1
  S2-  S209  1  0.50301914  0.12704565  0.95652348  1
  S2-  S210  1  0.49614975  0.35646113  0.46050125  1
  S2-  S211  1  0.50155894  0.37454043  0.95222739  1
  S2-  S212  1  0.49014981  0.60690525  0.44578509  1
  S2-  S213  1  0.50042887  0.63259775  0.96192372  1
  S2-  S214  1  0.48784274  0.86147632  0.45183726  1
  S2-  S215  1  0.51064081  0.87923975  0.95636834  1
  S2-  S216  1  0.73936126  0.10820378  0.44764608  1
  S2-  S217  1  0.75502366  0.13130808  0.94996899  1
  S2-  S218  1  0.73714604  0.35946827  0.46489614  1
  S2-  S219  1  0.75134549  0.37361588  0.94728857  1
  S2-  S220  1  0.73794018  0.60832839  0.45730444  1
  S2-  S221  1  0.75368066  0.63119148  0.95874873  1
  S2-  S222  1  0.73914184  0.86539804  0.45733547  1
  S2-  S223  1  0.75169649  0.87704870  0.95671841  1
  S2-  S224  1  0.12180676  0.00450052  0.04725268  1
  S2-  S225  1  0.11272157  -0.01244057  0.54419768  1
  S2-  S226  1  0.13204505  0.25418310  0.05479780  1
  S2-  S227  1  0.10918420  0.23745683  0.54227506  1
  S2-  S228  1  0.13491774  0.50858707  0.05489931  1
  S2-  S229  1  0.11303059  0.48751187  0.54011400  1
  S2-  S230  1  0.13060362  0.75194553  0.04900485  1
  S2-  S231  1  0.11295893  0.73418011  0.53412456  1
  S2-  S232  1  0.38522491  0.00643366  0.03928305  1
  S2-  S233  1  0.36498236  -0.01144133  0.53897169  1
  S2-  S234  1  0.37044317  0.25091490  0.04349105  1
  S2-  S235  1  0.36805505  0.23498389  0.53950698  1
  S2-  S236  1  0.37390063  0.50380430  0.04176993  1
  S2-  S237  1  0.36743594  0.48254977  0.54070818  1
  S2-  S238  1  0.37814374  0.75749514  0.04489600  1
  S2-  S239  1  0.36478659  0.73633380  0.54006830  1
  S2-  S240  1  0.63024345  0.00512619  0.05317439  1
  S2-  S241  1  0.61742266  -0.01188864  0.55225514  1
  S2-  S242  1  0.63274006  0.25383075  0.03816543  1
  S2-  S243  1  0.62565684  0.22400701  0.55650461  1
  S2-  S244  1  0.62877980  0.50137526  0.03141637  1
  S2-  S245  1  0.61249122  0.48734488  0.54310582  1
  S2-  S246  1  0.62917481  0.74825748  0.05394226  1
  S2-  S247  1  0.61632210  0.73854993  0.54636270  1
  S2-  S248  1  0.88107638  0.00238716  0.04782070  1
  S2-  S249  1  0.86336079  -0.01337421  0.53998888  1
  S2-  S250  1  0.87911203  0.25863147  0.04274646  1
  S2-  S251  1  0.85998728  0.23340371  0.54735054  1
  S2-  S252  1  0.88052159  0.50108174  0.03502129  1
  S2-  S253  1  0.86309959  0.48653684  0.54321739  1
  S2-  S254  1  0.87742252  0.74899501  0.04272403  1
  S2-  S255  1  0.86291589  0.73563279  0.54121132  1
