# generated using pymatgen
data_La6Ce7Pr13Nd19Sm19(BiS2)64
_symmetry_space_group_name_H-M   'P 1'
_cell_length_a   16.06582513
_cell_length_b   16.06492759
_cell_length_c   27.36676854
_cell_angle_alpha   89.98052203
_cell_angle_beta   90.04370085
_cell_angle_gamma   89.90049298
_symmetry_Int_Tables_number   1
_chemical_formula_structural   La6Ce7Pr13Nd19Sm19(BiS2)64
_chemical_formula_sum   'La6 Ce7 Pr13 Nd19 Sm19 Bi64 S128'
_cell_volume   7063.24905632
_cell_formula_units_Z   1
loop_
 _symmetry_equiv_pos_site_id
 _symmetry_equiv_pos_as_xyz
  1  'x, y, z'
loop_
 _atom_type_symbol
 _atom_type_oxidation_number
  La3+  3.0
  Ce3+  3.0
  Pr3+  3.0
  Nd3+  3.0
  Sm3+  3.0
  Bi2+  2.0
  S2-  -2.0
loop_
 _atom_site_type_symbol
 _atom_site_label
 _atom_site_symmetry_multiplicity
 _atom_site_fract_x
 _atom_site_fract_y
 _atom_site_fract_z
 _atom_site_occupancy
  La3+  La0  1  0.11863503  0.00224799  0.90379186  1
  La3+  La1  1  0.24352477  0.61564122  0.07076083  1
  La3+  La2  1  0.62809871  0.51783602  0.44329662  1
  La3+  La3  1  0.51528354  0.64517469  0.58042842  1
  La3+  La4  1  0.37955526  0.73882133  0.39071987  1
  La3+  La5  1  0.37457261  0.23453082  0.91465157  1
  Ce3+  Ce6  1  0.63248362  0.76270786  0.43206040  1
  Ce3+  Ce7  1  0.26382721  0.38073432  0.57326928  1
  Ce3+  Ce8  1  0.49674812  0.37486769  0.04797305  1
  Ce3+  Ce9  1  0.12449116  0.24769367  0.93484895  1
  Ce3+  Ce10  1  0.26281249  0.88594688  0.54487544  1
  Ce3+  Ce11  1  0.49509659  0.62148047  0.05884407  1
  Ce3+  Ce12  1  0.74900579  0.87453060  0.06197761  1
  Pr3+  Pr13  1  0.26148837  0.11476186  0.59291283  1
  Pr3+  Pr14  1  0.62235935  0.24631199  0.93533405  1
  Pr3+  Pr15  1  0.24423578  0.12343990  0.06405384  1
  Pr3+  Pr16  1  0.14062058  0.25744882  0.45037245  1
  Pr3+  Pr17  1  0.88708378  0.51199732  0.43884993  1
  Pr3+  Pr18  1  0.49799419  0.87210852  0.07507074  1
  Pr3+  Pr19  1  0.13627048  0.00768924  0.42635241  1
  Pr3+  Pr20  1  0.37338304  0.75051259  0.94090142  1
  Pr3+  Pr21  1  0.63105905  0.26047910  0.44313330  1
  Pr3+  Pr22  1  0.01240119  0.89792079  0.56638683  1
  Pr3+  Pr23  1  0.38985941  0.01626216  0.40209249  1
  Pr3+  Pr24  1  0.76007340  0.38945553  0.56174098  1
  Pr3+  Pr25  1  0.24999689  0.37563208  0.05130151  1
  Nd3+  Nd26  1  0.23706727  0.86510394  0.09551397  1
  Nd3+  Nd27  1  0.50816432  0.13205449  0.56517765  1
  Nd3+  Nd28  1  0.49171347  0.12668092  0.06975275  1
  Nd3+  Nd29  1  0.76394273  0.64010591  0.56268969  1
  Nd3+  Nd30  1  -0.00076260  0.37382576  0.05649900  1
  Nd3+  Nd31  1  0.25086879  0.63799233  0.57941244  1
  Nd3+  Nd32  1  0.88078015  0.01369337  0.43627965  1
  Nd3+  Nd33  1  0.74779700  0.12446004  0.06052651  1
  Nd3+  Nd34  1  0.01097558  0.13585301  0.55787422  1
  Nd3+  Nd35  1  0.88575424  0.76276519  0.43029864  1
  Nd3+  Nd36  1  0.01045437  0.38396576  0.56359463  1
  Nd3+  Nd37  1  0.75306564  0.13319618  0.57047102  1
  Nd3+  Nd38  1  0.87506194  0.74953724  0.94413878  1
  Nd3+  Nd39  1  0.74721116  0.62199446  0.05584894  1
  Nd3+  Nd40  1  0.12517681  0.50098806  0.92832926  1
  Nd3+  Nd41  1  0.88272330  0.26235242  0.44704637  1
  Nd3+  Nd42  1  0.62024285  -0.00194382  0.95058991  1
  Nd3+  Nd43  1  0.50560902  0.88480303  0.54941457  1
  Nd3+  Nd44  1  0.37615663  0.50669273  0.91431535  1
  Sm3+  Sm45  1  0.87625634  -0.00270703  0.94205252  1
  Sm3+  Sm46  1  0.75981569  0.88534754  0.55342212  1
  Sm3+  Sm47  1  0.87448403  0.24698297  0.94653383  1
  Sm3+  Sm48  1  0.12635173  0.74860892  0.94190552  1
  Sm3+  Sm49  1  0.00104599  0.12225988  0.05874631  1
  Sm3+  Sm50  1  0.50691317  0.38452837  0.56267914  1
  Sm3+  Sm51  1  0.63459175  0.01079685  0.43362940  1
  Sm3+  Sm52  1  0.62199978  0.49869585  0.93308470  1
  Sm3+  Sm53  1  -0.00290933  0.62088618  0.05440497  1
  Sm3+  Sm54  1  0.01080972  0.63945840  0.55741261  1
  Sm3+  Sm55  1  0.62318962  0.75055002  0.94739537  1
  Sm3+  Sm56  1  0.00060584  0.87263256  0.05985001  1
  Sm3+  Sm57  1  0.13732188  0.76095708  0.44039432  1
  Sm3+  Sm58  1  0.74548179  0.37317813  0.05750541  1
  Sm3+  Sm59  1  0.38092450  0.51751703  0.45878554  1
  Sm3+  Sm60  1  0.38322237  0.25513846  0.44435487  1
  Sm3+  Sm61  1  0.36896209  -0.00335242  0.95320019  1
  Sm3+  Sm62  1  0.13950101  0.51104823  0.44733275  1
  Sm3+  Sm63  1  0.87148918  0.49709067  0.93961876  1
  Bi2+  Bi64  1  -0.02358088  0.02591254  0.31850919  1
  Bi2+  Bi65  1  -0.02248724  0.10917761  0.79104053  1
  Bi2+  Bi66  1  -0.00928591  0.34753010  0.24778624  1
  Bi2+  Bi67  1  -0.10309265  0.35517280  0.77196306  1
  Bi2+  Bi68  1  -0.03360854  0.66385583  0.29654595  1
  Bi2+  Bi69  1  -0.08368875  0.63846333  0.79202561  1
  Bi2+  Bi70  1  0.03635393  0.84317479  0.33279673  1
  Bi2+  Bi71  1  -0.06018184  0.82411110  0.74618980  1
  Bi2+  Bi72  1  0.13700120  0.13185421  0.28654403  1
  Bi2+  Bi73  1  0.24740767  0.10766848  0.78989980  1
  Bi2+  Bi74  1  0.23825071  0.38054625  0.30828952  1
  Bi2+  Bi75  1  0.19584612  0.36522751  0.77362176  1
  Bi2+  Bi76  1  0.23477433  0.58036711  0.29993566  1
  Bi2+  Bi77  1  0.22986152  0.59698115  0.79824519  1
  Bi2+  Bi78  1  0.23396447  0.87963743  0.28934548  1
  Bi2+  Bi79  1  0.30438128  0.84197365  0.77819782  1
  Bi2+  Bi80  1  0.52573283  0.15584937  0.29674252  1
  Bi2+  Bi81  1  0.49454139  0.08854425  0.79387335  1
  Bi2+  Bi82  1  0.51262201  0.35898364  0.27757502  1
  Bi2+  Bi83  1  0.55453184  0.36817793  0.78808003  1
  Bi2+  Bi84  1  0.50907842  0.59573054  0.29272160  1
  Bi2+  Bi85  1  0.49968320  0.64668918  0.79342254  1
  Bi2+  Bi86  1  0.53521856  0.87593968  0.28310046  1
  Bi2+  Bi87  1  0.49633003  0.88851089  0.79827840  1
  Bi2+  Bi88  1  0.76373012  0.16493818  0.29686259  1
  Bi2+  Bi89  1  0.75919432  0.14023958  0.79579837  1
  Bi2+  Bi90  1  0.80155115  0.35992664  0.27884404  1
  Bi2+  Bi91  1  0.73013543  0.42582829  0.82190149  1
  Bi2+  Bi92  1  0.76290617  0.60463224  0.29862204  1
  Bi2+  Bi93  1  0.71372043  0.62444132  0.79567087  1
  Bi2+  Bi94  1  0.78385401  0.88543759  0.29339390  1
  Bi2+  Bi95  1  0.77637809  0.90883075  0.79369293  1
  Bi2+  Bi96  1  0.09551169  -0.02904546  0.22527532  1
  Bi2+  Bi97  1  0.12358495  -0.02680821  0.70456264  1
  Bi2+  Bi98  1  0.16454849  0.26172401  0.19552196  1
  Bi2+  Bi99  1  0.00507174  0.23605137  0.70317456  1
  Bi2+  Bi100  1  0.12881654  0.45416166  0.19180177  1
  Bi2+  Bi101  1  0.03754768  0.54922953  0.71162895  1
  Bi2+  Bi102  1  0.09989795  0.72690195  0.21616711  1
  Bi2+  Bi103  1  0.13193937  0.75304132  0.75251163  1
  Bi2+  Bi104  1  0.39728952  0.03382395  0.21231130  1
  Bi2+  Bi105  1  0.39739631  -0.04129656  0.70064365  1
  Bi2+  Bi106  1  0.35184106  0.26487789  0.23633355  1
  Bi2+  Bi107  1  0.36131132  0.24031055  0.70787268  1
  Bi2+  Bi108  1  0.36258751  0.46261919  0.22887179  1
  Bi2+  Bi109  1  0.38534083  0.47557434  0.71075865  1
  Bi2+  Bi110  1  0.40524821  0.75441240  0.19010074  1
  Bi2+  Bi111  1  0.40913669  0.73002794  0.70290918  1
  Bi2+  Bi112  1  0.71150070  0.01038450  0.21498529  1
  Bi2+  Bi113  1  0.64732595  -0.00668785  0.71324792  1
  Bi2+  Bi114  1  0.62409968  0.25796014  0.19155992  1
  Bi2+  Bi115  1  0.61924317  0.21298305  0.72911673  1
  Bi2+  Bi116  1  0.62593832  0.49656783  0.18429287  1
  Bi2+  Bi117  1  0.65781513  0.49915483  0.71638461  1
  Bi2+  Bi118  1  0.69755844  0.73768078  0.22333829  1
  Bi2+  Bi119  1  0.69685562  0.77183883  0.71748927  1
  Bi2+  Bi120  1  0.89938286  -0.02897677  0.20195701  1
  Bi2+  Bi121  1  0.84709161  0.02742422  0.70791131  1
  Bi2+  Bi122  1  0.91297100  0.17267900  0.21652107  1
  Bi2+  Bi123  1  0.81228426  0.22560285  0.68783412  1
  Bi2+  Bi124  1  0.91765334  0.56565273  0.19632604  1
  Bi2+  Bi125  1  0.85577321  0.46944095  0.67810993  1
  Bi2+  Bi126  1  0.89390193  0.76884618  0.20651783  1
  Bi2+  Bi127  1  0.87425611  0.66538102  0.67647361  1
  S2-  S128  1  0.04726893  0.15700514  0.15111435  1
  S2-  S129  1  0.02886875  0.04424379  0.64035236  1
  S2-  S130  1  -0.03748895  0.40561873  0.15193351  1
  S2-  S131  1  0.03619603  0.38894024  0.66158803  1
  S2-  S132  1  0.06911529  0.60824984  0.14303830  1
  S2-  S133  1  0.10206077  0.63594553  0.64036419  1
  S2-  S134  1  0.08222086  0.85656887  0.14652837  1
  S2-  S135  1  0.03476847  0.84587683  0.66300698  1
  S2-  S136  1  0.31321327  0.14699439  0.15555707  1
  S2-  S137  1  0.21826466  0.15957630  0.69216863  1
  S2-  S138  1  0.26862683  0.47442261  0.13542949  1
  S2-  S139  1  0.25304982  0.37985322  0.67215274  1
  S2-  S140  1  0.25348493  0.71808912  0.15317064  1
  S2-  S141  1  0.29528394  0.61417318  0.67826180  1
  S2-  S142  1  0.28436261  0.92781920  0.18731606  1
  S2-  S143  1  0.24957478  0.94863369  0.63729528  1
  S2-  S144  1  0.53242160  0.12961437  0.16671520  1
  S2-  S145  1  0.41136847  0.11875975  0.65034599  1
  S2-  S146  1  0.51577995  0.37675326  0.14489053  1
  S2-  S147  1  0.46636431  0.35511171  0.65606329  1
  S2-  S148  1  0.50955749  0.62757152  0.15679124  1
  S2-  S149  1  0.49896078  0.57803346  0.67711349  1
  S2-  S150  1  0.49686893  0.90467635  0.17608614  1
  S2-  S151  1  0.50453552  0.85924498  0.65037946  1
  S2-  S152  1  0.75934354  0.15610191  0.15735112  1
  S2-  S153  1  0.62777629  0.11595610  0.64088944  1
  S2-  S154  1  0.73588785  0.38469961  0.15509691  1
  S2-  S155  1  0.70143481  0.37447976  0.65568474  1
  S2-  S156  1  0.75389797  0.60179810  0.15406398  1
  S2-  S157  1  0.66500182  0.67494591  0.64181976  1
  S2-  S158  1  0.69868390  0.86378711  0.15424230  1
  S2-  S159  1  0.76280224  0.90161078  0.65114803  1
  S2-  S160  1  0.23767801  0.02067072  0.34267268  1
  S2-  S161  1  0.16989763  -0.04738991  0.80850112  1
  S2-  S162  1  0.13162448  0.26303359  0.35031606  1
  S2-  S163  1  0.11565182  0.15867999  0.85070478  1
  S2-  S164  1  0.11919949  0.49978458  0.34984980  1
  S2-  S165  1  0.11629828  0.46922843  0.83025770  1
  S2-  S166  1  0.21158207  0.72689313  0.35384652  1
  S2-  S167  1  0.11204994  0.70634662  0.84686441  1
  S2-  S168  1  0.38909061  -0.11425569  0.32967558  1
  S2-  S169  1  0.36317866  0.06595114  0.86312519  1
  S2-  S170  1  0.39645836  0.18007548  0.35473779  1
  S2-  S171  1  0.29354505  0.26158422  0.82454474  1
  S2-  S172  1  0.38554594  0.55775079  0.36376286  1
  S2-  S173  1  0.32389673  0.46229211  0.81472701  1
  S2-  S174  1  0.36596362  0.70156220  0.27450928  1
  S2-  S175  1  0.36014225  0.65913735  0.85530169  1
  S2-  S176  1  0.54858748  0.01086914  0.34487295  1
  S2-  S177  1  0.60596284  -0.00278642  0.85261698  1
  S2-  S178  1  0.63070614  0.28029698  0.34368980  1
  S2-  S179  1  0.52104449  0.23452975  0.85418340  1
  S2-  S180  1  0.62774850  0.52355348  0.34278793  1
  S2-  S181  1  0.52139309  0.50788367  0.85311168  1
  S2-  S182  1  0.54401488  0.74104655  0.34643841  1
  S2-  S183  1  0.57734444  0.76009476  0.85371839  1
  S2-  S184  1  0.76105523  0.02632231  0.36212732  1
  S2-  S185  1  0.95990599  -0.01304903  0.85687493  1
  S2-  S186  1  0.87956444  0.25603133  0.34853739  1
  S2-  S187  1  0.88013583  0.22897283  0.84950580  1
  S2-  S188  1  0.85779981  0.48085691  0.34135909  1
  S2-  S189  1  0.90208221  0.48869590  0.84429016  1
  S2-  S190  1  0.76254142  0.75366456  0.35879634  1
  S2-  S191  1  0.84613081  0.77620404  0.84846057  1
  S2-  S192  1  0.00865101  0.13646866  0.45231008  1
  S2-  S193  1  -0.00251928  0.12206152  0.95662251  1
  S2-  S194  1  0.01223000  0.38538745  0.45665610  1
  S2-  S195  1  -0.00346202  0.37280621  0.94883040  1
  S2-  S196  1  0.01272406  0.63691772  0.45217827  1
  S2-  S197  1  -0.00327570  0.62160829  0.95033753  1
  S2-  S198  1  0.00652555  0.88773266  0.45667979  1
  S2-  S199  1  0.00254084  0.87222546  0.95632969  1
  S2-  S200  1  0.26321711  0.13263082  0.45153958  1
  S2-  S201  1  0.24205888  0.11856024  0.95759397  1
  S2-  S202  1  0.26315865  0.38622163  0.46260795  1
  S2-  S203  1  0.25139331  0.37408687  0.94368123  1
  S2-  S204  1  0.25604030  0.63602738  0.46691842  1
  S2-  S205  1  0.24570231  0.62255491  0.95637077  1
  S2-  S206  1  0.26410498  0.88049599  0.44264750  1
  S2-  S207  1  0.24428674  0.87587488  0.94054960  1
  S2-  S208  1  0.51135132  0.13410154  0.45778775  1
  S2-  S209  1  0.49593777  0.11989589  0.96276287  1
  S2-  S210  1  0.50250663  0.38685136  0.45538905  1
  S2-  S211  1  0.49625940  0.37330982  0.94573695  1
  S2-  S212  1  0.50230138  0.64167556  0.46348499  1
  S2-  S213  1  0.50278902  0.62592679  0.95517922  1
  S2-  S214  1  0.50809715  0.88829511  0.44586463  1
  S2-  S215  1  0.49716093  0.87428408  0.96433861  1
  S2-  S216  1  0.75790082  0.14016241  0.46392107  1
  S2-  S217  1  0.75054274  0.12118791  0.95396877  1
  S2-  S218  1  0.75737507  0.38818102  0.45407712  1
  S2-  S219  1  0.74880575  0.37174410  0.95267039  1
  S2-  S220  1  0.76303680  0.63494052  0.45765050  1
  S2-  S221  1  0.74735746  0.62377190  0.94892403  1
  S2-  S222  1  0.76121119  0.88642835  0.45299960  1
  S2-  S223  1  0.74924708  0.87485022  0.95555723  1
  S2-  S224  1  0.12291623  -0.00386355  0.05505739  1
  S2-  S225  1  0.13850684  0.01462912  0.53414738  1
  S2-  S226  1  0.12276749  0.25020209  0.04162579  1
  S2-  S227  1  0.13919314  0.25487295  0.55752925  1
  S2-  S228  1  0.11863571  0.49644822  0.03472748  1
  S2-  S229  1  0.13584560  0.50535164  0.55033139  1
  S2-  S230  1  0.12158144  0.74640133  0.04346023  1
  S2-  S231  1  0.13128218  0.76629357  0.54376780  1
  S2-  S232  1  0.36882036  -0.00612005  0.05701736  1
  S2-  S233  1  0.38502427  0.00980431  0.54245561  1
  S2-  S234  1  0.37209079  0.24885940  0.04292615  1
  S2-  S235  1  0.38222346  0.25646581  0.54845593  1
  S2-  S236  1  0.37598263  0.49994255  0.03149057  1
  S2-  S237  1  0.38401558  0.51283568  0.56129609  1
  S2-  S238  1  0.36984250  0.75278285  0.04814281  1
  S2-  S239  1  0.37884309  0.75783068  0.56036971  1
  S2-  S240  1  0.62078856  0.00082215  0.05592426  1
  S2-  S241  1  0.63489453  0.00492056  0.53959207  1
  S2-  S242  1  0.62357182  0.24783611  0.04299022  1
  S2-  S243  1  0.63175983  0.26414114  0.54875234  1
  S2-  S244  1  0.62483087  0.49835092  0.03853827  1
  S2-  S245  1  0.63042346  0.51075210  0.55097864  1
  S2-  S246  1  0.62294534  0.74784794  0.05120121  1
  S2-  S247  1  0.63792040  0.76542410  0.53804334  1
  S2-  S248  1  0.87659952  -0.00097235  0.04844105  1
  S2-  S249  1  0.87933130  0.01476056  0.54415103  1
  S2-  S250  1  0.87359694  0.24890015  0.05079271  1
  S2-  S251  1  0.88303149  0.25874113  0.55265301  1
  S2-  S252  1  0.87145758  0.49712114  0.04363928  1
  S2-  S253  1  0.88964373  0.51325076  0.54599133  1
  S2-  S254  1  0.87530234  0.74746935  0.05103322  1
  S2-  S255  1  0.88883184  0.76507914  0.54147287  1
