# generated using pymatgen
data_La6Ce7Pr13Nd19Sm19(BiS2)64
_symmetry_space_group_name_H-M   'P 1'
_cell_length_a   16.07302980
_cell_length_b   16.08377298
_cell_length_c   27.20783669
_cell_angle_alpha   89.76052366
_cell_angle_beta   90.00088939
_cell_angle_gamma   90.08244628
_symmetry_Int_Tables_number   1
_chemical_formula_structural   La6Ce7Pr13Nd19Sm19(BiS2)64
_chemical_formula_sum   'La6 Ce7 Pr13 Nd19 Sm19 Bi64 S128'
_cell_volume   7033.56415912
_cell_formula_units_Z   1
loop_
 _symmetry_equiv_pos_site_id
 _symmetry_equiv_pos_as_xyz
  1  'x, y, z'
loop_
 _atom_type_symbol
 _atom_type_oxidation_number
  La3+  3.0
  Ce3+  3.0
  Pr3+  3.0
  Nd3+  3.0
  Sm3+  3.0
  Bi2+  2.0
  S2-  -2.0
loop_
 _atom_site_type_symbol
 _atom_site_label
 _atom_site_symmetry_multiplicity
 _atom_site_fract_x
 _atom_site_fract_y
 _atom_site_fract_z
 _atom_site_occupancy
  La3+  La0  1  0.01549307  0.62628793  0.58647903  1
  La3+  La1  1  0.61592885  -0.00559323  0.89645058  1
  La3+  La2  1  0.23390087  0.36022158  0.09410884  1
  La3+  La3  1  0.75611922  0.86775119  0.58778829  1
  La3+  La4  1  -0.00456451  0.61943957  0.08627992  1
  La3+  La5  1  0.11581736  0.23266165  0.92412298  1
  Ce3+  Ce6  1  0.38674515  0.75761632  0.44027103  1
  Ce3+  Ce7  1  -0.00502741  0.36174615  0.05558488  1
  Ce3+  Ce8  1  0.75660651  0.63199860  0.55038687  1
  Ce3+  Ce9  1  0.86691823  0.49264722  0.94647852  1
  Ce3+  Ce10  1  0.88384252  0.75502689  0.44017657  1
  Ce3+  Ce11  1  0.86087358  0.23898966  0.94226895  1
  Ce3+  Ce12  1  0.38531426  0.50276718  0.42427812  1
  Pr3+  Pr13  1  0.73755432  0.60995024  0.06873588  1
  Pr3+  Pr14  1  0.63741314  0.01017222  0.44416743  1
  Pr3+  Pr15  1  0.13171878  0.00171421  0.42765264  1
  Pr3+  Pr16  1  0.76196386  0.13499818  0.60645062  1
  Pr3+  Pr17  1  0.62944341  0.76449581  0.41855929  1
  Pr3+  Pr18  1  0.48793416  0.61021397  0.06734856  1
  Pr3+  Pr19  1  0.50815301  0.88011260  0.56563522  1
  Pr3+  Pr20  1  0.01560009  0.13521954  0.57247211  1
  Pr3+  Pr21  1  0.11335246  0.49018128  0.93623077  1
  Pr3+  Pr22  1  0.36140024  0.49057560  0.94341771  1
  Pr3+  Pr23  1  0.63201044  0.50470324  0.42541275  1
  Pr3+  Pr24  1  0.74039745  0.86317215  0.10908437  1
  Pr3+  Pr25  1  0.61594798  0.24132414  0.93770735  1
  Nd3+  Nd26  1  0.74027305  0.36591394  0.06394069  1
  Nd3+  Nd27  1  0.36751776  0.74253186  0.94637418  1
  Nd3+  Nd28  1  0.00896837  0.88001528  0.56474993  1
  Nd3+  Nd29  1  0.36465494  0.23897585  0.94314876  1
  Nd3+  Nd30  1  0.75779395  0.37781776  0.55636039  1
  Nd3+  Nd31  1  0.11143014  0.74154684  0.93829028  1
  Nd3+  Nd32  1  0.86099040  0.74290057  0.94769196  1
  Nd3+  Nd33  1  0.88183500  0.00562178  0.45588017  1
  Nd3+  Nd34  1  0.73599945  0.11168489  0.06540398  1
  Nd3+  Nd35  1  0.61458217  0.49370619  0.93192739  1
  Nd3+  Nd36  1  0.01021430  0.38086815  0.55937937  1
  Nd3+  Nd37  1  0.25629787  0.12983573  0.55613121  1
  Nd3+  Nd38  1  0.37041366  -0.00998363  0.94010825  1
  Nd3+  Nd39  1  0.13156399  0.25627699  0.43264904  1
  Nd3+  Nd40  1  0.51056785  0.13027141  0.57037807  1
  Nd3+  Nd41  1  0.50964654  0.62913667  0.55280409  1
  Nd3+  Nd42  1  0.25216716  0.87772992  0.56375208  1
  Nd3+  Nd43  1  0.25696520  0.62589275  0.55192432  1
  Nd3+  Nd44  1  0.13574263  0.50982239  0.40964332  1
  Sm3+  Sm45  1  0.48838840  0.36384923  0.05485317  1
  Sm3+  Sm46  1  0.13234299  0.75636251  0.43251522  1
  Sm3+  Sm47  1  0.25654937  0.38379876  0.55143472  1
  Sm3+  Sm48  1  0.50935188  0.38005550  0.55223832  1
  Sm3+  Sm49  1  0.38430340  0.00618949  0.44574749  1
  Sm3+  Sm50  1  -0.00982679  0.11486574  0.05580453  1
  Sm3+  Sm51  1  0.49822597  0.86511304  0.06508484  1
  Sm3+  Sm52  1  0.23817231  0.61605369  0.06165122  1
  Sm3+  Sm53  1  0.24118450  0.86662878  0.05495887  1
  Sm3+  Sm54  1  0.61520888  0.74103541  0.93941473  1
  Sm3+  Sm55  1  0.88413257  0.25404371  0.44288801  1
  Sm3+  Sm56  1  0.85869289  -0.01134970  0.94625878  1
  Sm3+  Sm57  1  0.49255640  0.11252280  0.05751381  1
  Sm3+  Sm58  1  0.38274757  0.25413908  0.44549093  1
  Sm3+  Sm59  1  0.11351866  -0.00881693  0.94093242  1
  Sm3+  Sm60  1  0.63643512  0.24994613  0.43900451  1
  Sm3+  Sm61  1  -0.01009901  0.86396795  0.06091184  1
  Sm3+  Sm62  1  0.88507099  0.50581456  0.43997178  1
  Sm3+  Sm63  1  0.23873471  0.11395343  0.06426825  1
  Bi2+  Bi64  1  0.02024221  0.04546660  0.30830852  1
  Bi2+  Bi65  1  0.03168809  0.16249024  0.79063022  1
  Bi2+  Bi66  1  -0.01013911  0.29044472  0.29112244  1
  Bi2+  Bi67  1  0.00508079  0.40167187  0.79550014  1
  Bi2+  Bi68  1  -0.01657757  0.60644093  0.30865824  1
  Bi2+  Bi69  1  -0.01895378  0.62952813  0.80715514  1
  Bi2+  Bi70  1  0.02407100  0.91161951  0.22248785  1
  Bi2+  Bi71  1  0.06278514  0.88637007  0.79814073  1
  Bi2+  Bi72  1  0.20340847  0.10185196  0.28661002  1
  Bi2+  Bi73  1  0.27686234  0.11751358  0.76168684  1
  Bi2+  Bi74  1  0.28491844  0.35560580  0.28625459  1
  Bi2+  Bi75  1  0.28784644  0.42286779  0.74859621  1
  Bi2+  Bi76  1  0.26149983  0.64343473  0.27904138  1
  Bi2+  Bi77  1  0.29253729  0.71434376  0.75238263  1
  Bi2+  Bi78  1  0.26295642  0.91087474  0.29549933  1
  Bi2+  Bi79  1  0.25717915  0.91993858  0.78637708  1
  Bi2+  Bi80  1  0.48969507  0.14022084  0.30370776  1
  Bi2+  Bi81  1  0.47007083  0.13442654  0.79595609  1
  Bi2+  Bi82  1  0.51634467  0.32614815  0.24588197  1
  Bi2+  Bi83  1  0.54766448  0.39595602  0.81154375  1
  Bi2+  Bi84  1  0.45965031  0.62412148  0.29152691  1
  Bi2+  Bi85  1  0.46318636  0.57857815  0.80629379  1
  Bi2+  Bi86  1  0.51549648  0.90265218  0.29254021  1
  Bi2+  Bi87  1  0.46559750  0.84401013  0.78743631  1
  Bi2+  Bi88  1  0.74173424  0.14474915  0.28433348  1
  Bi2+  Bi89  1  0.77858118  0.12979607  0.79871935  1
  Bi2+  Bi90  1  0.69149704  0.34003699  0.29994237  1
  Bi2+  Bi91  1  0.74052797  0.40006286  0.80071506  1
  Bi2+  Bi92  1  0.69339058  0.54292084  0.29658439  1
  Bi2+  Bi93  1  0.71376651  0.61770787  0.77980721  1
  Bi2+  Bi94  1  0.79018580  0.87433339  0.31124623  1
  Bi2+  Bi95  1  0.76124214  0.86362085  0.81126303  1
  Bi2+  Bi96  1  0.20021565  -0.02026827  0.18668963  1
  Bi2+  Bi97  1  0.11644069  0.00581646  0.71297088  1
  Bi2+  Bi98  1  0.11147556  0.22797889  0.21124503  1
  Bi2+  Bi99  1  0.13537851  0.25559511  0.70464513  1
  Bi2+  Bi100  1  0.10946846  0.48169144  0.21472212  1
  Bi2+  Bi101  1  0.12907243  0.50670075  0.70427960  1
  Bi2+  Bi102  1  0.12207873  0.73745701  0.21535115  1
  Bi2+  Bi103  1  0.11105368  0.75837651  0.71196210  1
  Bi2+  Bi104  1  0.40217467  -0.02706838  0.20000523  1
  Bi2+  Bi105  1  0.39834466  0.05800707  0.67839844  1
  Bi2+  Bi106  1  0.38083572  0.16583753  0.21208694  1
  Bi2+  Bi107  1  0.42874163  0.29150040  0.72804291  1
  Bi2+  Bi108  1  0.37521367  0.58655150  0.18920360  1
  Bi2+  Bi109  1  0.37926547  0.57079423  0.69606663  1
  Bi2+  Bi110  1  0.37229550  0.77814760  0.21746307  1
  Bi2+  Bi111  1  0.35781007  0.86598352  0.68397718  1
  Bi2+  Bi112  1  0.62198591  0.03087773  0.21685993  1
  Bi2+  Bi113  1  0.58620054  -0.00652892  0.70170153  1
  Bi2+  Bi114  1  0.67949773  0.24692292  0.18871384  1
  Bi2+  Bi115  1  0.62976780  0.27618165  0.72097747  1
  Bi2+  Bi116  1  0.59823826  0.49064178  0.20003622  1
  Bi2+  Bi117  1  0.61295126  0.48779290  0.70330784  1
  Bi2+  Bi118  1  0.63247561  0.75083282  0.22432951  1
  Bi2+  Bi119  1  0.58823648  0.73750811  0.72632821  1
  Bi2+  Bi120  1  0.89900768  0.07068954  0.21555737  1
  Bi2+  Bi121  1  0.89252510  -0.01826181  0.72004470  1
  Bi2+  Bi122  1  0.87451940  0.26854982  0.19444898  1
  Bi2+  Bi123  1  0.88645141  0.31474625  0.71350820  1
  Bi2+  Bi124  1  0.84545130  0.44970893  0.23247636  1
  Bi2+  Bi125  1  0.80802786  0.49606107  0.70609822  1
  Bi2+  Bi126  1  0.87456254  0.70677552  0.22145451  1
  Bi2+  Bi127  1  0.83468785  0.75642653  0.71801664  1
  S2-  S128  1  0.03001407  0.11515266  0.15133991  1
  S2-  S129  1  0.00707855  0.27013454  0.64218114  1
  S2-  S130  1  0.07258947  0.36431602  0.14381602  1
  S2-  S131  1  0.00687605  0.47885319  0.64439681  1
  S2-  S132  1  -0.05705169  0.55137844  0.18149757  1
  S2-  S133  1  -0.02607167  0.67316110  0.68909427  1
  S2-  S134  1  -0.00955733  0.77495316  0.14678820  1
  S2-  S135  1  -0.09225313  0.86625086  0.64827427  1
  S2-  S136  1  0.25127307  0.20858461  0.14701518  1
  S2-  S137  1  0.15743571  0.12618493  0.63822342  1
  S2-  S138  1  0.25888886  0.42868064  0.19039329  1
  S2-  S139  1  0.22722271  0.37696800  0.64909252  1
  S2-  S140  1  0.14420595  0.60824844  0.14465842  1
  S2-  S141  1  0.17475876  0.63220895  0.64076434  1
  S2-  S142  1  0.23347394  0.81599698  0.14887010  1
  S2-  S143  1  0.13407693  0.88120156  0.63805077  1
  S2-  S144  1  0.53358000  0.13509706  0.15288492  1
  S2-  S145  1  0.60391116  0.14815149  0.65520816  1
  S2-  S146  1  0.47904987  0.38578886  0.15115414  1
  S2-  S147  1  0.51049440  0.37392580  0.65038471  1
  S2-  S148  1  0.54200962  0.64554968  0.16102787  1
  S2-  S149  1  0.52530895  0.62679929  0.65301931  1
  S2-  S150  1  0.58203477  0.86128097  0.15396446  1
  S2-  S151  1  0.60031154  0.84775415  0.64948898  1
  S2-  S152  1  0.75458656  0.02648043  0.15211936  1
  S2-  S153  1  0.86423888  0.13594905  0.69672832  1
  S2-  S154  1  0.73044246  0.47582407  0.14120746  1
  S2-  S155  1  0.75554106  0.30195477  0.64663934  1
  S2-  S156  1  0.75142186  0.69664091  0.15643014  1
  S2-  S157  1  0.75402394  0.69952622  0.63928862  1
  S2-  S158  1  0.79763804  0.85275735  0.21286235  1
  S2-  S159  1  0.74549893  0.98797081  0.66391230  1
  S2-  S160  1  0.13615072  -0.12394251  0.35644572  1
  S2-  S161  1  0.11820029  0.08719359  0.85938061  1
  S2-  S162  1  0.16224749  0.26207339  0.33421537  1
  S2-  S163  1  0.12135783  0.30012219  0.82778390  1
  S2-  S164  1  0.06021584  0.46006542  0.31804031  1
  S2-  S165  1  0.10683691  0.52063078  0.83578002  1
  S2-  S166  1  0.13161560  0.65659280  0.35018101  1
  S2-  S167  1  0.10938029  0.73230435  0.83887375  1
  S2-  S168  1  0.39667427  0.00375342  0.34762431  1
  S2-  S169  1  0.45313364  -0.01174805  0.85194602  1
  S2-  S170  1  0.39323860  0.27014147  0.34797815  1
  S2-  S171  1  0.34506062  0.20864128  0.84599283  1
  S2-  S172  1  0.27592025  0.48290152  0.34549483  1
  S2-  S173  1  0.34324527  0.48310662  0.84334843  1
  S2-  S174  1  0.47279966  0.76710541  0.35531570  1
  S2-  S175  1  0.37964985  0.72377017  0.84797145  1
  S2-  S176  1  0.64081785  -0.08634761  0.35805047  1
  S2-  S177  1  0.67046212  -0.00444372  0.79067562  1
  S2-  S178  1  0.62605070  0.13500274  0.36521604  1
  S2-  S179  1  0.63255698  0.16107034  0.84940293  1
  S2-  S180  1  0.50600796  0.49879294  0.35128438  1
  S2-  S181  1  0.61404420  0.61979832  0.86260408  1
  S2-  S182  1  0.68318551  0.70737703  0.32227658  1
  S2-  S183  1  0.61041993  0.83199158  0.85309447  1
  S2-  S184  1  0.86956806  0.00044219  0.35504573  1
  S2-  S185  1  0.86029388  0.00097863  0.84641787  1
  S2-  S186  1  0.85865403  0.24631053  0.34453270  1
  S2-  S187  1  0.89021369  0.23331987  0.84537847  1
  S2-  S188  1  0.85352302  0.50862132  0.34262655  1
  S2-  S189  1  0.88157775  0.50164994  0.84821902  1
  S2-  S190  1  0.90919105  0.76321950  0.34096588  1
  S2-  S191  1  0.87827872  0.73745081  0.84727742  1
  S2-  S192  1  0.00947294  0.13180890  0.45430436  1
  S2-  S193  1  -0.01536405  0.11150867  0.95382403  1
  S2-  S194  1  0.00768217  0.38095283  0.44729079  1
  S2-  S195  1  -0.01000857  0.36218709  0.94963513  1
  S2-  S196  1  0.00717040  0.62640229  0.44762354  1
  S2-  S197  1  -0.00956625  0.61887634  0.95953684  1
  S2-  S198  1  0.00733834  0.88001305  0.45727108  1
  S2-  S199  1  -0.01095505  0.86884928  0.95501559  1
  S2-  S200  1  0.25797326  0.12978851  0.44880337  1
  S2-  S201  1  0.24413363  0.11000585  0.95956711  1
  S2-  S202  1  0.25824815  0.37737539  0.44844313  1
  S2-  S203  1  0.23896903  0.36206256  0.94570375  1
  S2-  S204  1  0.26254791  0.63244954  0.44722528  1
  S2-  S205  1  0.23852150  0.61981992  0.95485880  1
  S2-  S206  1  0.26203009  0.88085060  0.45709642  1
  S2-  S207  1  0.23951586  0.86819562  0.94864776  1
  S2-  S208  1  0.50288456  0.13181570  0.46363974  1
  S2-  S209  1  0.49293844  0.11464251  0.95425045  1
  S2-  S210  1  0.51150255  0.37213369  0.44921264  1
  S2-  S211  1  0.48905175  0.36592202  0.94980881  1
  S2-  S212  1  0.51032856  0.63066236  0.44921864  1
  S2-  S213  1  0.48679947  0.61547628  0.96034042  1
  S2-  S214  1  0.50605940  0.88602837  0.45963869  1
  S2-  S215  1  0.49186060  0.86536818  0.96026885  1
  S2-  S216  1  0.76347118  0.13467900  0.45857673  1
  S2-  S217  1  0.73781716  0.11131613  0.95804210  1
  S2-  S218  1  0.75767471  0.37856673  0.44943238  1
  S2-  S219  1  0.73906762  0.36847244  0.95522482  1
  S2-  S220  1  0.75672213  0.62838649  0.44504826  1
  S2-  S221  1  0.74125421  0.61464627  0.96027823  1
  S2-  S222  1  0.76162198  0.87756382  0.46308994  1
  S2-  S223  1  0.73762752  0.86861801  0.94837620  1
  S2-  S224  1  0.11463943  -0.01114672  0.04604539  1
  S2-  S225  1  0.13306843  0.00646284  0.53541381  1
  S2-  S226  1  0.11799613  0.23454467  0.03928819  1
  S2-  S227  1  0.13731580  0.25903395  0.53751017  1
  S2-  S228  1  0.11991285  0.48880659  0.04359247  1
  S2-  S229  1  0.13384235  0.50357241  0.53485933  1
  S2-  S230  1  0.11786664  0.74406900  0.04339490  1
  S2-  S231  1  0.13231067  0.75085865  0.53776827  1
  S2-  S232  1  0.36663933  -0.01025844  0.04934165  1
  S2-  S233  1  0.37970628  0.00439712  0.54985742  1
  S2-  S234  1  0.36704510  0.23918763  0.04862165  1
  S2-  S235  1  0.38142661  0.25683747  0.55164161  1
  S2-  S236  1  0.35730656  0.48506857  0.05098121  1
  S2-  S237  1  0.38448487  0.50252426  0.53914329  1
  S2-  S238  1  0.36583202  0.74180515  0.05268824  1
  S2-  S239  1  0.38116223  0.75325335  0.54919811  1
  S2-  S240  1  0.61395414  -0.01028733  0.05292846  1
  S2-  S241  1  0.63353478  0.00768813  0.55185964  1
  S2-  S242  1  0.61432906  0.24177965  0.04512554  1
  S2-  S243  1  0.63067699  0.25562873  0.54310778  1
  S2-  S244  1  0.60994659  0.48667921  0.03931369  1
  S2-  S245  1  0.63265341  0.50228737  0.53923282  1
  S2-  S246  1  0.61499496  0.73980718  0.04638190  1
  S2-  S247  1  0.62950166  0.75328942  0.53535533  1
  S2-  S248  1  0.86825633  -0.01350777  0.05150667  1
  S2-  S249  1  0.88618899  0.01537710  0.56018360  1
  S2-  S250  1  0.86415545  0.23770566  0.05003692  1
  S2-  S251  1  0.88210808  0.25311415  0.54623434  1
  S2-  S252  1  0.87352585  0.48954378  0.05172548  1
  S2-  S253  1  0.88081193  0.50540258  0.54470391  1
  S2-  S254  1  0.86132774  0.74563450  0.05222214  1
  S2-  S255  1  0.89280235  0.74476234  0.54527618  1
