# generated using pymatgen
data_La6Ce7Pr13Nd19Sm19(BiS2)64
_symmetry_space_group_name_H-M   'P 1'
_cell_length_a   16.04485811
_cell_length_b   16.02050463
_cell_length_c   27.31647653
_cell_angle_alpha   89.63007975
_cell_angle_beta   89.83175700
_cell_angle_gamma   90.10250488
_symmetry_Int_Tables_number   1
_chemical_formula_structural   La6Ce7Pr13Nd19Sm19(BiS2)64
_chemical_formula_sum   'La6 Ce7 Pr13 Nd19 Sm19 Bi64 S128'
_cell_volume   7021.42270392
_cell_formula_units_Z   1
loop_
 _symmetry_equiv_pos_site_id
 _symmetry_equiv_pos_as_xyz
  1  'x, y, z'
loop_
 _atom_type_symbol
 _atom_type_oxidation_number
  La3+  3.0
  Ce3+  3.0
  Pr3+  3.0
  Nd3+  3.0
  Sm3+  3.0
  Bi2+  2.0
  S2-  -2.0
loop_
 _atom_site_type_symbol
 _atom_site_label
 _atom_site_symmetry_multiplicity
 _atom_site_fract_x
 _atom_site_fract_y
 _atom_site_fract_z
 _atom_site_occupancy
  La3+  La0  1  0.84165426  0.26782400  0.90849482  1
  La3+  La1  1  0.22679186  0.88397137  0.07167753  1
  La3+  La2  1  0.63254779  0.75804528  0.41819496  1
  La3+  La3  1  0.34923309  0.51328036  0.92837578  1
  La3+  La4  1  0.62300178  0.48753299  0.39503419  1
  La3+  La5  1  0.35627581  0.25550426  0.89116368  1
  Ce3+  Ce6  1  0.86443024  0.49945023  0.44060302  1
  Ce3+  Ce7  1  0.61462183  -0.00245164  0.44636212  1
  Ce3+  Ce8  1  0.36845089  0.25477874  0.44466504  1
  Ce3+  Ce9  1  0.85275992  0.51734486  0.93117519  1
  Ce3+  Ce10  1  0.61612863  0.25284951  0.44643064  1
  Ce3+  Ce11  1  -0.01965302  0.63337293  0.06273795  1
  Ce3+  Ce12  1  -0.00594399  0.12171935  0.56287309  1
  Pr3+  Pr13  1  0.36851066  0.49761290  0.43237264  1
  Pr3+  Pr14  1  0.73347416  0.38004310  0.06066598  1
  Pr3+  Pr15  1  0.74352778  0.86773722  0.58639491  1
  Pr3+  Pr16  1  0.48967258  0.38000187  0.58554504  1
  Pr3+  Pr17  1  -0.02499349  0.89525859  0.07840183  1
  Pr3+  Pr18  1  0.22610215  0.38235157  0.05538590  1
  Pr3+  Pr19  1  0.47880974  0.13400923  0.05652120  1
  Pr3+  Pr20  1  0.47704309  0.89484202  0.09813516  1
  Pr3+  Pr21  1  0.46928066  0.62677015  0.08179259  1
  Pr3+  Pr22  1  0.35751910  -0.00383455  0.43209731  1
  Pr3+  Pr23  1  0.74091994  0.12082477  0.57011184  1
  Pr3+  Pr24  1  0.72941004  0.62820972  0.07219980  1
  Pr3+  Pr25  1  0.36296591  0.74760822  0.43182028  1
  Nd3+  Nd26  1  0.11875295  0.24864089  0.44599556  1
  Nd3+  Nd27  1  0.86329626  -0.00402948  0.44316505  1
  Nd3+  Nd28  1  0.12054506  0.49895293  0.43143445  1
  Nd3+  Nd29  1  0.60077760  0.00842353  0.93982253  1
  Nd3+  Nd30  1  0.47633812  0.38680566  0.05315488  1
  Nd3+  Nd31  1  0.11754332  0.75003178  0.44329202  1
  Nd3+  Nd32  1  -0.02786902  0.13520019  0.04700406  1
  Nd3+  Nd33  1  0.85839008  -0.00237248  0.92332479  1
  Nd3+  Nd34  1  0.86533969  0.24822813  0.44020842  1
  Nd3+  Nd35  1  0.60024205  0.51855291  0.93672863  1
  Nd3+  Nd36  1  0.23130422  0.13632458  0.05360052  1
  Nd3+  Nd37  1  0.22148473  0.63316694  0.06587442  1
  Nd3+  Nd38  1  0.74226757  0.36764479  0.56965384  1
  Nd3+  Nd39  1  -0.00502280  0.61890548  0.55948509  1
  Nd3+  Nd40  1  0.74001964  0.61362649  0.56352122  1
  Nd3+  Nd41  1  0.10668402  0.25841465  0.92755920  1
  Nd3+  Nd42  1  0.49202229  0.86655436  0.56197682  1
  Nd3+  Nd43  1  0.34899917  0.75805673  0.94176818  1
  Nd3+  Nd44  1  0.49751123  0.61755631  0.54461987  1
  Sm3+  Sm45  1  0.85314281  0.76135568  0.94962730  1
  Sm3+  Sm46  1  0.86483947  0.74847543  0.45271689  1
  Sm3+  Sm47  1  0.24371031  0.37685408  0.57102588  1
  Sm3+  Sm48  1  -0.00838632  0.87118409  0.56794401  1
  Sm3+  Sm49  1  -0.00649932  0.37062244  0.55282454  1
  Sm3+  Sm50  1  0.24619568  0.86773092  0.57087207  1
  Sm3+  Sm51  1  0.11540036  -0.00355318  0.45050862  1
  Sm3+  Sm52  1  0.59683762  0.75942168  0.95904168  1
  Sm3+  Sm53  1  0.72756334  0.88442348  0.05898264  1
  Sm3+  Sm54  1  0.09951719  0.76617183  0.94264238  1
  Sm3+  Sm55  1  0.35333344  0.00726638  0.94103061  1
  Sm3+  Sm56  1  0.60393748  0.26181479  0.93807939  1
  Sm3+  Sm57  1  0.24431044  0.61796593  0.56420287  1
  Sm3+  Sm58  1  -0.02361145  0.38118275  0.04077423  1
  Sm3+  Sm59  1  0.24543766  0.12199542  0.56236457  1
  Sm3+  Sm60  1  0.10460289  0.51400427  0.93323670  1
  Sm3+  Sm61  1  0.72952671  0.13566041  0.04890578  1
  Sm3+  Sm62  1  0.10426481  0.00965435  0.94265295  1
  Sm3+  Sm63  1  0.48922133  0.12217123  0.55497942  1
  Bi2+  Bi64  1  -0.04690795  0.11363731  0.28377762  1
  Bi2+  Bi65  1  0.05822894  0.07621814  0.75618601  1
  Bi2+  Bi66  1  0.02519155  0.39540638  0.28988954  1
  Bi2+  Bi67  1  0.04546804  0.41551649  0.78344052  1
  Bi2+  Bi68  1  0.04127021  0.59047643  0.32072398  1
  Bi2+  Bi69  1  0.01149705  0.60496283  0.82100416  1
  Bi2+  Bi70  1  0.03579229  0.79261675  0.30922803  1
  Bi2+  Bi71  1  0.04787617  0.80638307  0.79597150  1
  Bi2+  Bi72  1  0.18161039  0.12803795  0.26459472  1
  Bi2+  Bi73  1  0.23932099  0.01117157  0.78358060  1
  Bi2+  Bi74  1  0.24096751  0.33659525  0.30226373  1
  Bi2+  Bi75  1  0.25637469  0.39963845  0.78360149  1
  Bi2+  Bi76  1  0.23284440  0.60077733  0.27861748  1
  Bi2+  Bi77  1  0.26307398  0.64933762  0.79303242  1
  Bi2+  Bi78  1  0.27408882  0.88467579  0.30804725  1
  Bi2+  Bi79  1  0.34287973  0.84890821  0.81597177  1
  Bi2+  Bi80  1  0.54427301  0.14268306  0.28265667  1
  Bi2+  Bi81  1  0.50015752  0.08524787  0.79410368  1
  Bi2+  Bi82  1  0.49518706  0.34401509  0.28909172  1
  Bi2+  Bi83  1  0.52384000  0.38317134  0.78212512  1
  Bi2+  Bi84  1  0.49388277  0.62680764  0.28785646  1
  Bi2+  Bi85  1  0.51357094  0.62590655  0.79232649  1
  Bi2+  Bi86  1  0.52341234  0.89252182  0.30032215  1
  Bi2+  Bi87  1  0.53682523  0.86884806  0.82177880  1
  Bi2+  Bi88  1  0.74693564  0.13387793  0.28934263  1
  Bi2+  Bi89  1  0.74873514  0.13477622  0.79346446  1
  Bi2+  Bi90  1  0.76376651  0.33630018  0.27861259  1
  Bi2+  Bi91  1  0.77111566  0.34607840  0.77365177  1
  Bi2+  Bi92  1  0.85248493  0.60652648  0.28710335  1
  Bi2+  Bi93  1  0.81910726  0.59776001  0.80325503  1
  Bi2+  Bi94  1  0.81127090  0.89291180  0.30932998  1
  Bi2+  Bi95  1  0.78082723  0.78952512  0.80923091  1
  Bi2+  Bi96  1  0.08204295  -0.04446940  0.24452430  1
  Bi2+  Bi97  1  0.13181643  -0.09730644  0.70539980  1
  Bi2+  Bi98  1  0.05605452  0.25416487  0.21000971  1
  Bi2+  Bi99  1  0.14447365  0.25754168  0.74132357  1
  Bi2+  Bi100  1  0.11774992  0.49506407  0.20816503  1
  Bi2+  Bi101  1  0.11448911  0.56927712  0.71726337  1
  Bi2+  Bi102  1  0.13063212  0.75101359  0.21175870  1
  Bi2+  Bi103  1  0.21548987  0.73381225  0.68017065  1
  Bi2+  Bi104  1  0.35765731  0.05419387  0.21250744  1
  Bi2+  Bi105  1  0.41168697  -0.04080860  0.72230143  1
  Bi2+  Bi106  1  0.32290792  0.24657397  0.20995711  1
  Bi2+  Bi107  1  0.35358192  0.20204540  0.70298779  1
  Bi2+  Bi108  1  0.34926250  0.49392409  0.20747872  1
  Bi2+  Bi109  1  0.36172834  0.50195479  0.70199560  1
  Bi2+  Bi110  1  0.38690683  0.76048622  0.20629356  1
  Bi2+  Bi111  1  0.40475339  0.74592858  0.71592355  1
  Bi2+  Bi112  1  0.65021817  0.06566205  0.19952866  1
  Bi2+  Bi113  1  0.62749762  -0.03331438  0.71859639  1
  Bi2+  Bi114  1  0.61968425  0.27206996  0.20592341  1
  Bi2+  Bi115  1  0.62083862  0.20647371  0.70561963  1
  Bi2+  Bi116  1  0.62184058  0.51389410  0.19553355  1
  Bi2+  Bi117  1  0.63643501  0.53919184  0.69432671  1
  Bi2+  Bi118  1  0.67659330  0.78309495  0.21999224  1
  Bi2+  Bi119  1  0.63516484  0.76644282  0.73100021  1
  Bi2+  Bi120  1  0.88452435  -0.07154237  0.20568678  1
  Bi2+  Bi121  1  0.87709423  -0.01953888  0.71848488  1
  Bi2+  Bi122  1  0.88166225  0.19277599  0.18353006  1
  Bi2+  Bi123  1  0.90477026  0.24324198  0.70478786  1
  Bi2+  Bi124  1  0.88378780  0.45628970  0.21344061  1
  Bi2+  Bi125  1  0.90248476  0.47397132  0.70973782  1
  Bi2+  Bi126  1  0.92554510  0.73552357  0.20998990  1
  Bi2+  Bi127  1  0.90789337  0.73177983  0.72811950  1
  S2-  S128  1  -0.05347671  0.04950728  0.13375507  1
  S2-  S129  1  -0.02750286  0.10168849  0.65958290  1
  S2-  S130  1  -0.03176496  0.35734738  0.13817078  1
  S2-  S131  1  -0.00627552  0.35546444  0.65121492  1
  S2-  S132  1  0.09182289  0.61941968  0.13919621  1
  S2-  S133  1  -0.02628969  0.61399859  0.65791903  1
  S2-  S134  1  0.10631521  0.88594294  0.14898574  1
  S2-  S135  1  -0.09984679  0.86251605  0.65279369  1
  S2-  S136  1  0.23329588  0.11964571  0.15301549  1
  S2-  S137  1  0.22442168  0.14198443  0.65969775  1
  S2-  S138  1  0.24116057  0.38258049  0.15647138  1
  S2-  S139  1  0.35358298  0.34977642  0.65088363  1
  S2-  S140  1  0.32482171  0.62971761  0.14677835  1
  S2-  S141  1  0.22232525  0.50532087  0.63978762  1
  S2-  S142  1  0.32931469  0.88876041  0.15608005  1
  S2-  S143  1  0.37163050  0.87790991  0.63807640  1
  S2-  S144  1  0.48725167  0.05561064  0.14680841  1
  S2-  S145  1  0.49051318  0.12643659  0.65324380  1
  S2-  S146  1  0.47507477  0.45891292  0.14462881  1
  S2-  S147  1  0.57255899  0.36034082  0.67985718  1
  S2-  S148  1  0.53171304  0.66133988  0.17827228  1
  S2-  S149  1  0.48181926  0.55474081  0.64105254  1
  S2-  S150  1  0.52164402  0.86071415  0.19731826  1
  S2-  S151  1  0.59510320  0.85854555  0.64372840  1
  S2-  S152  1  0.74792452  0.23994332  0.12783140  1
  S2-  S153  1  0.75538647  0.24271533  0.64594182  1
  S2-  S154  1  0.75797430  0.48750502  0.13980689  1
  S2-  S155  1  0.76238129  0.48361972  0.64504202  1
  S2-  S156  1  0.76785001  0.69149412  0.16652072  1
  S2-  S157  1  0.71296169  0.67758148  0.65615143  1
  S2-  S158  1  0.72441852  0.91756971  0.15571447  1
  S2-  S159  1  0.75106404  1.01101982  0.65187611  1
  S2-  S160  1  0.20252812  -0.00917567  0.36700981  1
  S2-  S161  1  0.09290635  0.00015932  0.84502111  1
  S2-  S162  1  0.12983542  0.23267168  0.34768528  1
  S2-  S163  1  0.19922490  0.25499668  0.84229931  1
  S2-  S164  1  0.24171283  0.49098552  0.35828304  1
  S2-  S165  1  0.21083210  0.51932136  0.85561519  1
  S2-  S166  1  0.22048089  0.75823392  0.36350337  1
  S2-  S167  1  0.18703180  0.77028903  0.85652077  1
  S2-  S168  1  0.41466722  -0.00192221  0.33541975  1
  S2-  S169  1  0.35763419  0.08252153  0.85240094  1
  S2-  S170  1  0.37345357  0.25529904  0.34647844  1
  S2-  S171  1  0.43710863  0.24202147  0.79466136  1
  S2-  S172  1  0.46254209  0.48257239  0.34563064  1
  S2-  S173  1  0.39820279  0.41509882  0.84434790  1
  S2-  S174  1  0.41408543  0.76632929  0.33272440  1
  S2-  S175  1  0.38737073  0.64935971  0.86440203  1
  S2-  S176  1  0.65726596  -0.07320817  0.36156075  1
  S2-  S177  1  0.63885687  0.01233038  0.84294434  1
  S2-  S178  1  0.62912084  0.32148973  0.35588159  1
  S2-  S179  1  0.66226196  0.26838578  0.84544523  1
  S2-  S180  1  0.63036103  0.53108544  0.28927147  1
  S2-  S181  1  0.60615542  0.50310065  0.83553489  1
  S2-  S182  1  0.61163130  0.73212766  0.31592484  1
  S2-  S183  1  0.59948714  0.72127386  0.86314565  1
  S2-  S184  1  0.94168606  -0.01146523  0.35395902  1
  S2-  S185  1  0.85264281  0.02190110  0.82265745  1
  S2-  S186  1  0.86974782  0.24431864  0.34078466  1
  S2-  S187  1  0.89469771  0.23070943  0.81270868  1
  S2-  S188  1  0.79443228  0.48566468  0.35346504  1
  S2-  S189  1  0.83266245  0.42481641  0.85093928  1
  S2-  S190  1  0.80955567  0.75035686  0.35991488  1
  S2-  S191  1  0.91257653  0.83566338  0.86738903  1
  S2-  S192  1  -0.00660936  0.12218896  0.45564961  1
  S2-  S193  1  -0.02356254  0.13254097  0.93930349  1
  S2-  S194  1  -0.00704748  0.37392159  0.44745058  1
  S2-  S195  1  -0.01707602  0.38565334  0.93682708  1
  S2-  S196  1  -0.00831387  0.62506201  0.45346774  1
  S2-  S197  1  -0.02019317  0.63938448  0.95483312  1
  S2-  S198  1  -0.00844040  0.87166980  0.46281466  1
  S2-  S199  1  -0.01798105  0.88985719  0.96919439  1
  S2-  S200  1  0.24095283  0.12569069  0.45853042  1
  S2-  S201  1  0.22987902  0.13317156  0.94941985  1
  S2-  S202  1  0.23996954  0.37310989  0.46256992  1
  S2-  S203  1  0.22934700  0.37829300  0.94929296  1
  S2-  S204  1  0.23964538  0.62202956  0.46024581  1
  S2-  S205  1  0.21970578  0.64046071  0.96020733  1
  S2-  S206  1  0.24002140  0.87205693  0.46835284  1
  S2-  S207  1  0.22680920  0.88835895  0.95998532  1
  S2-  S208  1  0.48938486  0.12413139  0.44977651  1
  S2-  S209  1  0.47802273  0.13942479  0.94933928  1
  S2-  S210  1  0.49473598  0.37653068  0.45684590  1
  S2-  S211  1  0.48079810  0.38187470  0.94938175  1
  S2-  S212  1  0.49989071  0.62611797  0.44035207  1
  S2-  S213  1  0.47860472  0.63501531  0.97079771  1
  S2-  S214  1  0.48986400  0.87190464  0.45329877  1
  S2-  S215  1  0.47626982  0.88460523  0.95406786  1
  S2-  S216  1  0.74099463  0.12339577  0.45598187  1
  S2-  S217  1  0.72869515  0.13245484  0.94537952  1
  S2-  S218  1  0.74412102  0.37244950  0.46115665  1
  S2-  S219  1  0.72181472  0.39126390  0.95348608  1
  S2-  S220  1  0.73967235  0.62103245  0.45492089  1
  S2-  S221  1  0.72849468  0.63949555  0.96079225  1
  S2-  S222  1  0.74545863  0.87376743  0.47015019  1
  S2-  S223  1  0.72569749  0.88149296  0.95344624  1
  S2-  S224  1  0.10417236  0.01626066  0.04584346  1
  S2-  S225  1  0.12105812  -0.00639888  0.55612429  1
  S2-  S226  1  0.10067855  0.25606254  0.03663692  1
  S2-  S227  1  0.12152315  0.24844765  0.55273409  1
  S2-  S228  1  0.09938349  0.50403681  0.03734424  1
  S2-  S229  1  0.11534401  0.49484566  0.53894027  1
  S2-  S230  1  0.09834137  0.76176758  0.04585195  1
  S2-  S231  1  0.11764806  0.74776756  0.55123136  1
  S2-  S232  1  0.35453420  0.00936898  0.04445657  1
  S2-  S233  1  0.36530138  -0.00027119  0.54178412  1
  S2-  S234  1  0.35556186  0.25999219  0.05190023  1
  S2-  S235  1  0.36639767  0.24775893  0.54887887  1
  S2-  S236  1  0.34752424  0.50742789  0.03980244  1
  S2-  S237  1  0.36502202  0.49646232  0.54004738  1
  S2-  S238  1  0.35477011  0.76194837  0.04914482  1
  S2-  S239  1  0.36614378  0.73861516  0.54230392  1
  S2-  S240  1  0.60642259  0.00831403  0.04513688  1
  S2-  S241  1  0.61259037  -0.00043020  0.54932065  1
  S2-  S242  1  0.60156339  0.25952786  0.04141400  1
  S2-  S243  1  0.60953892  0.24833638  0.55102332  1
  S2-  S244  1  0.60448319  0.50911315  0.04398822  1
  S2-  S245  1  0.61696956  0.49028473  0.54902891  1
  S2-  S246  1  0.60023271  0.76506292  0.06264021  1
  S2-  S247  1  0.61793774  0.74354376  0.53900368  1
  S2-  S248  1  0.84452930  0.00946914  0.03249490  1
  S2-  S249  1  0.87170054  -0.00372675  0.54805329  1
  S2-  S250  1  0.85381354  0.25878873  0.02221421  1
  S2-  S251  1  0.87169853  0.24505792  0.54503737  1
  S2-  S252  1  0.85981977  0.50948759  0.03714934  1
  S2-  S253  1  0.87329299  0.49377264  0.54508260  1
  S2-  S254  1  0.85452135  0.76227019  0.05337707  1
  S2-  S255  1  0.86917348  0.74317302  0.55458244  1
