# generated using pymatgen
data_La6Ce7Pr13Nd19Sm19(BiS2)64
_symmetry_space_group_name_H-M   'P 1'
_cell_length_a   16.00288817
_cell_length_b   15.99369328
_cell_length_c   27.35034124
_cell_angle_alpha   90.10675831
_cell_angle_beta   90.06580878
_cell_angle_gamma   89.99702036
_symmetry_Int_Tables_number   1
_chemical_formula_structural   La6Ce7Pr13Nd19Sm19(BiS2)64
_chemical_formula_sum   'La6 Ce7 Pr13 Nd19 Sm19 Bi64 S128'
_cell_volume   7000.17410571
_cell_formula_units_Z   1
loop_
 _symmetry_equiv_pos_site_id
 _symmetry_equiv_pos_as_xyz
  1  'x, y, z'
loop_
 _atom_type_symbol
 _atom_type_oxidation_number
  La3+  3.0
  Ce3+  3.0
  Pr3+  3.0
  Nd3+  3.0
  Sm3+  3.0
  Bi2+  2.0
  S2-  -2.0
loop_
 _atom_site_type_symbol
 _atom_site_label
 _atom_site_symmetry_multiplicity
 _atom_site_fract_x
 _atom_site_fract_y
 _atom_site_fract_z
 _atom_site_occupancy
  La3+  La0  1  0.26203163  0.36692710  0.60163241  1
  La3+  La1  1  0.73636824  0.85144005  0.07658845  1
  La3+  La2  1  0.00505055  0.62197203  0.59517839  1
  La3+  La3  1  0.73525915  0.35569965  0.07750343  1
  La3+  La4  1  0.85475781  0.22178601  0.92841092  1
  La3+  La5  1  0.37710826  0.73068060  0.41295354  1
  Ce3+  Ce6  1  0.13020999  0.48614170  0.45839395  1
  Ce3+  Ce7  1  0.50764158  0.11270163  0.55992876  1
  Ce3+  Ce8  1  -0.01267147  0.60758505  0.05185677  1
  Ce3+  Ce9  1  -0.00667306  0.10721148  0.06342550  1
  Ce3+  Ce10  1  0.00840170  0.86000621  0.55551743  1
  Ce3+  Ce11  1  0.88307372  -0.01523543  0.43571514  1
  Ce3+  Ce12  1  0.10468375  0.48333713  0.91095308  1
  Pr3+  Pr13  1  -0.01508198  0.35613405  0.05471393  1
  Pr3+  Pr14  1  0.75821037  0.36072219  0.56131638  1
  Pr3+  Pr15  1  0.37890988  -0.01547363  0.44013289  1
  Pr3+  Pr16  1  0.64280014  0.73485445  0.40945133  1
  Pr3+  Pr17  1  0.13074348  0.72957836  0.43430448  1
  Pr3+  Pr18  1  0.36163560  0.23106195  0.94184119  1
  Pr3+  Pr19  1  0.75243192  0.61825184  0.56967562  1
  Pr3+  Pr20  1  0.74696497  0.10217452  0.08648781  1
  Pr3+  Pr21  1  0.10833972  0.73442440  0.91802070  1
  Pr3+  Pr22  1  0.88952939  0.24058224  0.42472626  1
  Pr3+  Pr23  1  0.85807659  0.73463097  0.92935132  1
  Pr3+  Pr24  1  0.85879677  0.47919869  0.93269039  1
  Pr3+  Pr25  1  0.36133106  0.73358103  0.92946846  1
  Nd3+  Nd26  1  0.75524492  0.86425742  0.55854330  1
  Nd3+  Nd27  1  0.38021077  0.48408427  0.43872187  1
  Nd3+  Nd28  1  0.36209993  0.47975947  0.93932004  1
  Nd3+  Nd29  1  0.50635900  0.85787086  0.55115884  1
  Nd3+  Nd30  1  0.75705562  0.11382783  0.54906604  1
  Nd3+  Nd31  1  0.47904970  0.84555789  0.08481591  1
  Nd3+  Nd32  1  0.63346543  0.48329882  0.43218587  1
  Nd3+  Nd33  1  0.61110268  -0.01939129  0.95521831  1
  Nd3+  Nd34  1  0.00816740  0.11274321  0.55979590  1
  Nd3+  Nd35  1  0.26148660  0.61444456  0.57052332  1
  Nd3+  Nd36  1  0.60947886  0.73746871  0.93111411  1
  Nd3+  Nd37  1  0.62918651  -0.01120993  0.42677128  1
  Nd3+  Nd38  1  0.48661333  0.35777319  0.06515061  1
  Nd3+  Nd39  1  0.10988271  0.23201646  0.91818499  1
  Nd3+  Nd40  1  0.36075683  -0.02092422  0.95109289  1
  Nd3+  Nd41  1  0.25946532  0.11426357  0.57075240  1
  Nd3+  Nd42  1  0.23408616  0.35659558  0.05350958  1
  Nd3+  Nd43  1  0.23473062  0.84601306  0.07301095  1
  Nd3+  Nd44  1  0.00372902  0.35575851  0.57827520  1
  Sm3+  Sm45  1  0.11692707  -0.01881336  0.93264279  1
  Sm3+  Sm46  1  -0.00857285  0.85477204  0.05023433  1
  Sm3+  Sm47  1  0.37940601  0.23680772  0.44562835  1
  Sm3+  Sm48  1  0.23564025  0.60747201  0.05167936  1
  Sm3+  Sm49  1  0.87984304  0.73393221  0.44188855  1
  Sm3+  Sm50  1  0.50653791  0.61020744  0.54677333  1
  Sm3+  Sm51  1  0.48691240  0.10538102  0.06553245  1
  Sm3+  Sm52  1  0.51359687  0.35969865  0.56507653  1
  Sm3+  Sm53  1  0.25927020  0.85519250  0.56248217  1
  Sm3+  Sm54  1  0.73703209  0.61009151  0.05781000  1
  Sm3+  Sm55  1  0.13364617  -0.01605026  0.44642290  1
  Sm3+  Sm56  1  0.85906218  -0.01476831  0.94889308  1
  Sm3+  Sm57  1  0.23351417  0.10595142  0.06210547  1
  Sm3+  Sm58  1  0.61427893  0.23009966  0.94789121  1
  Sm3+  Sm59  1  0.13096554  0.23811382  0.44436410  1
  Sm3+  Sm60  1  0.63063148  0.23542160  0.42491643  1
  Sm3+  Sm61  1  0.61530970  0.47903964  0.93742612  1
  Sm3+  Sm62  1  0.88250172  0.48604246  0.44791630  1
  Sm3+  Sm63  1  0.48702821  0.60928806  0.05283202  1
  Bi2+  Bi64  1  0.04560110  0.14950440  0.27888277  1
  Bi2+  Bi65  1  -0.03257910  0.11644473  0.78542646  1
  Bi2+  Bi66  1  0.02483679  0.40765939  0.30281460  1
  Bi2+  Bi67  1  -0.00559022  0.37289691  0.77770425  1
  Bi2+  Bi68  1  0.02304563  0.70970828  0.30317716  1
  Bi2+  Bi69  1  0.00860171  0.63263947  0.78638498  1
  Bi2+  Bi70  1  -0.02551714  0.89856985  0.30800534  1
  Bi2+  Bi71  1  0.04387615  0.92875512  0.77569547  1
  Bi2+  Bi72  1  0.24144754  0.17207293  0.30277815  1
  Bi2+  Bi73  1  0.24074095  0.07853032  0.79175735  1
  Bi2+  Bi74  1  0.28233667  0.36346741  0.29377237  1
  Bi2+  Bi75  1  0.28597851  0.35296607  0.79040519  1
  Bi2+  Bi76  1  0.22231075  0.62078957  0.29992607  1
  Bi2+  Bi77  1  0.30114829  0.65185706  0.79259770  1
  Bi2+  Bi78  1  0.23440543  0.90617701  0.29036809  1
  Bi2+  Bi79  1  0.30167352  0.84307078  0.79913684  1
  Bi2+  Bi80  1  0.44264896  0.15550683  0.25162109  1
  Bi2+  Bi81  1  0.48289598  0.24683384  0.82340169  1
  Bi2+  Bi82  1  0.47879672  0.40124795  0.29267318  1
  Bi2+  Bi83  1  0.51851269  0.43763623  0.81464767  1
  Bi2+  Bi84  1  0.51226816  0.61715749  0.29555656  1
  Bi2+  Bi85  1  0.55804161  0.68331036  0.77542701  1
  Bi2+  Bi86  1  0.49057860  0.91988931  0.28340425  1
  Bi2+  Bi87  1  0.49990013  0.99836128  0.78504911  1
  Bi2+  Bi88  1  0.71751051  0.15068010  0.28439286  1
  Bi2+  Bi89  1  0.72002431  0.10352902  0.80255974  1
  Bi2+  Bi90  1  0.75619140  0.41336963  0.30054442  1
  Bi2+  Bi91  1  0.71756987  0.39803212  0.77469900  1
  Bi2+  Bi92  1  0.77227381  0.63497607  0.23492448  1
  Bi2+  Bi93  1  0.74774381  0.62136013  0.78775616  1
  Bi2+  Bi94  1  0.76136834  0.84817199  0.28854370  1
  Bi2+  Bi95  1  0.76241031  0.88552477  0.78754631  1
  Bi2+  Bi96  1  0.12284135  -0.02752244  0.20693269  1
  Bi2+  Bi97  1  0.16219216  0.00942362  0.69037402  1
  Bi2+  Bi98  1  0.14567608  0.25663174  0.20039958  1
  Bi2+  Bi99  1  0.10907557  0.22010937  0.71313963  1
  Bi2+  Bi100  1  0.16179184  0.48489161  0.23079203  1
  Bi2+  Bi101  1  0.17841801  0.48554112  0.72875408  1
  Bi2+  Bi102  1  0.12493864  0.76851242  0.20901083  1
  Bi2+  Bi103  1  0.14821479  0.80820047  0.70976424  1
  Bi2+  Bi104  1  0.27955020  0.09765550  0.19485836  1
  Bi2+  Bi105  1  0.35628502  -0.02804499  0.70422870  1
  Bi2+  Bi106  1  0.38982060  0.33688416  0.19198978  1
  Bi2+  Bi107  1  0.38686637  0.22950055  0.72132167  1
  Bi2+  Bi108  1  0.42507989  0.53559901  0.19896685  1
  Bi2+  Bi109  1  0.43958373  0.48920492  0.71136701  1
  Bi2+  Bi110  1  0.35344639  0.73706832  0.20529609  1
  Bi2+  Bi111  1  0.40032569  0.72900123  0.70473236  1
  Bi2+  Bi112  1  0.64406827  0.02064007  0.21465194  1
  Bi2+  Bi113  1  0.61200812  0.06455355  0.69901833  1
  Bi2+  Bi114  1  0.59631675  0.27379818  0.21961556  1
  Bi2+  Bi115  1  0.60044206  0.26262707  0.72599023  1
  Bi2+  Bi116  1  0.62409250  0.50872304  0.21556915  1
  Bi2+  Bi117  1  0.64449890  0.54472882  0.70019557  1
  Bi2+  Bi118  1  0.61692561  0.74580829  0.21798594  1
  Bi2+  Bi119  1  0.61156207  0.85823050  0.71665709  1
  Bi2+  Bi120  1  0.89712912  0.04281237  0.23857274  1
  Bi2+  Bi121  1  0.88318699  -0.02324012  0.71225151  1
  Bi2+  Bi122  1  0.87048816  0.27431229  0.20008351  1
  Bi2+  Bi123  1  0.81871918  0.22849902  0.68433615  1
  Bi2+  Bi124  1  0.94705799  0.49529757  0.21120612  1
  Bi2+  Bi125  1  0.86540542  0.49626045  0.72154419  1
  Bi2+  Bi126  1  0.91586537  0.76608133  0.20966903  1
  Bi2+  Bi127  1  0.85603051  0.77804513  0.70558482  1
  S2-  S128  1  -0.09730221  0.12371243  0.15032287  1
  S2-  S129  1  -0.02410293  0.18973996  0.64766465  1
  S2-  S130  1  0.01001422  0.34037444  0.15511635  1
  S2-  S131  1  -0.13406180  0.36812558  0.64496571  1
  S2-  S132  1  -0.02363016  0.62427561  0.14892524  1
  S2-  S133  1  0.07588685  0.59166358  0.68975694  1
  S2-  S134  1  0.00670450  0.87609337  0.14814908  1
  S2-  S135  1  0.00695829  0.79108803  0.64492664  1
  S2-  S136  1  0.11865624  0.11488650  0.13602812  1
  S2-  S137  1  0.25059340  0.21188875  0.65443166  1
  S2-  S138  1  0.23373797  0.39323677  0.15078922  1
  S2-  S139  1  0.10853268  0.36707268  0.66119335  1
  S2-  S140  1  0.22664207  0.69180315  0.13865402  1
  S2-  S141  1  0.28736421  0.52051050  0.65641751  1
  S2-  S142  1  0.34223768  0.86914145  0.15319465  1
  S2-  S143  1  0.25784862  0.74757415  0.64110398  1
  S2-  S144  1  0.51945858  0.11964287  0.16182169  1
  S2-  S145  1  0.44946083  0.10522750  0.65250730  1
  S2-  S146  1  0.59139180  0.38907528  0.14253023  1
  S2-  S147  1  0.42265557  0.36095344  0.65166120  1
  S2-  S148  1  0.48236364  0.68784400  0.14116806  1
  S2-  S149  1  0.50707333  0.61741688  0.64566584  1
  S2-  S150  1  0.55051454  0.88569395  0.17890745  1
  S2-  S151  1  0.46414124  0.86159618  0.64907479  1
  S2-  S152  1  0.72873849  0.23039523  0.15649677  1
  S2-  S153  1  0.76618867  0.07452063  0.64706488  1
  S2-  S154  1  0.81160093  0.42908322  0.16508709  1
  S2-  S155  1  0.63980050  0.31585354  0.63425232  1
  S2-  S156  1  0.73518601  0.70817241  0.14035982  1
  S2-  S157  1  0.85707010  0.61839452  0.65245103  1
  S2-  S158  1  0.75669056  0.96350650  0.15552369  1
  S2-  S159  1  0.71752119  0.78457055  0.64433414  1
  S2-  S160  1  0.11816481  -0.01596005  0.34896974  1
  S2-  S161  1  0.10695409  0.09402588  0.85452403  1
  S2-  S162  1  0.03535325  0.25454748  0.36140382  1
  S2-  S163  1  0.13019668  0.35676688  0.84228334  1
  S2-  S164  1  0.12375126  0.50825739  0.36069795  1
  S2-  S165  1  0.14526168  0.61344045  0.84169697  1
  S2-  S166  1  0.23059542  0.76830996  0.35320090  1
  S2-  S167  1  0.15684402  0.86867240  0.85518518  1
  S2-  S168  1  0.36845035  -0.01413440  0.33941324  1
  S2-  S169  1  0.36410687  -0.00513604  0.85164147  1
  S2-  S170  1  0.39139942  0.22982376  0.34671076  1
  S2-  S171  1  0.28956385  0.21624322  0.85029500  1
  S2-  S172  1  0.36356100  0.57660822  0.35369067  1
  S2-  S173  1  0.35408873  0.50449055  0.84053290  1
  S2-  S174  1  0.43819507  0.77982976  0.31638858  1
  S2-  S175  1  0.48531515  0.74752550  0.85656243  1
  S2-  S176  1  0.60838997  0.11234151  0.35326537  1
  S2-  S177  1  0.62911714  -0.02121567  0.85547529  1
  S2-  S178  1  0.61509302  0.36240437  0.35562619  1
  S2-  S179  1  0.70730499  0.22829309  0.86426760  1
  S2-  S180  1  0.64585192  0.58663843  0.35004519  1
  S2-  S181  1  0.72832313  0.48429356  0.86132320  1
  S2-  S182  1  0.62616877  0.88040142  0.34583050  1
  S2-  S183  1  0.73118026  0.75251672  0.85718848  1
  S2-  S184  1  0.84186462  0.00461316  0.34081280  1
  S2-  S185  1  0.85690425  0.06524610  0.86159634  1
  S2-  S186  1  0.81657328  0.26898687  0.33126047  1
  S2-  S187  1  0.93743391  0.26142040  0.83916885  1
  S2-  S188  1  0.88128199  0.48404690  0.34718751  1
  S2-  S189  1  0.96054759  0.49504573  0.84756937  1
  S2-  S190  1  0.79925828  0.73595699  0.35483899  1
  S2-  S191  1  0.96769157  0.74419439  0.84799463  1
  S2-  S192  1  0.00996743  0.10780960  0.45389797  1
  S2-  S193  1  -0.00849401  0.10356843  0.95749197  1
  S2-  S194  1  0.00649728  0.36235599  0.46596568  1
  S2-  S195  1  -0.01335578  0.35438786  0.94976996  1
  S2-  S196  1  0.00188866  0.61167604  0.45353204  1
  S2-  S197  1  -0.01440520  0.60721381  0.94925602  1
  S2-  S198  1  0.00746391  0.85855822  0.45001714  1
  S2-  S199  1  -0.01524679  0.86504658  0.94776848  1
  S2-  S200  1  0.25364671  0.11194578  0.45834979  1
  S2-  S201  1  0.23703885  0.10572704  0.95906396  1
  S2-  S202  1  0.25528288  0.35902587  0.44637155  1
  S2-  S203  1  0.23517726  0.35882381  0.94947777  1
  S2-  S204  1  0.25753979  0.60993441  0.46161857  1
  S2-  S205  1  0.23825671  0.60510620  0.94977768  1
  S2-  S206  1  0.25511502  0.85964824  0.45897263  1
  S2-  S207  1  0.24027142  0.85425493  0.96297742  1
  S2-  S208  1  0.50113033  0.11188654  0.45467010  1
  S2-  S209  1  0.48672403  0.10728465  0.95973658  1
  S2-  S210  1  0.50358386  0.35893107  0.45776675  1
  S2-  S211  1  0.48977528  0.35701409  0.95892220  1
  S2-  S212  1  0.50889994  0.61241946  0.44533037  1
  S2-  S213  1  0.48877718  0.60302787  0.94930499  1
  S2-  S214  1  0.50417406  0.85788763  0.44608672  1
  S2-  S215  1  0.48485100  0.85751136  0.96302489  1
  S2-  S216  1  0.76041397  0.11417821  0.44506900  1
  S2-  S217  1  0.73264690  0.10355072  0.97239787  1
  S2-  S218  1  0.76009865  0.35933814  0.45406765  1
  S2-  S219  1  0.73339760  0.35609770  0.96465025  1
  S2-  S220  1  0.75887379  0.60849998  0.45996628  1
  S2-  S221  1  0.73311649  0.60984481  0.95629933  1
  S2-  S222  1  0.75601637  0.86395756  0.45349253  1
  S2-  S223  1  0.73774985  0.86064770  0.96444870  1
  S2-  S224  1  0.11839800  -0.02479290  0.04047092  1
  S2-  S225  1  0.13612985  -0.01505902  0.55069414  1
  S2-  S226  1  0.11418563  0.23425647  0.03578079  1
  S2-  S227  1  0.13406607  0.23751477  0.54762450  1
  S2-  S228  1  0.11328272  0.48370086  0.04550257  1
  S2-  S229  1  0.12831257  0.49140955  0.56110715  1
  S2-  S230  1  0.11104788  0.73039629  0.03484344  1
  S2-  S231  1  0.13013947  0.73342972  0.54216564  1
  S2-  S232  1  0.36064280  -0.01623537  0.05514879  1
  S2-  S233  1  0.37785810  -0.01506122  0.54649890  1
  S2-  S234  1  0.36123759  0.23042168  0.05083793  1
  S2-  S235  1  0.38103615  0.23905306  0.54854973  1
  S2-  S236  1  0.36250837  0.48426415  0.04604258  1
  S2-  S237  1  0.38533913  0.48308999  0.54375063  1
  S2-  S238  1  0.36117308  0.72896212  0.03786369  1
  S2-  S239  1  0.38354574  0.73480198  0.53724231  1
  S2-  S240  1  0.60351878  -0.02353452  0.05938945  1
  S2-  S241  1  0.62975195  -0.01297204  0.54072362  1
  S2-  S242  1  0.60745446  0.22872613  0.05101773  1
  S2-  S243  1  0.63046644  0.23126540  0.53013229  1
  S2-  S244  1  0.61190003  0.48932185  0.04160301  1
  S2-  S245  1  0.63241771  0.48827365  0.54268027  1
  S2-  S246  1  0.60882736  0.73211131  0.03975187  1
  S2-  S247  1  0.62904898  0.73575519  0.53627719  1
  S2-  S248  1  0.86881953  -0.02214191  0.05032929  1
  S2-  S249  1  0.88384849  -0.01358263  0.54416136  1
  S2-  S250  1  0.86219034  0.23040332  0.04432765  1
  S2-  S251  1  0.88341785  0.23395108  0.53565296  1
  S2-  S252  1  0.85863447  0.48539831  0.04271735  1
  S2-  S253  1  0.88587287  0.49339606  0.55020091  1
  S2-  S254  1  0.86444378  0.73353276  0.03947583  1
  S2-  S255  1  0.88030102  0.73856233  0.54429345  1
