# generated using pymatgen
data_Ti27(Cu53Te54)2
_symmetry_space_group_name_H-M   'P 1'
_cell_length_a   17.91805067
_cell_length_b   17.91820617
_cell_length_c   17.91928842
_cell_angle_alpha   89.98954494
_cell_angle_beta   90.02048460
_cell_angle_gamma   90.00619058
_symmetry_Int_Tables_number   1
_chemical_formula_structural   Ti27(Cu53Te54)2
_chemical_formula_sum   'Ti27 Cu106 Te108'
_cell_volume   5753.15416443
_cell_formula_units_Z   1
loop_
 _symmetry_equiv_pos_site_id
 _symmetry_equiv_pos_as_xyz
  1  'x, y, z'
loop_
 _atom_type_symbol
 _atom_type_oxidation_number
  Ti4+  4.0
  Cu+  1.0
  Te2-  -2.0
loop_
 _atom_site_type_symbol
 _atom_site_label
 _atom_site_symmetry_multiplicity
 _atom_site_fract_x
 _atom_site_fract_y
 _atom_site_fract_z
 _atom_site_occupancy
  Ti4+  Ti0  1  0.16968760  0.16615313  0.16522993  1
  Ti4+  Ti1  1  0.16709651  0.16605179  0.49960028  1
  Ti4+  Ti2  1  0.16675629  0.16893636  0.83538016  1
  Ti4+  Ti3  1  0.16566513  0.49730677  0.16710504  1
  Ti4+  Ti4  1  0.16680370  0.50023089  0.50047392  1
  Ti4+  Ti5  1  0.16714829  0.50031026  0.83519680  1
  Ti4+  Ti6  1  0.16811172  0.83511153  0.16356859  1
  Ti4+  Ti7  1  0.16651630  0.83687427  0.50071850  1
  Ti4+  Ti8  1  0.17056509  0.83621105  0.83494406  1
  Ti4+  Ti9  1  0.50103646  0.16441895  0.16542537  1
  Ti4+  Ti10  1  0.49720819  0.16690466  0.49991355  1
  Ti4+  Ti11  1  0.50202421  0.16786041  0.83089043  1
  Ti4+  Ti12  1  0.49765279  0.49980327  0.16673780  1
  Ti4+  Ti13  1  0.49498338  0.50021867  0.49750117  1
  Ti4+  Ti14  1  0.49859536  0.49942593  0.83395273  1
  Ti4+  Ti15  1  0.50267032  0.83159659  0.16416447  1
  Ti4+  Ti16  1  0.49696729  0.83456718  0.49590211  1
  Ti4+  Ti17  1  0.50016653  0.82853902  0.82774495  1
  Ti4+  Ti18  1  0.83231934  0.16403103  0.16857447  1
  Ti4+  Ti19  1  0.83190156  0.16924172  0.50383448  1
  Ti4+  Ti20  1  0.83301870  0.16559441  0.83573888  1
  Ti4+  Ti21  1  0.83173353  0.49778253  0.16965217  1
  Ti4+  Ti22  1  0.83379597  0.50126499  0.50249744  1
  Ti4+  Ti23  1  0.83356574  0.50096148  0.83574565  1
  Ti4+  Ti24  1  0.83524170  0.82578808  0.16792725  1
  Ti4+  Ti25  1  0.83237305  0.83986206  0.50146605  1
  Ti4+  Ti26  1  0.83713238  0.83466250  0.83257501  1
  Cu+  Cu27  1  0.17049584  0.16592248  0.00123628  1
  Cu+  Cu28  1  0.16857466  0.16269777  0.33220603  1
  Cu+  Cu29  1  0.16365811  0.17034863  0.66939915  1
  Cu+  Cu30  1  0.16442473  0.49372637  -0.00004116  1
  Cu+  Cu31  1  0.16833141  0.49652688  0.33623254  1
  Cu+  Cu32  1  0.16635451  0.50106588  0.66638549  1
  Cu+  Cu33  1  0.16846991  0.83694696  0.00000205  1
  Cu+  Cu34  1  0.16329187  0.83441160  0.32763927  1
  Cu+  Cu35  1  0.17174285  0.83883663  0.66861925  1
  Cu+  Cu36  1  0.50311687  0.16647809  -0.00283628  1
  Cu+  Cu37  1  0.49957990  0.16572486  0.33141474  1
  Cu+  Cu38  1  0.50185095  0.17189440  0.66355502  1
  Cu+  Cu39  1  0.49969939  0.49704581  -0.00052352  1
  Cu+  Cu40  1  0.49636109  0.50686568  0.33083049  1
  Cu+  Cu41  1  0.49361588  0.49700922  0.66620982  1
  Cu+  Cu42  1  0.50167766  0.82863569  -0.00438552  1
  Cu+  Cu43  1  0.49978546  0.83289640  0.33042153  1
  Cu+  Cu44  1  0.49873216  0.83064467  0.65730284  1
  Cu+  Cu45  1  0.83343338  0.16342819  0.00147383  1
  Cu+  Cu46  1  0.83297125  0.16485804  0.33524005  1
  Cu+  Cu47  1  0.82911964  0.17149841  0.67286310  1
  Cu+  Cu48  1  0.82979958  0.49982603  0.00371767  1
  Cu+  Cu49  1  0.83450037  0.49967586  0.33657909  1
  Cu+  Cu50  1  0.83538968  0.50230396  0.66804110  1
  Cu+  Cu51  1  0.83154191  0.83013543  0.00110479  1
  Cu+  Cu52  1  0.83891337  0.82668502  0.33826302  1
  Cu+  Cu53  1  0.83562905  0.84430154  0.66647466  1
  Cu+  Cu54  1  0.17082933  0.00201582  0.16003485  1
  Cu+  Cu55  1  0.17237543  0.00106986  0.50010252  1
  Cu+  Cu56  1  0.16785489  0.00314454  0.83486910  1
  Cu+  Cu57  1  0.17027949  0.33214725  0.16476394  1
  Cu+  Cu58  1  0.16802627  0.33311189  0.49710073  1
  Cu+  Cu59  1  0.16300965  0.33525789  0.83794327  1
  Cu+  Cu60  1  0.16417971  0.66688615  0.16655151  1
  Cu+  Cu61  1  0.16267128  0.66647822  0.50009545  1
  Cu+  Cu62  1  0.17016253  0.66740515  0.83439306  1
  Cu+  Cu63  1  0.50390416  -0.00214135  0.16371629  1
  Cu+  Cu64  1  0.49967185  0.00087039  0.49805513  1
  Cu+  Cu65  1  0.50152092  0.00183149  0.82736236  1
  Cu+  Cu66  1  0.49964965  0.33040386  0.16631173  1
  Cu+  Cu67  1  0.49490834  0.33379189  0.50307136  1
  Cu+  Cu68  1  0.50307651  0.33436647  0.83433290  1
  Cu+  Cu69  1  0.50309595  0.66556219  0.16950668  1
  Cu+  Cu70  1  0.49106927  0.66633458  0.49157695  1
  Cu+  Cu71  1  0.49374845  0.66452031  0.83239697  1
  Cu+  Cu72  1  0.83322407  -0.00470026  0.16858575  1
  Cu+  Cu73  1  0.83725877  0.00645237  0.50288462  1
  Cu+  Cu74  1  0.83331247  -0.00085191  0.83213181  1
  Cu+  Cu75  1  0.83074597  0.33093140  0.16933439  1
  Cu+  Cu76  1  0.83401627  0.33668077  0.50373517  1
  Cu+  Cu77  1  0.83179234  0.33336441  0.83553784  1
  Cu+  Cu78  1  0.83527234  0.65677595  0.16924864  1
  Cu+  Cu79  1  0.83037716  0.66987263  0.50182737  1
  Cu+  Cu80  1  0.83560845  0.67014014  0.83673743  1
  Cu+  Cu81  1  0.00036259  0.16728920  0.16863955  1
  Cu+  Cu82  1  -0.00014591  0.16551788  0.49915037  1
  Cu+  Cu83  1  -0.00127853  0.16564016  0.83717822  1
  Cu+  Cu84  1  -0.00169634  0.49746974  0.17038194  1
  Cu+  Cu85  1  0.00157972  0.50123876  0.50314870  1
  Cu+  Cu86  1  0.00091661  0.49970659  0.83855633  1
  Cu+  Cu87  1  0.00468209  0.82744045  0.17032303  1
  Cu+  Cu88  1  -0.00294235  0.84134793  0.50126076  1
  Cu+  Cu89  1  0.00547877  0.83606818  0.83523605  1
  Cu+  Cu90  1  0.33606722  0.16278690  0.16224522  1
  Cu+  Cu91  1  0.33090389  0.16201815  0.49655368  1
  Cu+  Cu92  1  0.33556065  0.17080821  0.83113220  1
  Cu+  Cu93  1  0.33044767  0.49628344  0.16312037  1
  Cu+  Cu94  1  0.33134396  0.49565686  0.49476075  1
  Cu+  Cu95  1  0.33532265  0.50409781  0.83187119  1
  Cu+  Cu96  1  0.33528820  0.83320956  0.16382200  1
  Cu+  Cu97  1  0.33080381  0.83701305  0.50283713  1
  Cu+  Cu98  1  0.33305310  0.82611130  0.83000435  1
  Cu+  Cu99  1  0.66612774  0.16405961  0.16785592  1
  Cu+  Cu100  1  0.66386212  0.17177689  0.50411284  1
  Cu+  Cu101  1  0.66813549  0.16919722  0.83152889  1
  Cu+  Cu102  1  0.66360033  0.50175282  0.17112489  1
  Cu+  Cu103  1  0.66934255  0.50169357  0.50005004  1
  Cu+  Cu104  1  0.66306233  0.50114384  0.83314724  1
  Cu+  Cu105  1  0.67034436  0.83060930  0.16225997  1
  Cu+  Cu106  1  0.66205183  0.83915601  0.50145850  1
  Cu+  Cu107  1  0.67176924  0.83060515  0.82868215  1
  Cu+  Cu108  1  0.73368736  0.58093202  0.07253465  1
  Cu+  Cu109  1  0.92684417  0.08079260  0.40440349  1
  Cu+  Cu110  1  0.40839646  0.58975896  0.73770451  1
  Cu+  Cu111  1  0.25991586  0.93131669  0.59739126  1
  Cu+  Cu112  1  0.40580434  0.74061313  0.92811120  1
  Cu+  Cu113  1  0.26201013  0.40705920  0.06896345  1
  Cu+  Cu114  1  0.74075007  0.26626635  0.74751214  1
  Cu+  Cu115  1  0.74442576  0.92641928  0.07670062  1
  Cu+  Cu116  1  0.26590714  0.07100229  0.06828734  1
  Cu+  Cu117  1  0.40281990  0.40344755  0.59508379  1
  Cu+  Cu118  1  0.59305466  0.59507260  0.26187523  1
  Cu+  Cu119  1  0.06899265  0.40413492  0.92851460  1
  Cu+  Cu120  1  0.40051421  0.59484008  0.40040528  1
  Cu+  Cu121  1  0.92748200  0.73889772  0.42411432  1
  Cu+  Cu122  1  0.58898960  0.92885071  0.58897128  1
  Cu+  Cu123  1  0.26202216  0.07090740  0.40275273  1
  Cu+  Cu124  1  0.74055147  0.92698360  0.74118116  1
  Cu+  Cu125  1  0.92765018  0.93513137  0.59660715  1
  Cu+  Cu126  1  0.59208207  0.26621389  0.58866307  1
  Cu+  Cu127  1  0.40387225  0.73907015  0.58158763  1
  Cu+  Cu128  1  0.25870606  0.40188326  0.40532128  1
  Cu+  Cu129  1  0.74261970  0.74172391  0.92476297  1
  Cu+  Cu130  1  0.24887794  0.73719729  0.73735489  1
  Cu+  Cu131  1  0.08092419  0.73713339  0.25945212  1
  Cu+  Cu132  1  0.92960414  0.58021459  0.26532241  1
  Te2-  Te133  1  0.25681494  0.25306561  0.07899895  1
  Te2-  Te134  1  0.25349218  0.25094111  0.41141550  1
  Te2-  Te135  1  0.24920968  0.25593084  0.75016630  1
  Te2-  Te136  1  0.24743545  0.58437017  0.08113959  1
  Te2-  Te137  1  0.24993257  0.58970173  0.41304575  1
  Te2-  Te138  1  0.25339761  0.58622754  0.74393841  1
  Te2-  Te139  1  0.25780302  0.91892456  0.07728696  1
  Te2-  Te140  1  0.25196943  0.91680268  0.40906368  1
  Te2-  Te141  1  0.25798038  0.92496300  0.75108549  1
  Te2-  Te142  1  0.58677976  0.25049786  0.08164350  1
  Te2-  Te143  1  0.58139012  0.25337360  0.41506983  1
  Te2-  Te144  1  0.58814340  0.25839914  0.74454991  1
  Te2-  Te145  1  0.58287297  0.58519408  0.07827884  1
  Te2-  Te146  1  0.58601439  0.58660462  0.41562084  1
  Te2-  Te147  1  0.58177841  0.58474255  0.74552827  1
  Te2-  Te148  1  0.58772056  0.91593539  0.07599238  1
  Te2-  Te149  1  0.58307066  0.92038071  0.41042728  1
  Te2-  Te150  1  0.58590019  0.91747548  0.74250909  1
  Te2-  Te151  1  0.91631043  0.25033599  0.08378747  1
  Te2-  Te152  1  0.91688552  0.25328650  0.41722837  1
  Te2-  Te153  1  0.91975206  0.25266445  0.75208967  1
  Te2-  Te154  1  0.92098100  0.58112012  0.08154661  1
  Te2-  Te155  1  0.92273729  0.58807286  0.41678903  1
  Te2-  Te156  1  0.91958442  0.58576581  0.75303786  1
  Te2-  Te157  1  0.92023976  0.91174709  0.08455518  1
  Te2-  Te158  1  0.91857065  0.92533094  0.41157310  1
  Te2-  Te159  1  0.92684989  0.92330207  0.74993617  1
  Te2-  Te160  1  0.25602996  0.07825340  0.25075418  1
  Te2-  Te161  1  0.25238811  0.08394456  0.59140030  1
  Te2-  Te162  1  0.25707302  0.08274160  0.91706886  1
  Te2-  Te163  1  0.25319732  0.41202728  0.25337274  1
  Te2-  Te164  1  0.25107157  0.41262494  0.58791828  1
  Te2-  Te165  1  0.25752848  0.41423406  0.91707784  1
  Te2-  Te166  1  0.25300062  0.74862577  0.24978688  1
  Te2-  Te167  1  0.25052886  0.74410415  0.58493308  1
  Te2-  Te168  1  0.25306588  0.74688026  0.92395477  1
  Te2-  Te169  1  0.58526822  0.07909965  0.25226177  1
  Te2-  Te170  1  0.58470167  0.08113230  0.58604443  1
  Te2-  Te171  1  0.58695849  0.08119711  0.91438427  1
  Te2-  Te172  1  0.58075320  0.41458794  0.25349909  1
  Te2-  Te173  1  0.58502389  0.41869616  0.58449398  1
  Te2-  Te174  1  0.58626625  0.41522941  0.91916115  1
  Te2-  Te175  1  0.58936663  0.74859572  0.25315115  1
  Te2-  Te176  1  0.58239649  0.74314548  0.57749811  1
  Te2-  Te177  1  0.58794971  0.74423652  0.91301066  1
  Te2-  Te178  1  0.92022474  0.07801699  0.25222385  1
  Te2-  Te179  1  0.91965404  0.08739686  0.59365454  1
  Te2-  Te180  1  0.91762244  0.07852201  0.92004998  1
  Te2-  Te181  1  0.91707519  0.41089511  0.25516194  1
  Te2-  Te182  1  0.91997790  0.41693686  0.58761450  1
  Te2-  Te183  1  0.91556401  0.41371001  0.92318021  1
  Te2-  Te184  1  0.92362011  0.73980114  0.25695953  1
  Te2-  Te185  1  0.91775056  0.75241883  0.58684703  1
  Te2-  Te186  1  0.92366882  0.75091186  0.91936136  1
  Te2-  Te187  1  0.08514130  0.25063680  0.25169973  1
  Te2-  Te188  1  0.08181455  0.25267910  0.58236270  1
  Te2-  Te189  1  0.07934136  0.25106875  0.92401514  1
  Te2-  Te190  1  0.08178455  0.58379538  0.25735995  1
  Te2-  Te191  1  0.08145951  0.58627773  0.58710662  1
  Te2-  Te192  1  0.08436869  0.58763989  0.92030089  1
  Te2-  Te193  1  0.08273025  0.92402432  0.24646599  1
  Te2-  Te194  1  0.08253781  0.92311611  0.58732868  1
  Te2-  Te195  1  0.08440638  0.92164241  0.91961298  1
  Te2-  Te196  1  0.41389220  0.24922002  0.24987015  1
  Te2-  Te197  1  0.40661669  0.25001078  0.58557532  1
  Te2-  Te198  1  0.41812105  0.25249795  0.91744149  1
  Te2-  Te199  1  0.40664133  0.58786933  0.24733068  1
  Te2-  Te200  1  0.40650996  0.58607845  0.58436789  1
  Te2-  Te201  1  0.41253168  0.58503502  0.92428322  1
  Te2-  Te202  1  0.41728667  0.91753093  0.24764219  1
  Te2-  Te203  1  0.41287346  0.92431040  0.58598288  1
  Te2-  Te204  1  0.41806201  0.91579820  0.91173476  1
  Te2-  Te205  1  0.74694301  0.24846587  0.25421689  1
  Te2-  Te206  1  0.74596533  0.25890847  0.58978176  1
  Te2-  Te207  1  0.74777556  0.25092034  0.92223979  1
  Te2-  Te208  1  0.74606324  0.58586950  0.25916048  1
  Te2-  Te209  1  0.74857431  0.58723118  0.58701805  1
  Te2-  Te210  1  0.74389815  0.58753564  0.91934828  1
  Te2-  Te211  1  0.75136746  0.91018320  0.25469005  1
  Te2-  Te212  1  0.74341243  0.92786246  0.58649508  1
  Te2-  Te213  1  0.74690774  0.91908297  0.91964991  1
  Te2-  Te214  1  0.08051052  0.08360908  0.08073455  1
  Te2-  Te215  1  0.08153593  0.07839944  0.41420242  1
  Te2-  Te216  1  0.08135984  0.08331446  0.75064856  1
  Te2-  Te217  1  0.07651093  0.41081460  0.08442274  1
  Te2-  Te218  1  0.07906585  0.41510303  0.41635387  1
  Te2-  Te219  1  0.08118059  0.41689474  0.74883928  1
  Te2-  Te220  1  0.08321782  0.74842920  0.07718319  1
  Te2-  Te221  1  0.07918991  0.74986925  0.41495746  1
  Te2-  Te222  1  0.08491009  0.75078412  0.74831738  1
  Te2-  Te223  1  0.41877182  0.07745794  0.07587790  1
  Te2-  Te224  1  0.41510110  0.07894351  0.41121944  1
  Te2-  Te225  1  0.41599456  0.08529202  0.74454297  1
  Te2-  Te226  1  0.41533388  0.41111035  0.07968354  1
  Te2-  Te227  1  0.41455174  0.41134365  0.40774180  1
  Te2-  Te228  1  0.41123085  0.40938646  0.75004082  1
  Te2-  Te229  1  0.41584040  0.74428710  0.08112784  1
  Te2-  Te230  1  0.40671439  0.75179247  0.40773533  1
  Te2-  Te231  1  0.41081387  0.74370244  0.73747481  1
  Te2-  Te232  1  0.74673408  0.07824231  0.08179304  1
  Te2-  Te233  1  0.74471642  0.08447451  0.42020494  1
  Te2-  Te234  1  0.74564770  0.07929803  0.74756242  1
  Te2-  Te235  1  0.74396776  0.41315485  0.08519411  1
  Te2-  Te236  1  0.74925805  0.41525868  0.41655705  1
  Te2-  Te237  1  0.74720897  0.41865483  0.74839971  1
  Te2-  Te238  1  0.74805659  0.73740452  0.08107316  1
  Te2-  Te239  1  0.74423012  0.75280617  0.41936035  1
  Te2-  Te240  1  0.75528819  0.74840829  0.74245933  1
