# generated using pymatgen
data_Ti27(Cu53Te54)2
_symmetry_space_group_name_H-M   'P 1'
_cell_length_a   17.88190624
_cell_length_b   17.88553466
_cell_length_c   17.89170131
_cell_angle_alpha   90.01151837
_cell_angle_beta   89.97718913
_cell_angle_gamma   89.98141762
_symmetry_Int_Tables_number   1
_chemical_formula_structural   Ti27(Cu53Te54)2
_chemical_formula_sum   'Ti27 Cu106 Te108'
_cell_volume   5722.25640544
_cell_formula_units_Z   1
loop_
 _symmetry_equiv_pos_site_id
 _symmetry_equiv_pos_as_xyz
  1  'x, y, z'
loop_
 _atom_type_symbol
 _atom_type_oxidation_number
  Ti4+  4.0
  Cu+  1.0
  Te2-  -2.0
loop_
 _atom_site_type_symbol
 _atom_site_label
 _atom_site_symmetry_multiplicity
 _atom_site_fract_x
 _atom_site_fract_y
 _atom_site_fract_z
 _atom_site_occupancy
  Ti4+  Ti0  1  0.16951030  0.16610802  0.16552915  1
  Ti4+  Ti1  1  0.16938630  0.16973968  0.49436574  1
  Ti4+  Ti2  1  0.16268196  0.16329965  0.82993899  1
  Ti4+  Ti3  1  0.16506682  0.50320202  0.16095215  1
  Ti4+  Ti4  1  0.16737038  0.49972671  0.50067000  1
  Ti4+  Ti5  1  0.16354623  0.50530311  0.83174400  1
  Ti4+  Ti6  1  0.16636038  0.83034994  0.17111908  1
  Ti4+  Ti7  1  0.16787806  0.83247278  0.49961563  1
  Ti4+  Ti8  1  0.16324415  0.83159601  0.83582828  1
  Ti4+  Ti9  1  0.49936827  0.16676461  0.16630515  1
  Ti4+  Ti10  1  0.50004191  0.16951147  0.50312447  1
  Ti4+  Ti11  1  0.49900091  0.16608790  0.83513006  1
  Ti4+  Ti12  1  0.50133585  0.49836313  0.16953253  1
  Ti4+  Ti13  1  0.49960699  0.50108743  0.49965015  1
  Ti4+  Ti14  1  0.50134242  0.49950565  0.83483894  1
  Ti4+  Ti15  1  0.49970104  0.83212133  0.16780302  1
  Ti4+  Ti16  1  0.49838428  0.83398757  0.50034108  1
  Ti4+  Ti17  1  0.50059844  0.83294940  0.83376997  1
  Ti4+  Ti18  1  0.83378835  0.16855207  0.16682616  1
  Ti4+  Ti19  1  0.83119063  0.16383531  0.49820688  1
  Ti4+  Ti20  1  0.83401868  0.16309993  0.83521893  1
  Ti4+  Ti21  1  0.83630854  0.50082470  0.16796548  1
  Ti4+  Ti22  1  0.83544072  0.49913926  0.49837981  1
  Ti4+  Ti23  1  0.83511379  0.49688470  0.83216124  1
  Ti4+  Ti24  1  0.83000533  0.83538262  0.16937330  1
  Ti4+  Ti25  1  0.83244035  0.83476706  0.50216605  1
  Ti4+  Ti26  1  0.83542292  0.83471321  0.83211686  1
  Cu+  Cu27  1  0.16552995  0.16540742  -0.00063049  1
  Cu+  Cu28  1  0.16959410  0.16749071  0.32988662  1
  Cu+  Cu29  1  0.16419752  0.16598496  0.65751987  1
  Cu+  Cu30  1  0.15838022  0.50538022  -0.00544693  1
  Cu+  Cu31  1  0.16318302  0.50375041  0.33239946  1
  Cu+  Cu32  1  0.16767043  0.50832237  0.66562425  1
  Cu+  Cu33  1  0.16649422  0.82620210  0.00584158  1
  Cu+  Cu34  1  0.17068592  0.83330311  0.33373633  1
  Cu+  Cu35  1  0.16451578  0.83060019  0.66880287  1
  Cu+  Cu36  1  0.49923561  0.16668916  0.00001169  1
  Cu+  Cu37  1  0.50031315  0.17139700  0.33679934  1
  Cu+  Cu38  1  0.50087387  0.16644888  0.67380833  1
  Cu+  Cu39  1  0.49964740  0.49693272  0.00208018  1
  Cu+  Cu40  1  0.50537311  0.50140852  0.33278343  1
  Cu+  Cu41  1  0.49840826  0.49964884  0.66908571  1
  Cu+  Cu42  1  0.50031335  0.83221848  -0.00276371  1
  Cu+  Cu43  1  0.49894316  0.83108808  0.33508376  1
  Cu+  Cu44  1  0.50093844  0.83454077  0.66713927  1
  Cu+  Cu45  1  0.83216087  0.16861708  0.00355015  1
  Cu+  Cu46  1  0.82852513  0.16365871  0.32749157  1
  Cu+  Cu47  1  0.83076264  0.16166018  0.66557200  1
  Cu+  Cu48  1  0.83930155  0.49849417  -0.00034316  1
  Cu+  Cu49  1  0.83915354  0.49622535  0.33645916  1
  Cu+  Cu50  1  0.83404231  0.49606714  0.66295825  1
  Cu+  Cu51  1  0.83349577  0.83577375  0.00270486  1
  Cu+  Cu52  1  0.82919198  0.83906613  0.33810322  1
  Cu+  Cu53  1  0.83334351  0.83098813  0.66572376  1
  Cu+  Cu54  1  0.16913804  -0.00387726  0.17064209  1
  Cu+  Cu55  1  0.16981614  0.00391827  0.49747982  1
  Cu+  Cu56  1  0.15746508  -0.00336753  0.83418610  1
  Cu+  Cu57  1  0.16988260  0.33196257  0.16284662  1
  Cu+  Cu58  1  0.17406050  0.33081202  0.50133315  1
  Cu+  Cu59  1  0.16137719  0.33633089  0.82828497  1
  Cu+  Cu60  1  0.16851261  0.66602167  0.16348709  1
  Cu+  Cu61  1  0.16714471  0.66534715  0.49950127  1
  Cu+  Cu62  1  0.16559273  0.66519281  0.83071049  1
  Cu+  Cu63  1  0.49896035  -0.00006744  0.16751267  1
  Cu+  Cu64  1  0.49907181  0.00136143  0.50253885  1
  Cu+  Cu65  1  0.49966918  -0.00036125  0.83450620  1
  Cu+  Cu66  1  0.50117749  0.33393344  0.16752618  1
  Cu+  Cu67  1  0.49438682  0.33538364  0.49914082  1
  Cu+  Cu68  1  0.49993441  0.33137263  0.83672404  1
  Cu+  Cu69  1  0.50215048  0.66281521  0.17030528  1
  Cu+  Cu70  1  0.50072515  0.66971587  0.49848327  1
  Cu+  Cu71  1  0.50248379  0.66883566  0.83111240  1
  Cu+  Cu72  1  0.83026179  0.00521442  0.17004396  1
  Cu+  Cu73  1  0.82389847  -0.00287803  0.50002484  1
  Cu+  Cu74  1  0.84232269  -0.00051733  0.83264562  1
  Cu+  Cu75  1  0.83715997  0.33509145  0.16597539  1
  Cu+  Cu76  1  0.83719380  0.33235099  0.49617004  1
  Cu+  Cu77  1  0.83331559  0.32670701  0.83022382  1
  Cu+  Cu78  1  0.83018297  0.67256419  0.17077747  1
  Cu+  Cu79  1  0.83338134  0.66776911  0.50166981  1
  Cu+  Cu80  1  0.83507548  0.66650936  0.83372509  1
  Cu+  Cu81  1  0.00281695  0.16779026  0.16651327  1
  Cu+  Cu82  1  0.00272982  0.16634025  0.49486240  1
  Cu+  Cu83  1  -0.00109400  0.15636212  0.83282565  1
  Cu+  Cu84  1  -0.00072965  0.49902421  0.15590551  1
  Cu+  Cu85  1  -0.00033131  0.49746782  0.49233457  1
  Cu+  Cu86  1  -0.00146730  0.50368438  0.83739640  1
  Cu+  Cu87  1  -0.00369235  0.83483671  0.17258873  1
  Cu+  Cu88  1  -0.00248562  0.83329527  0.49911608  1
  Cu+  Cu89  1  -0.00061638  0.84008248  0.83554698  1
  Cu+  Cu90  1  0.33390637  0.16562283  0.16464360  1
  Cu+  Cu91  1  0.33541131  0.17805784  0.49583975  1
  Cu+  Cu92  1  0.33205201  0.16671360  0.83207954  1
  Cu+  Cu93  1  0.33724673  0.50583225  0.16427292  1
  Cu+  Cu94  1  0.33687519  0.49672000  0.50700129  1
  Cu+  Cu95  1  0.33089774  0.50067598  0.83461587  1
  Cu+  Cu96  1  0.33127579  0.82953487  0.17287551  1
  Cu+  Cu97  1  0.33533891  0.83284919  0.50208036  1
  Cu+  Cu98  1  0.33533514  0.83234007  0.83376640  1
  Cu+  Cu99  1  0.66573680  0.17010796  0.16834656  1
  Cu+  Cu100  1  0.66614141  0.16512196  0.50540102  1
  Cu+  Cu101  1  0.66514169  0.16498899  0.83578284  1
  Cu+  Cu102  1  0.66810526  0.50118011  0.17259540  1
  Cu+  Cu103  1  0.66824538  0.49914371  0.49927759  1
  Cu+  Cu104  1  0.66814592  0.49607731  0.83238921  1
  Cu+  Cu105  1  0.66423174  0.83357737  0.16547063  1
  Cu+  Cu106  1  0.66429586  0.83668101  0.49969056  1
  Cu+  Cu107  1  0.66785362  0.83355703  0.83321887  1
  Cu+  Cu108  1  0.07066673  0.59922631  0.07452928  1
  Cu+  Cu109  1  0.26095799  0.58561262  0.26186976  1
  Cu+  Cu110  1  0.93091860  0.39910530  0.40596433  1
  Cu+  Cu111  1  0.26191053  0.59261561  0.92022166  1
  Cu+  Cu112  1  0.26105460  0.25360654  0.59694228  1
  Cu+  Cu113  1  0.07762734  0.07162874  0.93314610  1
  Cu+  Cu114  1  0.07194711  0.59609212  0.40553625  1
  Cu+  Cu115  1  0.07554348  0.92164776  0.73591228  1
  Cu+  Cu116  1  0.92276051  0.40138283  0.06987270  1
  Cu+  Cu117  1  0.42112144  0.59419427  0.07150464  1
  Cu+  Cu118  1  0.92328772  0.07444644  0.73339358  1
  Cu+  Cu119  1  0.26452882  0.59739914  0.59011306  1
  Cu+  Cu120  1  0.26160867  0.92837804  0.26294285  1
  Cu+  Cu121  1  0.59944958  0.59500065  0.26274953  1
  Cu+  Cu122  1  0.40929284  0.26573248  0.40048954  1
  Cu+  Cu123  1  0.91778399  0.59847631  0.92800944  1
  Cu+  Cu124  1  0.73229680  0.92414034  0.40640743  1
  Cu+  Cu125  1  0.92040289  0.92716605  0.93547530  1
  Cu+  Cu126  1  0.41412917  0.40655468  0.60090985  1
  Cu+  Cu127  1  0.26427977  0.74586826  0.07561722  1
  Cu+  Cu128  1  0.07445991  0.07385242  0.57814025  1
  Cu+  Cu129  1  0.73467343  0.07055964  0.59870344  1
  Cu+  Cu130  1  0.07504523  0.40384982  0.92068517  1
  Cu+  Cu131  1  0.73293429  0.07610956  0.25344028  1
  Cu+  Cu132  1  0.06640874  0.58945633  0.73545761  1
  Te2-  Te133  1  0.25369594  0.25031857  0.07764060  1
  Te2-  Te134  1  0.25399208  0.25811525  0.40522549  1
  Te2-  Te135  1  0.24823416  0.25211227  0.74796699  1
  Te2-  Te136  1  0.25702197  0.58876537  0.07235041  1
  Te2-  Te137  1  0.25688954  0.58371418  0.41616740  1
  Te2-  Te138  1  0.25733678  0.58998481  0.74619201  1
  Te2-  Te139  1  0.25285806  0.91486028  0.08255335  1
  Te2-  Te140  1  0.25556502  0.91931773  0.41676255  1
  Te2-  Te141  1  0.24923821  0.91666085  0.75159137  1
  Te2-  Te142  1  0.58437386  0.25233750  0.08132638  1
  Te2-  Te143  1  0.58746123  0.25447821  0.41967952  1
  Te2-  Te144  1  0.58682052  0.25262161  0.75114676  1
  Te2-  Te145  1  0.58770881  0.58311828  0.08170967  1
  Te2-  Te146  1  0.58843958  0.58788811  0.41635459  1
  Te2-  Te147  1  0.58652351  0.58305453  0.74870628  1
  Te2-  Te148  1  0.58230347  0.91799352  0.08147579  1
  Te2-  Te149  1  0.58138806  0.92247930  0.41279968  1
  Te2-  Te150  1  0.58588723  0.91919002  0.74922744  1
  Te2-  Te151  1  0.92295488  0.25136810  0.07936381  1
  Te2-  Te152  1  0.91822581  0.24631787  0.40892592  1
  Te2-  Te153  1  0.91980304  0.24568391  0.74642392  1
  Te2-  Te154  1  0.91714779  0.59549213  0.08105186  1
  Te2-  Te155  1  0.91911544  0.59118621  0.41246221  1
  Te2-  Te156  1  0.91620627  0.58518225  0.74319882  1
  Te2-  Te157  1  0.91823507  0.92292415  0.08762950  1
  Te2-  Te158  1  0.91823284  0.92200737  0.41681767  1
  Te2-  Te159  1  0.92219784  0.91969326  0.73884952  1
  Te2-  Te160  1  0.25621218  0.08088150  0.25292923  1
  Te2-  Te161  1  0.25850564  0.08503976  0.58031558  1
  Te2-  Te162  1  0.24860181  0.07934751  0.91457308  1
  Te2-  Te163  1  0.25057738  0.41952761  0.24751245  1
  Te2-  Te164  1  0.25277507  0.41276640  0.59244640  1
  Te2-  Te165  1  0.24654680  0.41539221  0.91786109  1
  Te2-  Te166  1  0.25283483  0.74026618  0.25756428  1
  Te2-  Te167  1  0.25278884  0.74858941  0.58768506  1
  Te2-  Te168  1  0.25433689  0.74613917  0.91932453  1
  Te2-  Te169  1  0.58222175  0.08164124  0.25573073  1
  Te2-  Te170  1  0.58274929  0.08056073  0.59032825  1
  Te2-  Te171  1  0.58429034  0.08006404  0.92059038  1
  Te2-  Te172  1  0.58760544  0.41133371  0.25399893  1
  Te2-  Te173  1  0.58423747  0.41503253  0.58448350  1
  Te2-  Te174  1  0.58575348  0.41422385  0.92003888  1
  Te2-  Te175  1  0.58724476  0.74790496  0.25445657  1
  Te2-  Te176  1  0.58542184  0.74952140  0.58504252  1
  Te2-  Te177  1  0.58783929  0.74742357  0.91861485  1
  Te2-  Te178  1  0.92197808  0.08278457  0.25142610  1
  Te2-  Te179  1  0.92033830  0.07599421  0.58065782  1
  Te2-  Te180  1  0.92107100  0.07895208  0.92930338  1
  Te2-  Te181  1  0.92548511  0.41450626  0.25152618  1
  Te2-  Te182  1  0.92214014  0.41260271  0.58323162  1
  Te2-  Te183  1  0.92144585  0.40542350  0.91727981  1
  Te2-  Te184  1  0.91424926  0.75235620  0.25785836  1
  Te2-  Te185  1  0.91967688  0.74763245  0.58556605  1
  Te2-  Te186  1  0.92025180  0.75054708  0.92097342  1
  Te2-  Te187  1  0.08458170  0.25345632  0.24983890  1
  Te2-  Te188  1  0.07899715  0.25510218  0.58025059  1
  Te2-  Te189  1  0.07815628  0.24968310  0.91581665  1
  Te2-  Te190  1  0.07612476  0.58650005  0.24802654  1
  Te2-  Te191  1  0.07542319  0.58614929  0.58212170  1
  Te2-  Te192  1  0.07331940  0.59740442  0.92108586  1
  Te2-  Te193  1  0.08079548  0.91757547  0.25590959  1
  Te2-  Te194  1  0.08061159  0.91959156  0.58290872  1
  Te2-  Te195  1  0.07953783  0.91675692  0.93020868  1
  Te2-  Te196  1  0.41263401  0.25427638  0.25028715  1
  Te2-  Te197  1  0.41412561  0.25492887  0.59531842  1
  Te2-  Te198  1  0.41172466  0.25114174  0.91994338  1
  Te2-  Te199  1  0.41432913  0.58713697  0.25823168  1
  Te2-  Te200  1  0.41712730  0.59065228  0.58763897  1
  Te2-  Te201  1  0.41562983  0.58945468  0.91942514  1
  Te2-  Te202  1  0.41472937  0.91825934  0.25442127  1
  Te2-  Te203  1  0.41427618  0.91961645  0.58727127  1
  Te2-  Te204  1  0.41389686  0.91843113  0.91927194  1
  Te2-  Te205  1  0.74847312  0.25760585  0.25077507  1
  Te2-  Te206  1  0.75167446  0.25307660  0.58426489  1
  Te2-  Te207  1  0.74864052  0.24985108  0.91880446  1
  Te2-  Te208  1  0.75272719  0.58590963  0.25740280  1
  Te2-  Te209  1  0.74928680  0.58359427  0.58459843  1
  Te2-  Te210  1  0.74990043  0.58198588  0.91830400  1
  Te2-  Te211  1  0.74058645  0.92191879  0.25334346  1
  Te2-  Te212  1  0.74296395  0.91757658  0.59230397  1
  Te2-  Te213  1  0.75020976  0.92069106  0.91678142  1
  Te2-  Te214  1  0.08209057  0.07694082  0.08478401  1
  Te2-  Te215  1  0.08406024  0.08127898  0.40887701  1
  Te2-  Te216  1  0.07811886  0.07613193  0.73692330  1
  Te2-  Te217  1  0.08162913  0.40872289  0.07603729  1
  Te2-  Te218  1  0.08654989  0.40931133  0.41246354  1
  Te2-  Te219  1  0.07804751  0.42065726  0.74335845  1
  Te2-  Te220  1  0.07338502  0.74932459  0.08475266  1
  Te2-  Te221  1  0.08106716  0.74903065  0.41304709  1
  Te2-  Te222  1  0.07588004  0.74629251  0.74836325  1
  Te2-  Te223  1  0.41523667  0.08037514  0.08109483  1
  Te2-  Te224  1  0.41517363  0.08408152  0.41765018  1
  Te2-  Te225  1  0.41313886  0.07972221  0.74949836  1
  Te2-  Te226  1  0.41380885  0.41290523  0.08336604  1
  Te2-  Te227  1  0.41265987  0.41850417  0.40930924  1
  Te2-  Te228  1  0.41214796  0.41267840  0.75284948  1
  Te2-  Te229  1  0.41536754  0.74572998  0.07989028  1
  Te2-  Te230  1  0.41261763  0.74722175  0.41476391  1
  Te2-  Te231  1  0.41496114  0.74822363  0.74666132  1
  Te2-  Te232  1  0.74529675  0.08325462  0.08167028  1
  Te2-  Te233  1  0.74051463  0.08072277  0.41092811  1
  Te2-  Te234  1  0.74575585  0.07658133  0.75196815  1
  Te2-  Te235  1  0.74910270  0.41803226  0.08281413  1
  Te2-  Te236  1  0.74798517  0.41322068  0.41391519  1
  Te2-  Te237  1  0.75050126  0.41165762  0.74686122  1
  Te2-  Te238  1  0.74706629  0.75026355  0.08112541  1
  Te2-  Te239  1  0.74657818  0.74857593  0.41727289  1
  Te2-  Te240  1  0.74987850  0.74742889  0.74947767  1
