# generated using pymatgen
data_Ti27(Cu53Te54)2
_symmetry_space_group_name_H-M   'P 1'
_cell_length_a   17.92402709
_cell_length_b   17.93317988
_cell_length_c   17.92338626
_cell_angle_alpha   90.00806610
_cell_angle_beta   90.03404864
_cell_angle_gamma   90.05157265
_symmetry_Int_Tables_number   1
_chemical_formula_structural   Ti27(Cu53Te54)2
_chemical_formula_sum   'Ti27 Cu106 Te108'
_cell_volume   5761.19670865
_cell_formula_units_Z   1
loop_
 _symmetry_equiv_pos_site_id
 _symmetry_equiv_pos_as_xyz
  1  'x, y, z'
loop_
 _atom_type_symbol
 _atom_type_oxidation_number
  Ti4+  4.0
  Cu+  1.0
  Te2-  -2.0
loop_
 _atom_site_type_symbol
 _atom_site_label
 _atom_site_symmetry_multiplicity
 _atom_site_fract_x
 _atom_site_fract_y
 _atom_site_fract_z
 _atom_site_occupancy
  Ti4+  Ti0  1  0.16900801  0.16362134  0.16875063  1
  Ti4+  Ti1  1  0.16564214  0.16663065  0.49973310  1
  Ti4+  Ti2  1  0.16668090  0.16910089  0.83316662  1
  Ti4+  Ti3  1  0.16583393  0.49698409  0.16651624  1
  Ti4+  Ti4  1  0.16813538  0.49958686  0.49965502  1
  Ti4+  Ti5  1  0.16930960  0.50217152  0.83313639  1
  Ti4+  Ti6  1  0.16411521  0.83263849  0.16871665  1
  Ti4+  Ti7  1  0.16406892  0.83490212  0.50486851  1
  Ti4+  Ti8  1  0.16706525  0.83713067  0.83747413  1
  Ti4+  Ti9  1  0.49823450  0.16652069  0.16579045  1
  Ti4+  Ti10  1  0.50158019  0.16202388  0.50042023  1
  Ti4+  Ti11  1  0.50208945  0.16576295  0.83234491  1
  Ti4+  Ti12  1  0.50337519  0.49797262  0.16889848  1
  Ti4+  Ti13  1  0.49980090  0.49815163  0.49219042  1
  Ti4+  Ti14  1  0.49963675  0.49956124  0.83036409  1
  Ti4+  Ti15  1  0.50199657  0.83077698  0.16782459  1
  Ti4+  Ti16  1  0.49715226  0.83186353  0.49414622  1
  Ti4+  Ti17  1  0.50000050  0.83128045  0.83283337  1
  Ti4+  Ti18  1  0.83249446  0.17038151  0.16558450  1
  Ti4+  Ti19  1  0.83189452  0.17011693  0.49856871  1
  Ti4+  Ti20  1  0.82905932  0.16812968  0.83525770  1
  Ti4+  Ti21  1  0.83461397  0.49868594  0.16425105  1
  Ti4+  Ti22  1  0.83394201  0.50234927  0.50027663  1
  Ti4+  Ti23  1  0.83614774  0.50368417  0.82988127  1
  Ti4+  Ti24  1  0.83361762  0.83467478  0.16846551  1
  Ti4+  Ti25  1  0.83083845  0.83888063  0.50112663  1
  Ti4+  Ti26  1  0.83407957  0.83403251  0.83833438  1
  Cu+  Cu27  1  0.16674577  0.16856098  -0.00000112  1
  Cu+  Cu28  1  0.17112283  0.15923044  0.33588553  1
  Cu+  Cu29  1  0.16376839  0.16864272  0.66615214  1
  Cu+  Cu30  1  0.16680756  0.50003063  -0.00150660  1
  Cu+  Cu31  1  0.16686955  0.49734001  0.33191507  1
  Cu+  Cu32  1  0.17298794  0.49945130  0.66737454  1
  Cu+  Cu33  1  0.16492980  0.83498069  0.00164321  1
  Cu+  Cu34  1  0.15983322  0.83421881  0.33481230  1
  Cu+  Cu35  1  0.16898529  0.83480958  0.67281867  1
  Cu+  Cu36  1  0.49909981  0.16550748  -0.00250201  1
  Cu+  Cu37  1  0.49644756  0.16403783  0.33256891  1
  Cu+  Cu38  1  0.50558515  0.16620427  0.66710844  1
  Cu+  Cu39  1  0.50242005  0.49950484  0.00137662  1
  Cu+  Cu40  1  0.49786585  0.50220786  0.32808295  1
  Cu+  Cu41  1  0.49822052  0.49877711  0.66227656  1
  Cu+  Cu42  1  0.50005601  0.83020595  0.00065343  1
  Cu+  Cu43  1  0.50237399  0.82702256  0.33311782  1
  Cu+  Cu44  1  0.49720397  0.82999114  0.66176308  1
  Cu+  Cu45  1  0.82682047  0.17053172  0.00149174  1
  Cu+  Cu46  1  0.83587233  0.17012352  0.33193219  1
  Cu+  Cu47  1  0.83073549  0.16816518  0.66636399  1
  Cu+  Cu48  1  0.83296775  0.49956089  -0.00745850  1
  Cu+  Cu49  1  0.83791938  0.49764786  0.33594103  1
  Cu+  Cu50  1  0.83430230  0.50644145  0.66615809  1
  Cu+  Cu51  1  0.83749889  0.83078542  0.00500639  1
  Cu+  Cu52  1  0.83012057  0.84004805  0.33454247  1
  Cu+  Cu53  1  0.83137170  0.84011486  0.67334171  1
  Cu+  Cu54  1  0.16686934  -0.00299182  0.16815548  1
  Cu+  Cu55  1  0.16302332  -0.00053515  0.49967931  1
  Cu+  Cu56  1  0.16450310  0.00396145  0.83603217  1
  Cu+  Cu57  1  0.16496111  0.32672829  0.16445226  1
  Cu+  Cu58  1  0.16901617  0.33374616  0.50115479  1
  Cu+  Cu59  1  0.16940544  0.33527324  0.83204666  1
  Cu+  Cu60  1  0.16321932  0.66274263  0.16869173  1
  Cu+  Cu61  1  0.16580241  0.66730281  0.50409796  1
  Cu+  Cu62  1  0.16975391  0.67044164  0.83398841  1
  Cu+  Cu63  1  0.49892672  -0.00185644  0.16626022  1
  Cu+  Cu64  1  0.50163710  -0.00676044  0.50344207  1
  Cu+  Cu65  1  0.50027812  -0.00102214  0.83229555  1
  Cu+  Cu66  1  0.50324954  0.33104750  0.17268769  1
  Cu+  Cu67  1  0.49942197  0.32578847  0.49869958  1
  Cu+  Cu68  1  0.50098605  0.33261194  0.83022569  1
  Cu+  Cu69  1  0.50586794  0.66553515  0.16922066  1
  Cu+  Cu70  1  0.49792549  0.66466251  0.48717787  1
  Cu+  Cu71  1  0.49869176  0.66405837  0.83293796  1
  Cu+  Cu72  1  0.83494566  0.00370055  0.16806641  1
  Cu+  Cu73  1  0.82674033  0.00434693  0.49816518  1
  Cu+  Cu74  1  0.82821482  0.00007586  0.83917444  1
  Cu+  Cu75  1  0.82818527  0.33388900  0.16305890  1
  Cu+  Cu76  1  0.83806599  0.33725685  0.49828840  1
  Cu+  Cu77  1  0.83174509  0.33891964  0.83369533  1
  Cu+  Cu78  1  0.83913745  0.66874859  0.16463278  1
  Cu+  Cu79  1  0.83417516  0.66882349  0.50408994  1
  Cu+  Cu80  1  0.83779379  0.66766839  0.83418088  1
  Cu+  Cu81  1  0.00252913  0.17006794  0.16477295  1
  Cu+  Cu82  1  -0.00125528  0.17024868  0.50086686  1
  Cu+  Cu83  1  -0.00263115  0.16902930  0.83502871  1
  Cu+  Cu84  1  0.00074420  0.49763637  0.16414429  1
  Cu+  Cu85  1  -0.00025981  0.50028287  0.49919060  1
  Cu+  Cu86  1  0.00305427  0.50556842  0.82995449  1
  Cu+  Cu87  1  -0.00324622  0.83027441  0.16620514  1
  Cu+  Cu88  1  0.00017572  0.84130587  0.50397507  1
  Cu+  Cu89  1  0.00148468  0.83696488  0.83999789  1
  Cu+  Cu90  1  0.33491707  0.15864334  0.17014964  1
  Cu+  Cu91  1  0.33292979  0.16246272  0.49745663  1
  Cu+  Cu92  1  0.33512556  0.16717898  0.83114677  1
  Cu+  Cu93  1  0.33149910  0.49747747  0.16636157  1
  Cu+  Cu94  1  0.33434967  0.49917710  0.49066887  1
  Cu+  Cu95  1  0.33434709  0.49762839  0.83106718  1
  Cu+  Cu96  1  0.33273469  0.82909038  0.16817109  1
  Cu+  Cu97  1  0.32772710  0.82698022  0.49746272  1
  Cu+  Cu98  1  0.33347998  0.83404528  0.83301687  1
  Cu+  Cu99  1  0.66412997  0.17335365  0.16354769  1
  Cu+  Cu100  1  0.66849387  0.16441454  0.50731381  1
  Cu+  Cu101  1  0.66697146  0.16377751  0.83762475  1
  Cu+  Cu102  1  0.67178519  0.49603998  0.17192913  1
  Cu+  Cu103  1  0.66806013  0.50108364  0.49961338  1
  Cu+  Cu104  1  0.66522652  0.50376117  0.82889927  1
  Cu+  Cu105  1  0.66832777  0.83514849  0.16717765  1
  Cu+  Cu106  1  0.66501272  0.83925343  0.49487926  1
  Cu+  Cu107  1  0.66699622  0.83240865  0.83516221  1
  Cu+  Cu108  1  0.73585168  0.41472211  0.91524898  1
  Cu+  Cu109  1  0.73899204  0.07024627  0.93255092  1
  Cu+  Cu110  1  0.74498505  0.07621101  0.59557101  1
  Cu+  Cu111  1  0.25944389  0.06912685  0.41352374  1
  Cu+  Cu112  1  0.07189924  0.92811798  0.40652795  1
  Cu+  Cu113  1  0.40650259  0.25130646  0.40974468  1
  Cu+  Cu114  1  0.24243698  0.74017614  0.40386415  1
  Cu+  Cu115  1  0.25479516  0.40534696  0.40392935  1
  Cu+  Cu116  1  0.26083935  0.74346578  0.74469883  1
  Cu+  Cu117  1  0.07540356  0.25694317  0.06984215  1
  Cu+  Cu118  1  0.92912850  0.73668853  0.07314451  1
  Cu+  Cu119  1  0.58926431  0.91601263  0.59481313  1
  Cu+  Cu120  1  0.40396322  0.59291740  0.40070948  1
  Cu+  Cu121  1  0.73319911  0.26193944  0.07170049  1
  Cu+  Cu122  1  0.59404379  0.26093594  0.59583587  1
  Cu+  Cu123  1  0.59813717  0.73890373  0.41024775  1
  Cu+  Cu124  1  0.26160944  0.40361133  0.74165968  1
  Cu+  Cu125  1  0.73818572  0.92564075  0.75122539  1
  Cu+  Cu126  1  0.92905609  0.40840582  0.40701354  1
  Cu+  Cu127  1  0.60314105  0.59609042  0.24991932  1
  Cu+  Cu128  1  0.74937822  0.40844752  0.26467599  1
  Cu+  Cu129  1  0.73753085  0.93278626  0.40198899  1
  Cu+  Cu130  1  0.40292933  0.40468877  0.24753076  1
  Cu+  Cu131  1  0.59229392  0.25189052  0.26280782  1
  Cu+  Cu132  1  0.40990858  0.06508211  0.25660403  1
  Te2-  Te133  1  0.25712620  0.24712515  0.08432931  1
  Te2-  Te134  1  0.25346108  0.25355497  0.41134969  1
  Te2-  Te135  1  0.25398010  0.25169264  0.74470336  1
  Te2-  Te136  1  0.25073316  0.58343101  0.08313517  1
  Te2-  Te137  1  0.25030640  0.58905823  0.40970029  1
  Te2-  Te138  1  0.25619586  0.58898901  0.74716744  1
  Te2-  Te139  1  0.25197271  0.91548875  0.08449043  1
  Te2-  Te140  1  0.25147082  0.91798278  0.41402160  1
  Te2-  Te141  1  0.25216535  0.92406029  0.75190537  1
  Te2-  Te142  1  0.58048612  0.25592050  0.07588870  1
  Te2-  Te143  1  0.58945642  0.24715872  0.41467779  1
  Te2-  Te144  1  0.59091280  0.25282777  0.74856014  1
  Te2-  Te145  1  0.59038036  0.58193764  0.08364506  1
  Te2-  Te146  1  0.59210594  0.58409069  0.40752849  1
  Te2-  Te147  1  0.58237666  0.58556823  0.74353646  1
  Te2-  Te148  1  0.58386466  0.91695437  0.08245056  1
  Te2-  Te149  1  0.58311984  0.92309520  0.40705335  1
  Te2-  Te150  1  0.58576927  0.91897280  0.74575883  1
  Te2-  Te151  1  0.91903749  0.25509871  0.07906220  1
  Te2-  Te152  1  0.92113953  0.25396123  0.41254300  1
  Te2-  Te153  1  0.91401611  0.25259189  0.74979155  1
  Te2-  Te154  1  0.92035171  0.58236210  0.07730938  1
  Te2-  Te155  1  0.91926655  0.58916461  0.41569175  1
  Te2-  Te156  1  0.92159887  0.59031226  0.74552554  1
  Te2-  Te157  1  0.91880601  0.92201177  0.08375741  1
  Te2-  Te158  1  0.91761239  0.92466927  0.41584136  1
  Te2-  Te159  1  0.91936856  0.92215765  0.75541590  1
  Te2-  Te160  1  0.25533741  0.07191541  0.25595217  1
  Te2-  Te161  1  0.24983699  0.08131310  0.58590755  1
  Te2-  Te162  1  0.25255671  0.08503831  0.91824891  1
  Te2-  Te163  1  0.25153908  0.40701236  0.25186094  1
  Te2-  Te164  1  0.25784672  0.41505430  0.58362529  1
  Te2-  Te165  1  0.25348325  0.41529307  0.91966305  1
  Te2-  Te166  1  0.24856457  0.74537077  0.25314399  1
  Te2-  Te167  1  0.25121904  0.74702398  0.59006560  1
  Te2-  Te168  1  0.25328638  0.75076487  0.92249336  1
  Te2-  Te169  1  0.58675725  0.08214157  0.24994578  1
  Te2-  Te170  1  0.58712889  0.07410175  0.58932129  1
  Te2-  Te171  1  0.58498395  0.07732031  0.92102937  1
  Te2-  Te172  1  0.59078192  0.41022982  0.25911097  1
  Te2-  Te173  1  0.58367570  0.41403624  0.58094342  1
  Te2-  Te174  1  0.58486727  0.41424971  0.91749686  1
  Te2-  Te175  1  0.59402746  0.74634029  0.25463130  1
  Te2-  Te176  1  0.58364943  0.74537901  0.57764530  1
  Te2-  Te177  1  0.58454777  0.74615020  0.91738325  1
  Te2-  Te178  1  0.91963066  0.08669788  0.24974194  1
  Te2-  Te179  1  0.91643689  0.08357577  0.58378733  1
  Te2-  Te180  1  0.91472399  0.08516861  0.92133918  1
  Te2-  Te181  1  0.92044429  0.41078212  0.24903550  1
  Te2-  Te182  1  0.91876357  0.41804459  0.58800830  1
  Te2-  Te183  1  0.92369568  0.41795377  0.91430081  1
  Te2-  Te184  1  0.91649633  0.75054820  0.25809356  1
  Te2-  Te185  1  0.91541515  0.75672028  0.58746423  1
  Te2-  Te186  1  0.92241971  0.74686515  0.92105356  1
  Te2-  Te187  1  0.08518425  0.24752838  0.25706568  1
  Te2-  Te188  1  0.08164296  0.25395978  0.58420775  1
  Te2-  Te189  1  0.08027045  0.25609559  0.91773019  1
  Te2-  Te190  1  0.07961955  0.58052887  0.25230465  1
  Te2-  Te191  1  0.08320672  0.58225927  0.58632789  1
  Te2-  Te192  1  0.08433263  0.58787679  0.91783285  1
  Te2-  Te193  1  0.07585220  0.91951108  0.25165459  1
  Te2-  Te194  1  0.08303013  0.92134603  0.59298263  1
  Te2-  Te195  1  0.08179699  0.92312916  0.92291747  1
  Te2-  Te196  1  0.40813357  0.25272785  0.25406999  1
  Te2-  Te197  1  0.41379393  0.24603194  0.58577888  1
  Te2-  Te198  1  0.41645568  0.25171422  0.91589207  1
  Te2-  Te199  1  0.41061049  0.58801916  0.24849010  1
  Te2-  Te200  1  0.41654167  0.58376747  0.57756437  1
  Te2-  Te201  1  0.41553112  0.58177440  0.91884807  1
  Te2-  Te202  1  0.41447397  0.91359550  0.25425526  1
  Te2-  Te203  1  0.40945496  0.91386003  0.58183654  1
  Te2-  Te204  1  0.41690850  0.91649888  0.91801049  1
  Te2-  Te205  1  0.74571209  0.25524438  0.25685595  1
  Te2-  Te206  1  0.74910790  0.25938028  0.58593054  1
  Te2-  Te207  1  0.74236006  0.25891409  0.91916403  1
  Te2-  Te208  1  0.75575295  0.58777110  0.25298556  1
  Te2-  Te209  1  0.74665873  0.58727403  0.58476097  1
  Te2-  Te210  1  0.74787817  0.58827368  0.91549252  1
  Te2-  Te211  1  0.74587531  0.92489441  0.25059530  1
  Te2-  Te212  1  0.74276833  0.92337217  0.59148252  1
  Te2-  Te213  1  0.74559531  0.91571252  0.92783710  1
  Te2-  Te214  1  0.08332288  0.08030107  0.08227743  1
  Te2-  Te215  1  0.07574100  0.08222139  0.41457689  1
  Te2-  Te216  1  0.07949368  0.08478686  0.74985378  1
  Te2-  Te217  1  0.08153384  0.41194205  0.07857678  1
  Te2-  Te218  1  0.08141992  0.41283827  0.41445703  1
  Te2-  Te219  1  0.08337579  0.41705224  0.74708007  1
  Te2-  Te220  1  0.08134566  0.74549161  0.08140461  1
  Te2-  Te221  1  0.07699535  0.74808955  0.42053602  1
  Te2-  Te222  1  0.07977973  0.75173790  0.75243869  1
  Te2-  Te223  1  0.41538909  0.07954373  0.07884592  1
  Te2-  Te224  1  0.41523960  0.07152658  0.41416038  1
  Te2-  Te225  1  0.41702047  0.08161679  0.74643987  1
  Te2-  Te226  1  0.41770115  0.41253631  0.08324009  1
  Te2-  Te227  1  0.41325085  0.40656786  0.40687875  1
  Te2-  Te228  1  0.41516557  0.41180318  0.74335654  1
  Te2-  Te229  1  0.41754125  0.74412882  0.08475999  1
  Te2-  Te230  1  0.40626100  0.74626154  0.40659197  1
  Te2-  Te231  1  0.41492428  0.74593292  0.74576425  1
  Te2-  Te232  1  0.74430334  0.08087423  0.08447053  1
  Te2-  Te233  1  0.74484724  0.08642937  0.40876282  1
  Te2-  Te234  1  0.74357098  0.08007720  0.74688456  1
  Te2-  Te235  1  0.74495082  0.41587585  0.07467748  1
  Te2-  Te236  1  0.74561563  0.41314585  0.41590484  1
  Te2-  Te237  1  0.74868766  0.41869466  0.74422680  1
  Te2-  Te238  1  0.74761895  0.74790884  0.08342298  1
  Te2-  Te239  1  0.75008884  0.74799370  0.41543558  1
  Te2-  Te240  1  0.75025381  0.74806729  0.75093869  1
