# generated using pymatgen
data_Ti27(Cu53Te54)2
_symmetry_space_group_name_H-M   'P 1'
_cell_length_a   17.85860072
_cell_length_b   17.85791425
_cell_length_c   17.85819720
_cell_angle_alpha   90.01922752
_cell_angle_beta   89.97611416
_cell_angle_gamma   90.01818282
_symmetry_Int_Tables_number   1
_chemical_formula_structural   Ti27(Cu53Te54)2
_chemical_formula_sum   'Ti27 Cu106 Te108'
_cell_volume   5695.28800718
_cell_formula_units_Z   1
loop_
 _symmetry_equiv_pos_site_id
 _symmetry_equiv_pos_as_xyz
  1  'x, y, z'
loop_
 _atom_type_symbol
 _atom_type_oxidation_number
  Ti4+  4.0
  Cu+  1.0
  Te2-  -2.0
loop_
 _atom_site_type_symbol
 _atom_site_label
 _atom_site_symmetry_multiplicity
 _atom_site_fract_x
 _atom_site_fract_y
 _atom_site_fract_z
 _atom_site_occupancy
  Ti4+  Ti0  1  0.16545490  0.16638209  0.16474678  1
  Ti4+  Ti1  1  0.16415712  0.16531811  0.50026235  1
  Ti4+  Ti2  1  0.16888525  0.16818107  0.83350280  1
  Ti4+  Ti3  1  0.16806082  0.50249224  0.16629441  1
  Ti4+  Ti4  1  0.16491835  0.49872296  0.50070922  1
  Ti4+  Ti5  1  0.16625203  0.50122554  0.83169127  1
  Ti4+  Ti6  1  0.16842307  0.83283343  0.16617699  1
  Ti4+  Ti7  1  0.16542860  0.83095675  0.49923731  1
  Ti4+  Ti8  1  0.16785558  0.83421731  0.83258027  1
  Ti4+  Ti9  1  0.49859954  0.16782957  0.16707802  1
  Ti4+  Ti10  1  0.50202370  0.16825425  0.50002843  1
  Ti4+  Ti11  1  0.50206204  0.16462700  0.83206387  1
  Ti4+  Ti12  1  0.50140351  0.50078312  0.16882283  1
  Ti4+  Ti13  1  0.49612394  0.49633809  0.50048033  1
  Ti4+  Ti14  1  0.49871502  0.49851668  0.83229364  1
  Ti4+  Ti15  1  0.50082818  0.83403548  0.16843973  1
  Ti4+  Ti16  1  0.50005192  0.83411577  0.50104589  1
  Ti4+  Ti17  1  0.49896623  0.83069402  0.83537359  1
  Ti4+  Ti18  1  0.83546771  0.16551960  0.16605565  1
  Ti4+  Ti19  1  0.83342225  0.16805098  0.49599817  1
  Ti4+  Ti20  1  0.83197675  0.16765922  0.83483208  1
  Ti4+  Ti21  1  0.83538971  0.50014891  0.16813366  1
  Ti4+  Ti22  1  0.83189407  0.49790437  0.50232592  1
  Ti4+  Ti23  1  0.83377380  0.50150186  0.83600632  1
  Ti4+  Ti24  1  0.83302706  0.83338784  0.16641786  1
  Ti4+  Ti25  1  0.83423403  0.83378404  0.49886803  1
  Ti4+  Ti26  1  0.83356265  0.83285567  0.83091158  1
  Cu+  Cu27  1  0.16805075  0.16691553  -0.00078987  1
  Cu+  Cu28  1  0.16366616  0.16781384  0.33165220  1
  Cu+  Cu29  1  0.16710321  0.16446326  0.66725821  1
  Cu+  Cu30  1  0.17050966  0.50476898  0.00043097  1
  Cu+  Cu31  1  0.16887443  0.50232368  0.33274360  1
  Cu+  Cu32  1  0.16034757  0.49494825  0.66685257  1
  Cu+  Cu33  1  0.16583467  0.83677416  0.00102869  1
  Cu+  Cu34  1  0.16362430  0.82675222  0.33204774  1
  Cu+  Cu35  1  0.17125294  0.83426651  0.66437852  1
  Cu+  Cu36  1  0.50227419  0.16401253  0.00106341  1
  Cu+  Cu37  1  0.49828371  0.16888417  0.33286029  1
  Cu+  Cu38  1  0.50311867  0.17247887  0.66450886  1
  Cu+  Cu39  1  0.50087553  0.50035352  -0.00054271  1
  Cu+  Cu40  1  0.49495084  0.49405370  0.33332748  1
  Cu+  Cu41  1  0.49451963  0.50175332  0.66934673  1
  Cu+  Cu42  1  0.50211476  0.83319815  0.00320846  1
  Cu+  Cu43  1  0.49974806  0.83407614  0.33279791  1
  Cu+  Cu44  1  0.50093613  0.83111955  0.66929336  1
  Cu+  Cu45  1  0.83621089  0.16926856  -0.00038994  1
  Cu+  Cu46  1  0.83682689  0.16035248  0.33281626  1
  Cu+  Cu47  1  0.83087157  0.16646439  0.66622369  1
  Cu+  Cu48  1  0.83215855  0.50230925  0.00366765  1
  Cu+  Cu49  1  0.83676584  0.49783729  0.33323588  1
  Cu+  Cu50  1  0.83032517  0.50306049  0.66919654  1
  Cu+  Cu51  1  0.83309580  0.82972943  -0.00270409  1
  Cu+  Cu52  1  0.82975350  0.83609536  0.33419603  1
  Cu+  Cu53  1  0.83557636  0.83572656  0.66402346  1
  Cu+  Cu54  1  0.16434801  -0.00053171  0.16216322  1
  Cu+  Cu55  1  0.16844111  -0.00302857  0.50156511  1
  Cu+  Cu56  1  0.16725530  0.00267831  0.83359559  1
  Cu+  Cu57  1  0.16782982  0.33431248  0.16470429  1
  Cu+  Cu58  1  0.15818323  0.33138453  0.50340123  1
  Cu+  Cu59  1  0.17260155  0.33598299  0.83024551  1
  Cu+  Cu60  1  0.16598025  0.66909192  0.17057226  1
  Cu+  Cu61  1  0.16574208  0.66456750  0.49962810  1
  Cu+  Cu62  1  0.16811286  0.66559384  0.83311531  1
  Cu+  Cu63  1  0.50072551  -0.00022962  0.16687224  1
  Cu+  Cu64  1  0.50133412  0.00285453  0.50199226  1
  Cu+  Cu65  1  0.49294246  -0.00074363  0.83610467  1
  Cu+  Cu66  1  0.49752201  0.33593224  0.16998001  1
  Cu+  Cu67  1  0.50538433  0.33139443  0.49654767  1
  Cu+  Cu68  1  0.50155302  0.32947156  0.83302173  1
  Cu+  Cu69  1  0.50335905  0.66870792  0.16836279  1
  Cu+  Cu70  1  0.49612749  0.66745257  0.50132138  1
  Cu+  Cu71  1  0.50293122  0.66604562  0.82687825  1
  Cu+  Cu72  1  0.83419211  0.00003329  0.16530034  1
  Cu+  Cu73  1  0.83288142  -0.00002996  0.49203963  1
  Cu+  Cu74  1  0.83176864  -0.00039425  0.83086894  1
  Cu+  Cu75  1  0.83371896  0.33158264  0.16873045  1
  Cu+  Cu76  1  0.83822396  0.33684919  0.49639611  1
  Cu+  Cu77  1  0.83736243  0.33333970  0.83857644  1
  Cu+  Cu78  1  0.83326357  0.66447074  0.16473519  1
  Cu+  Cu79  1  0.83212541  0.66463626  0.50331979  1
  Cu+  Cu80  1  0.82880572  0.67051062  0.83788965  1
  Cu+  Cu81  1  0.00013664  0.16495650  0.16619819  1
  Cu+  Cu82  1  -0.00055381  0.16725828  0.49308549  1
  Cu+  Cu83  1  -0.00005469  0.17002288  0.83724709  1
  Cu+  Cu84  1  0.00245739  0.49994698  0.16625138  1
  Cu+  Cu85  1  -0.00052227  0.49175465  0.50450654  1
  Cu+  Cu86  1  -0.00023830  0.50433352  0.83052996  1
  Cu+  Cu87  1  0.00091735  0.83190794  0.16527201  1
  Cu+  Cu88  1  0.00042986  0.83192961  0.50052802  1
  Cu+  Cu89  1  0.00018704  0.83437213  0.83079029  1
  Cu+  Cu90  1  0.32877132  0.16602567  0.16582159  1
  Cu+  Cu91  1  0.33338930  0.16641360  0.49880069  1
  Cu+  Cu92  1  0.33762542  0.16299075  0.83208450  1
  Cu+  Cu93  1  0.33404844  0.50022638  0.16883348  1
  Cu+  Cu94  1  0.33366745  0.50248610  0.49787150  1
  Cu+  Cu95  1  0.33063675  0.50397179  0.83062762  1
  Cu+  Cu96  1  0.33511509  0.83436117  0.16691313  1
  Cu+  Cu97  1  0.32980972  0.83483756  0.50330185  1
  Cu+  Cu98  1  0.33406715  0.83598091  0.83173500  1
  Cu+  Cu99  1  0.66834934  0.16605218  0.16579672  1
  Cu+  Cu100  1  0.66673573  0.16990179  0.50520288  1
  Cu+  Cu101  1  0.66590937  0.16728858  0.83731671  1
  Cu+  Cu102  1  0.67004569  0.50385106  0.16704516  1
  Cu+  Cu103  1  0.66314042  0.49517266  0.49986864  1
  Cu+  Cu104  1  0.66698931  0.49654508  0.83515945  1
  Cu+  Cu105  1  0.66463103  0.83346179  0.16881244  1
  Cu+  Cu106  1  0.66889616  0.83626696  0.49833767  1
  Cu+  Cu107  1  0.66557399  0.82572239  0.83346644  1
  Cu+  Cu108  1  0.25857080  0.92799817  0.59236026  1
  Cu+  Cu109  1  0.59914664  0.26430710  0.59427679  1
  Cu+  Cu110  1  0.40807428  0.25720491  0.74007825  1
  Cu+  Cu111  1  0.59450707  0.40717209  0.40275519  1
  Cu+  Cu112  1  0.40175643  0.40689925  0.25720500  1
  Cu+  Cu113  1  0.06859940  0.73976509  0.25936322  1
  Cu+  Cu114  1  0.40801176  0.07319772  0.93198492  1
  Cu+  Cu115  1  0.73995620  0.59248848  0.07522894  1
  Cu+  Cu116  1  0.06790188  0.40050032  0.59868981  1
  Cu+  Cu117  1  0.07351312  0.25839182  0.40153194  1
  Cu+  Cu118  1  0.25911480  0.59633504  0.93060844  1
  Cu+  Cu119  1  0.59198058  0.25786707  0.93207622  1
  Cu+  Cu120  1  0.25957944  0.41026070  0.73613241  1
  Cu+  Cu121  1  0.41075265  0.92603123  0.73984598  1
  Cu+  Cu122  1  0.93087006  0.41389994  0.40203783  1
  Cu+  Cu123  1  0.41056384  0.59866571  0.40411464  1
  Cu+  Cu124  1  0.73647838  0.74367786  0.92962168  1
  Cu+  Cu125  1  0.93236082  0.26250315  0.92899254  1
  Cu+  Cu126  1  0.93064808  0.06794725  0.40563317  1
  Cu+  Cu127  1  0.40353786  0.59594335  0.74154435  1
  Cu+  Cu128  1  0.59720219  0.73885710  0.73580549  1
  Cu+  Cu129  1  0.40339293  0.25270122  0.40482613  1
  Cu+  Cu130  1  0.07093791  0.92730345  0.07361350  1
  Cu+  Cu131  1  0.73584561  0.92869843  0.40463816  1
  Cu+  Cu132  1  0.06911588  0.59837805  0.74112045  1
  Te2-  Te133  1  0.25181606  0.25268899  0.08002143  1
  Te2-  Te134  1  0.24877042  0.25357317  0.41497208  1
  Te2-  Te135  1  0.25550490  0.25229372  0.74317675  1
  Te2-  Te136  1  0.25606822  0.59080294  0.08438826  1
  Te2-  Te137  1  0.25191149  0.58674765  0.41397330  1
  Te2-  Te138  1  0.25038483  0.58794125  0.73919836  1
  Te2-  Te139  1  0.25532146  0.91946257  0.08067718  1
  Te2-  Te140  1  0.24982093  0.91578701  0.41089884  1
  Te2-  Te141  1  0.25394108  0.92408701  0.74684267  1
  Te2-  Te142  1  0.58581572  0.25477639  0.08397243  1
  Te2-  Te143  1  0.59158408  0.25127448  0.40957206  1
  Te2-  Te144  1  0.59163386  0.25420609  0.74701219  1
  Te2-  Te145  1  0.58537669  0.58728760  0.08024475  1
  Te2-  Te146  1  0.58100106  0.58310217  0.41524111  1
  Te2-  Te147  1  0.58993593  0.58147426  0.74569462  1
  Te2-  Te148  1  0.58698259  0.91981779  0.08193931  1
  Te2-  Te149  1  0.58329289  0.92123831  0.41398876  1
  Te2-  Te150  1  0.58503765  0.91885962  0.75246177  1
  Te2-  Te151  1  0.92221106  0.25473682  0.08181223  1
  Te2-  Te152  1  0.91997753  0.25631201  0.40706350  1
  Te2-  Te153  1  0.91785039  0.25162327  0.74746124  1
  Te2-  Te154  1  0.92240544  0.58578531  0.08171312  1
  Te2-  Te155  1  0.92017111  0.58294723  0.41898154  1
  Te2-  Te156  1  0.91499806  0.59114776  0.74825092  1
  Te2-  Te157  1  0.91739648  0.91772337  0.07802683  1
  Te2-  Te158  1  0.92423950  0.91670000  0.41068883  1
  Te2-  Te159  1  0.91921223  0.92029502  0.74648988  1
  Te2-  Te160  1  0.24837079  0.08015748  0.25146268  1
  Te2-  Te161  1  0.25416788  0.08177550  0.58596060  1
  Te2-  Te162  1  0.25403409  0.08042966  0.91980096  1
  Te2-  Te163  1  0.25067294  0.41344560  0.25356849  1
  Te2-  Te164  1  0.25339447  0.41190015  0.58301120  1
  Te2-  Te165  1  0.25426448  0.41672485  0.91947569  1
  Te2-  Te166  1  0.25630511  0.74795334  0.25254365  1
  Te2-  Te167  1  0.25171941  0.74353747  0.58482389  1
  Te2-  Te168  1  0.25356787  0.75005836  0.91970461  1
  Te2-  Te169  1  0.58406398  0.08362893  0.25166527  1
  Te2-  Te170  1  0.58682214  0.08128909  0.58773511  1
  Te2-  Te171  1  0.58621802  0.07615585  0.91889326  1
  Te2-  Te172  1  0.59107697  0.41385538  0.25146176  1
  Te2-  Te173  1  0.58353569  0.41489620  0.59166645  1
  Te2-  Te174  1  0.58491059  0.41314719  0.92012036  1
  Te2-  Te175  1  0.58659455  0.74813992  0.25552314  1
  Te2-  Te176  1  0.58747793  0.74706247  0.58335660  1
  Te2-  Te177  1  0.58293698  0.74241179  0.92350018  1
  Te2-  Te178  1  0.92287239  0.07647843  0.25082659  1
  Te2-  Te179  1  0.91680750  0.08264919  0.58167276  1
  Te2-  Te180  1  0.91760684  0.07944944  0.91809130  1
  Te2-  Te181  1  0.92355296  0.41151862  0.25057649  1
  Te2-  Te182  1  0.91570679  0.41181574  0.59400816  1
  Te2-  Te183  1  0.92241494  0.41908025  0.92270379  1
  Te2-  Te184  1  0.91574303  0.74693455  0.25329573  1
  Te2-  Te185  1  0.91896239  0.74722328  0.58524446  1
  Te2-  Te186  1  0.92228751  0.74826635  0.91700130  1
  Te2-  Te187  1  0.07890425  0.25494405  0.24891056  1
  Te2-  Te188  1  0.07578137  0.24730637  0.59026862  1
  Te2-  Te189  1  0.08594335  0.25730207  0.91974067  1
  Te2-  Te190  1  0.07971517  0.58554970  0.25440092  1
  Te2-  Te191  1  0.07761814  0.58601662  0.58523942  1
  Te2-  Te192  1  0.08052111  0.58705405  0.91967530  1
  Te2-  Te193  1  0.08144723  0.91857526  0.25248191  1
  Te2-  Te194  1  0.08014670  0.91769595  0.58611465  1
  Te2-  Te195  1  0.08042633  0.92060126  0.91655099  1
  Te2-  Te196  1  0.40779743  0.25316618  0.25235579  1
  Te2-  Te197  1  0.41209432  0.25583875  0.58429668  1
  Te2-  Te198  1  0.41524006  0.25059329  0.92008735  1
  Te2-  Te199  1  0.41437548  0.58947709  0.25275461  1
  Te2-  Te200  1  0.41096942  0.58657011  0.58733599  1
  Te2-  Te201  1  0.41563596  0.58781090  0.91862315  1
  Te2-  Te202  1  0.41443559  0.92048651  0.25301770  1
  Te2-  Te203  1  0.41446413  0.92193316  0.58714525  1
  Te2-  Te204  1  0.41196047  0.91617800  0.92517625  1
  Te2-  Te205  1  0.75022398  0.24873142  0.25343160  1
  Te2-  Te206  1  0.75203769  0.25728511  0.58503905  1
  Te2-  Te207  1  0.74601362  0.25502910  0.92295878  1
  Te2-  Te208  1  0.75091200  0.58589651  0.25673055  1
  Te2-  Te209  1  0.74335287  0.58326233  0.58478511  1
  Te2-  Te210  1  0.74284434  0.58639679  0.92125242  1
  Te2-  Te211  1  0.74626614  0.92144844  0.25031321  1
  Te2-  Te212  1  0.74989471  0.92199905  0.58456445  1
  Te2-  Te213  1  0.74623021  0.91706077  0.91687947  1
  Te2-  Te214  1  0.07834597  0.08173932  0.07617000  1
  Te2-  Te215  1  0.08322714  0.07541122  0.41251087  1
  Te2-  Te216  1  0.08052400  0.08395124  0.75099965  1
  Te2-  Te217  1  0.08479546  0.41770169  0.07922933  1
  Te2-  Te218  1  0.08142978  0.41323521  0.40811451  1
  Te2-  Te219  1  0.07547277  0.40893189  0.75047689  1
  Te2-  Te220  1  0.08244924  0.74583690  0.07894849  1
  Te2-  Te221  1  0.07711606  0.74277981  0.41487877  1
  Te2-  Te222  1  0.08268457  0.75002742  0.74519448  1
  Te2-  Te223  1  0.41256608  0.07999691  0.08317244  1
  Te2-  Te224  1  0.41532208  0.08072379  0.41462434  1
  Te2-  Te225  1  0.41569504  0.08069443  0.74002014  1
  Te2-  Te226  1  0.41524532  0.41694208  0.08100625  1
  Te2-  Te227  1  0.40691500  0.40703162  0.41428116  1
  Te2-  Te228  1  0.41207600  0.40983759  0.74593549  1
  Te2-  Te229  1  0.41567313  0.74725740  0.08254360  1
  Te2-  Te230  1  0.41163971  0.75159796  0.41487636  1
  Te2-  Te231  1  0.40991644  0.74633298  0.74604111  1
  Te2-  Te232  1  0.74987177  0.08199174  0.07947308  1
  Te2-  Te233  1  0.74129363  0.08394429  0.41271495  1
  Te2-  Te234  1  0.74552538  0.08263860  0.74868473  1
  Te2-  Te235  1  0.74873013  0.41288915  0.08356525  1
  Te2-  Te236  1  0.74666577  0.41285784  0.41202600  1
  Te2-  Te237  1  0.75094977  0.41358075  0.75195916  1
  Te2-  Te238  1  0.74400087  0.74706827  0.08182442  1
  Te2-  Te239  1  0.74838403  0.74547206  0.41524441  1
  Te2-  Te240  1  0.74906020  0.74603735  0.74086835  1
