# generated using pymatgen
data_Ti27(Cu53Te54)2
_symmetry_space_group_name_H-M   'P 1'
_cell_length_a   17.87376950
_cell_length_b   17.87058944
_cell_length_c   17.87510356
_cell_angle_alpha   89.99110666
_cell_angle_beta   89.99581636
_cell_angle_gamma   90.02957849
_symmetry_Int_Tables_number   1
_chemical_formula_structural   Ti27(Cu53Te54)2
_chemical_formula_sum   'Ti27 Cu106 Te108'
_cell_volume   5709.57171929
_cell_formula_units_Z   1
loop_
 _symmetry_equiv_pos_site_id
 _symmetry_equiv_pos_as_xyz
  1  'x, y, z'
loop_
 _atom_type_symbol
 _atom_type_oxidation_number
  Ti4+  4.0
  Cu+  1.0
  Te2-  -2.0
loop_
 _atom_site_type_symbol
 _atom_site_label
 _atom_site_symmetry_multiplicity
 _atom_site_fract_x
 _atom_site_fract_y
 _atom_site_fract_z
 _atom_site_occupancy
  Ti4+  Ti0  1  0.16417294  0.16886074  0.16690778  1
  Ti4+  Ti1  1  0.16728608  0.16681790  0.49864755  1
  Ti4+  Ti2  1  0.16727623  0.16661224  0.83210368  1
  Ti4+  Ti3  1  0.16897326  0.50056477  0.16509630  1
  Ti4+  Ti4  1  0.16790003  0.49916844  0.49820683  1
  Ti4+  Ti5  1  0.16332296  0.50157772  0.83412040  1
  Ti4+  Ti6  1  0.16718011  0.83337808  0.16819857  1
  Ti4+  Ti7  1  0.16758476  0.83354772  0.50187476  1
  Ti4+  Ti8  1  0.16800442  0.83284268  0.83486056  1
  Ti4+  Ti9  1  0.49751413  0.16626459  0.16533008  1
  Ti4+  Ti10  1  0.50224613  0.16715166  0.50319567  1
  Ti4+  Ti11  1  0.49948580  0.16818922  0.83708710  1
  Ti4+  Ti12  1  0.50052661  0.49760956  0.16759958  1
  Ti4+  Ti13  1  0.50150022  0.49974398  0.49747350  1
  Ti4+  Ti14  1  0.49924574  0.49919679  0.83412080  1
  Ti4+  Ti15  1  0.50151935  0.83231640  0.16460425  1
  Ti4+  Ti16  1  0.50083357  0.83461908  0.49695025  1
  Ti4+  Ti17  1  0.49963196  0.83369716  0.83220800  1
  Ti4+  Ti18  1  0.83358842  0.16544638  0.16739470  1
  Ti4+  Ti19  1  0.83299210  0.16479034  0.50042126  1
  Ti4+  Ti20  1  0.83499150  0.16562806  0.83712323  1
  Ti4+  Ti21  1  0.83317061  0.50178865  0.16571967  1
  Ti4+  Ti22  1  0.83371541  0.49937737  0.49865444  1
  Ti4+  Ti23  1  0.83070606  0.49740280  0.83125033  1
  Ti4+  Ti24  1  0.83327098  0.83440690  0.16755113  1
  Ti4+  Ti25  1  0.83375882  0.83456290  0.50341755  1
  Ti4+  Ti26  1  0.83352360  0.83406683  0.83174993  1
  Cu+  Cu27  1  0.16305202  0.16665223  -0.00340308  1
  Cu+  Cu28  1  0.16262807  0.17181659  0.33444010  1
  Cu+  Cu29  1  0.16925748  0.16855280  0.66344855  1
  Cu+  Cu30  1  0.16614072  0.51022444  0.00056317  1
  Cu+  Cu31  1  0.16666950  0.49591502  0.32808657  1
  Cu+  Cu32  1  0.16730638  0.49632155  0.66664671  1
  Cu+  Cu33  1  0.16873466  0.83267034  0.00240031  1
  Cu+  Cu34  1  0.16697422  0.83188434  0.33507830  1
  Cu+  Cu35  1  0.16668772  0.83363118  0.66864895  1
  Cu+  Cu36  1  0.49850307  0.16780364  0.00026846  1
  Cu+  Cu37  1  0.49749667  0.16797029  0.33980711  1
  Cu+  Cu38  1  0.49910165  0.16865886  0.66871223  1
  Cu+  Cu39  1  0.49770130  0.49806558  0.00126416  1
  Cu+  Cu40  1  0.50529956  0.50076348  0.33243185  1
  Cu+  Cu41  1  0.49850960  0.49938516  0.66801647  1
  Cu+  Cu42  1  0.49960230  0.83074812  -0.00147237  1
  Cu+  Cu43  1  0.50170832  0.83625603  0.32529917  1
  Cu+  Cu44  1  0.50101313  0.83511838  0.66428811  1
  Cu+  Cu45  1  0.83744373  0.16288192  0.00567821  1
  Cu+  Cu46  1  0.83494241  0.16509525  0.33360272  1
  Cu+  Cu47  1  0.83389332  0.16532869  0.67096492  1
  Cu+  Cu48  1  0.83366224  0.49932508  -0.00264719  1
  Cu+  Cu49  1  0.83537873  0.50300565  0.33350495  1
  Cu+  Cu50  1  0.82989214  0.49488177  0.66302843  1
  Cu+  Cu51  1  0.83189008  0.83528024  -0.00093807  1
  Cu+  Cu52  1  0.83183147  0.83496406  0.33630592  1
  Cu+  Cu53  1  0.83450778  0.83288868  0.66802185  1
  Cu+  Cu54  1  0.16895532  -0.00139087  0.16922046  1
  Cu+  Cu55  1  0.16755553  -0.00063230  0.50240782  1
  Cu+  Cu56  1  0.16483550  -0.00090064  0.83497559  1
  Cu+  Cu57  1  0.16365599  0.33728113  0.16862203  1
  Cu+  Cu58  1  0.16544631  0.33119374  0.49712772  1
  Cu+  Cu59  1  0.16748728  0.33618962  0.82744828  1
  Cu+  Cu60  1  0.16684643  0.66579346  0.16410319  1
  Cu+  Cu61  1  0.17125060  0.66839371  0.49969807  1
  Cu+  Cu62  1  0.16873767  0.66679867  0.83830124  1
  Cu+  Cu63  1  0.50313350  -0.00012062  0.16114923  1
  Cu+  Cu64  1  0.50716020  -0.00099067  0.50629871  1
  Cu+  Cu65  1  0.49693705  0.00103985  0.83469252  1
  Cu+  Cu66  1  0.49338394  0.33029368  0.16637457  1
  Cu+  Cu67  1  0.50271090  0.33324394  0.49547614  1
  Cu+  Cu68  1  0.50289393  0.33396450  0.83927431  1
  Cu+  Cu69  1  0.50351247  0.66439148  0.16853931  1
  Cu+  Cu70  1  0.49630154  0.66601723  0.49483931  1
  Cu+  Cu71  1  0.49926956  0.66772757  0.83074134  1
  Cu+  Cu72  1  0.83579743  0.00116772  0.16616034  1
  Cu+  Cu73  1  0.83285659  -0.00084841  0.49689344  1
  Cu+  Cu74  1  0.83770881  0.00021199  0.83058432  1
  Cu+  Cu75  1  0.83083680  0.33261405  0.16766909  1
  Cu+  Cu76  1  0.82919680  0.33703415  0.50525785  1
  Cu+  Cu77  1  0.82863786  0.32782826  0.83026436  1
  Cu+  Cu78  1  0.83178595  0.67146231  0.16661321  1
  Cu+  Cu79  1  0.83407140  0.66644646  0.50154709  1
  Cu+  Cu80  1  0.83250218  0.66621600  0.83080156  1
  Cu+  Cu81  1  -0.00307560  0.16519385  0.16475642  1
  Cu+  Cu82  1  -0.00057126  0.16483147  0.49659908  1
  Cu+  Cu83  1  0.00351805  0.15972039  0.83464714  1
  Cu+  Cu84  1  0.00234800  0.50121017  0.16324697  1
  Cu+  Cu85  1  -0.00015916  0.50225838  0.49916802  1
  Cu+  Cu86  1  -0.00695492  0.50163864  0.83560736  1
  Cu+  Cu87  1  0.00019201  0.83355262  0.17096323  1
  Cu+  Cu88  1  0.00211769  0.83288737  0.50502098  1
  Cu+  Cu89  1  0.00190309  0.83237443  0.83323581  1
  Cu+  Cu90  1  0.32941685  0.17151352  0.16486481  1
  Cu+  Cu91  1  0.33627742  0.16919916  0.50088783  1
  Cu+  Cu92  1  0.33415847  0.16525231  0.83552645  1
  Cu+  Cu93  1  0.33330000  0.49770290  0.16621642  1
  Cu+  Cu94  1  0.33582996  0.50194361  0.49881774  1
  Cu+  Cu95  1  0.33077673  0.49897536  0.83460005  1
  Cu+  Cu96  1  0.33580069  0.83040267  0.16454650  1
  Cu+  Cu97  1  0.33076842  0.82900682  0.49538097  1
  Cu+  Cu98  1  0.33382154  0.83395604  0.83186523  1
  Cu+  Cu99  1  0.66726500  0.16362768  0.16557298  1
  Cu+  Cu100  1  0.66353713  0.16105296  0.50162494  1
  Cu+  Cu101  1  0.66634809  0.17451245  0.84040759  1
  Cu+  Cu102  1  0.66669209  0.50138108  0.17017353  1
  Cu+  Cu103  1  0.66710551  0.49357877  0.49642722  1
  Cu+  Cu104  1  0.66511746  0.49899979  0.83160944  1
  Cu+  Cu105  1  0.66672878  0.83549945  0.16784994  1
  Cu+  Cu106  1  0.66891641  0.83928583  0.50308371  1
  Cu+  Cu107  1  0.66775010  0.83390071  0.83300071  1
  Cu+  Cu108  1  0.92946575  0.06867854  0.07663938  1
  Cu+  Cu109  1  0.91591774  0.59650504  0.92493879  1
  Cu+  Cu110  1  0.06711493  0.26053959  0.41062130  1
  Cu+  Cu111  1  0.74322964  0.92448102  0.40668108  1
  Cu+  Cu112  1  0.92975990  0.06976111  0.40616505  1
  Cu+  Cu113  1  0.39989238  0.26053760  0.07084449  1
  Cu+  Cu114  1  0.59616308  0.26517841  0.93316017  1
  Cu+  Cu115  1  0.26130686  0.40937997  0.73845454  1
  Cu+  Cu116  1  0.73480876  0.40967709  0.59374563  1
  Cu+  Cu117  1  0.06984299  0.41150006  0.25506432  1
  Cu+  Cu118  1  0.58594352  0.07434948  0.40769420  1
  Cu+  Cu119  1  0.59379451  0.07277077  0.06953259  1
  Cu+  Cu120  1  0.07586513  0.06887689  0.92752200  1
  Cu+  Cu121  1  0.25578588  0.74029066  0.40331463  1
  Cu+  Cu122  1  0.59368841  0.93076171  0.24962085  1
  Cu+  Cu123  1  0.40585929  0.26101692  0.41108820  1
  Cu+  Cu124  1  0.07175644  0.59751330  0.07681901  1
  Cu+  Cu125  1  0.73736215  0.25100904  0.73953828  1
  Cu+  Cu126  1  0.26487415  0.59463056  0.92518046  1
  Cu+  Cu127  1  0.59750643  0.59486637  0.25988638  1
  Cu+  Cu128  1  0.40568051  0.06975414  0.92725729  1
  Cu+  Cu129  1  0.93006837  0.07339996  0.73863466  1
  Cu+  Cu130  1  0.59682740  0.92467004  0.59952992  1
  Cu+  Cu131  1  0.40726323  0.59170079  0.40360106  1
  Cu+  Cu132  1  0.59706740  0.40467032  0.40084839  1
  Te2-  Te133  1  0.24587501  0.25585407  0.07833208  1
  Te2-  Te134  1  0.25456533  0.25368253  0.41234860  1
  Te2-  Te135  1  0.25562366  0.25162878  0.74640998  1
  Te2-  Te136  1  0.25947410  0.58913554  0.08154766  1
  Te2-  Te137  1  0.25295814  0.58470042  0.40843716  1
  Te2-  Te138  1  0.25060388  0.58578207  0.74742635  1
  Te2-  Te139  1  0.25372276  0.91831860  0.08280458  1
  Te2-  Te140  1  0.25185882  0.92057639  0.41414449  1
  Te2-  Te141  1  0.25152250  0.92000993  0.74914341  1
  Te2-  Te142  1  0.58714411  0.25439690  0.08369467  1
  Te2-  Te143  1  0.59211695  0.25182013  0.41296718  1
  Te2-  Te144  1  0.58387842  0.25474523  0.74748292  1
  Te2-  Te145  1  0.58510064  0.58263895  0.08034480  1
  Te2-  Te146  1  0.59161932  0.58849571  0.41455787  1
  Te2-  Te147  1  0.58400825  0.58447647  0.74777710  1
  Te2-  Te148  1  0.58861953  0.91720338  0.07492363  1
  Te2-  Te149  1  0.58907276  0.92195797  0.40758102  1
  Te2-  Te150  1  0.58622606  0.92206903  0.74985605  1
  Te2-  Te151  1  0.91817615  0.25477639  0.08281197  1
  Te2-  Te152  1  0.91381760  0.25651210  0.41594047  1
  Te2-  Te153  1  0.92321679  0.24925240  0.75096888  1
  Te2-  Te154  1  0.91829809  0.59036549  0.07979205  1
  Te2-  Te155  1  0.91932669  0.58771334  0.41482858  1
  Te2-  Te156  1  0.91427276  0.58239538  0.74282254  1
  Te2-  Te157  1  0.92142048  0.91644798  0.08066018  1
  Te2-  Te158  1  0.92408538  0.91705186  0.41518832  1
  Te2-  Te159  1  0.92344774  0.91826033  0.74539047  1
  Te2-  Te160  1  0.24985542  0.08601967  0.25260302  1
  Te2-  Te161  1  0.25467322  0.08262843  0.58382180  1
  Te2-  Te162  1  0.25217285  0.07946781  0.92054672  1
  Te2-  Te163  1  0.25561098  0.41241487  0.25130395  1
  Te2-  Te164  1  0.25433847  0.41215730  0.58220246  1
  Te2-  Te165  1  0.24703463  0.41575908  0.92214518  1
  Te2-  Te166  1  0.25389373  0.74506399  0.25056192  1
  Te2-  Te167  1  0.25380771  0.74840260  0.58896247  1
  Te2-  Te168  1  0.25636482  0.74896012  0.92207947  1
  Te2-  Te169  1  0.58546719  0.08284341  0.25491558  1
  Te2-  Te170  1  0.58785091  0.08167873  0.59540733  1
  Te2-  Te171  1  0.58863217  0.07943153  0.91903206  1
  Te2-  Te172  1  0.58654393  0.40708338  0.24972928  1
  Te2-  Te173  1  0.58277112  0.41203944  0.58802488  1
  Te2-  Te174  1  0.58835971  0.41698159  0.92305960  1
  Te2-  Te175  1  0.58944768  0.74664626  0.25326385  1
  Te2-  Te176  1  0.58439267  0.74709126  0.58082378  1
  Te2-  Te177  1  0.58550185  0.74764994  0.91655359  1
  Te2-  Te178  1  0.92179640  0.07857337  0.25447038  1
  Te2-  Te179  1  0.91910269  0.07960489  0.58610059  1
  Te2-  Te180  1  0.92166112  0.07543339  0.92376438  1
  Te2-  Te181  1  0.91806034  0.41549899  0.25120005  1
  Te2-  Te182  1  0.92216133  0.41487541  0.58441917  1
  Te2-  Te183  1  0.91464926  0.40901064  0.91611978  1
  Te2-  Te184  1  0.91691478  0.74944054  0.25513453  1
  Te2-  Te185  1  0.91897585  0.74722230  0.58714092  1
  Te2-  Te186  1  0.91849070  0.74921464  0.91912027  1
  Te2-  Te187  1  0.07400209  0.25454215  0.25212215  1
  Te2-  Te188  1  0.07975834  0.25119241  0.58438114  1
  Te2-  Te189  1  0.08121363  0.25508352  0.91399835  1
  Te2-  Te190  1  0.08175374  0.58680963  0.25231441  1
  Te2-  Te191  1  0.08572321  0.58443417  0.58359638  1
  Te2-  Te192  1  0.07353753  0.59090276  0.91974057  1
  Te2-  Te193  1  0.08262521  0.91870319  0.25480538  1
  Te2-  Te194  1  0.08220471  0.91964615  0.58815330  1
  Te2-  Te195  1  0.08027011  0.91643891  0.92250603  1
  Te2-  Te196  1  0.41202448  0.25045165  0.25561363  1
  Te2-  Te197  1  0.41714951  0.25569534  0.58687082  1
  Te2-  Te198  1  0.40957078  0.25634660  0.92013980  1
  Te2-  Te199  1  0.41275990  0.58473326  0.25152919  1
  Te2-  Te200  1  0.41661978  0.58525968  0.58563287  1
  Te2-  Te201  1  0.41574968  0.58677654  0.91966687  1
  Te2-  Te202  1  0.41401843  0.92086323  0.24683278  1
  Te2-  Te203  1  0.41212497  0.91668550  0.58076441  1
  Te2-  Te204  1  0.41275440  0.91739848  0.92116426  1
  Te2-  Te205  1  0.74691308  0.24977946  0.25287221  1
  Te2-  Te206  1  0.74389406  0.24975850  0.58689360  1
  Te2-  Te207  1  0.75198218  0.25277853  0.92896589  1
  Te2-  Te208  1  0.75001860  0.58863324  0.25373621  1
  Te2-  Te209  1  0.74520026  0.58388413  0.58279551  1
  Te2-  Te210  1  0.74623208  0.58485888  0.91686884  1
  Te2-  Te211  1  0.74759351  0.92478469  0.25323979  1
  Te2-  Te212  1  0.75026178  0.92394127  0.59231558  1
  Te2-  Te213  1  0.74917498  0.92148221  0.91631283  1
  Te2-  Te214  1  0.08184710  0.07689717  0.08169455  1
  Te2-  Te215  1  0.08313333  0.07695185  0.41247446  1
  Te2-  Te216  1  0.08467272  0.07906997  0.74207495  1
  Te2-  Te217  1  0.08292676  0.41590261  0.07606677  1
  Te2-  Te218  1  0.07765825  0.41415786  0.41215603  1
  Te2-  Te219  1  0.07553743  0.41747989  0.74849968  1
  Te2-  Te220  1  0.07886609  0.74986885  0.08108200  1
  Te2-  Te221  1  0.08005789  0.74730747  0.41691372  1
  Te2-  Te222  1  0.08356492  0.74589398  0.74976086  1
  Te2-  Te223  1  0.40963378  0.07919137  0.08136059  1
  Te2-  Te224  1  0.41675199  0.07687536  0.42028706  1
  Te2-  Te225  1  0.41473870  0.08334585  0.74787906  1
  Te2-  Te226  1  0.41157786  0.41358006  0.07975687  1
  Te2-  Te227  1  0.41317741  0.41407406  0.41025940  1
  Te2-  Te228  1  0.41444336  0.41139832  0.74902206  1
  Te2-  Te229  1  0.41764250  0.74380199  0.08143242  1
  Te2-  Te230  1  0.41469746  0.74872158  0.40580844  1
  Te2-  Te231  1  0.41492258  0.74950366  0.74506203  1
  Te2-  Te232  1  0.74684083  0.07717209  0.07980962  1
  Te2-  Te233  1  0.74421997  0.08028281  0.41112336  1
  Te2-  Te234  1  0.74372936  0.08302858  0.75363981  1
  Te2-  Te235  1  0.74755500  0.41702857  0.08229301  1
  Te2-  Te236  1  0.75035061  0.41111992  0.40722398  1
  Te2-  Te237  1  0.74135502  0.40945295  0.74572157  1
  Te2-  Te238  1  0.74659342  0.75108703  0.08082436  1
  Te2-  Te239  1  0.74722262  0.74869882  0.41863119  1
  Te2-  Te240  1  0.74747758  0.74796015  0.74704010  1
