# generated using pymatgen
data_Ti27(Cu53Te54)2
_symmetry_space_group_name_H-M   'P 1'
_cell_length_a   17.92131664
_cell_length_b   17.92018497
_cell_length_c   17.91580971
_cell_angle_alpha   90.03977636
_cell_angle_beta   89.97917114
_cell_angle_gamma   90.04014877
_symmetry_Int_Tables_number   1
_chemical_formula_structural   Ti27(Cu53Te54)2
_chemical_formula_sum   'Ti27 Cu106 Te108'
_cell_volume   5753.71839722
_cell_formula_units_Z   1
loop_
 _symmetry_equiv_pos_site_id
 _symmetry_equiv_pos_as_xyz
  1  'x, y, z'
loop_
 _atom_type_symbol
 _atom_type_oxidation_number
  Ti4+  4.0
  Cu+  1.0
  Te2-  -2.0
loop_
 _atom_site_type_symbol
 _atom_site_label
 _atom_site_symmetry_multiplicity
 _atom_site_fract_x
 _atom_site_fract_y
 _atom_site_fract_z
 _atom_site_occupancy
  Ti4+  Ti0  1  0.16840560  0.16578557  0.16426165  1
  Ti4+  Ti1  1  0.16734494  0.16962345  0.49807799  1
  Ti4+  Ti2  1  0.16836926  0.16639023  0.83128932  1
  Ti4+  Ti3  1  0.16442176  0.50116911  0.16592208  1
  Ti4+  Ti4  1  0.16543718  0.49941099  0.50243027  1
  Ti4+  Ti5  1  0.16779807  0.50216244  0.83156979  1
  Ti4+  Ti6  1  0.16651243  0.82807311  0.16914672  1
  Ti4+  Ti7  1  0.16532779  0.83509946  0.49941403  1
  Ti4+  Ti8  1  0.16515939  0.83283179  0.83233086  1
  Ti4+  Ti9  1  0.49921657  0.16596863  0.16722914  1
  Ti4+  Ti10  1  0.49859446  0.16777955  0.49703393  1
  Ti4+  Ti11  1  0.50084120  0.16655607  0.83263110  1
  Ti4+  Ti12  1  0.49676573  0.49987517  0.16964946  1
  Ti4+  Ti13  1  0.50111314  0.50399923  0.49569714  1
  Ti4+  Ti14  1  0.50033048  0.50127867  0.83524809  1
  Ti4+  Ti15  1  0.49882668  0.83285313  0.16523716  1
  Ti4+  Ti16  1  0.50231308  0.83641265  0.49880868  1
  Ti4+  Ti17  1  0.49981655  0.83145862  0.83049605  1
  Ti4+  Ti18  1  0.83524611  0.16456652  0.16851392  1
  Ti4+  Ti19  1  0.83489037  0.17042454  0.50429327  1
  Ti4+  Ti20  1  0.83360923  0.16300476  0.83491744  1
  Ti4+  Ti21  1  0.83302669  0.49847627  0.16858250  1
  Ti4+  Ti22  1  0.82817252  0.49930570  0.50104394  1
  Ti4+  Ti23  1  0.83387895  0.49649151  0.83618763  1
  Ti4+  Ti24  1  0.83285357  0.83254437  0.16928515  1
  Ti4+  Ti25  1  0.83531785  0.83462875  0.50079372  1
  Ti4+  Ti26  1  0.83563500  0.83099231  0.83308474  1
  Cu+  Cu27  1  0.16845760  0.16455980  -0.00274239  1
  Cu+  Cu28  1  0.16868512  0.16560027  0.32919531  1
  Cu+  Cu29  1  0.16951116  0.16997793  0.66471347  1
  Cu+  Cu30  1  0.16654091  0.50134716  -0.00226329  1
  Cu+  Cu31  1  0.16509314  0.50032954  0.33603136  1
  Cu+  Cu32  1  0.16715393  0.50016169  0.66697199  1
  Cu+  Cu33  1  0.16405103  0.82893306  0.00132368  1
  Cu+  Cu34  1  0.16310704  0.82822683  0.33223158  1
  Cu+  Cu35  1  0.16145131  0.83341698  0.66470767  1
  Cu+  Cu36  1  0.50124886  0.16611727  -0.00055043  1
  Cu+  Cu37  1  0.49547080  0.16990550  0.33314342  1
  Cu+  Cu38  1  0.50130279  0.16644100  0.66597026  1
  Cu+  Cu39  1  0.49549306  0.50176886  0.00434102  1
  Cu+  Cu40  1  0.50992343  0.50241249  0.33113598  1
  Cu+  Cu41  1  0.50000350  0.50220003  0.66464270  1
  Cu+  Cu42  1  0.49954135  0.83137004  -0.00532862  1
  Cu+  Cu43  1  0.49942613  0.83831757  0.33168369  1
  Cu+  Cu44  1  0.50177243  0.83454814  0.66572339  1
  Cu+  Cu45  1  0.83560900  0.16180339  0.00153402  1
  Cu+  Cu46  1  0.83770158  0.16767745  0.33649564  1
  Cu+  Cu47  1  0.82722512  0.16837044  0.67096054  1
  Cu+  Cu48  1  0.83406804  0.49511758  0.00155132  1
  Cu+  Cu49  1  0.83259789  0.49843095  0.33579330  1
  Cu+  Cu50  1  0.82463474  0.50224199  0.67226386  1
  Cu+  Cu51  1  0.83377992  0.83194799  0.00196719  1
  Cu+  Cu52  1  0.84064487  0.84086132  0.33112566  1
  Cu+  Cu53  1  0.83374146  0.82984581  0.66553021  1
  Cu+  Cu54  1  0.16775916  -0.00274172  0.16409139  1
  Cu+  Cu55  1  0.17082875  0.00599445  0.49487440  1
  Cu+  Cu56  1  0.16438258  -0.00093108  0.83017556  1
  Cu+  Cu57  1  0.16758736  0.33359847  0.16166289  1
  Cu+  Cu58  1  0.16920115  0.33279965  0.50525728  1
  Cu+  Cu59  1  0.16813490  0.33464963  0.83297655  1
  Cu+  Cu60  1  0.16616583  0.66345110  0.17505433  1
  Cu+  Cu61  1  0.16250997  0.66713112  0.50381300  1
  Cu+  Cu62  1  0.16787873  0.67061454  0.83149272  1
  Cu+  Cu63  1  0.50260396  -0.00008733  0.16696864  1
  Cu+  Cu64  1  0.49903425  -0.00194879  0.49502402  1
  Cu+  Cu65  1  0.50034693  -0.00069809  0.83161103  1
  Cu+  Cu66  1  0.49658476  0.33143808  0.16635549  1
  Cu+  Cu67  1  0.49734153  0.33575663  0.49302122  1
  Cu+  Cu68  1  0.50149496  0.33528305  0.83593600  1
  Cu+  Cu69  1  0.49372911  0.66542931  0.16731752  1
  Cu+  Cu70  1  0.50232588  0.67031432  0.50019514  1
  Cu+  Cu71  1  0.49663722  0.66462542  0.82944110  1
  Cu+  Cu72  1  0.83679314  -0.00041041  0.16931359  1
  Cu+  Cu73  1  0.83700820  0.00562808  0.50514891  1
  Cu+  Cu74  1  0.83594107  -0.00261914  0.83385603  1
  Cu+  Cu75  1  0.83474929  0.33127154  0.16882705  1
  Cu+  Cu76  1  0.83227201  0.33487948  0.49759805  1
  Cu+  Cu77  1  0.83201728  0.32969136  0.83608907  1
  Cu+  Cu78  1  0.83138485  0.66641335  0.16536460  1
  Cu+  Cu79  1  0.82688637  0.66829579  0.50320428  1
  Cu+  Cu80  1  0.83670172  0.66358497  0.83457418  1
  Cu+  Cu81  1  0.00410701  0.16531124  0.16508729  1
  Cu+  Cu82  1  -0.00009580  0.16628944  0.50011264  1
  Cu+  Cu83  1  0.00053224  0.16398208  0.83485742  1
  Cu+  Cu84  1  -0.00150660  0.49831987  0.16468496  1
  Cu+  Cu85  1  -0.00436028  0.49671009  0.50298703  1
  Cu+  Cu86  1  -0.00095666  0.49649254  0.83407636  1
  Cu+  Cu87  1  0.00074813  0.82813544  0.17137600  1
  Cu+  Cu88  1  0.00195085  0.83454205  0.50414645  1
  Cu+  Cu89  1  0.00267527  0.83417063  0.83429147  1
  Cu+  Cu90  1  0.33296231  0.16438064  0.16392994  1
  Cu+  Cu91  1  0.33154856  0.17358155  0.49509428  1
  Cu+  Cu92  1  0.33542819  0.16581073  0.83218713  1
  Cu+  Cu93  1  0.33042463  0.50637268  0.16781492  1
  Cu+  Cu94  1  0.33353761  0.50053350  0.49979236  1
  Cu+  Cu95  1  0.33477852  0.50339922  0.83085781  1
  Cu+  Cu96  1  0.33457960  0.82478685  0.16863973  1
  Cu+  Cu97  1  0.33483143  0.84115800  0.49805205  1
  Cu+  Cu98  1  0.33202818  0.83010282  0.82960725  1
  Cu+  Cu99  1  0.66715434  0.16448298  0.16788221  1
  Cu+  Cu100  1  0.67057936  0.16861425  0.50446917  1
  Cu+  Cu101  1  0.66577905  0.16616521  0.83180243  1
  Cu+  Cu102  1  0.66705593  0.49602323  0.17064339  1
  Cu+  Cu103  1  0.66436415  0.50253432  0.49155309  1
  Cu+  Cu104  1  0.66518709  0.50068031  0.83872170  1
  Cu+  Cu105  1  0.66502267  0.83721230  0.16651559  1
  Cu+  Cu106  1  0.67026679  0.83208454  0.50137392  1
  Cu+  Cu107  1  0.66540943  0.83147956  0.83303630  1
  Cu+  Cu108  1  0.92556967  0.07513292  0.41078777  1
  Cu+  Cu109  1  0.41243541  0.74126076  0.26402935  1
  Cu+  Cu110  1  0.07361048  0.73879991  0.92839258  1
  Cu+  Cu111  1  0.73774096  0.74068097  0.59476057  1
  Cu+  Cu112  1  0.25704627  0.58650549  0.26760612  1
  Cu+  Cu113  1  0.92838778  0.41160149  0.40641058  1
  Cu+  Cu114  1  0.07318310  0.93058180  0.73847107  1
  Cu+  Cu115  1  0.73755626  0.25970149  0.74778409  1
  Cu+  Cu116  1  0.40510219  0.92503366  0.40226973  1
  Cu+  Cu117  1  0.59007808  0.40455125  0.40420358  1
  Cu+  Cu118  1  0.74232771  0.25313615  0.40534154  1
  Cu+  Cu119  1  0.06816911  0.73458401  0.26230539  1
  Cu+  Cu120  1  0.26219960  0.26053313  0.59711538  1
  Cu+  Cu121  1  0.74628862  0.59887684  0.40450018  1
  Cu+  Cu122  1  0.40291681  0.26618205  0.40212770  1
  Cu+  Cu123  1  0.59355502  0.93022990  0.25743719  1
  Cu+  Cu124  1  0.07298218  0.73709569  0.59371733  1
  Cu+  Cu125  1  0.40653709  0.58759631  0.73460960  1
  Cu+  Cu126  1  0.93321176  0.92910729  0.24939916  1
  Cu+  Cu127  1  0.25909698  0.74753046  0.73486760  1
  Cu+  Cu128  1  0.59661216  0.59669158  0.24629094  1
  Cu+  Cu129  1  0.25965466  0.07836235  0.40073542  1
  Cu+  Cu130  1  0.73865726  0.59426700  0.75516811  1
  Cu+  Cu131  1  0.74022675  0.07485421  0.59656852  1
  Cu+  Cu132  1  0.40155082  0.59239996  0.07273315  1
  Te2-  Te133  1  0.25337144  0.25057721  0.07851667  1
  Te2-  Te134  1  0.24974320  0.25909846  0.40814358  1
  Te2-  Te135  1  0.25600294  0.25464188  0.74849520  1
  Te2-  Te136  1  0.24832254  0.58983193  0.07861511  1
  Te2-  Te137  1  0.25042577  0.58789815  0.41925420  1
  Te2-  Te138  1  0.25342848  0.58986974  0.74263245  1
  Te2-  Te139  1  0.25211406  0.91064309  0.08343221  1
  Te2-  Te140  1  0.25045649  0.91990933  0.40802150  1
  Te2-  Te141  1  0.25145546  0.91795966  0.74484117  1
  Te2-  Te142  1  0.58485346  0.25055285  0.08333485  1
  Te2-  Te143  1  0.58892575  0.25133828  0.41111682  1
  Te2-  Te144  1  0.58485532  0.25511345  0.74602519  1
  Te2-  Te145  1  0.58593551  0.58419823  0.08547207  1
  Te2-  Te146  1  0.58823004  0.59639656  0.41014402  1
  Te2-  Te147  1  0.58706260  0.58578523  0.74714561  1
  Te2-  Te148  1  0.58280288  0.91731447  0.07754621  1
  Te2-  Te149  1  0.59210183  0.91993020  0.41359014  1
  Te2-  Te150  1  0.58628768  0.91790167  0.74805237  1
  Te2-  Te151  1  0.91891237  0.24921413  0.08309603  1
  Te2-  Te152  1  0.92333487  0.25643075  0.41529216  1
  Te2-  Te153  1  0.91887302  0.24976933  0.75033956  1
  Te2-  Te154  1  0.91582725  0.58342668  0.08213171  1
  Te2-  Te155  1  0.91563674  0.58625928  0.41876228  1
  Te2-  Te156  1  0.91928722  0.58146521  0.74841108  1
  Te2-  Te157  1  0.92128210  0.91530245  0.08363306  1
  Te2-  Te158  1  0.92413431  0.92250980  0.41717369  1
  Te2-  Te159  1  0.91941726  0.91698987  0.74583518  1
  Te2-  Te160  1  0.25452012  0.07710637  0.24899989  1
  Te2-  Te161  1  0.25506183  0.08461127  0.58319391  1
  Te2-  Te162  1  0.25221627  0.07900830  0.91444898  1
  Te2-  Te163  1  0.25023350  0.41588884  0.25081729  1
  Te2-  Te164  1  0.25534574  0.41624190  0.58763205  1
  Te2-  Te165  1  0.25333401  0.41823689  0.91620175  1
  Te2-  Te166  1  0.25568343  0.74296111  0.25914191  1
  Te2-  Te167  1  0.25498944  0.75075113  0.58166957  1
  Te2-  Te168  1  0.25264488  0.74831759  0.91980711  1
  Te2-  Te169  1  0.58543797  0.08260069  0.25633000  1
  Te2-  Te170  1  0.58350945  0.08092948  0.58233028  1
  Te2-  Te171  1  0.58557242  0.08059166  0.91745113  1
  Te2-  Te172  1  0.58543758  0.40746805  0.25067230  1
  Te2-  Te173  1  0.58371481  0.41737282  0.58099057  1
  Te2-  Te174  1  0.58271938  0.41773180  0.92395060  1
  Te2-  Te175  1  0.58615592  0.74813605  0.25229554  1
  Te2-  Te176  1  0.58596870  0.74873077  0.58653220  1
  Te2-  Te177  1  0.58371080  0.74456276  0.91512292  1
  Te2-  Te178  1  0.92575076  0.08097300  0.25563183  1
  Te2-  Te179  1  0.92081201  0.08639506  0.59255054  1
  Te2-  Te180  1  0.92023414  0.07817641  0.91896019  1
  Te2-  Te181  1  0.92017524  0.41314584  0.25355928  1
  Te2-  Te182  1  0.91095689  0.41626871  0.59034814  1
  Te2-  Te183  1  0.91897771  0.41033485  0.91995005  1
  Te2-  Te184  1  0.91630556  0.74213961  0.25589573  1
  Te2-  Te185  1  0.92006916  0.74523085  0.58547741  1
  Te2-  Te186  1  0.91979425  0.74625562  0.92066107  1
  Te2-  Te187  1  0.08410882  0.25246994  0.24958149  1
  Te2-  Te188  1  0.07954582  0.25201639  0.58529705  1
  Te2-  Te189  1  0.08363338  0.25073755  0.91668931  1
  Te2-  Te190  1  0.07471819  0.58233009  0.25579420  1
  Te2-  Te191  1  0.07711609  0.58281403  0.58798851  1
  Te2-  Te192  1  0.08007674  0.58630235  0.91700648  1
  Te2-  Te193  1  0.08367541  0.92017867  0.25302698  1
  Te2-  Te194  1  0.08277642  0.92732054  0.58233355  1
  Te2-  Te195  1  0.08241908  0.91941753  0.92130593  1
  Te2-  Te196  1  0.40930357  0.25303015  0.25040057  1
  Te2-  Te197  1  0.41720172  0.25491282  0.58512018  1
  Te2-  Te198  1  0.41581436  0.25137769  0.91841828  1
  Te2-  Te199  1  0.41136316  0.58656997  0.26195569  1
  Te2-  Te200  1  0.41419823  0.58883213  0.58193522  1
  Te2-  Te201  1  0.41268784  0.58791510  0.92026466  1
  Te2-  Te202  1  0.40954132  0.92150548  0.24873320  1
  Te2-  Te203  1  0.41706786  0.92065146  0.58667796  1
  Te2-  Te204  1  0.41311382  0.91612723  0.91394714  1
  Te2-  Te205  1  0.74828822  0.25066890  0.25309953  1
  Te2-  Te206  1  0.74657881  0.25922610  0.58944208  1
  Te2-  Te207  1  0.74803477  0.24700679  0.92194790  1
  Te2-  Te208  1  0.74697665  0.58820424  0.25450978  1
  Te2-  Te209  1  0.73905555  0.58566436  0.58881553  1
  Te2-  Te210  1  0.75031475  0.58433440  0.92261897  1
  Te2-  Te211  1  0.74690986  0.92169930  0.25418537  1
  Te2-  Te212  1  0.74973437  0.92076637  0.58701943  1
  Te2-  Te213  1  0.74993132  0.91495527  0.91740146  1
  Te2-  Te214  1  0.08371610  0.07933054  0.07944645  1
  Te2-  Te215  1  0.08011085  0.08255823  0.41127250  1
  Te2-  Te216  1  0.08087510  0.08330401  0.74333376  1
  Te2-  Te217  1  0.08167664  0.41587832  0.07892701  1
  Te2-  Te218  1  0.08186048  0.41244891  0.41666545  1
  Te2-  Te219  1  0.08295943  0.41534517  0.74846736  1
  Te2-  Te220  1  0.07969028  0.74172477  0.08401161  1
  Te2-  Te221  1  0.07762204  0.74636425  0.41593140  1
  Te2-  Te222  1  0.07609161  0.74406244  0.74525449  1
  Te2-  Te223  1  0.41684973  0.07981232  0.08081239  1
  Te2-  Te224  1  0.41203447  0.07936960  0.41055699  1
  Te2-  Te225  1  0.41599995  0.08122168  0.74629537  1
  Te2-  Te226  1  0.41016189  0.41526744  0.08479286  1
  Te2-  Te227  1  0.41254156  0.42011097  0.40810764  1
  Te2-  Te228  1  0.41683377  0.41526688  0.74786484  1
  Te2-  Te229  1  0.41388880  0.74673282  0.07597502  1
  Te2-  Te230  1  0.41396894  0.74878335  0.41582646  1
  Te2-  Te231  1  0.41309274  0.74513898  0.74031053  1
  Te2-  Te232  1  0.75040402  0.07889232  0.08485488  1
  Te2-  Te233  1  0.74962267  0.08247853  0.41647084  1
  Te2-  Te234  1  0.74526386  0.07465844  0.74958598  1
  Te2-  Te235  1  0.74804705  0.41253144  0.08487082  1
  Te2-  Te236  1  0.74288069  0.40997670  0.41027857  1
  Te2-  Te237  1  0.74303600  0.41173526  0.75199018  1
  Te2-  Te238  1  0.74618739  0.74978690  0.08318841  1
  Te2-  Te239  1  0.75068899  0.75330612  0.40900520  1
  Te2-  Te240  1  0.74630575  0.74512331  0.74767894  1
