# generated using pymatgen
data_Ti27(Cu53Te54)2
_symmetry_space_group_name_H-M   'P 1'
_cell_length_a   17.89530251
_cell_length_b   17.88971293
_cell_length_c   17.88960430
_cell_angle_alpha   89.99777092
_cell_angle_beta   90.02802924
_cell_angle_gamma   89.99758393
_symmetry_Int_Tables_number   1
_chemical_formula_structural   Ti27(Cu53Te54)2
_chemical_formula_sum   'Ti27 Cu106 Te108'
_cell_volume   5727.20986911
_cell_formula_units_Z   1
loop_
 _symmetry_equiv_pos_site_id
 _symmetry_equiv_pos_as_xyz
  1  'x, y, z'
loop_
 _atom_type_symbol
 _atom_type_oxidation_number
  Ti4+  4.0
  Cu+  1.0
  Te2-  -2.0
loop_
 _atom_site_type_symbol
 _atom_site_label
 _atom_site_symmetry_multiplicity
 _atom_site_fract_x
 _atom_site_fract_y
 _atom_site_fract_z
 _atom_site_occupancy
  Ti4+  Ti0  1  0.16998903  0.17056472  0.16523512  1
  Ti4+  Ti1  1  0.16584798  0.16547166  0.50556564  1
  Ti4+  Ti2  1  0.16207992  0.16613947  0.83286742  1
  Ti4+  Ti3  1  0.16715249  0.50221368  0.16637963  1
  Ti4+  Ti4  1  0.16761855  0.50216548  0.50114705  1
  Ti4+  Ti5  1  0.17075599  0.49993086  0.83237890  1
  Ti4+  Ti6  1  0.16420925  0.83935057  0.16719073  1
  Ti4+  Ti7  1  0.16349340  0.83143093  0.49935637  1
  Ti4+  Ti8  1  0.17087285  0.82979996  0.82850268  1
  Ti4+  Ti9  1  0.50101861  0.16695408  0.16677549  1
  Ti4+  Ti10  1  0.50051363  0.16824493  0.50180151  1
  Ti4+  Ti11  1  0.49951292  0.16748794  0.83411673  1
  Ti4+  Ti12  1  0.50083980  0.50265271  0.16668055  1
  Ti4+  Ti13  1  0.50262812  0.50167497  0.49818381  1
  Ti4+  Ti14  1  0.50121883  0.50007309  0.83241543  1
  Ti4+  Ti15  1  0.49728688  0.83289137  0.16531942  1
  Ti4+  Ti16  1  0.50012281  0.83269284  0.49957050  1
  Ti4+  Ti17  1  0.49933776  0.83232380  0.83016290  1
  Ti4+  Ti18  1  0.83632781  0.16638422  0.16773546  1
  Ti4+  Ti19  1  0.83179212  0.16147259  0.49792073  1
  Ti4+  Ti20  1  0.83202337  0.16762310  0.83461567  1
  Ti4+  Ti21  1  0.83495071  0.49899337  0.16836608  1
  Ti4+  Ti22  1  0.83603109  0.49619947  0.50271979  1
  Ti4+  Ti23  1  0.83391826  0.50178669  0.83634937  1
  Ti4+  Ti24  1  0.83219316  0.83416102  0.16610508  1
  Ti4+  Ti25  1  0.83197274  0.83025748  0.50001218  1
  Ti4+  Ti26  1  0.83044273  0.83373922  0.83389172  1
  Cu+  Cu27  1  0.16877128  0.17152373  -0.00103592  1
  Cu+  Cu28  1  0.16860891  0.17005861  0.33609672  1
  Cu+  Cu29  1  0.16165331  0.15691292  0.67111230  1
  Cu+  Cu30  1  0.16855856  0.50064874  -0.00227391  1
  Cu+  Cu31  1  0.16902935  0.50352915  0.33303648  1
  Cu+  Cu32  1  0.16632688  0.50174086  0.66836275  1
  Cu+  Cu33  1  0.17099002  0.83425018  0.00219387  1
  Cu+  Cu34  1  0.15981219  0.83357450  0.33040490  1
  Cu+  Cu35  1  0.17290374  0.82861560  0.66132753  1
  Cu+  Cu36  1  0.50029458  0.16760140  0.00014101  1
  Cu+  Cu37  1  0.50076978  0.16644949  0.33537421  1
  Cu+  Cu38  1  0.49888431  0.16947467  0.66853023  1
  Cu+  Cu39  1  0.50337778  0.50282706  -0.00125686  1
  Cu+  Cu40  1  0.49901383  0.50332183  0.33215751  1
  Cu+  Cu41  1  0.50168827  0.50023957  0.66374024  1
  Cu+  Cu42  1  0.49269735  0.83215923  -0.00281046  1
  Cu+  Cu43  1  0.49840557  0.83127079  0.33113130  1
  Cu+  Cu44  1  0.50654290  0.83439853  0.66435944  1
  Cu+  Cu45  1  0.83798242  0.16928647  0.00036634  1
  Cu+  Cu46  1  0.82909549  0.16058357  0.33117822  1
  Cu+  Cu47  1  0.83222790  0.16725559  0.66587172  1
  Cu+  Cu48  1  0.83121327  0.50132459  0.00478080  1
  Cu+  Cu49  1  0.83502448  0.49734429  0.33519625  1
  Cu+  Cu50  1  0.83564546  0.49512670  0.66990578  1
  Cu+  Cu51  1  0.82932452  0.83533190  -0.00149479  1
  Cu+  Cu52  1  0.83424230  0.83502337  0.33209177  1
  Cu+  Cu53  1  0.83233149  0.83062737  0.66904369  1
  Cu+  Cu54  1  0.16511200  0.00881922  0.16957292  1
  Cu+  Cu55  1  0.16395181  -0.00133277  0.50701574  1
  Cu+  Cu56  1  0.16759983  0.00079492  0.82720611  1
  Cu+  Cu57  1  0.16975778  0.33529487  0.16534765  1
  Cu+  Cu58  1  0.16720422  0.33631710  0.50586519  1
  Cu+  Cu59  1  0.16772620  0.33268972  0.83348414  1
  Cu+  Cu60  1  0.16503778  0.67136582  0.16623558  1
  Cu+  Cu61  1  0.15889883  0.66570316  0.49652449  1
  Cu+  Cu62  1  0.17260199  0.66256995  0.82480303  1
  Cu+  Cu63  1  0.49750103  -0.00272924  0.16525475  1
  Cu+  Cu64  1  0.50300432  0.00186511  0.50321669  1
  Cu+  Cu65  1  0.49797477  0.00176548  0.83416252  1
  Cu+  Cu66  1  0.50270929  0.33506925  0.16691308  1
  Cu+  Cu67  1  0.50138676  0.33515678  0.50081876  1
  Cu+  Cu68  1  0.49880709  0.33296361  0.83356459  1
  Cu+  Cu69  1  0.49832126  0.66802268  0.16668138  1
  Cu+  Cu70  1  0.49902610  0.66682063  0.49209044  1
  Cu+  Cu71  1  0.50191259  0.66642862  0.83257625  1
  Cu+  Cu72  1  0.83519420  -0.00097401  0.16985157  1
  Cu+  Cu73  1  0.82993615  -0.00457580  0.49860422  1
  Cu+  Cu74  1  0.82885299  -0.00013133  0.83283202  1
  Cu+  Cu75  1  0.83643898  0.33354894  0.16851834  1
  Cu+  Cu76  1  0.83862391  0.32669779  0.50090812  1
  Cu+  Cu77  1  0.83429882  0.33434433  0.83942446  1
  Cu+  Cu78  1  0.83167448  0.66485705  0.16442611  1
  Cu+  Cu79  1  0.83005763  0.66055426  0.49901837  1
  Cu+  Cu80  1  0.83533217  0.67127159  0.83436461  1
  Cu+  Cu81  1  0.00778124  0.16663489  0.16727998  1
  Cu+  Cu82  1  -0.00294082  0.16342630  0.50560429  1
  Cu+  Cu83  1  -0.00539825  0.17066263  0.83708371  1
  Cu+  Cu84  1  -0.00074406  0.49770212  0.16676969  1
  Cu+  Cu85  1  0.00445044  0.49532454  0.50274398  1
  Cu+  Cu86  1  0.00225054  0.50130118  0.83542380  1
  Cu+  Cu87  1  -0.00416782  0.83944672  0.17142667  1
  Cu+  Cu88  1  -0.00076278  0.82818638  0.50273593  1
  Cu+  Cu89  1  -0.00314723  0.83378064  0.83204026  1
  Cu+  Cu90  1  0.33508955  0.17017788  0.16634223  1
  Cu+  Cu91  1  0.33657943  0.16787800  0.50308946  1
  Cu+  Cu92  1  0.33281950  0.16859203  0.83391838  1
  Cu+  Cu93  1  0.33371846  0.50159898  0.16528112  1
  Cu+  Cu94  1  0.33622352  0.50389237  0.49804557  1
  Cu+  Cu95  1  0.33612690  0.49672526  0.83265938  1
  Cu+  Cu96  1  0.32952993  0.83704073  0.16265404  1
  Cu+  Cu97  1  0.33000308  0.83662558  0.49999190  1
  Cu+  Cu98  1  0.33580738  0.82476797  0.82878694  1
  Cu+  Cu99  1  0.66914204  0.16582820  0.16677082  1
  Cu+  Cu100  1  0.66319964  0.16187857  0.49409312  1
  Cu+  Cu101  1  0.66572139  0.16731489  0.83429941  1
  Cu+  Cu102  1  0.66900979  0.50177610  0.16575615  1
  Cu+  Cu103  1  0.67151840  0.49912736  0.49916441  1
  Cu+  Cu104  1  0.66596685  0.50294082  0.83832105  1
  Cu+  Cu105  1  0.66281575  0.83441301  0.16347829  1
  Cu+  Cu106  1  0.66325835  0.83199773  0.49965568  1
  Cu+  Cu107  1  0.66429108  0.83168339  0.82924333  1
  Cu+  Cu108  1  0.25600271  0.74030988  0.07904420  1
  Cu+  Cu109  1  0.06762265  0.73885742  0.24816621  1
  Cu+  Cu110  1  0.74122943  0.59453891  0.07439186  1
  Cu+  Cu111  1  0.59254014  0.74118788  0.40112571  1
  Cu+  Cu112  1  0.08057882  0.08403042  0.26513926  1
  Cu+  Cu113  1  0.07145713  0.58853405  0.74501731  1
  Cu+  Cu114  1  0.26465523  0.07821370  0.74630452  1
  Cu+  Cu115  1  0.92580076  0.26554820  0.93218903  1
  Cu+  Cu116  1  0.92432510  0.25510706  0.59510417  1
  Cu+  Cu117  1  0.74340687  0.58506449  0.40645328  1
  Cu+  Cu118  1  0.58583320  0.07173590  0.40411399  1
  Cu+  Cu119  1  0.59238217  0.59575224  0.92688130  1
  Cu+  Cu120  1  0.92452814  0.74403437  0.74238373  1
  Cu+  Cu121  1  0.06609804  0.06776841  0.59839824  1
  Cu+  Cu122  1  0.92389676  0.92883506  0.26614610  1
  Cu+  Cu123  1  0.73656140  0.07015546  0.25137327  1
  Cu+  Cu124  1  0.26099252  0.92695019  0.58888082  1
  Cu+  Cu125  1  0.07997195  0.40617639  0.59829112  1
  Cu+  Cu126  1  0.40434625  0.59393503  0.40345136  1
  Cu+  Cu127  1  0.07271160  0.74025795  0.59160312  1
  Cu+  Cu128  1  0.07155479  0.58340259  0.40411804  1
  Cu+  Cu129  1  0.59407756  0.73626043  0.73792721  1
  Cu+  Cu130  1  0.26538848  0.73423651  0.73168632  1
  Cu+  Cu131  1  0.59616360  0.93111208  0.59419468  1
  Cu+  Cu132  1  0.40777529  0.73598612  0.92441591  1
  Te2-  Te133  1  0.25559053  0.25560507  0.07956601  1
  Te2-  Te134  1  0.25060744  0.25205472  0.42182681  1
  Te2-  Te135  1  0.24841190  0.25016623  0.74588222  1
  Te2-  Te136  1  0.25219579  0.58774889  0.07956832  1
  Te2-  Te137  1  0.25221572  0.58986361  0.41366082  1
  Te2-  Te138  1  0.26147565  0.58200419  0.74290728  1
  Te2-  Te139  1  0.24891107  0.92710762  0.08254762  1
  Te2-  Te140  1  0.24612268  0.91945169  0.41376290  1
  Te2-  Te141  1  0.25742746  0.91842650  0.74408998  1
  Te2-  Te142  1  0.58724433  0.25133022  0.08225204  1
  Te2-  Te143  1  0.58504976  0.25450398  0.41456752  1
  Te2-  Te144  1  0.58547959  0.25319796  0.74937665  1
  Te2-  Te145  1  0.58770007  0.59151412  0.08039777  1
  Te2-  Te146  1  0.59170284  0.58687889  0.40914327  1
  Te2-  Te147  1  0.58856616  0.58421668  0.74429899  1
  Te2-  Te148  1  0.58060528  0.91700756  0.07753017  1
  Te2-  Te149  1  0.58468718  0.91847389  0.41092672  1
  Te2-  Te150  1  0.58606594  0.92374139  0.74848977  1
  Te2-  Te151  1  0.92402328  0.25345093  0.08486476  1
  Te2-  Te152  1  0.91899396  0.24463250  0.41169063  1
  Te2-  Te153  1  0.91728039  0.25546517  0.74753474  1
  Te2-  Te154  1  0.92113138  0.58553773  0.08220369  1
  Te2-  Te155  1  0.92154412  0.58314801  0.41575273  1
  Te2-  Te156  1  0.91911751  0.58682963  0.74674683  1
  Te2-  Te157  1  0.91626017  0.91917225  0.07912434  1
  Te2-  Te158  1  0.92072342  0.91727922  0.41800257  1
  Te2-  Te159  1  0.91580205  0.92023532  0.74760976  1
  Te2-  Te160  1  0.25534578  0.08569187  0.25399045  1
  Te2-  Te161  1  0.25789653  0.07944841  0.58936955  1
  Te2-  Te162  1  0.24978029  0.08173894  0.91751980  1
  Te2-  Te163  1  0.25269271  0.41777353  0.25171869  1
  Te2-  Te164  1  0.25589267  0.41941397  0.58611528  1
  Te2-  Te165  1  0.25401303  0.41350120  0.91829859  1
  Te2-  Te166  1  0.25141901  0.75293798  0.25245657  1
  Te2-  Te167  1  0.25496506  0.74001661  0.57885256  1
  Te2-  Te168  1  0.25248490  0.74301223  0.91962013  1
  Te2-  Te169  1  0.58535735  0.07601281  0.25196106  1
  Te2-  Te170  1  0.58787218  0.08345432  0.59139514  1
  Te2-  Te171  1  0.58465090  0.08135928  0.91917862  1
  Te2-  Te172  1  0.58630536  0.41830784  0.25177443  1
  Te2-  Te173  1  0.58805631  0.41633417  0.58345890  1
  Te2-  Te174  1  0.58493809  0.41306970  0.91888772  1
  Te2-  Te175  1  0.58630022  0.74683088  0.24972016  1
  Te2-  Te176  1  0.58606277  0.74146656  0.58336420  1
  Te2-  Te177  1  0.58652863  0.74974837  0.92140090  1
  Te2-  Te178  1  0.92542854  0.08051667  0.25598112  1
  Te2-  Te179  1  0.91401147  0.07368821  0.58824711  1
  Te2-  Te180  1  0.91658521  0.07824424  0.91838919  1
  Te2-  Te181  1  0.92087925  0.41359846  0.25448666  1
  Te2-  Te182  1  0.92285400  0.40973088  0.59033628  1
  Te2-  Te183  1  0.92076280  0.41897074  0.92366757  1
  Te2-  Te184  1  0.91568548  0.74426235  0.25248510  1
  Te2-  Te185  1  0.91593673  0.74116112  0.58637835  1
  Te2-  Te186  1  0.91853022  0.75076547  0.92186611  1
  Te2-  Te187  1  0.08442822  0.25616740  0.25304871  1
  Te2-  Te188  1  0.07969446  0.25250036  0.59222273  1
  Te2-  Te189  1  0.08024144  0.25575394  0.92012426  1
  Te2-  Te190  1  0.07721479  0.58738585  0.25185713  1
  Te2-  Te191  1  0.07615492  0.58823655  0.59062458  1
  Te2-  Te192  1  0.08561607  0.58828726  0.91707058  1
  Te2-  Te193  1  0.07816923  0.92799985  0.25659377  1
  Te2-  Te194  1  0.07645715  0.91512668  0.59068573  1
  Te2-  Te195  1  0.08643024  0.91431679  0.91325572  1
  Te2-  Te196  1  0.41774445  0.25291505  0.25287516  1
  Te2-  Te197  1  0.41595070  0.25523948  0.58668097  1
  Te2-  Te198  1  0.41383999  0.25272135  0.91941765  1
  Te2-  Te199  1  0.41200181  0.58885060  0.25103409  1
  Te2-  Te200  1  0.41784582  0.58763963  0.58442407  1
  Te2-  Te201  1  0.41239710  0.58485484  0.91890776  1
  Te2-  Te202  1  0.41235931  0.91752888  0.25123054  1
  Te2-  Te203  1  0.41506770  0.91963082  0.58651690  1
  Te2-  Te204  1  0.41081295  0.91791609  0.91364835  1
  Te2-  Te205  1  0.74989441  0.25251555  0.25184030  1
  Te2-  Te206  1  0.74513439  0.24777129  0.58085728  1
  Te2-  Te207  1  0.74646342  0.25191273  0.92182098  1
  Te2-  Te208  1  0.74847447  0.58610276  0.25477885  1
  Te2-  Te209  1  0.75012707  0.58090813  0.58998801  1
  Te2-  Te210  1  0.74865958  0.59106961  0.92096226  1
  Te2-  Te211  1  0.74275952  0.91729131  0.25265056  1
  Te2-  Te212  1  0.74733180  0.91581567  0.58685378  1
  Te2-  Te213  1  0.74281446  0.91868077  0.91708393  1
  Te2-  Te214  1  0.08429807  0.08460805  0.07680607  1
  Te2-  Te215  1  0.08091639  0.08060401  0.41865707  1
  Te2-  Te216  1  0.06972134  0.07783170  0.75178646  1
  Te2-  Te217  1  0.08354807  0.41668751  0.08084120  1
  Te2-  Te218  1  0.08539551  0.41416516  0.41314175  1
  Te2-  Te219  1  0.08053479  0.41233210  0.74979249  1
  Te2-  Te220  1  0.07657301  0.75436939  0.08160588  1
  Te2-  Te221  1  0.07434781  0.74603386  0.40876993  1
  Te2-  Te222  1  0.07785209  0.74456035  0.74354261  1
  Te2-  Te223  1  0.41483766  0.08261986  0.08178105  1
  Te2-  Te224  1  0.41447663  0.08055891  0.41705048  1
  Te2-  Te225  1  0.41485624  0.08074115  0.74632041  1
  Te2-  Te226  1  0.41760224  0.41759962  0.08090675  1
  Te2-  Te227  1  0.41641979  0.41536972  0.41423562  1
  Te2-  Te228  1  0.41748128  0.41463058  0.74566751  1
  Te2-  Te229  1  0.40956644  0.74444554  0.07954811  1
  Te2-  Te230  1  0.40887813  0.75081559  0.41238790  1
  Te2-  Te231  1  0.41791374  0.74365225  0.73879462  1
  Te2-  Te232  1  0.75250891  0.08145647  0.08070883  1
  Te2-  Te233  1  0.74436460  0.07299501  0.41111347  1
  Te2-  Te234  1  0.74662115  0.08340299  0.74785835  1
  Te2-  Te235  1  0.74863688  0.41176630  0.08359906  1
  Te2-  Te236  1  0.75236884  0.40926979  0.41701786  1
  Te2-  Te237  1  0.74815259  0.41537222  0.75392577  1
  Te2-  Te238  1  0.74536078  0.74915572  0.07983854  1
  Te2-  Te239  1  0.74748147  0.74610782  0.41094489  1
  Te2-  Te240  1  0.74510963  0.74396807  0.74605233  1
