# generated using pymatgen
data_Ti27(Cu53Te54)2
_symmetry_space_group_name_H-M   'P 1'
_cell_length_a   17.87612469
_cell_length_b   17.88499910
_cell_length_c   17.88157590
_cell_angle_alpha   89.96774028
_cell_angle_beta   89.97295323
_cell_angle_gamma   89.99683726
_symmetry_Int_Tables_number   1
_chemical_formula_structural   Ti27(Cu53Te54)2
_chemical_formula_sum   'Ti27 Cu106 Te108'
_cell_volume   5716.99707836
_cell_formula_units_Z   1
loop_
 _symmetry_equiv_pos_site_id
 _symmetry_equiv_pos_as_xyz
  1  'x, y, z'
loop_
 _atom_type_symbol
 _atom_type_oxidation_number
  Ti4+  4.0
  Cu+  1.0
  Te2-  -2.0
loop_
 _atom_site_type_symbol
 _atom_site_label
 _atom_site_symmetry_multiplicity
 _atom_site_fract_x
 _atom_site_fract_y
 _atom_site_fract_z
 _atom_site_occupancy
  Ti4+  Ti0  1  0.16708476  0.16465588  0.16821541  1
  Ti4+  Ti1  1  0.16898140  0.16817879  0.50071620  1
  Ti4+  Ti2  1  0.16516369  0.16805759  0.83590329  1
  Ti4+  Ti3  1  0.16638573  0.49868023  0.16504846  1
  Ti4+  Ti4  1  0.16769139  0.50186494  0.50249766  1
  Ti4+  Ti5  1  0.16827631  0.50122929  0.83279090  1
  Ti4+  Ti6  1  0.16451999  0.83156143  0.16399300  1
  Ti4+  Ti7  1  0.16753494  0.83536220  0.49887972  1
  Ti4+  Ti8  1  0.16788846  0.83700757  0.83355472  1
  Ti4+  Ti9  1  0.50205634  0.16630128  0.16654089  1
  Ti4+  Ti10  1  0.49767942  0.16509366  0.50133324  1
  Ti4+  Ti11  1  0.50182746  0.16419201  0.83355031  1
  Ti4+  Ti12  1  0.49965046  0.50001894  0.16684621  1
  Ti4+  Ti13  1  0.49583319  0.49870281  0.49696256  1
  Ti4+  Ti14  1  0.50061742  0.49535801  0.83298577  1
  Ti4+  Ti15  1  0.50378424  0.83363419  0.16767020  1
  Ti4+  Ti16  1  0.49965675  0.83243684  0.49781584  1
  Ti4+  Ti17  1  0.49993385  0.82948593  0.83314256  1
  Ti4+  Ti18  1  0.83402686  0.16760507  0.16688385  1
  Ti4+  Ti19  1  0.83343142  0.16981975  0.50022904  1
  Ti4+  Ti20  1  0.82930890  0.16694892  0.82958151  1
  Ti4+  Ti21  1  0.83139221  0.50225520  0.16725809  1
  Ti4+  Ti22  1  0.83725678  0.50070874  0.49903874  1
  Ti4+  Ti23  1  0.83056608  0.50176701  0.83156595  1
  Ti4+  Ti24  1  0.83619564  0.83383815  0.17035322  1
  Ti4+  Ti25  1  0.83245118  0.83291828  0.50275661  1
  Ti4+  Ti26  1  0.83199669  0.83341255  0.83504924  1
  Cu+  Cu27  1  0.16149850  0.16979993  0.00327498  1
  Cu+  Cu28  1  0.16944847  0.16099890  0.33532057  1
  Cu+  Cu29  1  0.16891784  0.16726251  0.67026848  1
  Cu+  Cu30  1  0.16707430  0.50000114  -0.00278685  1
  Cu+  Cu31  1  0.16630968  0.49695839  0.33364441  1
  Cu+  Cu32  1  0.16598754  0.50171734  0.66886560  1
  Cu+  Cu33  1  0.16425473  0.83565732  -0.00176605  1
  Cu+  Cu34  1  0.16594222  0.83590807  0.32683576  1
  Cu+  Cu35  1  0.16825569  0.83605730  0.66558164  1
  Cu+  Cu36  1  0.50528213  0.16564567  0.00022310  1
  Cu+  Cu37  1  0.49879448  0.16762708  0.33389251  1
  Cu+  Cu38  1  0.49804242  0.16221235  0.66775324  1
  Cu+  Cu39  1  0.50436502  0.49766735  0.00001092  1
  Cu+  Cu40  1  0.49617008  0.50650871  0.33187529  1
  Cu+  Cu41  1  0.49279456  0.49377926  0.66465485  1
  Cu+  Cu42  1  0.50275535  0.83277991  0.00004882  1
  Cu+  Cu43  1  0.50374691  0.83816788  0.33241275  1
  Cu+  Cu44  1  0.49916116  0.82870793  0.66136193  1
  Cu+  Cu45  1  0.83330790  0.16533351  -0.00035775  1
  Cu+  Cu46  1  0.83560026  0.16804331  0.33399874  1
  Cu+  Cu47  1  0.82738282  0.17188351  0.66335956  1
  Cu+  Cu48  1  0.82932351  0.50043084  -0.00147284  1
  Cu+  Cu49  1  0.83372657  0.50027274  0.32955564  1
  Cu+  Cu50  1  0.83558122  0.50313172  0.66467373  1
  Cu+  Cu51  1  0.83559008  0.83122592  0.00375817  1
  Cu+  Cu52  1  0.83395065  0.82876832  0.33929244  1
  Cu+  Cu53  1  0.83008917  0.83520797  0.67177512  1
  Cu+  Cu54  1  0.16728352  -0.00442848  0.16952843  1
  Cu+  Cu55  1  0.16874113  0.00223247  0.49885091  1
  Cu+  Cu56  1  0.16865101  0.00477867  0.83265307  1
  Cu+  Cu57  1  0.16247733  0.32923912  0.16521228  1
  Cu+  Cu58  1  0.17045116  0.33826441  0.49934737  1
  Cu+  Cu59  1  0.16605626  0.33513546  0.83637281  1
  Cu+  Cu60  1  0.16590346  0.66586792  0.16378961  1
  Cu+  Cu61  1  0.16682141  0.66800444  0.50053879  1
  Cu+  Cu62  1  0.16880941  0.66990120  0.83327040  1
  Cu+  Cu63  1  0.50610418  0.00117473  0.16839584  1
  Cu+  Cu64  1  0.49949913  -0.00274910  0.50013096  1
  Cu+  Cu65  1  0.50176310  -0.00453843  0.83697804  1
  Cu+  Cu66  1  0.50040398  0.33433955  0.16576365  1
  Cu+  Cu67  1  0.49144100  0.32987258  0.50116992  1
  Cu+  Cu68  1  0.50334915  0.32685667  0.83703931  1
  Cu+  Cu69  1  0.50340882  0.66469094  0.16845483  1
  Cu+  Cu70  1  0.49527008  0.66694978  0.49306835  1
  Cu+  Cu71  1  0.50034905  0.66056128  0.83220059  1
  Cu+  Cu72  1  0.83510642  0.00254372  0.16866511  1
  Cu+  Cu73  1  0.82959935  0.00393569  0.50395085  1
  Cu+  Cu74  1  0.82727609  -0.00338723  0.83012032  1
  Cu+  Cu75  1  0.83036695  0.33570967  0.16677477  1
  Cu+  Cu76  1  0.83954934  0.33263307  0.50104297  1
  Cu+  Cu77  1  0.82680847  0.33610872  0.82773662  1
  Cu+  Cu78  1  0.83728312  0.66966131  0.17129691  1
  Cu+  Cu79  1  0.84063159  0.66695511  0.50029790  1
  Cu+  Cu80  1  0.83131906  0.66861172  0.83434626  1
  Cu+  Cu81  1  0.00107728  0.16942430  0.16533522  1
  Cu+  Cu82  1  0.00059161  0.17236062  0.50458335  1
  Cu+  Cu83  1  -0.00245445  0.16675342  0.83405578  1
  Cu+  Cu84  1  -0.00043925  0.50237014  0.16450690  1
  Cu+  Cu85  1  0.00144351  0.50570963  0.50577949  1
  Cu+  Cu86  1  0.00020840  0.50027788  0.83358582  1
  Cu+  Cu87  1  0.00012171  0.82905143  0.16012872  1
  Cu+  Cu88  1  0.00104638  0.83399210  0.50018460  1
  Cu+  Cu89  1  0.00180414  0.83617425  0.83625370  1
  Cu+  Cu90  1  0.33575926  0.16225062  0.16543688  1
  Cu+  Cu91  1  0.33430953  0.16745096  0.49465699  1
  Cu+  Cu92  1  0.33202406  0.16263178  0.83407442  1
  Cu+  Cu93  1  0.33215849  0.49687801  0.16442170  1
  Cu+  Cu94  1  0.33264872  0.49582695  0.49728673  1
  Cu+  Cu95  1  0.33644978  0.50007513  0.82993146  1
  Cu+  Cu96  1  0.33419298  0.83135448  0.16484392  1
  Cu+  Cu97  1  0.33563216  0.83393384  0.49727456  1
  Cu+  Cu98  1  0.33060131  0.82946722  0.82839606  1
  Cu+  Cu99  1  0.66969525  0.16701137  0.16588678  1
  Cu+  Cu100  1  0.66524227  0.16428837  0.50254697  1
  Cu+  Cu101  1  0.66605605  0.17239184  0.83048941  1
  Cu+  Cu102  1  0.66549470  0.49982944  0.17221012  1
  Cu+  Cu103  1  0.66853990  0.49643254  0.49739169  1
  Cu+  Cu104  1  0.66348086  0.50096474  0.83403246  1
  Cu+  Cu105  1  0.67056970  0.83685867  0.17463457  1
  Cu+  Cu106  1  0.66333250  0.83132939  0.50126433  1
  Cu+  Cu107  1  0.66567296  0.83571361  0.83682242  1
  Cu+  Cu108  1  0.93203786  0.25960193  0.59640982  1
  Cu+  Cu109  1  0.73577243  0.26800531  0.73398876  1
  Cu+  Cu110  1  0.73682914  0.07444273  0.59210787  1
  Cu+  Cu111  1  0.92707573  0.59866347  0.59895178  1
  Cu+  Cu112  1  0.59927359  0.93341597  0.26423844  1
  Cu+  Cu113  1  0.59158762  0.59165644  0.26391327  1
  Cu+  Cu114  1  0.92633658  0.73772267  0.06966026  1
  Cu+  Cu115  1  0.26288902  0.92061800  0.25379609  1
  Cu+  Cu116  1  0.25718690  0.41025293  0.40154053  1
  Cu+  Cu117  1  0.40349673  0.39912986  0.59797153  1
  Cu+  Cu118  1  0.74051690  0.74444681  0.26513353  1
  Cu+  Cu119  1  0.59133318  0.59161946  0.92672724  1
  Cu+  Cu120  1  0.73414161  0.92106781  0.74117672  1
  Cu+  Cu121  1  0.26079902  0.07660093  0.74070170  1
  Cu+  Cu122  1  0.93216297  0.59048383  0.25616534  1
  Cu+  Cu123  1  0.93262744  0.74230849  0.41199179  1
  Cu+  Cu124  1  0.41133605  0.59064066  0.73791834  1
  Cu+  Cu125  1  0.25106289  0.73917977  0.73508815  1
  Cu+  Cu126  1  0.06959385  0.26128509  0.07314387  1
  Cu+  Cu127  1  0.73799031  0.40317664  0.25976849  1
  Cu+  Cu128  1  0.59661406  0.25792115  0.93119421  1
  Cu+  Cu129  1  0.40836789  0.25713415  0.40062424  1
  Cu+  Cu130  1  0.40167537  0.59876539  0.40155962  1
  Cu+  Cu131  1  0.26257569  0.07145174  0.40784336  1
  Cu+  Cu132  1  0.59269134  0.92628823  0.92888925  1
  Te2-  Te133  1  0.25374675  0.24986249  0.08293406  1
  Te2-  Te134  1  0.25335686  0.25616294  0.40960958  1
  Te2-  Te135  1  0.25278922  0.25406271  0.75189183  1
  Te2-  Te136  1  0.25175816  0.58376987  0.08025522  1
  Te2-  Te137  1  0.25115642  0.58799279  0.41264105  1
  Te2-  Te138  1  0.25551682  0.58778077  0.74410270  1
  Te2-  Te139  1  0.25215287  0.91750972  0.07978549  1
  Te2-  Te140  1  0.25495677  0.91944812  0.41071463  1
  Te2-  Te141  1  0.25457258  0.92296352  0.74563252  1
  Te2-  Te142  1  0.58901814  0.25420215  0.08296493  1
  Te2-  Te143  1  0.58412893  0.25165212  0.41828975  1
  Te2-  Te144  1  0.58310024  0.25277102  0.74135530  1
  Te2-  Te145  1  0.58876673  0.58529307  0.08133359  1
  Te2-  Te146  1  0.58786269  0.58515706  0.41578878  1
  Te2-  Te147  1  0.58253641  0.58037098  0.74114690  1
  Te2-  Te148  1  0.59110049  0.91889298  0.08202705  1
  Te2-  Te149  1  0.58912815  0.92154486  0.41584503  1
  Te2-  Te150  1  0.58211492  0.91639095  0.74367332  1
  Te2-  Te151  1  0.91649304  0.25551893  0.07927019  1
  Te2-  Te152  1  0.92158682  0.25297033  0.41291239  1
  Te2-  Te153  1  0.91849505  0.25424631  0.74761939  1
  Te2-  Te154  1  0.91723579  0.58593582  0.07746864  1
  Te2-  Te155  1  0.92496667  0.58644121  0.41008256  1
  Te2-  Te156  1  0.91971930  0.58880642  0.75004619  1
  Te2-  Te157  1  0.91836322  0.92086168  0.08276804  1
  Te2-  Te158  1  0.91551326  0.92155315  0.41892735  1
  Te2-  Te159  1  0.91981645  0.91831414  0.74981310  1
  Te2-  Te160  1  0.25722724  0.07674558  0.25332801  1
  Te2-  Te161  1  0.25556584  0.08197208  0.58593559  1
  Te2-  Te162  1  0.24934631  0.08383634  0.92474014  1
  Te2-  Te163  1  0.25155386  0.41012878  0.24883885  1
  Te2-  Te164  1  0.25241831  0.41478012  0.59118535  1
  Te2-  Te165  1  0.25460096  0.41612165  0.91747921  1
  Te2-  Te166  1  0.25140151  0.74591295  0.24971994  1
  Te2-  Te167  1  0.25476352  0.74872978  0.58280630  1
  Te2-  Te168  1  0.25220940  0.75018947  0.92107831  1
  Te2-  Te169  1  0.58962929  0.08466292  0.25573290  1
  Te2-  Te170  1  0.58291174  0.07731396  0.58731643  1
  Te2-  Te171  1  0.59089127  0.07923900  0.91863029  1
  Te2-  Te172  1  0.58264307  0.41250245  0.25687723  1
  Te2-  Te173  1  0.58227005  0.41332035  0.58148056  1
  Te2-  Te174  1  0.58890453  0.41025018  0.92042698  1
  Te2-  Te175  1  0.58785518  0.74525161  0.25779750  1
  Te2-  Te176  1  0.58273676  0.74254822  0.58194056  1
  Te2-  Te177  1  0.58662474  0.74372535  0.91890973  1
  Te2-  Te178  1  0.92082274  0.08402225  0.25231386  1
  Te2-  Te179  1  0.91853629  0.08426601  0.58794266  1
  Te2-  Te180  1  0.91331762  0.08025795  0.91417563  1
  Te2-  Te181  1  0.92027600  0.41484743  0.24937082  1
  Te2-  Te182  1  0.92232209  0.41482881  0.58789046  1
  Te2-  Te183  1  0.91424176  0.41529132  0.91592305  1
  Te2-  Te184  1  0.92755207  0.74717512  0.25803753  1
  Te2-  Te185  1  0.92032422  0.75153668  0.59218035  1
  Te2-  Te186  1  0.92087776  0.74685189  0.91812699  1
  Te2-  Te187  1  0.08275933  0.24883884  0.25681875  1
  Te2-  Te188  1  0.08720869  0.25636536  0.58850096  1
  Te2-  Te189  1  0.07635887  0.25519560  0.91921271  1
  Te2-  Te190  1  0.08389212  0.58597010  0.25313194  1
  Te2-  Te191  1  0.08324124  0.59086098  0.58983714  1
  Te2-  Te192  1  0.08255785  0.58706601  0.91669767  1
  Te2-  Te193  1  0.07503231  0.91657020  0.24865417  1
  Te2-  Te194  1  0.08280677  0.92075511  0.58415562  1
  Te2-  Te195  1  0.08241281  0.92374340  0.91799852  1
  Te2-  Te196  1  0.41300708  0.25283087  0.24900893  1
  Te2-  Te197  1  0.40893849  0.24723043  0.59100757  1
  Te2-  Te198  1  0.41422594  0.24676679  0.91943441  1
  Te2-  Te199  1  0.40798964  0.58792615  0.24822515  1
  Te2-  Te200  1  0.41082265  0.58677442  0.58254630  1
  Te2-  Te201  1  0.41574211  0.58157850  0.92097404  1
  Te2-  Te202  1  0.41584790  0.92041819  0.25061784  1
  Te2-  Te203  1  0.41417747  0.91738378  0.58470328  1
  Te2-  Te204  1  0.41257586  0.91329082  0.91762594  1
  Te2-  Te205  1  0.74709273  0.25195737  0.25477759  1
  Te2-  Te206  1  0.74176663  0.25983680  0.58174198  1
  Te2-  Te207  1  0.74894392  0.25409183  0.92082263  1
  Te2-  Te208  1  0.74496629  0.59096214  0.25711145  1
  Te2-  Te209  1  0.74842832  0.58541866  0.58118923  1
  Te2-  Te210  1  0.74545539  0.58806654  0.91927210  1
  Te2-  Te211  1  0.75374424  0.92288805  0.25923860  1
  Te2-  Te212  1  0.74249878  0.91881890  0.58746782  1
  Te2-  Te213  1  0.74833429  0.91887759  0.92598715  1
  Te2-  Te214  1  0.08169757  0.07799695  0.08415206  1
  Te2-  Te215  1  0.07860573  0.08424446  0.41924859  1
  Te2-  Te216  1  0.07913109  0.08332057  0.74833651  1
  Te2-  Te217  1  0.07892438  0.41553851  0.07825299  1
  Te2-  Te218  1  0.07882345  0.41729498  0.41868756  1
  Te2-  Te219  1  0.08168969  0.41514097  0.74895611  1
  Te2-  Te220  1  0.08139527  0.74364061  0.07499215  1
  Te2-  Te221  1  0.08439285  0.74851371  0.41197033  1
  Te2-  Te222  1  0.08148798  0.75121648  0.74808907  1
  Te2-  Te223  1  0.41990050  0.07935461  0.08062464  1
  Te2-  Te224  1  0.41576009  0.07626668  0.41222935  1
  Te2-  Te225  1  0.41572297  0.07541486  0.74973499  1
  Te2-  Te226  1  0.41625631  0.41461581  0.07987413  1
  Te2-  Te227  1  0.41189448  0.41092997  0.40536518  1
  Te2-  Te228  1  0.41339723  0.40459946  0.75106528  1
  Te2-  Te229  1  0.41912552  0.74748819  0.08303821  1
  Te2-  Te230  1  0.41252173  0.75108358  0.40690026  1
  Te2-  Te231  1  0.41410281  0.74409314  0.74395019  1
  Te2-  Te232  1  0.74927149  0.08063011  0.08191863  1
  Te2-  Te233  1  0.74791977  0.08386222  0.41366629  1
  Te2-  Te234  1  0.74108561  0.07874433  0.74458286  1
  Te2-  Te235  1  0.74493061  0.41718163  0.08171893  1
  Te2-  Te236  1  0.75161352  0.41231673  0.41428698  1
  Te2-  Te237  1  0.74311125  0.42033799  0.74202237  1
  Te2-  Te238  1  0.74790483  0.74887548  0.08596246  1
  Te2-  Te239  1  0.74507351  0.74383502  0.41972952  1
  Te2-  Te240  1  0.74431948  0.74757121  0.75003267  1
