# generated using pymatgen
data_Ti27(Cu53Te54)2
_symmetry_space_group_name_H-M   'P 1'
_cell_length_a   17.91574379
_cell_length_b   17.90694521
_cell_length_c   17.90991056
_cell_angle_alpha   89.97443308
_cell_angle_beta   90.08088095
_cell_angle_gamma   90.03450714
_symmetry_Int_Tables_number   1
_chemical_formula_structural   Ti27(Cu53Te54)2
_chemical_formula_sum   'Ti27 Cu106 Te108'
_cell_volume   5745.78287213
_cell_formula_units_Z   1
loop_
 _symmetry_equiv_pos_site_id
 _symmetry_equiv_pos_as_xyz
  1  'x, y, z'
loop_
 _atom_type_symbol
 _atom_type_oxidation_number
  Ti4+  4.0
  Cu+  1.0
  Te2-  -2.0
loop_
 _atom_site_type_symbol
 _atom_site_label
 _atom_site_symmetry_multiplicity
 _atom_site_fract_x
 _atom_site_fract_y
 _atom_site_fract_z
 _atom_site_occupancy
  Ti4+  Ti0  1  0.16695606  0.16450014  0.16341657  1
  Ti4+  Ti1  1  0.16586925  0.16542164  0.49683807  1
  Ti4+  Ti2  1  0.16979055  0.16452555  0.83237455  1
  Ti4+  Ti3  1  0.16930700  0.50271910  0.16161123  1
  Ti4+  Ti4  1  0.16736979  0.50046040  0.49684327  1
  Ti4+  Ti5  1  0.16426133  0.49627405  0.83102201  1
  Ti4+  Ti6  1  0.16552620  0.82750687  0.16764746  1
  Ti4+  Ti7  1  0.16392388  0.83272464  0.50377548  1
  Ti4+  Ti8  1  0.16696841  0.83172330  0.83620272  1
  Ti4+  Ti9  1  0.49880763  0.16885588  0.16479327  1
  Ti4+  Ti10  1  0.49852173  0.17034572  0.50125495  1
  Ti4+  Ti11  1  0.50354424  0.16656442  0.83907058  1
  Ti4+  Ti12  1  0.50083360  0.50154525  0.16640097  1
  Ti4+  Ti13  1  0.50051754  0.50371571  0.50096259  1
  Ti4+  Ti14  1  0.50044437  0.49715468  0.83083446  1
  Ti4+  Ti15  1  0.50247300  0.83092032  0.16666249  1
  Ti4+  Ti16  1  0.49828829  0.83781582  0.50053860  1
  Ti4+  Ti17  1  0.50068475  0.83295232  0.83332967  1
  Ti4+  Ti18  1  0.83126832  0.16681449  0.16439605  1
  Ti4+  Ti19  1  0.83193492  0.16796291  0.49802295  1
  Ti4+  Ti20  1  0.83582116  0.16546724  0.83406015  1
  Ti4+  Ti21  1  0.83334281  0.49941858  0.16805752  1
  Ti4+  Ti22  1  0.83597970  0.50145863  0.49849918  1
  Ti4+  Ti23  1  0.83229260  0.49993287  0.83390089  1
  Ti4+  Ti24  1  0.83137232  0.83493916  0.17033931  1
  Ti4+  Ti25  1  0.82916421  0.83629721  0.50356867  1
  Ti4+  Ti26  1  0.83372221  0.83255135  0.83602243  1
  Cu+  Cu27  1  0.16985461  0.16404588  -0.00242966  1
  Cu+  Cu28  1  0.16568071  0.16455627  0.32967051  1
  Cu+  Cu29  1  0.16678532  0.16700541  0.66276167  1
  Cu+  Cu30  1  0.16981873  0.50298078  -0.00588315  1
  Cu+  Cu31  1  0.16867982  0.50389715  0.32773170  1
  Cu+  Cu32  1  0.16361710  0.49824046  0.66398234  1
  Cu+  Cu33  1  0.16337426  0.82374170  -0.00006106  1
  Cu+  Cu34  1  0.16570914  0.82905765  0.33728880  1
  Cu+  Cu35  1  0.16491523  0.83490255  0.67097254  1
  Cu+  Cu36  1  0.50517249  0.16407535  0.00086007  1
  Cu+  Cu37  1  0.49712700  0.17184804  0.33563047  1
  Cu+  Cu38  1  0.50119945  0.17135481  0.67136926  1
  Cu+  Cu39  1  0.49978607  0.49936432  0.00005476  1
  Cu+  Cu40  1  0.50083229  0.50428330  0.33428136  1
  Cu+  Cu41  1  0.49744499  0.49689710  0.66337012  1
  Cu+  Cu42  1  0.50536240  0.82923552  -0.00074079  1
  Cu+  Cu43  1  0.50371066  0.83415904  0.33405549  1
  Cu+  Cu44  1  0.49658485  0.83558372  0.66511454  1
  Cu+  Cu45  1  0.83526504  0.16109926  -0.00098651  1
  Cu+  Cu46  1  0.82843123  0.16734770  0.32919025  1
  Cu+  Cu47  1  0.83352732  0.16707964  0.66230582  1
  Cu+  Cu48  1  0.82966875  0.50104025  0.00002459  1
  Cu+  Cu49  1  0.83878280  0.49751403  0.33335289  1
  Cu+  Cu50  1  0.83532647  0.50046813  0.66630955  1
  Cu+  Cu51  1  0.83705266  0.83194664  0.00638164  1
  Cu+  Cu52  1  0.82906100  0.83766501  0.33951813  1
  Cu+  Cu53  1  0.82802057  0.83930546  0.67220871  1
  Cu+  Cu54  1  0.16509575  -0.00674340  0.16693376  1
  Cu+  Cu55  1  0.16242483  -0.00106860  0.50111719  1
  Cu+  Cu56  1  0.16627328  -0.00112179  0.83583660  1
  Cu+  Cu57  1  0.16599015  0.33515390  0.16214254  1
  Cu+  Cu58  1  0.16659754  0.33170000  0.49590840  1
  Cu+  Cu59  1  0.16618230  0.32619554  0.82950818  1
  Cu+  Cu60  1  0.17493483  0.66509623  0.16328731  1
  Cu+  Cu61  1  0.16864057  0.66780209  0.49880208  1
  Cu+  Cu62  1  0.16517786  0.66289173  0.83687958  1
  Cu+  Cu63  1  0.50119174  -0.00234399  0.16503789  1
  Cu+  Cu64  1  0.49735367  0.00645623  0.50297033  1
  Cu+  Cu65  1  0.49806972  -0.00044886  0.83781431  1
  Cu+  Cu66  1  0.49782827  0.33684681  0.16744524  1
  Cu+  Cu67  1  0.49855734  0.33794894  0.50307498  1
  Cu+  Cu68  1  0.50264544  0.32889248  0.83380193  1
  Cu+  Cu69  1  0.50594620  0.66661346  0.16396452  1
  Cu+  Cu70  1  0.49938891  0.67313520  0.50192054  1
  Cu+  Cu71  1  0.50113717  0.66418162  0.82937162  1
  Cu+  Cu72  1  0.82982986  0.00543604  0.17124103  1
  Cu+  Cu73  1  0.82657019  0.00090160  0.49927640  1
  Cu+  Cu74  1  0.83080660  -0.00360298  0.83316357  1
  Cu+  Cu75  1  0.83278706  0.33285035  0.16556765  1
  Cu+  Cu76  1  0.83652684  0.33465748  0.49608283  1
  Cu+  Cu77  1  0.83770230  0.33643768  0.83024658  1
  Cu+  Cu78  1  0.83375382  0.66445745  0.17070834  1
  Cu+  Cu79  1  0.83667942  0.66940453  0.50073904  1
  Cu+  Cu80  1  0.83188478  0.66422232  0.83642705  1
  Cu+  Cu81  1  -0.00014805  0.16705258  0.16142953  1
  Cu+  Cu82  1  -0.00131785  0.16436128  0.49689179  1
  Cu+  Cu83  1  0.00592510  0.16501148  0.83077975  1
  Cu+  Cu84  1  0.00301036  0.50056544  0.16389127  1
  Cu+  Cu85  1  0.00143247  0.49849595  0.49405214  1
  Cu+  Cu86  1  -0.00596316  0.49358679  0.82875162  1
  Cu+  Cu87  1  -0.00275973  0.82991844  0.16824504  1
  Cu+  Cu88  1  -0.00393110  0.83329384  0.50481216  1
  Cu+  Cu89  1  0.00138403  0.83082333  0.83952918  1
  Cu+  Cu90  1  0.33241033  0.16541936  0.16536917  1
  Cu+  Cu91  1  0.33016042  0.16924702  0.50065520  1
  Cu+  Cu92  1  0.33665688  0.16964233  0.84021645  1
  Cu+  Cu93  1  0.33586590  0.50494898  0.16655207  1
  Cu+  Cu94  1  0.33489665  0.50234686  0.50187360  1
  Cu+  Cu95  1  0.33220643  0.49693274  0.83052198  1
  Cu+  Cu96  1  0.33597112  0.82933775  0.16666153  1
  Cu+  Cu97  1  0.33136924  0.83238305  0.50502140  1
  Cu+  Cu98  1  0.33455597  0.83520758  0.83307430  1
  Cu+  Cu99  1  0.66192248  0.16486301  0.16262440  1
  Cu+  Cu100  1  0.66243629  0.17239915  0.50207620  1
  Cu+  Cu101  1  0.67195805  0.16524720  0.84337414  1
  Cu+  Cu102  1  0.66805956  0.50028636  0.16979715  1
  Cu+  Cu103  1  0.66990433  0.50471066  0.49969912  1
  Cu+  Cu104  1  0.66758440  0.49894619  0.83075517  1
  Cu+  Cu105  1  0.66570217  0.83137438  0.16797637  1
  Cu+  Cu106  1  0.66380663  0.83922940  0.49627513  1
  Cu+  Cu107  1  0.66746501  0.83747717  0.83238319  1
  Cu+  Cu108  1  0.26444824  0.59183885  0.91495436  1
  Cu+  Cu109  1  0.40903658  0.25507473  0.74387225  1
  Cu+  Cu110  1  0.92272850  0.73548886  0.08003414  1
  Cu+  Cu111  1  0.73147555  0.08366843  0.26121435  1
  Cu+  Cu112  1  0.92162186  0.40706388  0.73519642  1
  Cu+  Cu113  1  0.07469320  0.25274688  0.73298831  1
  Cu+  Cu114  1  0.26567830  0.58949877  0.26021119  1
  Cu+  Cu115  1  0.60198346  0.26396763  0.92746454  1
  Cu+  Cu116  1  0.25890759  0.25918258  0.92944683  1
  Cu+  Cu117  1  0.40854821  0.06997843  0.92884113  1
  Cu+  Cu118  1  0.58909091  0.06903529  0.07663009  1
  Cu+  Cu119  1  0.92949886  0.40220780  0.40147726  1
  Cu+  Cu120  1  0.07046368  0.73167237  0.92269163  1
  Cu+  Cu121  1  0.40447709  0.74423173  0.59584861  1
  Cu+  Cu122  1  0.74559523  0.06764299  0.92426592  1
  Cu+  Cu123  1  0.59622291  0.73495028  0.06711176  1
  Cu+  Cu124  1  0.40289525  0.40701269  0.58812475  1
  Cu+  Cu125  1  0.73589148  0.93043908  0.40739450  1
  Cu+  Cu126  1  0.92540853  0.74599546  0.41198255  1
  Cu+  Cu127  1  0.26529543  0.74600359  0.07100558  1
  Cu+  Cu128  1  0.07720397  0.07489461  0.92437020  1
  Cu+  Cu129  1  0.59252597  0.74122182  0.40996313  1
  Cu+  Cu130  1  0.73570290  0.92925544  0.74185604  1
  Cu+  Cu131  1  0.92837694  0.07407943  0.07741848  1
  Cu+  Cu132  1  0.26098320  0.74551369  0.41181965  1
  Te2-  Te133  1  0.25340744  0.25270033  0.08028526  1
  Te2-  Te134  1  0.25073576  0.25072117  0.41107606  1
  Te2-  Te135  1  0.25608087  0.25048242  0.74364259  1
  Te2-  Te136  1  0.25916460  0.58808438  0.07241183  1
  Te2-  Te137  1  0.25643750  0.58799800  0.41308134  1
  Te2-  Te138  1  0.24901161  0.58279959  0.74643192  1
  Te2-  Te139  1  0.25032242  0.91155100  0.08142703  1
  Te2-  Te140  1  0.24947482  0.91738326  0.41780278  1
  Te2-  Te141  1  0.25093800  0.91866491  0.75085325  1
  Te2-  Te142  1  0.58572230  0.25830139  0.08127351  1
  Te2-  Te143  1  0.58219799  0.25710254  0.41637249  1
  Te2-  Te144  1  0.59314021  0.24965689  0.75303934  1
  Te2-  Te145  1  0.58996250  0.58357005  0.07859650  1
  Te2-  Te146  1  0.58697672  0.58926284  0.41518571  1
  Te2-  Te147  1  0.58426908  0.58134926  0.74479557  1
  Te2-  Te148  1  0.58911457  0.91721953  0.07979530  1
  Te2-  Te149  1  0.58177011  0.92820205  0.41334727  1
  Te2-  Te150  1  0.58225050  0.92213630  0.74740560  1
  Te2-  Te151  1  0.91704225  0.25267172  0.07830763  1
  Te2-  Te152  1  0.91882636  0.24963609  0.40913137  1
  Te2-  Te153  1  0.92097701  0.25060389  0.74435012  1
  Te2-  Te154  1  0.91859290  0.58433925  0.08030953  1
  Te2-  Te155  1  0.92178415  0.58943310  0.41220711  1
  Te2-  Te156  1  0.91794457  0.58789884  0.74859049  1
  Te2-  Te157  1  0.91850802  0.92190051  0.08606253  1
  Te2-  Te158  1  0.91766357  0.92150452  0.41834097  1
  Te2-  Te159  1  0.92187394  0.91671822  0.75273787  1
  Te2-  Te160  1  0.25045948  0.07835718  0.24839883  1
  Te2-  Te161  1  0.25060057  0.08061202  0.58354757  1
  Te2-  Te162  1  0.25641000  0.07611018  0.92053339  1
  Te2-  Te163  1  0.25310410  0.41580571  0.24778031  1
  Te2-  Te164  1  0.25027532  0.41323630  0.58387212  1
  Te2-  Te165  1  0.25173737  0.41026376  0.91621326  1
  Te2-  Te166  1  0.25643804  0.74486203  0.25666942  1
  Te2-  Te167  1  0.24957101  0.74582092  0.59231568  1
  Te2-  Te168  1  0.25891570  0.74456016  0.91927471  1
  Te2-  Te169  1  0.58050763  0.08196539  0.25528261  1
  Te2-  Te170  1  0.58360044  0.08635456  0.58821727  1
  Te2-  Te171  1  0.59111008  0.07289499  0.92320986  1
  Te2-  Te172  1  0.58379488  0.41675927  0.25357340  1
  Te2-  Te173  1  0.58921152  0.41827397  0.58362645  1
  Te2-  Te174  1  0.58714651  0.41523343  0.91870642  1
  Te2-  Te175  1  0.58858184  0.74556790  0.25549914  1
  Te2-  Te176  1  0.58702195  0.75371048  0.58607118  1
  Te2-  Te177  1  0.58899283  0.74478607  0.91415574  1
  Te2-  Te178  1  0.92040275  0.08409742  0.25260492  1
  Te2-  Te179  1  0.91611152  0.08038026  0.58163353  1
  Te2-  Te180  1  0.92309927  0.07583234  0.91762664  1
  Te2-  Te181  1  0.92323237  0.41200624  0.24893219  1
  Te2-  Te182  1  0.92265360  0.41382878  0.58386087  1
  Te2-  Te183  1  0.91734454  0.41455861  0.92289534  1
  Te2-  Te184  1  0.91525343  0.74925883  0.25800217  1
  Te2-  Te185  1  0.91314248  0.75228937  0.59219176  1
  Te2-  Te186  1  0.91878085  0.74308697  0.92377812  1
  Te2-  Te187  1  0.08232831  0.25088198  0.24631426  1
  Te2-  Te188  1  0.07818447  0.25309963  0.58124779  1
  Te2-  Te189  1  0.08180901  0.25073814  0.92058661  1
  Te2-  Te190  1  0.08272516  0.58833253  0.24705437  1
  Te2-  Te191  1  0.08158745  0.58449978  0.58121734  1
  Te2-  Te192  1  0.07392863  0.57910777  0.91652480  1
  Te2-  Te193  1  0.08148713  0.91248594  0.25313469  1
  Te2-  Te194  1  0.07899792  0.91812082  0.58834808  1
  Te2-  Te195  1  0.08110225  0.91841326  0.92411848  1
  Te2-  Te196  1  0.41300344  0.25261705  0.24958724  1
  Te2-  Te197  1  0.40999371  0.25511280  0.58890859  1
  Te2-  Te198  1  0.41700134  0.25606766  0.92674119  1
  Te2-  Te199  1  0.41808148  0.59100524  0.25271320  1
  Te2-  Te200  1  0.41350490  0.59047278  0.58773111  1
  Te2-  Te201  1  0.41625515  0.58417200  0.91621574  1
  Te2-  Te202  1  0.41630388  0.91646715  0.25053750  1
  Te2-  Te203  1  0.41225831  0.92322605  0.58584704  1
  Te2-  Te204  1  0.41519795  0.91524337  0.92331224  1
  Te2-  Te205  1  0.74343740  0.25288587  0.24789725  1
  Te2-  Te206  1  0.74981422  0.25525984  0.58296774  1
  Te2-  Te207  1  0.75603494  0.25654782  0.92103964  1
  Te2-  Te208  1  0.74996015  0.58348641  0.25578026  1
  Te2-  Te209  1  0.75227376  0.58705198  0.58515773  1
  Te2-  Te210  1  0.74460505  0.58464259  0.91864515  1
  Te2-  Te211  1  0.74212490  0.92220873  0.25440878  1
  Te2-  Te212  1  0.74141394  0.92338176  0.58898602  1
  Te2-  Te213  1  0.74774561  0.91585268  0.92615269  1
  Te2-  Te214  1  0.08131434  0.07468501  0.07802139  1
  Te2-  Te215  1  0.08060489  0.07975550  0.41228706  1
  Te2-  Te216  1  0.08448458  0.07824126  0.74459690  1
  Te2-  Te217  1  0.08374076  0.41750371  0.07642254  1
  Te2-  Te218  1  0.08466863  0.41473583  0.40805170  1
  Te2-  Te219  1  0.07848252  0.40924451  0.74279084  1
  Te2-  Te220  1  0.07628795  0.73946306  0.08157146  1
  Te2-  Te221  1  0.07676622  0.74627380  0.41713412  1
  Te2-  Te222  1  0.08102242  0.74680047  0.75103721  1
  Te2-  Te223  1  0.41293430  0.07847064  0.08107254  1
  Te2-  Te224  1  0.41263008  0.08571676  0.41618811  1
  Te2-  Te225  1  0.41583178  0.08302809  0.75156540  1
  Te2-  Te226  1  0.41358179  0.41737177  0.08178171  1
  Te2-  Te227  1  0.41504766  0.41874611  0.41415591  1
  Te2-  Te228  1  0.41262655  0.40968996  0.74588554  1
  Te2-  Te229  1  0.41719500  0.74463681  0.07885229  1
  Te2-  Te230  1  0.41313795  0.75002908  0.41226751  1
  Te2-  Te231  1  0.41375107  0.74771434  0.74858369  1
  Te2-  Te232  1  0.74321197  0.07684256  0.07726348  1
  Te2-  Te233  1  0.73967234  0.08393188  0.41353591  1
  Te2-  Te234  1  0.74781154  0.08330586  0.74647451  1
  Te2-  Te235  1  0.74720806  0.41535113  0.08289668  1
  Te2-  Te236  1  0.74841294  0.41695379  0.41442782  1
  Te2-  Te237  1  0.74815610  0.41375633  0.74541415  1
  Te2-  Te238  1  0.74775446  0.74576811  0.08366632  1
  Te2-  Te239  1  0.74489226  0.74630626  0.41602174  1
  Te2-  Te240  1  0.74808393  0.74720139  0.75143502  1
