# generated using pymatgen
data_Ti27(Cu53Te54)2
_symmetry_space_group_name_H-M   'P 1'
_cell_length_a   17.87093970
_cell_length_b   17.87106675
_cell_length_c   17.87124608
_cell_angle_alpha   89.99165157
_cell_angle_beta   90.02581859
_cell_angle_gamma   89.97759899
_symmetry_Int_Tables_number   1
_chemical_formula_structural   Ti27(Cu53Te54)2
_chemical_formula_sum   'Ti27 Cu106 Te108'
_cell_volume   5707.58804097
_cell_formula_units_Z   1
loop_
 _symmetry_equiv_pos_site_id
 _symmetry_equiv_pos_as_xyz
  1  'x, y, z'
loop_
 _atom_type_symbol
 _atom_type_oxidation_number
  Ti4+  4.0
  Cu+  1.0
  Te2-  -2.0
loop_
 _atom_site_type_symbol
 _atom_site_label
 _atom_site_symmetry_multiplicity
 _atom_site_fract_x
 _atom_site_fract_y
 _atom_site_fract_z
 _atom_site_occupancy
  Ti4+  Ti0  1  0.16554411  0.16744189  0.16787001  1
  Ti4+  Ti1  1  0.16716383  0.16767655  0.50024415  1
  Ti4+  Ti2  1  0.16679547  0.16845248  0.83278565  1
  Ti4+  Ti3  1  0.16883460  0.50098018  0.16313329  1
  Ti4+  Ti4  1  0.16893982  0.50129489  0.50128340  1
  Ti4+  Ti5  1  0.16524014  0.50217489  0.82989256  1
  Ti4+  Ti6  1  0.16457458  0.83027707  0.16707415  1
  Ti4+  Ti7  1  0.16743928  0.83317328  0.50037544  1
  Ti4+  Ti8  1  0.16743240  0.83340071  0.83352133  1
  Ti4+  Ti9  1  0.49898926  0.16515636  0.16732609  1
  Ti4+  Ti10  1  0.50091511  0.16628174  0.49894131  1
  Ti4+  Ti11  1  0.49987962  0.16545124  0.83463047  1
  Ti4+  Ti12  1  0.49957722  0.50099354  0.17008562  1
  Ti4+  Ti13  1  0.50102239  0.49933201  0.50332610  1
  Ti4+  Ti14  1  0.50139638  0.49800146  0.83258592  1
  Ti4+  Ti15  1  0.49933495  0.83289041  0.16594841  1
  Ti4+  Ti16  1  0.50189352  0.83316619  0.50051326  1
  Ti4+  Ti17  1  0.50018734  0.83472588  0.83225585  1
  Ti4+  Ti18  1  0.83333611  0.16997393  0.16368117  1
  Ti4+  Ti19  1  0.83623466  0.16525913  0.50159538  1
  Ti4+  Ti20  1  0.83119132  0.16828284  0.83002046  1
  Ti4+  Ti21  1  0.83245307  0.49417985  0.16785209  1
  Ti4+  Ti22  1  0.83444054  0.50190068  0.50035085  1
  Ti4+  Ti23  1  0.82882424  0.49860050  0.83638790  1
  Ti4+  Ti24  1  0.83048442  0.83300472  0.16457542  1
  Ti4+  Ti25  1  0.83188427  0.83740014  0.49771748  1
  Ti4+  Ti26  1  0.83143527  0.83446398  0.83004339  1
  Cu+  Cu27  1  0.16509916  0.16850010  0.00421142  1
  Cu+  Cu28  1  0.16813840  0.16608511  0.33564582  1
  Cu+  Cu29  1  0.16448833  0.17080120  0.66617137  1
  Cu+  Cu30  1  0.16741408  0.50255058  -0.00616532  1
  Cu+  Cu31  1  0.16890850  0.50405668  0.33314172  1
  Cu+  Cu32  1  0.17102581  0.49762138  0.66668159  1
  Cu+  Cu33  1  0.16675923  0.82693417  0.00086163  1
  Cu+  Cu34  1  0.16398778  0.83429333  0.33577897  1
  Cu+  Cu35  1  0.16928667  0.83342936  0.66747155  1
  Cu+  Cu36  1  0.49426536  0.16285556  -0.00155103  1
  Cu+  Cu37  1  0.50275532  0.16713498  0.33350839  1
  Cu+  Cu38  1  0.50078086  0.16604351  0.66506866  1
  Cu+  Cu39  1  0.50031851  0.49837530  0.00369557  1
  Cu+  Cu40  1  0.49977999  0.50019701  0.33812856  1
  Cu+  Cu41  1  0.50156840  0.50142868  0.67070326  1
  Cu+  Cu42  1  0.49970951  0.83332081  -0.00025438  1
  Cu+  Cu43  1  0.50019614  0.83538992  0.33257592  1
  Cu+  Cu44  1  0.50487960  0.83253998  0.66731101  1
  Cu+  Cu45  1  0.83271253  0.16880422  -0.00551272  1
  Cu+  Cu46  1  0.83298903  0.16816471  0.33424411  1
  Cu+  Cu47  1  0.83945702  0.16399770  0.66899431  1
  Cu+  Cu48  1  0.82648946  0.49520865  0.00541146  1
  Cu+  Cu49  1  0.83400258  0.50180450  0.33552005  1
  Cu+  Cu50  1  0.82985642  0.49740084  0.66488499  1
  Cu+  Cu51  1  0.83107297  0.83134474  -0.00201696  1
  Cu+  Cu52  1  0.83240850  0.83423184  0.33136517  1
  Cu+  Cu53  1  0.82844674  0.84221906  0.66204039  1
  Cu+  Cu54  1  0.16272345  -0.00008434  0.16833445  1
  Cu+  Cu55  1  0.16793360  0.00199447  0.50030255  1
  Cu+  Cu56  1  0.16901460  -0.00232092  0.83648382  1
  Cu+  Cu57  1  0.16340191  0.33538392  0.16742023  1
  Cu+  Cu58  1  0.16869927  0.33368230  0.49951114  1
  Cu+  Cu59  1  0.16422085  0.33522581  0.82520775  1
  Cu+  Cu60  1  0.17518333  0.66573695  0.16269803  1
  Cu+  Cu61  1  0.16633845  0.66837844  0.50146647  1
  Cu+  Cu62  1  0.16275826  0.67021340  0.83630829  1
  Cu+  Cu63  1  0.50134318  -0.00433227  0.16823429  1
  Cu+  Cu64  1  0.49966883  0.00090482  0.49895834  1
  Cu+  Cu65  1  0.49609676  0.00281316  0.83764192  1
  Cu+  Cu66  1  0.50059474  0.33299855  0.16931748  1
  Cu+  Cu67  1  0.50039386  0.33109608  0.49949454  1
  Cu+  Cu68  1  0.50399649  0.33043749  0.83128182  1
  Cu+  Cu69  1  0.49780506  0.66817878  0.16942698  1
  Cu+  Cu70  1  0.50071155  0.66536171  0.50142875  1
  Cu+  Cu71  1  0.49923453  0.66395620  0.82908193  1
  Cu+  Cu72  1  0.83066175  0.00143569  0.16157673  1
  Cu+  Cu73  1  0.83973973  -0.00058662  0.50232940  1
  Cu+  Cu74  1  0.82828974  0.00152071  0.82421029  1
  Cu+  Cu75  1  0.84454578  0.33082270  0.16813747  1
  Cu+  Cu76  1  0.83453319  0.33529805  0.50177497  1
  Cu+  Cu77  1  0.83276063  0.33225414  0.84084056  1
  Cu+  Cu78  1  0.82983448  0.66308396  0.16535208  1
  Cu+  Cu79  1  0.83282125  0.66934487  0.49842755  1
  Cu+  Cu80  1  0.82798736  0.66736680  0.83707345  1
  Cu+  Cu81  1  -0.00021384  0.17024509  0.16809322  1
  Cu+  Cu82  1  0.00351672  0.16606139  0.50079273  1
  Cu+  Cu83  1  0.00234322  0.17254125  0.82599890  1
  Cu+  Cu84  1  0.00437421  0.49060285  0.16830005  1
  Cu+  Cu85  1  0.00018662  0.50460405  0.49929513  1
  Cu+  Cu86  1  -0.00364865  0.50423443  0.83094611  1
  Cu+  Cu87  1  -0.00416558  0.83272139  0.16528427  1
  Cu+  Cu88  1  0.00044475  0.83701043  0.49891649  1
  Cu+  Cu89  1  0.00440131  0.83156279  0.83549604  1
  Cu+  Cu90  1  0.33083191  0.16589457  0.16626784  1
  Cu+  Cu91  1  0.33381662  0.16642343  0.49960387  1
  Cu+  Cu92  1  0.33563538  0.16504067  0.83696839  1
  Cu+  Cu93  1  0.33289610  0.50754871  0.17083281  1
  Cu+  Cu94  1  0.33587444  0.50023847  0.50234488  1
  Cu+  Cu95  1  0.33265942  0.50159254  0.82678466  1
  Cu+  Cu96  1  0.33165099  0.82832975  0.16361989  1
  Cu+  Cu97  1  0.33466424  0.83401628  0.50013706  1
  Cu+  Cu98  1  0.33336261  0.83537379  0.83226588  1
  Cu+  Cu99  1  0.66422314  0.17122369  0.16760521  1
  Cu+  Cu100  1  0.66922844  0.16484413  0.49959968  1
  Cu+  Cu101  1  0.66636416  0.16205507  0.83485803  1
  Cu+  Cu102  1  0.66415351  0.49613976  0.16161026  1
  Cu+  Cu103  1  0.66857139  0.49877818  0.50347438  1
  Cu+  Cu104  1  0.66667116  0.49209983  0.83703999  1
  Cu+  Cu105  1  0.66308902  0.83528919  0.16809981  1
  Cu+  Cu106  1  0.66834108  0.83154369  0.50057891  1
  Cu+  Cu107  1  0.66488614  0.83411292  0.82707981  1
  Cu+  Cu108  1  0.58669722  0.40150455  0.07641528  1
  Cu+  Cu109  1  0.93159261  0.25443959  0.92143864  1
  Cu+  Cu110  1  0.74301258  0.07204764  0.92685248  1
  Cu+  Cu111  1  0.07091850  0.74002521  0.93131155  1
  Cu+  Cu112  1  0.59371016  0.40129652  0.73935509  1
  Cu+  Cu113  1  0.40236016  0.59663993  0.74042263  1
  Cu+  Cu114  1  0.58920993  0.26411573  0.26447148  1
  Cu+  Cu115  1  0.92895028  0.25168043  0.26682770  1
  Cu+  Cu116  1  0.93297974  0.92385902  0.59145124  1
  Cu+  Cu117  1  0.59160161  0.73585985  0.74097242  1
  Cu+  Cu118  1  0.74078771  0.40133344  0.58774485  1
  Cu+  Cu119  1  0.59411542  0.92537347  0.26323562  1
  Cu+  Cu120  1  0.73813586  0.40311589  0.93227540  1
  Cu+  Cu121  1  0.93254464  0.41077149  0.07082755  1
  Cu+  Cu122  1  0.25980528  0.59621631  0.26511931  1
  Cu+  Cu123  1  0.08306693  0.40953600  0.26558351  1
  Cu+  Cu124  1  0.74329981  0.73907072  0.58730804  1
  Cu+  Cu125  1  0.40078959  0.07088278  0.93014125  1
  Cu+  Cu126  1  0.26445365  0.73843802  0.06786962  1
  Cu+  Cu127  1  0.26265190  0.40326205  0.73912190  1
  Cu+  Cu128  1  0.07166988  0.26652742  0.73378848  1
  Cu+  Cu129  1  0.73263412  0.93009326  0.73432527  1
  Cu+  Cu130  1  0.73651971  0.59332036  0.07995231  1
  Cu+  Cu131  1  0.73553263  0.74482998  0.92502427  1
  Cu+  Cu132  1  0.93260872  0.07200806  0.74759348  1
  Te2-  Te133  1  0.25061863  0.25462653  0.08357866  1
  Te2-  Te134  1  0.25334345  0.25261071  0.41457921  1
  Te2-  Te135  1  0.25726892  0.25000833  0.74715572  1
  Te2-  Te136  1  0.25735158  0.58389069  0.07255984  1
  Te2-  Te137  1  0.25531535  0.58834550  0.41737027  1
  Te2-  Te138  1  0.24915140  0.59301344  0.74602862  1
  Te2-  Te139  1  0.24813912  0.91748397  0.08233358  1
  Te2-  Te140  1  0.25235453  0.91905466  0.41511001  1
  Te2-  Te141  1  0.25297010  0.92012669  0.74774918  1
  Te2-  Te142  1  0.58223127  0.24966480  0.07635119  1
  Te2-  Te143  1  0.59039010  0.25363099  0.41539336  1
  Te2-  Te144  1  0.58914889  0.24765153  0.74608267  1
  Te2-  Te145  1  0.58270364  0.58978277  0.08128437  1
  Te2-  Te146  1  0.58708601  0.58381747  0.41794687  1
  Te2-  Te147  1  0.59383925  0.58349020  0.74899477  1
  Te2-  Te148  1  0.58532081  0.91836638  0.07796895  1
  Te2-  Te149  1  0.58789396  0.91980940  0.41605442  1
  Te2-  Te150  1  0.58186743  0.92673141  0.74731712  1
  Te2-  Te151  1  0.92423031  0.25290120  0.07388894  1
  Te2-  Te152  1  0.92096691  0.25382079  0.41822232  1
  Te2-  Te153  1  0.91676127  0.26110305  0.74451030  1
  Te2-  Te154  1  0.91956366  0.57881145  0.08354554  1
  Te2-  Te155  1  0.91866100  0.58922848  0.41428994  1
  Te2-  Te156  1  0.91017503  0.58571145  0.74892335  1
  Te2-  Te157  1  0.91569906  0.91792775  0.07836642  1
  Te2-  Te158  1  0.91947669  0.91979470  0.41012774  1
  Te2-  Te159  1  0.92507273  0.91874670  0.74705873  1
  Te2-  Te160  1  0.25024881  0.08051005  0.25188394  1
  Te2-  Te161  1  0.25179851  0.08331855  0.58710790  1
  Te2-  Te162  1  0.24927544  0.08237784  0.92235611  1
  Te2-  Te163  1  0.25322857  0.41513950  0.25125077  1
  Te2-  Te164  1  0.25594477  0.41211613  0.58514237  1
  Te2-  Te165  1  0.25168481  0.41498196  0.91318396  1
  Te2-  Te166  1  0.25255051  0.74829911  0.25746492  1
  Te2-  Te167  1  0.25401417  0.74845846  0.58562614  1
  Te2-  Te168  1  0.25775831  0.74532771  0.91664018  1
  Te2-  Te169  1  0.58758647  0.07948037  0.25249200  1
  Te2-  Te170  1  0.58624058  0.08076969  0.58445370  1
  Te2-  Te171  1  0.58654349  0.07818487  0.92263182  1
  Te2-  Te172  1  0.58737690  0.41643082  0.25729353  1
  Te2-  Te173  1  0.58712796  0.40947463  0.58842006  1
  Te2-  Te174  1  0.58443843  0.40865682  0.92398469  1
  Te2-  Te175  1  0.58495296  0.74691442  0.25324152  1
  Te2-  Te176  1  0.58863922  0.74314220  0.58731837  1
  Te2-  Te177  1  0.58423196  0.74617792  0.91801766  1
  Te2-  Te178  1  0.91591739  0.08200849  0.24923496  1
  Te2-  Te179  1  0.92673929  0.07964794  0.58878343  1
  Te2-  Te180  1  0.91960217  0.08056760  0.91222081  1
  Te2-  Te181  1  0.92215530  0.41230265  0.26150381  1
  Te2-  Te182  1  0.92184818  0.41733193  0.58561316  1
  Te2-  Te183  1  0.92267692  0.41581095  0.92003991  1
  Te2-  Te184  1  0.91437243  0.74602900  0.24938754  1
  Te2-  Te185  1  0.91720481  0.75216483  0.58631198  1
  Te2-  Te186  1  0.91782506  0.74757777  0.91762567  1
  Te2-  Te187  1  0.08040515  0.25492618  0.25855002  1
  Te2-  Te188  1  0.07896035  0.25733759  0.58415153  1
  Te2-  Te189  1  0.08305672  0.25579585  0.91958000  1
  Te2-  Te190  1  0.08157842  0.58708806  0.24698043  1
  Te2-  Te191  1  0.08369582  0.58496255  0.58731140  1
  Te2-  Te192  1  0.07700307  0.58598595  0.91849908  1
  Te2-  Te193  1  0.07842307  0.91602843  0.25141305  1
  Te2-  Te194  1  0.08413229  0.92101655  0.58789529  1
  Te2-  Te195  1  0.08295502  0.91820574  0.92227305  1
  Te2-  Te196  1  0.41349265  0.25104710  0.25225951  1
  Te2-  Te197  1  0.41526554  0.25114690  0.58513315  1
  Te2-  Te198  1  0.41542311  0.25503958  0.91821818  1
  Te2-  Te199  1  0.41628108  0.58856897  0.25838992  1
  Te2-  Te200  1  0.41474010  0.58685316  0.58805300  1
  Te2-  Te201  1  0.41567616  0.58269949  0.91837200  1
  Te2-  Te202  1  0.41003479  0.91623245  0.25030904  1
  Te2-  Te203  1  0.41735838  0.91774251  0.58622030  1
  Te2-  Te204  1  0.41240916  0.91732806  0.92076118  1
  Te2-  Te205  1  0.74799010  0.25542908  0.25257392  1
  Te2-  Te206  1  0.74971981  0.24902185  0.58834632  1
  Te2-  Te207  1  0.74029904  0.25209301  0.91953266  1
  Te2-  Te208  1  0.74502837  0.58043509  0.25112168  1
  Te2-  Te209  1  0.74701688  0.58769357  0.58733969  1
  Te2-  Te210  1  0.74204304  0.58663095  0.92351554  1
  Te2-  Te211  1  0.74838826  0.92168666  0.25136744  1
  Te2-  Te212  1  0.74119114  0.92769182  0.58165982  1
  Te2-  Te213  1  0.74597176  0.92019741  0.91749910  1
  Te2-  Te214  1  0.07866284  0.08256885  0.08315820  1
  Te2-  Te215  1  0.08183177  0.08100023  0.41455137  1
  Te2-  Te216  1  0.08446389  0.07784106  0.74776564  1
  Te2-  Te217  1  0.08519237  0.41285414  0.07266476  1
  Te2-  Te218  1  0.08182973  0.41663698  0.41605101  1
  Te2-  Te219  1  0.07455622  0.41906892  0.74354686  1
  Te2-  Te220  1  0.07650720  0.74219608  0.08321725  1
  Te2-  Te221  1  0.07939300  0.74804769  0.41636198  1
  Te2-  Te222  1  0.08175880  0.74891219  0.74507530  1
  Te2-  Te223  1  0.41215190  0.07690111  0.08430179  1
  Te2-  Te224  1  0.41507075  0.08194019  0.41276587  1
  Te2-  Te225  1  0.41459060  0.08203292  0.74655574  1
  Te2-  Te226  1  0.41149340  0.41630785  0.08647899  1
  Te2-  Te227  1  0.41541231  0.41434877  0.41718520  1
  Te2-  Te228  1  0.41583296  0.40977388  0.74603900  1
  Te2-  Te229  1  0.41600544  0.74396359  0.07745580  1
  Te2-  Te230  1  0.41688523  0.74853193  0.41530845  1
  Te2-  Te231  1  0.41255114  0.74994136  0.74550515  1
  Te2-  Te232  1  0.74557686  0.08452326  0.07927309  1
  Te2-  Te233  1  0.75273537  0.08001259  0.41593569  1
  Te2-  Te234  1  0.74171039  0.08391314  0.73959128  1
  Te2-  Te235  1  0.74385822  0.40101585  0.08399334  1
  Te2-  Te236  1  0.74869154  0.41514879  0.41473240  1
  Te2-  Te237  1  0.74791278  0.40801234  0.74629160  1
  Te2-  Te238  1  0.74100327  0.74664259  0.07902961  1
  Te2-  Te239  1  0.74758629  0.74892678  0.41137786  1
  Te2-  Te240  1  0.74723803  0.74498769  0.74209332  1
