# generated using pymatgen
data_Ti27(Cu53Te54)2
_symmetry_space_group_name_H-M   'P 1'
_cell_length_a   17.92786330
_cell_length_b   17.92797193
_cell_length_c   17.92094679
_cell_angle_alpha   89.99166034
_cell_angle_beta   90.07563897
_cell_angle_gamma   89.91113901
_symmetry_Int_Tables_number   1
_chemical_formula_structural   Ti27(Cu53Te54)2
_chemical_formula_sum   'Ti27 Cu106 Te108'
_cell_volume   5759.96361637
_cell_formula_units_Z   1
loop_
 _symmetry_equiv_pos_site_id
 _symmetry_equiv_pos_as_xyz
  1  'x, y, z'
loop_
 _atom_type_symbol
 _atom_type_oxidation_number
  Ti4+  4.0
  Cu+  1.0
  Te2-  -2.0
loop_
 _atom_site_type_symbol
 _atom_site_label
 _atom_site_symmetry_multiplicity
 _atom_site_fract_x
 _atom_site_fract_y
 _atom_site_fract_z
 _atom_site_occupancy
  Ti4+  Ti0  1  0.16932638  0.16308117  0.16990242  1
  Ti4+  Ti1  1  0.16272532  0.16942301  0.49836792  1
  Ti4+  Ti2  1  0.16766601  0.16391354  0.82897528  1
  Ti4+  Ti3  1  0.16714597  0.49861366  0.16618192  1
  Ti4+  Ti4  1  0.16639507  0.49834921  0.50167767  1
  Ti4+  Ti5  1  0.16803121  0.49844327  0.83429052  1
  Ti4+  Ti6  1  0.16599818  0.83236595  0.16799409  1
  Ti4+  Ti7  1  0.16349862  0.83252764  0.49714741  1
  Ti4+  Ti8  1  0.16640651  0.83433251  0.82997279  1
  Ti4+  Ti9  1  0.49801988  0.17254756  0.16628337  1
  Ti4+  Ti10  1  0.49929228  0.16893660  0.50030805  1
  Ti4+  Ti11  1  0.50026296  0.16355099  0.83527752  1
  Ti4+  Ti12  1  0.50165723  0.50661691  0.16286318  1
  Ti4+  Ti13  1  0.50010810  0.50020984  0.49959367  1
  Ti4+  Ti14  1  0.50235798  0.49836555  0.83217478  1
  Ti4+  Ti15  1  0.50017088  0.83486923  0.16873784  1
  Ti4+  Ti16  1  0.49729762  0.83345899  0.50058146  1
  Ti4+  Ti17  1  0.49805496  0.83177904  0.83244000  1
  Ti4+  Ti18  1  0.83184915  0.16272595  0.16567193  1
  Ti4+  Ti19  1  0.83180856  0.17010148  0.49765132  1
  Ti4+  Ti20  1  0.83791881  0.16479433  0.83565211  1
  Ti4+  Ti21  1  0.83227606  0.49972526  0.16804064  1
  Ti4+  Ti22  1  0.83242489  0.50190559  0.50280006  1
  Ti4+  Ti23  1  0.83537894  0.50035276  0.83547166  1
  Ti4+  Ti24  1  0.83524050  0.83075594  0.16775895  1
  Ti4+  Ti25  1  0.83004986  0.83498054  0.49903855  1
  Ti4+  Ti26  1  0.83351889  0.83581668  0.83165549  1
  Cu+  Cu27  1  0.17095871  0.16339331  -0.00465252  1
  Cu+  Cu28  1  0.16940355  0.16271910  0.33620948  1
  Cu+  Cu29  1  0.16518635  0.16872834  0.66285195  1
  Cu+  Cu30  1  0.16647127  0.49602423  0.00073540  1
  Cu+  Cu31  1  0.16920839  0.50094840  0.33482786  1
  Cu+  Cu32  1  0.16560227  0.49724339  0.66901915  1
  Cu+  Cu33  1  0.16995105  0.83421494  0.00014455  1
  Cu+  Cu34  1  0.16470007  0.83200930  0.32995812  1
  Cu+  Cu35  1  0.16158107  0.83446236  0.66405231  1
  Cu+  Cu36  1  0.49954921  0.16614704  0.00250828  1
  Cu+  Cu37  1  0.49704045  0.17399021  0.33387523  1
  Cu+  Cu38  1  0.50087477  0.16579151  0.66788257  1
  Cu+  Cu39  1  0.50782353  0.50218486  -0.00189367  1
  Cu+  Cu40  1  0.49925063  0.50231742  0.33120506  1
  Cu+  Cu41  1  0.50175188  0.49902523  0.66504420  1
  Cu+  Cu42  1  0.50320755  0.83573219  -0.00140992  1
  Cu+  Cu43  1  0.49754687  0.83065067  0.33584690  1
  Cu+  Cu44  1  0.49377940  0.83387209  0.66755018  1
  Cu+  Cu45  1  0.83650331  0.15791519  0.00196634  1
  Cu+  Cu46  1  0.83180465  0.17136127  0.32957734  1
  Cu+  Cu47  1  0.83634935  0.17046953  0.66674164  1
  Cu+  Cu48  1  0.83190907  0.50353444  0.00129251  1
  Cu+  Cu49  1  0.83489240  0.49759353  0.33801065  1
  Cu+  Cu50  1  0.83272447  0.50201317  0.67097691  1
  Cu+  Cu51  1  0.83690891  0.83409190  -0.00237558  1
  Cu+  Cu52  1  0.83296746  0.82744537  0.33429240  1
  Cu+  Cu53  1  0.83021424  0.83735200  0.66464034  1
  Cu+  Cu54  1  0.16717852  -0.00262310  0.17419383  1
  Cu+  Cu55  1  0.16344569  0.00127570  0.49585403  1
  Cu+  Cu56  1  0.16096256  -0.00361916  0.82520016  1
  Cu+  Cu57  1  0.17025212  0.33058963  0.16683288  1
  Cu+  Cu58  1  0.15964596  0.33713118  0.50492485  1
  Cu+  Cu59  1  0.17193632  0.33028479  0.83191380  1
  Cu+  Cu60  1  0.16460482  0.66410560  0.16625732  1
  Cu+  Cu61  1  0.16581227  0.66330662  0.49940066  1
  Cu+  Cu62  1  0.16775306  0.66668295  0.83312460  1
  Cu+  Cu63  1  0.49830826  0.00279979  0.16529688  1
  Cu+  Cu64  1  0.49918855  0.00003204  0.50069087  1
  Cu+  Cu65  1  0.49848528  -0.00530327  0.83478775  1
  Cu+  Cu66  1  0.49997638  0.34377931  0.16337519  1
  Cu+  Cu67  1  0.49671325  0.33480754  0.50111790  1
  Cu+  Cu68  1  0.50123390  0.33030906  0.83352288  1
  Cu+  Cu69  1  0.49913316  0.67181723  0.16771868  1
  Cu+  Cu70  1  0.50169406  0.66515229  0.50194437  1
  Cu+  Cu71  1  0.50065770  0.66557394  0.83142197  1
  Cu+  Cu72  1  0.83707804  -0.00338127  0.16261610  1
  Cu+  Cu73  1  0.82925162  0.00288257  0.49738695  1
  Cu+  Cu74  1  0.83220111  0.00228701  0.83591781  1
  Cu+  Cu75  1  0.83201643  0.32810536  0.16966538  1
  Cu+  Cu76  1  0.83318618  0.33678400  0.49759703  1
  Cu+  Cu77  1  0.83854590  0.33234670  0.83700051  1
  Cu+  Cu78  1  0.82782654  0.66509037  0.16808622  1
  Cu+  Cu79  1  0.83289513  0.66840303  0.49989439  1
  Cu+  Cu80  1  0.83495410  0.66952959  0.83217694  1
  Cu+  Cu81  1  -0.00063182  0.15984110  0.16804741  1
  Cu+  Cu82  1  -0.00416988  0.17151224  0.49833770  1
  Cu+  Cu83  1  0.00532817  0.16094763  0.83543227  1
  Cu+  Cu84  1  0.00099775  0.49628060  0.16656883  1
  Cu+  Cu85  1  -0.00008055  0.49629137  0.50260725  1
  Cu+  Cu86  1  0.00075775  0.50069664  0.83601244  1
  Cu+  Cu87  1  0.00326023  0.82829889  0.16794175  1
  Cu+  Cu88  1  -0.00516565  0.83205283  0.49476510  1
  Cu+  Cu89  1  0.00003908  0.83800518  0.82745725  1
  Cu+  Cu90  1  0.33527081  0.16977765  0.17521532  1
  Cu+  Cu91  1  0.33102946  0.17103232  0.49763415  1
  Cu+  Cu92  1  0.33056104  0.16639560  0.83448000  1
  Cu+  Cu93  1  0.33420073  0.50267424  0.16558788  1
  Cu+  Cu94  1  0.33501423  0.49654249  0.50205245  1
  Cu+  Cu95  1  0.33437942  0.49836726  0.83236834  1
  Cu+  Cu96  1  0.33424280  0.83285540  0.17104458  1
  Cu+  Cu97  1  0.33068402  0.83199989  0.50032425  1
  Cu+  Cu98  1  0.33325015  0.83468631  0.82791127  1
  Cu+  Cu99  1  0.66146828  0.16534352  0.15936156  1
  Cu+  Cu100  1  0.66619928  0.16996617  0.50083047  1
  Cu+  Cu101  1  0.67113894  0.16443329  0.83737484  1
  Cu+  Cu102  1  0.66900735  0.50639141  0.15798861  1
  Cu+  Cu103  1  0.66437221  0.50688746  0.50424338  1
  Cu+  Cu104  1  0.66995267  0.49823598  0.83319418  1
  Cu+  Cu105  1  0.67051078  0.83185856  0.16929682  1
  Cu+  Cu106  1  0.66346186  0.83535678  0.50062724  1
  Cu+  Cu107  1  0.66492875  0.83408220  0.83311105  1
  Cu+  Cu108  1  0.59693619  0.41118712  0.07040108  1
  Cu+  Cu109  1  0.07624380  0.73294992  0.25674982  1
  Cu+  Cu110  1  0.73992300  0.73731740  0.26359718  1
  Cu+  Cu111  1  0.26208934  0.91966076  0.26037255  1
  Cu+  Cu112  1  0.74157824  0.07501868  0.92627417  1
  Cu+  Cu113  1  0.58636872  0.07265407  0.07604314  1
  Cu+  Cu114  1  0.92713999  0.25682429  0.25330742  1
  Cu+  Cu115  1  0.26287957  0.07094696  0.42084858  1
  Cu+  Cu116  1  0.40912536  0.40592674  0.59660271  1
  Cu+  Cu117  1  0.92419200  0.73843537  0.40981400  1
  Cu+  Cu118  1  0.93003274  0.06644304  0.07475706  1
  Cu+  Cu119  1  0.25974605  0.25999369  0.92489155  1
  Cu+  Cu120  1  0.40934396  0.41612811  0.25667386  1
  Cu+  Cu121  1  0.59339489  0.91967950  0.92416547  1
  Cu+  Cu122  1  0.25600904  0.26152369  0.26467376  1
  Cu+  Cu123  1  0.06770482  0.92636876  0.73244117  1
  Cu+  Cu124  1  0.07163538  0.07245669  0.26296383  1
  Cu+  Cu125  1  0.59204152  0.59608490  0.59603585  1
  Cu+  Cu126  1  0.40702951  0.74181131  0.26316347  1
  Cu+  Cu127  1  0.92783552  0.40820350  0.41020661  1
  Cu+  Cu128  1  0.74258983  0.59730747  0.06732090  1
  Cu+  Cu129  1  0.40627480  0.92744489  0.73805321  1
  Cu+  Cu130  1  0.08518898  0.06846798  0.92553905  1
  Cu+  Cu131  1  0.06875673  0.41040665  0.60146345  1
  Cu+  Cu132  1  0.42004839  0.07545300  0.26310418  1
  Te2-  Te133  1  0.25389179  0.24793738  0.08060391  1
  Te2-  Te134  1  0.24852116  0.25976108  0.41625285  1
  Te2-  Te135  1  0.25373762  0.24961371  0.74314593  1
  Te2-  Te136  1  0.25032579  0.58476435  0.08095665  1
  Te2-  Te137  1  0.25381900  0.58318302  0.41760633  1
  Te2-  Te138  1  0.25163938  0.58339472  0.74819545  1
  Te2-  Te139  1  0.25257616  0.91900446  0.08453529  1
  Te2-  Te140  1  0.25304789  0.91800489  0.41243924  1
  Te2-  Te141  1  0.25158453  0.91990271  0.74126974  1
  Te2-  Te142  1  0.58359344  0.25779989  0.07843135  1
  Te2-  Te143  1  0.58339125  0.25503101  0.41609694  1
  Te2-  Te144  1  0.58729839  0.24681865  0.75210485  1
  Te2-  Te145  1  0.58631629  0.59647088  0.07760074  1
  Te2-  Te146  1  0.58423944  0.58642147  0.41224131  1
  Te2-  Te147  1  0.58845758  0.58492871  0.74793788  1
  Te2-  Te148  1  0.58920566  0.91958746  0.08324592  1
  Te2-  Te149  1  0.58179574  0.91815575  0.41460019  1
  Te2-  Te150  1  0.58411880  0.91823294  0.74529293  1
  Te2-  Te151  1  0.91927909  0.24905482  0.08226564  1
  Te2-  Te152  1  0.92007287  0.25668392  0.40921651  1
  Te2-  Te153  1  0.92344339  0.24991523  0.75227598  1
  Te2-  Te154  1  0.91885363  0.58520608  0.08529010  1
  Te2-  Te155  1  0.92074576  0.58573714  0.41602781  1
  Te2-  Te156  1  0.92023143  0.58581906  0.75001771  1
  Te2-  Te157  1  0.92414980  0.91370407  0.08042448  1
  Te2-  Te158  1  0.91398742  0.92060901  0.41207613  1
  Te2-  Te159  1  0.91533452  0.92426903  0.74444899  1
  Te2-  Te160  1  0.25965848  0.07584087  0.25880155  1
  Te2-  Te161  1  0.24991298  0.08261322  0.58216200  1
  Te2-  Te162  1  0.25119679  0.07263135  0.91325904  1
  Te2-  Te163  1  0.25494728  0.41447535  0.25461249  1
  Te2-  Te164  1  0.25334696  0.41194256  0.58834708  1
  Te2-  Te165  1  0.25538160  0.41299411  0.92035274  1
  Te2-  Te166  1  0.25274322  0.74277985  0.25418600  1
  Te2-  Te167  1  0.24676573  0.74871835  0.58371567  1
  Te2-  Te168  1  0.25289757  0.75075837  0.91546186  1
  Te2-  Te169  1  0.58264097  0.08562874  0.25367538  1
  Te2-  Te170  1  0.58448079  0.08304356  0.58357494  1
  Te2-  Te171  1  0.58720757  0.07569631  0.92312737  1
  Te2-  Te172  1  0.58927935  0.42196351  0.24838113  1
  Te2-  Te173  1  0.58690114  0.41288463  0.58408411  1
  Te2-  Te174  1  0.58946700  0.41149320  0.91681987  1
  Te2-  Te175  1  0.58690066  0.74848885  0.25433437  1
  Te2-  Te176  1  0.58399829  0.75040549  0.58852869  1
  Te2-  Te177  1  0.58551021  0.74616312  0.91799052  1
  Te2-  Te178  1  0.91618657  0.07612572  0.25628199  1
  Te2-  Te179  1  0.91635198  0.08369724  0.58175900  1
  Te2-  Te180  1  0.92674071  0.07391538  0.92178072  1
  Te2-  Te181  1  0.92007973  0.41186014  0.25355045  1
  Te2-  Te182  1  0.91592188  0.41370821  0.59063326  1
  Te2-  Te183  1  0.91967671  0.41703129  0.92345649  1
  Te2-  Te184  1  0.92172027  0.74105647  0.25314016  1
  Te2-  Te185  1  0.91635939  0.75053635  0.58627710  1
  Te2-  Te186  1  0.92146844  0.75167722  0.91429770  1
  Te2-  Te187  1  0.08219313  0.25081849  0.25292629  1
  Te2-  Te188  1  0.07563738  0.25314546  0.58711669  1
  Te2-  Te189  1  0.08416218  0.25107076  0.91739616  1
  Te2-  Te190  1  0.07999193  0.58151821  0.25379061  1
  Te2-  Te191  1  0.08072675  0.58409640  0.58674454  1
  Te2-  Te192  1  0.08434762  0.58440396  0.91938241  1
  Te2-  Te193  1  0.07532937  0.91912675  0.25508552  1
  Te2-  Te194  1  0.07623875  0.91970698  0.57891394  1
  Te2-  Te195  1  0.08053879  0.91692942  0.92104017  1
  Te2-  Te196  1  0.41391716  0.26329981  0.25460196  1
  Te2-  Te197  1  0.41207771  0.25131612  0.58784852  1
  Te2-  Te198  1  0.41494238  0.25064561  0.91971951  1
  Te2-  Te199  1  0.41323197  0.58972953  0.25212911  1
  Te2-  Te200  1  0.41366096  0.58552029  0.58617863  1
  Te2-  Te201  1  0.41765966  0.58311690  0.91693277  1
  Te2-  Te202  1  0.41550084  0.92265591  0.25696827  1
  Te2-  Te203  1  0.40992031  0.92093595  0.58388391  1
  Te2-  Te204  1  0.41090060  0.91679354  0.92025120  1
  Te2-  Te205  1  0.74082292  0.24786847  0.24714116  1
  Te2-  Te206  1  0.74970316  0.25501796  0.58482842  1
  Te2-  Te207  1  0.75364396  0.24989890  0.92270783  1
  Te2-  Te208  1  0.74639078  0.58263866  0.25764231  1
  Te2-  Te209  1  0.74910822  0.58982929  0.58967473  1
  Te2-  Te210  1  0.74709527  0.58934339  0.91672411  1
  Te2-  Te211  1  0.75234838  0.91915311  0.25195377  1
  Te2-  Te212  1  0.74515012  0.92159297  0.58308438  1
  Te2-  Te213  1  0.74676854  0.92015651  0.92231688  1
  Te2-  Te214  1  0.08474265  0.07583592  0.08016942  1
  Te2-  Te215  1  0.07399254  0.08249204  0.41435078  1
  Te2-  Te216  1  0.07856184  0.08100040  0.73866762  1
  Te2-  Te217  1  0.08309441  0.41072624  0.08321052  1
  Te2-  Te218  1  0.08114156  0.41433005  0.41036392  1
  Te2-  Te219  1  0.07996772  0.41080601  0.75211152  1
  Te2-  Te220  1  0.08372883  0.74745838  0.07843283  1
  Te2-  Te221  1  0.07939086  0.74311605  0.41170143  1
  Te2-  Te222  1  0.08081822  0.74680273  0.74709950  1
  Te2-  Te223  1  0.41038397  0.08489350  0.08264779  1
  Te2-  Te224  1  0.41309459  0.08042355  0.41373754  1
  Te2-  Te225  1  0.41380709  0.08089286  0.74899572  1
  Te2-  Te226  1  0.41463429  0.42203318  0.07606588  1
  Te2-  Te227  1  0.41367506  0.41442063  0.41135495  1
  Te2-  Te228  1  0.41573887  0.41191342  0.74820887  1
  Te2-  Te229  1  0.41565281  0.75337840  0.07994463  1
  Te2-  Te230  1  0.41180706  0.74422390  0.41722062  1
  Te2-  Te231  1  0.41315939  0.74407676  0.74737870  1
  Te2-  Te232  1  0.74326811  0.07372978  0.08000590  1
  Te2-  Te233  1  0.74634096  0.08662133  0.41205254  1
  Te2-  Te234  1  0.75118945  0.08359396  0.74672475  1
  Te2-  Te235  1  0.75065036  0.41063882  0.08072980  1
  Te2-  Te236  1  0.74313211  0.41941538  0.41860021  1
  Te2-  Te237  1  0.75199565  0.41213238  0.75087772  1
  Te2-  Te238  1  0.74880943  0.74994377  0.07702471  1
  Te2-  Te239  1  0.74135601  0.74573836  0.41600060  1
  Te2-  Te240  1  0.74772905  0.75102738  0.74798977  1
