# generated using pymatgen
data_Ti27(Cu53Te54)2
_symmetry_space_group_name_H-M   'P 1'
_cell_length_a   17.93523767
_cell_length_b   17.93872030
_cell_length_c   17.94591038
_cell_angle_alpha   90.04431285
_cell_angle_beta   89.93784182
_cell_angle_gamma   90.00734996
_symmetry_Int_Tables_number   1
_chemical_formula_structural   Ti27(Cu53Te54)2
_chemical_formula_sum   'Ti27 Cu106 Te108'
_cell_volume   5773.82610919
_cell_formula_units_Z   1
loop_
 _symmetry_equiv_pos_site_id
 _symmetry_equiv_pos_as_xyz
  1  'x, y, z'
loop_
 _atom_type_symbol
 _atom_type_oxidation_number
  Ti4+  4.0
  Cu+  1.0
  Te2-  -2.0
loop_
 _atom_site_type_symbol
 _atom_site_label
 _atom_site_symmetry_multiplicity
 _atom_site_fract_x
 _atom_site_fract_y
 _atom_site_fract_z
 _atom_site_occupancy
  Ti4+  Ti0  1  0.16677953  0.16480989  0.16578730  1
  Ti4+  Ti1  1  0.16706449  0.16445997  0.49583955  1
  Ti4+  Ti2  1  0.16450705  0.16422845  0.83088495  1
  Ti4+  Ti3  1  0.16705709  0.49958167  0.16711713  1
  Ti4+  Ti4  1  0.16774883  0.49646322  0.49629796  1
  Ti4+  Ti5  1  0.16400241  0.49810696  0.83242226  1
  Ti4+  Ti6  1  0.16986350  0.83040815  0.16738838  1
  Ti4+  Ti7  1  0.16697013  0.83233528  0.50135356  1
  Ti4+  Ti8  1  0.16565888  0.83102660  0.83298180  1
  Ti4+  Ti9  1  0.50354711  0.16545296  0.16658272  1
  Ti4+  Ti10  1  0.50065409  0.16800896  0.50030372  1
  Ti4+  Ti11  1  0.49773227  0.17136357  0.83612390  1
  Ti4+  Ti12  1  0.49908818  0.50055725  0.16272556  1
  Ti4+  Ti13  1  0.49740401  0.49943165  0.49425297  1
  Ti4+  Ti14  1  0.49918137  0.50127703  0.82695326  1
  Ti4+  Ti15  1  0.50581877  0.83216222  0.16834215  1
  Ti4+  Ti16  1  0.49890856  0.83680139  0.50304575  1
  Ti4+  Ti17  1  0.50034675  0.83406337  0.83542158  1
  Ti4+  Ti18  1  0.83495877  0.16237302  0.17236275  1
  Ti4+  Ti19  1  0.83338205  0.17080589  0.50172180  1
  Ti4+  Ti20  1  0.83313791  0.17060879  0.83674055  1
  Ti4+  Ti21  1  0.83373585  0.49897163  0.17048990  1
  Ti4+  Ti22  1  0.83075109  0.50265568  0.49948951  1
  Ti4+  Ti23  1  0.82874740  0.50299945  0.83267942  1
  Ti4+  Ti24  1  0.83600329  0.82979171  0.16548942  1
  Ti4+  Ti25  1  0.83444268  0.83267742  0.50243847  1
  Ti4+  Ti26  1  0.83386370  0.83661497  0.83058121  1
  Cu+  Cu27  1  0.16823268  0.16406254  -0.00306827  1
  Cu+  Cu28  1  0.16052892  0.16420155  0.32946619  1
  Cu+  Cu29  1  0.16564339  0.16344268  0.66277165  1
  Cu+  Cu30  1  0.16335603  0.49855556  0.00096033  1
  Cu+  Cu31  1  0.17468115  0.49772854  0.33198624  1
  Cu+  Cu32  1  0.16461607  0.49590019  0.66613576  1
  Cu+  Cu33  1  0.16863833  0.83062266  0.00067135  1
  Cu+  Cu34  1  0.16898993  0.83104693  0.33616538  1
  Cu+  Cu35  1  0.16401652  0.83437750  0.66783603  1
  Cu+  Cu36  1  0.49743873  0.17087504  0.00371129  1
  Cu+  Cu37  1  0.50286587  0.16521694  0.33220667  1
  Cu+  Cu38  1  0.49890679  0.16930088  0.66897260  1
  Cu+  Cu39  1  0.49895858  0.49878892  -0.00584832  1
  Cu+  Cu40  1  0.49910277  0.50135144  0.32786417  1
  Cu+  Cu41  1  0.49758006  0.49975435  0.65693277  1
  Cu+  Cu42  1  0.50286830  0.83296114  0.00221777  1
  Cu+  Cu43  1  0.50420281  0.83401477  0.33828363  1
  Cu+  Cu44  1  0.49855227  0.83682443  0.67105969  1
  Cu+  Cu45  1  0.83411987  0.16736805  0.00356150  1
  Cu+  Cu46  1  0.83513057  0.16258460  0.34021190  1
  Cu+  Cu47  1  0.83276834  0.17402414  0.66997916  1
  Cu+  Cu48  1  0.82988402  0.50074409  0.00381883  1
  Cu+  Cu49  1  0.83856680  0.49986002  0.33450942  1
  Cu+  Cu50  1  0.82642383  0.50406207  0.66643892  1
  Cu+  Cu51  1  0.83146631  0.83541390  -0.00292002  1
  Cu+  Cu52  1  0.83557387  0.83046352  0.33421946  1
  Cu+  Cu53  1  0.84000979  0.83144427  0.66771127  1
  Cu+  Cu54  1  0.16727872  -0.00318487  0.16611772  1
  Cu+  Cu55  1  0.16726131  -0.00242622  0.50083690  1
  Cu+  Cu56  1  0.16147818  -0.00290029  0.82946739  1
  Cu+  Cu57  1  0.16587957  0.33372053  0.16362334  1
  Cu+  Cu58  1  0.16939264  0.33018588  0.49003353  1
  Cu+  Cu59  1  0.16504557  0.33137109  0.83162703  1
  Cu+  Cu60  1  0.17134216  0.66537600  0.17007008  1
  Cu+  Cu61  1  0.16711977  0.66638957  0.50133121  1
  Cu+  Cu62  1  0.16543433  0.66331218  0.83431360  1
  Cu+  Cu63  1  0.50682025  -0.00052181  0.16793256  1
  Cu+  Cu64  1  0.50114329  0.00254238  0.50510586  1
  Cu+  Cu65  1  0.49794349  0.00295388  0.83721762  1
  Cu+  Cu66  1  0.49793957  0.33187274  0.16189699  1
  Cu+  Cu67  1  0.49499989  0.33338730  0.49850409  1
  Cu+  Cu68  1  0.49510089  0.33955355  0.83508655  1
  Cu+  Cu69  1  0.50547819  0.66602229  0.16868503  1
  Cu+  Cu70  1  0.49976931  0.67158551  0.49739307  1
  Cu+  Cu71  1  0.50204158  0.66722112  0.83132110  1
  Cu+  Cu72  1  0.83600178  -0.00605995  0.16574065  1
  Cu+  Cu73  1  0.83669998  -0.00008204  0.50467000  1
  Cu+  Cu74  1  0.83476369  0.00662287  0.83356579  1
  Cu+  Cu75  1  0.83313016  0.32802032  0.17045967  1
  Cu+  Cu76  1  0.83048392  0.33850713  0.49646104  1
  Cu+  Cu77  1  0.82843328  0.33452764  0.83380049  1
  Cu+  Cu78  1  0.83355765  0.66404097  0.17155217  1
  Cu+  Cu79  1  0.83240280  0.66740887  0.50199112  1
  Cu+  Cu80  1  0.83007445  0.67134361  0.82930224  1
  Cu+  Cu81  1  0.00266422  0.15739814  0.17284037  1
  Cu+  Cu82  1  0.00056095  0.16778804  0.49476150  1
  Cu+  Cu83  1  -0.00146190  0.16517407  0.83354260  1
  Cu+  Cu84  1  -0.00006039  0.50015409  0.17255317  1
  Cu+  Cu85  1  -0.00127358  0.49685295  0.49826256  1
  Cu+  Cu86  1  -0.00211499  0.49910934  0.83368659  1
  Cu+  Cu87  1  0.00351077  0.82934231  0.16424054  1
  Cu+  Cu88  1  0.00183453  0.83098234  0.50158347  1
  Cu+  Cu89  1  0.00134311  0.83642810  0.82588413  1
  Cu+  Cu90  1  0.33543494  0.16453621  0.16483265  1
  Cu+  Cu91  1  0.33418234  0.16428473  0.49820897  1
  Cu+  Cu92  1  0.32746445  0.17070586  0.83673149  1
  Cu+  Cu93  1  0.33095544  0.50253842  0.16615897  1
  Cu+  Cu94  1  0.33272087  0.49062200  0.49456303  1
  Cu+  Cu95  1  0.33109923  0.49706861  0.82863931  1
  Cu+  Cu96  1  0.33785784  0.83276849  0.16768741  1
  Cu+  Cu97  1  0.33294545  0.83651407  0.50584795  1
  Cu+  Cu98  1  0.33352971  0.83276368  0.83697049  1
  Cu+  Cu99  1  0.66940815  0.16664565  0.16756290  1
  Cu+  Cu100  1  0.66647569  0.17207866  0.50158960  1
  Cu+  Cu101  1  0.66514920  0.17251781  0.83544946  1
  Cu+  Cu102  1  0.66646891  0.50166906  0.16513097  1
  Cu+  Cu103  1  0.66126586  0.50562535  0.49986170  1
  Cu+  Cu104  1  0.66566957  0.50965614  0.82790774  1
  Cu+  Cu105  1  0.67348473  0.83082300  0.16603701  1
  Cu+  Cu106  1  0.66698797  0.83422297  0.50247471  1
  Cu+  Cu107  1  0.66580567  0.83534901  0.83576905  1
  Cu+  Cu108  1  0.26129087  0.59762910  0.26234959  1
  Cu+  Cu109  1  0.26386068  0.39939604  0.40006092  1
  Cu+  Cu110  1  0.74344088  0.92641230  0.07149068  1
  Cu+  Cu111  1  0.24736505  0.26099911  0.92565547  1
  Cu+  Cu112  1  0.40191877  0.41694256  0.92461283  1
  Cu+  Cu113  1  0.58333057  0.59827917  0.58752814  1
  Cu+  Cu114  1  0.74482211  0.25745260  0.07649008  1
  Cu+  Cu115  1  0.40418739  0.40320255  0.58904718  1
  Cu+  Cu116  1  0.59291397  0.58721548  0.25732020  1
  Cu+  Cu117  1  0.07433402  0.92946674  0.73680736  1
  Cu+  Cu118  1  0.74278740  0.59112676  0.07930731  1
  Cu+  Cu119  1  0.73564631  0.26038546  0.74178756  1
  Cu+  Cu120  1  0.93055319  0.59316053  0.26230189  1
  Cu+  Cu121  1  0.92628650  0.40949659  0.40793335  1
  Cu+  Cu122  1  0.92500328  0.06840182  0.41507797  1
  Cu+  Cu123  1  0.74102316  0.60035070  0.73690069  1
  Cu+  Cu124  1  0.74645732  0.74305734  0.26246097  1
  Cu+  Cu125  1  0.59364819  0.74650354  0.41356369  1
  Cu+  Cu126  1  0.74039557  0.74684478  0.92223751  1
  Cu+  Cu127  1  0.73487000  0.26435818  0.41140119  1
  Cu+  Cu128  1  0.93057361  0.73910094  0.74058928  1
  Cu+  Cu129  1  0.58581261  0.59316619  0.92308757  1
  Cu+  Cu130  1  0.07501682  0.25884267  0.40165951  1
  Cu+  Cu131  1  0.07804595  0.06403069  0.25697308  1
  Cu+  Cu132  1  0.40423235  0.25790894  0.08048327  1
  Te2-  Te133  1  0.25256042  0.25329302  0.07912913  1
  Te2-  Te134  1  0.25587556  0.24570460  0.40687504  1
  Te2-  Te135  1  0.24860515  0.25032043  0.74407269  1
  Te2-  Te136  1  0.25037697  0.58402931  0.07862023  1
  Te2-  Te137  1  0.25526373  0.58689650  0.41618462  1
  Te2-  Te138  1  0.24912653  0.58254088  0.74653854  1
  Te2-  Te139  1  0.25383141  0.91593295  0.08258686  1
  Te2-  Te140  1  0.25274969  0.91759117  0.41639031  1
  Te2-  Te141  1  0.25297722  0.91635132  0.74921996  1
  Te2-  Te142  1  0.59010475  0.25361711  0.08061765  1
  Te2-  Te143  1  0.58363209  0.25572936  0.41276450  1
  Te2-  Te144  1  0.58175445  0.25787255  0.74938469  1
  Te2-  Te145  1  0.58604492  0.58721770  0.07560901  1
  Te2-  Te146  1  0.58555016  0.58913114  0.40879256  1
  Te2-  Te147  1  0.58372611  0.59025405  0.73825799  1
  Te2-  Te148  1  0.59070593  0.91768395  0.08109506  1
  Te2-  Te149  1  0.58677979  0.92238712  0.41924554  1
  Te2-  Te150  1  0.58458636  0.92165160  0.75215933  1
  Te2-  Te151  1  0.92217708  0.24628037  0.08873651  1
  Te2-  Te152  1  0.92079501  0.25756880  0.41103524  1
  Te2-  Te153  1  0.92019964  0.25580245  0.75193929  1
  Te2-  Te154  1  0.91921964  0.58372209  0.08392715  1
  Te2-  Te155  1  0.92058214  0.58974177  0.41645018  1
  Te2-  Te156  1  0.91785435  0.58525492  0.74696994  1
  Te2-  Te157  1  0.92206521  0.91423320  0.07987336  1
  Te2-  Te158  1  0.92076573  0.91553265  0.41549821  1
  Te2-  Te159  1  0.91793781  0.92646297  0.74549420  1
  Te2-  Te160  1  0.25307159  0.08121581  0.25079456  1
  Te2-  Te161  1  0.25194569  0.08064402  0.58235628  1
  Te2-  Te162  1  0.24879388  0.07566941  0.91459469  1
  Te2-  Te163  1  0.25570716  0.40876742  0.24815354  1
  Te2-  Te164  1  0.24960582  0.40901608  0.58459897  1
  Te2-  Te165  1  0.25059489  0.41308876  0.92121490  1
  Te2-  Te166  1  0.25750512  0.74859960  0.25550814  1
  Te2-  Te167  1  0.25097396  0.74833783  0.58802533  1
  Te2-  Te168  1  0.25103007  0.74555477  0.91762019  1
  Te2-  Te169  1  0.58952894  0.08149412  0.25278233  1
  Te2-  Te170  1  0.58627384  0.08641157  0.58753575  1
  Te2-  Te171  1  0.58300802  0.08720730  0.92003436  1
  Te2-  Te172  1  0.58323098  0.41387895  0.24678540  1
  Te2-  Te173  1  0.58433886  0.41327547  0.57942711  1
  Te2-  Te174  1  0.58890237  0.41874131  0.91282099  1
  Te2-  Te175  1  0.59264103  0.74458384  0.25701859  1
  Te2-  Te176  1  0.58494994  0.75071628  0.59045461  1
  Te2-  Te177  1  0.58744319  0.74606693  0.92244263  1
  Te2-  Te178  1  0.91966311  0.07217680  0.25763938  1
  Te2-  Te179  1  0.91928853  0.08808982  0.58796411  1
  Te2-  Te180  1  0.91834359  0.08374187  0.92137389  1
  Te2-  Te181  1  0.91989033  0.40909526  0.25303980  1
  Te2-  Te182  1  0.91338943  0.41825914  0.58682419  1
  Te2-  Te183  1  0.91233215  0.41816537  0.91824891  1
  Te2-  Te184  1  0.92397965  0.74616826  0.25364373  1
  Te2-  Te185  1  0.92187712  0.74414210  0.58521733  1
  Te2-  Te186  1  0.91945302  0.75092934  0.91479625  1
  Te2-  Te187  1  0.07918270  0.25491973  0.24860173  1
  Te2-  Te188  1  0.08383879  0.25167044  0.58035477  1
  Te2-  Te189  1  0.08013432  0.25007635  0.91847671  1
  Te2-  Te190  1  0.08354904  0.58554086  0.25693969  1
  Te2-  Te191  1  0.08240484  0.58019536  0.58196310  1
  Te2-  Te192  1  0.07958374  0.58294223  0.91856266  1
  Te2-  Te193  1  0.08148902  0.91365760  0.25359898  1
  Te2-  Te194  1  0.07881057  0.92019408  0.58518529  1
  Te2-  Te195  1  0.08073073  0.91506030  0.92010643  1
  Te2-  Te196  1  0.41620142  0.25042858  0.25158627  1
  Te2-  Te197  1  0.41093969  0.25094804  0.58601196  1
  Te2-  Te198  1  0.40870501  0.25874021  0.92356683  1
  Te2-  Te199  1  0.41366956  0.58750571  0.24988920  1
  Te2-  Te200  1  0.41054763  0.58588276  0.57708870  1
  Te2-  Te201  1  0.41223895  0.58536891  0.91374880  1
  Te2-  Te202  1  0.42155413  0.91686823  0.25215133  1
  Te2-  Te203  1  0.41501017  0.92208499  0.58947126  1
  Te2-  Te204  1  0.41584429  0.91766135  0.92198521  1
  Te2-  Te205  1  0.74895795  0.24883679  0.25882947  1
  Te2-  Te206  1  0.74719333  0.25867437  0.58675099  1
  Te2-  Te207  1  0.74639005  0.25533145  0.92471773  1
  Te2-  Te208  1  0.74506064  0.58543955  0.25986789  1
  Te2-  Te209  1  0.74253032  0.59143503  0.58467632  1
  Te2-  Te210  1  0.74402100  0.59122036  0.92360671  1
  Te2-  Te211  1  0.75162399  0.91621082  0.25394904  1
  Te2-  Te212  1  0.75117962  0.91742864  0.58815151  1
  Te2-  Te213  1  0.74752937  0.92496321  0.91665763  1
  Te2-  Te214  1  0.08343193  0.07953989  0.07916840  1
  Te2-  Te215  1  0.07897943  0.07274841  0.41224735  1
  Te2-  Te216  1  0.07656044  0.08162328  0.74345886  1
  Te2-  Te217  1  0.07831763  0.41585289  0.08357213  1
  Te2-  Te218  1  0.07928512  0.41315206  0.40715370  1
  Te2-  Te219  1  0.07861598  0.41242776  0.74839559  1
  Te2-  Te220  1  0.08608362  0.74378334  0.08265088  1
  Te2-  Te221  1  0.08237270  0.74645733  0.41569373  1
  Te2-  Te222  1  0.08175469  0.74216752  0.74560282  1
  Te2-  Te223  1  0.41847237  0.07742044  0.08267564  1
  Te2-  Te224  1  0.41838407  0.08101015  0.41504101  1
  Te2-  Te225  1  0.41332671  0.08651716  0.75298447  1
  Te2-  Te226  1  0.41016375  0.41524000  0.07803218  1
  Te2-  Te227  1  0.41618668  0.41085245  0.40405047  1
  Te2-  Te228  1  0.41285512  0.41473536  0.74098600  1
  Te2-  Te229  1  0.42007606  0.74729408  0.08420582  1
  Te2-  Te230  1  0.41208909  0.75264234  0.41690740  1
  Te2-  Te231  1  0.41476684  0.74911091  0.75034807  1
  Te2-  Te232  1  0.74996215  0.07855548  0.08320317  1
  Te2-  Te233  1  0.74752899  0.08027815  0.42155546  1
  Te2-  Te234  1  0.74722050  0.08634845  0.74964022  1
  Te2-  Te235  1  0.74785841  0.41158131  0.08473318  1
  Te2-  Te236  1  0.74167325  0.42027362  0.41215474  1
  Te2-  Te237  1  0.74360504  0.41569825  0.74711110  1
  Te2-  Te238  1  0.74822399  0.74214460  0.07725443  1
  Te2-  Te239  1  0.74756180  0.74544212  0.41602573  1
  Te2-  Te240  1  0.74299255  0.75297399  0.74334874  1
