# generated using pymatgen
data_Ti27(Cu53Te54)2
_symmetry_space_group_name_H-M   'P 1'
_cell_length_a   17.88385399
_cell_length_b   17.88509155
_cell_length_c   17.88316921
_cell_angle_alpha   90.01038629
_cell_angle_beta   90.01572157
_cell_angle_gamma   90.02412329
_symmetry_Int_Tables_number   1
_chemical_formula_structural   Ti27(Cu53Te54)2
_chemical_formula_sum   'Ti27 Cu106 Te108'
_cell_volume   5720.00893024
_cell_formula_units_Z   1
loop_
 _symmetry_equiv_pos_site_id
 _symmetry_equiv_pos_as_xyz
  1  'x, y, z'
loop_
 _atom_type_symbol
 _atom_type_oxidation_number
  Ti4+  4.0
  Cu+  1.0
  Te2-  -2.0
loop_
 _atom_site_type_symbol
 _atom_site_label
 _atom_site_symmetry_multiplicity
 _atom_site_fract_x
 _atom_site_fract_y
 _atom_site_fract_z
 _atom_site_occupancy
  Ti4+  Ti0  1  0.16836269  0.16691825  0.16320714  1
  Ti4+  Ti1  1  0.16679686  0.16642384  0.49942271  1
  Ti4+  Ti2  1  0.17222649  0.16730345  0.83205650  1
  Ti4+  Ti3  1  0.16705532  0.50389017  0.16729266  1
  Ti4+  Ti4  1  0.16667699  0.50078351  0.49973458  1
  Ti4+  Ti5  1  0.16487880  0.50193891  0.83487930  1
  Ti4+  Ti6  1  0.16113171  0.83663785  0.16803463  1
  Ti4+  Ti7  1  0.17131527  0.83510259  0.49926428  1
  Ti4+  Ti8  1  0.16676911  0.83513575  0.83420571  1
  Ti4+  Ti9  1  0.49950566  0.16185688  0.16777020  1
  Ti4+  Ti10  1  0.49955737  0.16630809  0.50087232  1
  Ti4+  Ti11  1  0.49809369  0.16749698  0.83603158  1
  Ti4+  Ti12  1  0.50038760  0.49898072  0.16826019  1
  Ti4+  Ti13  1  0.50317465  0.49632434  0.50224559  1
  Ti4+  Ti14  1  0.49868847  0.50072060  0.83009596  1
  Ti4+  Ti15  1  0.49739347  0.83269595  0.16663347  1
  Ti4+  Ti16  1  0.50092292  0.82958957  0.50045579  1
  Ti4+  Ti17  1  0.49945440  0.83339856  0.83528315  1
  Ti4+  Ti18  1  0.83184522  0.16267794  0.16515237  1
  Ti4+  Ti19  1  0.83312626  0.16622163  0.50009976  1
  Ti4+  Ti20  1  0.83657236  0.16814897  0.83299248  1
  Ti4+  Ti21  1  0.83287760  0.49820595  0.16658537  1
  Ti4+  Ti22  1  0.83405512  0.50342363  0.49885634  1
  Ti4+  Ti23  1  0.82967002  0.49997516  0.83199817  1
  Ti4+  Ti24  1  0.83199541  0.83399774  0.16554181  1
  Ti4+  Ti25  1  0.83390396  0.83438584  0.50042991  1
  Ti4+  Ti26  1  0.83260892  0.83088310  0.83501390  1
  Cu+  Cu27  1  0.17707730  0.16793707  -0.00323089  1
  Cu+  Cu28  1  0.16632690  0.16654238  0.33167169  1
  Cu+  Cu29  1  0.16971960  0.16371065  0.66443638  1
  Cu+  Cu30  1  0.16317950  0.50386561  0.00323673  1
  Cu+  Cu31  1  0.16706035  0.50099683  0.33327376  1
  Cu+  Cu32  1  0.16536374  0.50208566  0.66659033  1
  Cu+  Cu33  1  0.15756918  0.83264534  -0.00128235  1
  Cu+  Cu34  1  0.16823941  0.84097045  0.33836633  1
  Cu+  Cu35  1  0.17049556  0.83296415  0.66497163  1
  Cu+  Cu36  1  0.49952080  0.16500667  0.00624385  1
  Cu+  Cu37  1  0.49954022  0.16671392  0.33356823  1
  Cu+  Cu38  1  0.49683090  0.16761184  0.66624016  1
  Cu+  Cu39  1  0.49870644  0.50111998  -0.00247001  1
  Cu+  Cu40  1  0.50299827  0.49709305  0.33553873  1
  Cu+  Cu41  1  0.50642967  0.49428637  0.66802108  1
  Cu+  Cu42  1  0.49754621  0.83371694  -0.00043919  1
  Cu+  Cu43  1  0.49544236  0.83265945  0.33436697  1
  Cu+  Cu44  1  0.50274936  0.83131763  0.66864173  1
  Cu+  Cu45  1  0.83351906  0.16353202  -0.00456953  1
  Cu+  Cu46  1  0.82959491  0.16425296  0.33523972  1
  Cu+  Cu47  1  0.83525606  0.16802833  0.66883860  1
  Cu+  Cu48  1  0.83044192  0.49694821  -0.00032898  1
  Cu+  Cu49  1  0.83718022  0.50345901  0.33070323  1
  Cu+  Cu50  1  0.82681106  0.50278589  0.66409819  1
  Cu+  Cu51  1  0.83112244  0.82654401  0.00048140  1
  Cu+  Cu52  1  0.83490380  0.83507523  0.33269139  1
  Cu+  Cu53  1  0.83586599  0.83390480  0.66619381  1
  Cu+  Cu54  1  0.16261958  0.00399014  0.16621714  1
  Cu+  Cu55  1  0.16582378  -0.00014719  0.49824962  1
  Cu+  Cu56  1  0.17219477  0.00217944  0.83079363  1
  Cu+  Cu57  1  0.16805875  0.33917141  0.16762043  1
  Cu+  Cu58  1  0.16462483  0.33193651  0.49961768  1
  Cu+  Cu59  1  0.17154670  0.33786879  0.83301362  1
  Cu+  Cu60  1  0.16611900  0.67106861  0.16558853  1
  Cu+  Cu61  1  0.17200402  0.66742404  0.49970581  1
  Cu+  Cu62  1  0.16388251  0.66789733  0.83646329  1
  Cu+  Cu63  1  0.50315772  -0.00124311  0.16586595  1
  Cu+  Cu64  1  0.49976083  -0.00072691  0.50152457  1
  Cu+  Cu65  1  0.50052884  -0.00357695  0.83526188  1
  Cu+  Cu66  1  0.49992946  0.33123016  0.16971390  1
  Cu+  Cu67  1  0.50126652  0.33132878  0.50064049  1
  Cu+  Cu68  1  0.49648433  0.33260930  0.83013633  1
  Cu+  Cu69  1  0.49603961  0.66398595  0.16653230  1
  Cu+  Cu70  1  0.50402792  0.66108285  0.50376110  1
  Cu+  Cu71  1  0.49809355  0.66831208  0.83437256  1
  Cu+  Cu72  1  0.82910953  -0.00037842  0.17126778  1
  Cu+  Cu73  1  0.83222363  0.00080617  0.50296765  1
  Cu+  Cu74  1  0.83682909  0.00018604  0.83518881  1
  Cu+  Cu75  1  0.83413088  0.33043977  0.16473087  1
  Cu+  Cu76  1  0.83391836  0.33378372  0.49957247  1
  Cu+  Cu77  1  0.83560517  0.33108608  0.83177585  1
  Cu+  Cu78  1  0.83669130  0.66247110  0.16769951  1
  Cu+  Cu79  1  0.83607167  0.67218278  0.49742248  1
  Cu+  Cu80  1  0.82436286  0.66373957  0.83428061  1
  Cu+  Cu81  1  0.00222068  0.16488596  0.16473038  1
  Cu+  Cu82  1  -0.00297379  0.16770643  0.50052130  1
  Cu+  Cu83  1  0.00389260  0.17023286  0.83251479  1
  Cu+  Cu84  1  -0.00073685  0.50328672  0.17157045  1
  Cu+  Cu85  1  0.00201136  0.50242774  0.49910156  1
  Cu+  Cu86  1  -0.00354969  0.50214888  0.83234243  1
  Cu+  Cu87  1  -0.00710307  0.84101473  0.16063917  1
  Cu+  Cu88  1  0.00279707  0.83357146  0.50069692  1
  Cu+  Cu89  1  0.00285686  0.83174065  0.83692964  1
  Cu+  Cu90  1  0.33484909  0.16457008  0.15825099  1
  Cu+  Cu91  1  0.33128752  0.16694439  0.49900773  1
  Cu+  Cu92  1  0.33335501  0.17284222  0.83179726  1
  Cu+  Cu93  1  0.33622720  0.50494809  0.16423973  1
  Cu+  Cu94  1  0.33784579  0.49861378  0.50279857  1
  Cu+  Cu95  1  0.32756729  0.49838087  0.83113782  1
  Cu+  Cu96  1  0.32688920  0.83354661  0.16959192  1
  Cu+  Cu97  1  0.33891041  0.83244522  0.49293944  1
  Cu+  Cu98  1  0.33582506  0.83493465  0.83524010  1
  Cu+  Cu99  1  0.66523985  0.15763870  0.16817663  1
  Cu+  Cu100  1  0.66330954  0.16690357  0.50164141  1
  Cu+  Cu101  1  0.67235997  0.16516781  0.83785458  1
  Cu+  Cu102  1  0.66617866  0.49772293  0.16616326  1
  Cu+  Cu103  1  0.67059600  0.49618571  0.50388389  1
  Cu+  Cu104  1  0.66451670  0.50258204  0.82426429  1
  Cu+  Cu105  1  0.66370025  0.83066911  0.16760913  1
  Cu+  Cu106  1  0.66768903  0.83239818  0.50024106  1
  Cu+  Cu107  1  0.66464743  0.82956684  0.83746007  1
  Cu+  Cu108  1  0.41189941  0.59416772  0.06874003  1
  Cu+  Cu109  1  0.06959134  0.93206220  0.06866264  1
  Cu+  Cu110  1  0.73515694  0.07337843  0.26733176  1
  Cu+  Cu111  1  0.40799455  0.25982249  0.73462648  1
  Cu+  Cu112  1  0.26012498  0.07065162  0.07016836  1
  Cu+  Cu113  1  0.26713888  0.73274456  0.41168169  1
  Cu+  Cu114  1  0.07016387  0.92697974  0.41718593  1
  Cu+  Cu115  1  0.91858024  0.73303445  0.07302465  1
  Cu+  Cu116  1  0.73263894  0.73382643  0.92938075  1
  Cu+  Cu117  1  0.25315510  0.41194266  0.73418753  1
  Cu+  Cu118  1  0.25764644  0.93032260  0.25744062  1
  Cu+  Cu119  1  0.91800960  0.92874441  0.26163263  1
  Cu+  Cu120  1  0.41191424  0.26289004  0.08018207  1
  Cu+  Cu121  1  0.25503562  0.74673757  0.07169854  1
  Cu+  Cu122  1  0.74575301  0.40246173  0.59027913  1
  Cu+  Cu123  1  0.59353303  0.06940670  0.07336756  1
  Cu+  Cu124  1  0.74455913  0.06995358  0.92062676  1
  Cu+  Cu125  1  0.73724895  0.59890943  0.73296316  1
  Cu+  Cu126  1  0.41557061  0.93104141  0.40729909  1
  Cu+  Cu127  1  0.59457541  0.39907537  0.74640390  1
  Cu+  Cu128  1  0.07293959  0.73611089  0.92444099  1
  Cu+  Cu129  1  0.26163050  0.06939154  0.73429993  1
  Cu+  Cu130  1  0.07369428  0.08206589  0.26115199  1
  Cu+  Cu131  1  0.92998024  0.59451642  0.26254389  1
  Cu+  Cu132  1  0.25980892  0.26829720  0.92620260  1
  Te2-  Te133  1  0.25466981  0.26071015  0.08093157  1
  Te2-  Te134  1  0.25052253  0.25193813  0.41316892  1
  Te2-  Te135  1  0.25412162  0.25727636  0.74002713  1
  Te2-  Te136  1  0.25320619  0.59102395  0.07798459  1
  Te2-  Te137  1  0.25731761  0.58228246  0.41396238  1
  Te2-  Te138  1  0.24922929  0.58942395  0.74913414  1
  Te2-  Te139  1  0.24901741  0.91891512  0.07778533  1
  Te2-  Te140  1  0.25966895  0.92791439  0.41261806  1
  Te2-  Te141  1  0.25585723  0.91696049  0.74637896  1
  Te2-  Te142  1  0.58765613  0.24994639  0.08540461  1
  Te2-  Te143  1  0.58472344  0.25118467  0.41419192  1
  Te2-  Te144  1  0.58879397  0.24676453  0.74934981  1
  Te2-  Te145  1  0.58515754  0.58480624  0.08117883  1
  Te2-  Te146  1  0.58902145  0.58092137  0.41724486  1
  Te2-  Te147  1  0.58224721  0.59185479  0.74438655  1
  Te2-  Te148  1  0.58645010  0.91533419  0.07968941  1
  Te2-  Te149  1  0.58501763  0.91693547  0.41460596  1
  Te2-  Te150  1  0.58687694  0.91729708  0.75013639  1
  Te2-  Te151  1  0.91787593  0.24727235  0.08030274  1
  Te2-  Te152  1  0.91688739  0.25178927  0.41324782  1
  Te2-  Te153  1  0.92245527  0.25347208  0.74666585  1
  Te2-  Te154  1  0.92009712  0.58157941  0.07636110  1
  Te2-  Te155  1  0.92216100  0.58988440  0.41445274  1
  Te2-  Te156  1  0.91456014  0.58635385  0.74694420  1
  Te2-  Te157  1  0.91226087  0.92539657  0.07432886  1
  Te2-  Te158  1  0.91948918  0.92414689  0.41483027  1
  Te2-  Te159  1  0.91946629  0.91572005  0.75185628  1
  Te2-  Te160  1  0.25617020  0.08290778  0.25175095  1
  Te2-  Te161  1  0.25479741  0.07771987  0.58265019  1
  Te2-  Te162  1  0.26039592  0.07811115  0.91726279  1
  Te2-  Te163  1  0.25447124  0.41951325  0.25064684  1
  Te2-  Te164  1  0.25232874  0.41313030  0.58374670  1
  Te2-  Te165  1  0.25253528  0.41934960  0.92595155  1
  Te2-  Te166  1  0.24765893  0.74899091  0.25662632  1
  Te2-  Te167  1  0.25775580  0.75004843  0.58416427  1
  Te2-  Te168  1  0.25355083  0.74890776  0.91983854  1
  Te2-  Te169  1  0.58317182  0.07577896  0.25882308  1
  Te2-  Te170  1  0.58329058  0.08071585  0.58760532  1
  Te2-  Te171  1  0.58548967  0.07906925  0.92022716  1
  Te2-  Te172  1  0.58606416  0.41241533  0.25232885  1
  Te2-  Te173  1  0.59013426  0.40598371  0.58850806  1
  Te2-  Te174  1  0.58439188  0.41592091  0.91494834  1
  Te2-  Te175  1  0.58058776  0.74690026  0.25192245  1
  Te2-  Te176  1  0.58753472  0.74673729  0.58601318  1
  Te2-  Te177  1  0.58226463  0.74406404  0.92380763  1
  Te2-  Te178  1  0.92095308  0.08075401  0.25545674  1
  Te2-  Te179  1  0.91813035  0.08168403  0.58669866  1
  Te2-  Te180  1  0.92534570  0.08242941  0.91704793  1
  Te2-  Te181  1  0.91842645  0.41142131  0.25154762  1
  Te2-  Te182  1  0.91878342  0.41856899  0.58548228  1
  Te2-  Te183  1  0.91664179  0.41539974  0.91664576  1
  Te2-  Te184  1  0.92170572  0.74935970  0.25246043  1
  Te2-  Te185  1  0.92135739  0.74972336  0.58508053  1
  Te2-  Te186  1  0.91978013  0.74051189  0.91896051  1
  Te2-  Te187  1  0.08308187  0.25337416  0.24856940  1
  Te2-  Te188  1  0.08172489  0.24984699  0.58571020  1
  Te2-  Te189  1  0.08715276  0.25329984  0.91803608  1
  Te2-  Te190  1  0.08301446  0.59064042  0.25506489  1
  Te2-  Te191  1  0.08314679  0.58852312  0.58427981  1
  Te2-  Te192  1  0.07606186  0.58546506  0.92129958  1
  Te2-  Te193  1  0.07334117  0.92462900  0.25732345  1
  Te2-  Te194  1  0.08409337  0.91883078  0.58675135  1
  Te2-  Te195  1  0.08040569  0.92665749  0.91615950  1
  Te2-  Te196  1  0.41179920  0.24810962  0.25168337  1
  Te2-  Te197  1  0.41115287  0.25416406  0.58373632  1
  Te2-  Te198  1  0.41481135  0.25610174  0.92497634  1
  Te2-  Te199  1  0.41615485  0.58336136  0.25706945  1
  Te2-  Te200  1  0.41869832  0.58128515  0.58926624  1
  Te2-  Te201  1  0.41041730  0.58574787  0.91509782  1
  Te2-  Te202  1  0.41228465  0.92220105  0.25165356  1
  Te2-  Te203  1  0.41581877  0.91512758  0.58668228  1
  Te2-  Te204  1  0.41343348  0.92013203  0.92126922  1
  Te2-  Te205  1  0.74703582  0.24886822  0.24923385  1
  Te2-  Te206  1  0.74691386  0.25029094  0.58722660  1
  Te2-  Te207  1  0.75009969  0.25512741  0.91980489  1
  Te2-  Te208  1  0.74615014  0.58507763  0.25089206  1
  Te2-  Te209  1  0.74625840  0.59381959  0.58142499  1
  Te2-  Te210  1  0.74092903  0.58075503  0.92223787  1
  Te2-  Te211  1  0.74222478  0.91666561  0.25437327  1
  Te2-  Te212  1  0.74778575  0.91785096  0.58659176  1
  Te2-  Te213  1  0.74718748  0.91718653  0.92097254  1
  Te2-  Te214  1  0.08087675  0.08460782  0.07202141  1
  Te2-  Te215  1  0.07685793  0.08109545  0.41343098  1
  Te2-  Te216  1  0.08344076  0.08271546  0.74852132  1
  Te2-  Te217  1  0.07977972  0.41809386  0.08474684  1
  Te2-  Te218  1  0.08170018  0.41545921  0.41429429  1
  Te2-  Te219  1  0.07967296  0.41589943  0.74939579  1
  Te2-  Te220  1  0.07305853  0.74525778  0.08167933  1
  Te2-  Te221  1  0.08402510  0.74900569  0.41459770  1
  Te2-  Te222  1  0.08350248  0.74982122  0.74629200  1
  Te2-  Te223  1  0.41368631  0.07191361  0.07801603  1
  Te2-  Te224  1  0.41287421  0.08235355  0.41332429  1
  Te2-  Te225  1  0.41496203  0.07927058  0.74957237  1
  Te2-  Te226  1  0.41446728  0.41393469  0.07975699  1
  Te2-  Te227  1  0.41662878  0.41283895  0.41610369  1
  Te2-  Te228  1  0.40921918  0.41378050  0.74298097  1
  Te2-  Te229  1  0.40972371  0.74818892  0.07959501  1
  Te2-  Te230  1  0.41863602  0.73768219  0.41325355  1
  Te2-  Te231  1  0.41387889  0.74875079  0.74878253  1
  Te2-  Te232  1  0.74691254  0.07473303  0.07610260  1
  Te2-  Te233  1  0.74368663  0.07827876  0.41810802  1
  Te2-  Te234  1  0.75007694  0.08024976  0.74834824  1
  Te2-  Te235  1  0.74722283  0.41180607  0.08178553  1
  Te2-  Te236  1  0.75151569  0.41688367  0.41156443  1
  Te2-  Te237  1  0.74668523  0.40745516  0.74513278  1
  Te2-  Te238  1  0.74430993  0.74265498  0.08466417  1
  Te2-  Te239  1  0.74902002  0.75035299  0.41237916  1
  Te2-  Te240  1  0.74551221  0.75046857  0.74459709  1
