# generated using pymatgen
data_Ti27(Cu53Te54)2
_symmetry_space_group_name_H-M   'P 1'
_cell_length_a   17.92319781
_cell_length_b   17.92705279
_cell_length_c   17.91051293
_cell_angle_alpha   90.03932211
_cell_angle_beta   90.09288433
_cell_angle_gamma   89.99133237
_symmetry_Int_Tables_number   1
_chemical_formula_structural   Ti27(Cu53Te54)2
_chemical_formula_sum   'Ti27 Cu106 Te108'
_cell_volume   5754.81995484
_cell_formula_units_Z   1
loop_
 _symmetry_equiv_pos_site_id
 _symmetry_equiv_pos_as_xyz
  1  'x, y, z'
loop_
 _atom_type_symbol
 _atom_type_oxidation_number
  Ti4+  4.0
  Cu+  1.0
  Te2-  -2.0
loop_
 _atom_site_type_symbol
 _atom_site_label
 _atom_site_symmetry_multiplicity
 _atom_site_fract_x
 _atom_site_fract_y
 _atom_site_fract_z
 _atom_site_occupancy
  Ti4+  Ti0  1  0.17140855  0.16796986  0.16448900  1
  Ti4+  Ti1  1  0.16910269  0.16998844  0.49974581  1
  Ti4+  Ti2  1  0.16141422  0.16796536  0.83444788  1
  Ti4+  Ti3  1  0.16499845  0.49645359  0.16704557  1
  Ti4+  Ti4  1  0.16627509  0.50660585  0.50242820  1
  Ti4+  Ti5  1  0.16287625  0.49637286  0.83601391  1
  Ti4+  Ti6  1  0.16823857  0.83193191  0.16552018  1
  Ti4+  Ti7  1  0.16837416  0.83207850  0.50015896  1
  Ti4+  Ti8  1  0.16311206  0.83581636  0.83661201  1
  Ti4+  Ti9  1  0.50261240  0.16635187  0.16485884  1
  Ti4+  Ti10  1  0.50317323  0.16464972  0.50093938  1
  Ti4+  Ti11  1  0.50255738  0.16822132  0.82723898  1
  Ti4+  Ti12  1  0.49928558  0.50110648  0.16666365  1
  Ti4+  Ti13  1  0.50075832  0.50005781  0.49988190  1
  Ti4+  Ti14  1  0.49897128  0.50326254  0.83182834  1
  Ti4+  Ti15  1  0.49949102  0.83397539  0.16592237  1
  Ti4+  Ti16  1  0.50086536  0.83388170  0.50202563  1
  Ti4+  Ti17  1  0.49669371  0.83269799  0.82920364  1
  Ti4+  Ti18  1  0.83206316  0.16439464  0.16672473  1
  Ti4+  Ti19  1  0.83743338  0.16577527  0.50244348  1
  Ti4+  Ti20  1  0.83138811  0.16242378  0.83271319  1
  Ti4+  Ti21  1  0.83045009  0.49825325  0.16646833  1
  Ti4+  Ti22  1  0.83598687  0.50138779  0.49844219  1
  Ti4+  Ti23  1  0.83111460  0.49927474  0.83439000  1
  Ti4+  Ti24  1  0.83314011  0.83257697  0.16814647  1
  Ti4+  Ti25  1  0.83596167  0.83296732  0.50054286  1
  Ti4+  Ti26  1  0.83307536  0.83240820  0.83648800  1
  Cu+  Cu27  1  0.16395194  0.17379982  0.00073194  1
  Cu+  Cu28  1  0.17275469  0.16981502  0.33141899  1
  Cu+  Cu29  1  0.16049906  0.16722747  0.66486647  1
  Cu+  Cu30  1  0.16518311  0.49037752  0.00032779  1
  Cu+  Cu31  1  0.16809960  0.50369434  0.33735894  1
  Cu+  Cu32  1  0.16117114  0.49647508  0.66587717  1
  Cu+  Cu33  1  0.16343261  0.83142724  0.00150521  1
  Cu+  Cu34  1  0.17210569  0.83298831  0.33031753  1
  Cu+  Cu35  1  0.16761953  0.83147524  0.67192000  1
  Cu+  Cu36  1  0.50147665  0.16751747  -0.00311414  1
  Cu+  Cu37  1  0.50360332  0.16543194  0.33280939  1
  Cu+  Cu38  1  0.50629618  0.16444373  0.66342188  1
  Cu+  Cu39  1  0.49831738  0.50584060  -0.00099632  1
  Cu+  Cu40  1  0.49952910  0.50140616  0.33286992  1
  Cu+  Cu41  1  0.50100703  0.49932345  0.66687368  1
  Cu+  Cu42  1  0.49641223  0.83612742  -0.00201193  1
  Cu+  Cu43  1  0.49969086  0.83641537  0.33325015  1
  Cu+  Cu44  1  0.49822932  0.82606814  0.66435932  1
  Cu+  Cu45  1  0.82513167  0.16550294  0.00193444  1
  Cu+  Cu46  1  0.83693085  0.16602710  0.33401305  1
  Cu+  Cu47  1  0.83183640  0.16003413  0.66656969  1
  Cu+  Cu48  1  0.83043690  0.49903476  0.00097810  1
  Cu+  Cu49  1  0.83261651  0.49818874  0.33094431  1
  Cu+  Cu50  1  0.83571662  0.50299324  0.66707176  1
  Cu+  Cu51  1  0.83244557  0.83386842  0.00495537  1
  Cu+  Cu52  1  0.83506704  0.83279946  0.33364744  1
  Cu+  Cu53  1  0.83495010  0.83412921  0.67026481  1
  Cu+  Cu54  1  0.17174313  -0.00164503  0.16664550  1
  Cu+  Cu55  1  0.17095130  -0.00090260  0.49910972  1
  Cu+  Cu56  1  0.16156582  0.00343074  0.84057892  1
  Cu+  Cu57  1  0.17080103  0.33436470  0.15975875  1
  Cu+  Cu58  1  0.17190277  0.33926623  0.49958310  1
  Cu+  Cu59  1  0.16081405  0.33004992  0.83973680  1
  Cu+  Cu60  1  0.16771374  0.66407850  0.16666851  1
  Cu+  Cu61  1  0.15915872  0.66907593  0.50185910  1
  Cu+  Cu62  1  0.16201743  0.66611446  0.83679868  1
  Cu+  Cu63  1  0.50110640  -0.00045487  0.16512448  1
  Cu+  Cu64  1  0.49672809  -0.00117261  0.50163899  1
  Cu+  Cu65  1  0.49895450  -0.00143314  0.82648802  1
  Cu+  Cu66  1  0.50136253  0.33392513  0.16669156  1
  Cu+  Cu67  1  0.50163922  0.33238240  0.50016507  1
  Cu+  Cu68  1  0.50262704  0.33993784  0.82858678  1
  Cu+  Cu69  1  0.49799600  0.66833763  0.16786869  1
  Cu+  Cu70  1  0.50086608  0.66529570  0.50119770  1
  Cu+  Cu71  1  0.49970431  0.66889137  0.82848722  1
  Cu+  Cu72  1  0.83463146  -0.00254052  0.16887484  1
  Cu+  Cu73  1  0.83669093  -0.00278984  0.50123951  1
  Cu+  Cu74  1  0.83409883  -0.00100620  0.83817489  1
  Cu+  Cu75  1  0.82820880  0.33175901  0.16550427  1
  Cu+  Cu76  1  0.83919695  0.33437021  0.49731652  1
  Cu+  Cu77  1  0.83010121  0.33100037  0.83155058  1
  Cu+  Cu78  1  0.83265729  0.66629071  0.16736141  1
  Cu+  Cu79  1  0.83768957  0.66666757  0.50022144  1
  Cu+  Cu80  1  0.83280825  0.66551341  0.83650760  1
  Cu+  Cu81  1  -0.00095052  0.16703654  0.16654145  1
  Cu+  Cu82  1  0.00464910  0.16532818  0.50055973  1
  Cu+  Cu83  1  -0.00155590  0.16178689  0.83011032  1
  Cu+  Cu84  1  -0.00589209  0.49895226  0.16895585  1
  Cu+  Cu85  1  -0.00146213  0.51255189  0.50290064  1
  Cu+  Cu86  1  -0.00310298  0.49592437  0.83740796  1
  Cu+  Cu87  1  0.00035578  0.83329183  0.16824141  1
  Cu+  Cu88  1  0.00255295  0.83107526  0.50032224  1
  Cu+  Cu89  1  -0.00027152  0.83296580  0.84274498  1
  Cu+  Cu90  1  0.33920993  0.16547884  0.16536434  1
  Cu+  Cu91  1  0.33614893  0.16687198  0.50091694  1
  Cu+  Cu92  1  0.33178320  0.17178630  0.83010398  1
  Cu+  Cu93  1  0.33401747  0.49790966  0.16752567  1
  Cu+  Cu94  1  0.33292504  0.50161166  0.49616231  1
  Cu+  Cu95  1  0.33457812  0.50295038  0.83371348  1
  Cu+  Cu96  1  0.33437896  0.83367739  0.16564600  1
  Cu+  Cu97  1  0.33494435  0.83094649  0.50325012  1
  Cu+  Cu98  1  0.32788657  0.83453815  0.82942122  1
  Cu+  Cu99  1  0.66673120  0.16789632  0.16376637  1
  Cu+  Cu100  1  0.67051782  0.16631261  0.50489717  1
  Cu+  Cu101  1  0.66832370  0.16200523  0.82661895  1
  Cu+  Cu102  1  0.66403729  0.50086176  0.16735982  1
  Cu+  Cu103  1  0.67029515  0.50028869  0.49733199  1
  Cu+  Cu104  1  0.66554736  0.50078903  0.83137035  1
  Cu+  Cu105  1  0.66536824  0.83413350  0.16766725  1
  Cu+  Cu106  1  0.66828646  0.83480784  0.49891376  1
  Cu+  Cu107  1  0.66531607  0.83265677  0.83163029  1
  Cu+  Cu108  1  0.07071782  0.40971680  0.57759688  1
  Cu+  Cu109  1  0.07253026  0.07500257  0.93200196  1
  Cu+  Cu110  1  0.26656512  0.41285819  0.07237503  1
  Cu+  Cu111  1  0.74299352  0.06686259  0.58424736  1
  Cu+  Cu112  1  0.06557196  0.40679584  0.92897540  1
  Cu+  Cu113  1  0.59104762  0.06901047  0.73921890  1
  Cu+  Cu114  1  0.07882962  0.07043474  0.58421218  1
  Cu+  Cu115  1  0.07246999  0.59700097  0.40171788  1
  Cu+  Cu116  1  0.26451180  0.25495352  0.92462325  1
  Cu+  Cu117  1  0.25313427  0.73499845  0.74837108  1
  Cu+  Cu118  1  0.59409938  0.41352867  0.73934653  1
  Cu+  Cu119  1  0.91954699  0.59740169  0.59946202  1
  Cu+  Cu120  1  0.74520783  0.25845615  0.73848484  1
  Cu+  Cu121  1  0.59767123  0.26322370  0.58263327  1
  Cu+  Cu122  1  0.73583459  0.26254057  0.07674432  1
  Cu+  Cu123  1  0.07309527  0.74701047  0.59762905  1
  Cu+  Cu124  1  0.40740618  0.73388116  0.58723778  1
  Cu+  Cu125  1  0.92402012  0.06720513  0.74173620  1
  Cu+  Cu126  1  0.26130720  0.41038419  0.40812261  1
  Cu+  Cu127  1  0.07258205  0.73778341  0.93292267  1
  Cu+  Cu128  1  0.06860336  0.26001121  0.08323740  1
  Cu+  Cu129  1  0.07288959  0.25909146  0.73858995  1
  Cu+  Cu130  1  0.40643884  0.07401551  0.59105062  1
  Cu+  Cu131  1  0.59722294  0.74133624  0.73939207  1
  Cu+  Cu132  1  0.73687767  0.06958908  0.93011908  1
  Te2-  Te133  1  0.26205996  0.25429561  0.07790457  1
  Te2-  Te134  1  0.25678112  0.25472280  0.41494597  1
  Te2-  Te135  1  0.24566562  0.25420839  0.74635688  1
  Te2-  Te136  1  0.24942486  0.58029353  0.08048512  1
  Te2-  Te137  1  0.25189668  0.59340454  0.41682057  1
  Te2-  Te138  1  0.24697774  0.58191864  0.74910548  1
  Te2-  Te139  1  0.25263198  0.91661717  0.07859084  1
  Te2-  Te140  1  0.25496959  0.91565363  0.41659906  1
  Te2-  Te141  1  0.24547413  0.92541821  0.75159304  1
  Te2-  Te142  1  0.58530160  0.25477123  0.07725427  1
  Te2-  Te143  1  0.58919200  0.25038801  0.41553076  1
  Te2-  Te144  1  0.59064014  0.25790688  0.74151511  1
  Te2-  Te145  1  0.58401852  0.58772079  0.08263082  1
  Te2-  Te146  1  0.58534972  0.58511610  0.41525797  1
  Te2-  Te147  1  0.58729044  0.58838485  0.74410426  1
  Te2-  Te148  1  0.58504816  0.91798405  0.07938800  1
  Te2-  Te149  1  0.58445135  0.91985172  0.41654259  1
  Te2-  Te150  1  0.58524659  0.91598478  0.74233814  1
  Te2-  Te151  1  0.91535924  0.25182658  0.07908868  1
  Te2-  Te152  1  0.92243743  0.24925379  0.41579049  1
  Te2-  Te153  1  0.91765077  0.25169658  0.74565389  1
  Te2-  Te154  1  0.91606123  0.58402442  0.08149093  1
  Te2-  Te155  1  0.91800000  0.58803314  0.40765154  1
  Te2-  Te156  1  0.92049757  0.58590817  0.75314049  1
  Te2-  Te157  1  0.91965856  0.91843096  0.08302251  1
  Te2-  Te158  1  0.92118136  0.91704989  0.41609651  1
  Te2-  Te159  1  0.92171656  0.91660078  0.75204399  1
  Te2-  Te160  1  0.25537278  0.08299338  0.24976692  1
  Te2-  Te161  1  0.25234167  0.08279273  0.58759541  1
  Te2-  Te162  1  0.25246169  0.08658451  0.91934197  1
  Te2-  Te163  1  0.25179381  0.41379331  0.25497730  1
  Te2-  Te164  1  0.25503059  0.41959055  0.58731754  1
  Te2-  Te165  1  0.25772174  0.41107677  0.91760708  1
  Te2-  Te166  1  0.25449236  0.74580008  0.24928850  1
  Te2-  Te167  1  0.25315391  0.74343487  0.58917358  1
  Te2-  Te168  1  0.25111470  0.74872178  0.91928887  1
  Te2-  Te169  1  0.58781524  0.08108153  0.24987085  1
  Te2-  Te170  1  0.59102394  0.07237623  0.58642370  1
  Te2-  Te171  1  0.58406683  0.07937635  0.91531506  1
  Te2-  Te172  1  0.58442111  0.41572010  0.25271858  1
  Te2-  Te173  1  0.59078121  0.41511211  0.58534322  1
  Te2-  Te174  1  0.58426291  0.41867065  0.91947065  1
  Te2-  Te175  1  0.58381720  0.74923722  0.25318666  1
  Te2-  Te176  1  0.59085703  0.74568119  0.58433806  1
  Te2-  Te177  1  0.58160711  0.74990716  0.91732574  1
  Te2-  Te178  1  0.91993624  0.08112914  0.25151873  1
  Te2-  Te179  1  0.92542520  0.07621044  0.58737649  1
  Te2-  Te180  1  0.91839732  0.08098324  0.92492113  1
  Te2-  Te181  1  0.91518894  0.41029298  0.25109686  1
  Te2-  Te182  1  0.92062282  0.41428208  0.58692491  1
  Te2-  Te183  1  0.91273157  0.40978245  0.92086148  1
  Te2-  Te184  1  0.91934678  0.74691119  0.25249798  1
  Te2-  Te185  1  0.92137284  0.74774435  0.59111045  1
  Te2-  Te186  1  0.91642938  0.74599955  0.92441547  1
  Te2-  Te187  1  0.08535946  0.25349458  0.24954667  1
  Te2-  Te188  1  0.07916196  0.25896995  0.58365398  1
  Te2-  Te189  1  0.06792880  0.25327641  0.92348300  1
  Te2-  Te190  1  0.07970790  0.58439628  0.25044570  1
  Te2-  Te191  1  0.07819655  0.59254500  0.59587589  1
  Te2-  Te192  1  0.07862280  0.58239628  0.92333054  1
  Te2-  Te193  1  0.08479610  0.91835485  0.25137422  1
  Te2-  Te194  1  0.08295152  0.91805596  0.58695160  1
  Te2-  Te195  1  0.07748233  0.92165274  0.92623428  1
  Te2-  Te196  1  0.41834415  0.25114515  0.25196006  1
  Te2-  Te197  1  0.41690103  0.25172368  0.58703865  1
  Te2-  Te198  1  0.41982808  0.25524005  0.91409566  1
  Te2-  Te199  1  0.41288225  0.58531979  0.25197551  1
  Te2-  Te200  1  0.41320866  0.58265435  0.58615471  1
  Te2-  Te201  1  0.41459966  0.59012339  0.91638229  1
  Te2-  Te202  1  0.41441714  0.92038149  0.25096432  1
  Te2-  Te203  1  0.41265101  0.91931029  0.58958241  1
  Te2-  Te204  1  0.41254145  0.91971780  0.91276514  1
  Te2-  Te205  1  0.74784699  0.24895900  0.25451737  1
  Te2-  Te206  1  0.75205442  0.25836277  0.58680726  1
  Te2-  Te207  1  0.74303154  0.25160529  0.91719812  1
  Te2-  Te208  1  0.74705822  0.58473640  0.25185662  1
  Te2-  Te209  1  0.74933692  0.58638554  0.58425526  1
  Te2-  Te210  1  0.74611171  0.58381552  0.91851701  1
  Te2-  Te211  1  0.74804094  0.91783702  0.25400988  1
  Te2-  Te212  1  0.74908839  0.91611071  0.58769251  1
  Te2-  Te213  1  0.74505850  0.91639909  0.92113711  1
  Te2-  Te214  1  0.08308029  0.07988179  0.08305617  1
  Te2-  Te215  1  0.08743696  0.08342906  0.41269683  1
  Te2-  Te216  1  0.07895848  0.07486400  0.74341344  1
  Te2-  Te217  1  0.07169969  0.41162516  0.08161323  1
  Te2-  Te218  1  0.07820313  0.41941826  0.41767194  1
  Te2-  Te219  1  0.07527619  0.41187579  0.74689139  1
  Te2-  Te220  1  0.07890234  0.74390776  0.08349500  1
  Te2-  Te221  1  0.08161189  0.75049335  0.40872926  1
  Te2-  Te222  1  0.07512396  0.74770767  0.75096974  1
  Te2-  Te223  1  0.41799579  0.08121751  0.07789407  1
  Te2-  Te224  1  0.41619104  0.08212329  0.41353187  1
  Te2-  Te225  1  0.41083540  0.08365234  0.74558124  1
  Te2-  Te226  1  0.41694032  0.41382040  0.07791985  1
  Te2-  Te227  1  0.41667692  0.41331360  0.41383468  1
  Te2-  Te228  1  0.41165810  0.41708007  0.74626150  1
  Te2-  Te229  1  0.41442719  0.74852372  0.07981555  1
  Te2-  Te230  1  0.41644402  0.74840538  0.41513002  1
  Te2-  Te231  1  0.40654380  0.74378626  0.74443221  1
  Te2-  Te232  1  0.74481838  0.07455113  0.08343048  1
  Te2-  Te233  1  0.75117025  0.08164294  0.41674570  1
  Te2-  Te234  1  0.74652580  0.06993594  0.74352809  1
  Te2-  Te235  1  0.74214495  0.41453876  0.07941586  1
  Te2-  Te236  1  0.75105839  0.41386189  0.41490412  1
  Te2-  Te237  1  0.74730404  0.41479032  0.74249906  1
  Te2-  Te238  1  0.74631819  0.74772339  0.08321111  1
  Te2-  Te239  1  0.75068748  0.74797949  0.41644255  1
  Te2-  Te240  1  0.75016007  0.74614624  0.74825038  1
