# generated using pymatgen
data_Ti27(Cu53Te54)2
_symmetry_space_group_name_H-M   'P 1'
_cell_length_a   17.87969472
_cell_length_b   17.87660225
_cell_length_c   17.87783814
_cell_angle_alpha   90.00839623
_cell_angle_beta   90.00135037
_cell_angle_gamma   89.97283535
_symmetry_Int_Tables_number   1
_chemical_formula_structural   Ti27(Cu53Te54)2
_chemical_formula_sum   'Ti27 Cu106 Te108'
_cell_volume   5714.26035392
_cell_formula_units_Z   1
loop_
 _symmetry_equiv_pos_site_id
 _symmetry_equiv_pos_as_xyz
  1  'x, y, z'
loop_
 _atom_type_symbol
 _atom_type_oxidation_number
  Ti4+  4.0
  Cu+  1.0
  Te2-  -2.0
loop_
 _atom_site_type_symbol
 _atom_site_label
 _atom_site_symmetry_multiplicity
 _atom_site_fract_x
 _atom_site_fract_y
 _atom_site_fract_z
 _atom_site_occupancy
  Ti4+  Ti0  1  0.16761609  0.16262806  0.16805980  1
  Ti4+  Ti1  1  0.16875673  0.16447052  0.50143169  1
  Ti4+  Ti2  1  0.16913289  0.16621852  0.83459345  1
  Ti4+  Ti3  1  0.16562517  0.49595722  0.16756851  1
  Ti4+  Ti4  1  0.16954067  0.49925898  0.50066219  1
  Ti4+  Ti5  1  0.16591940  0.49849394  0.83218729  1
  Ti4+  Ti6  1  0.16223755  0.83328261  0.16895316  1
  Ti4+  Ti7  1  0.16755626  0.83184702  0.49788072  1
  Ti4+  Ti8  1  0.16832124  0.83327445  0.83195785  1
  Ti4+  Ti9  1  0.49929554  0.16689805  0.16865106  1
  Ti4+  Ti10  1  0.49715899  0.16657960  0.49966822  1
  Ti4+  Ti11  1  0.49895876  0.16682127  0.83612021  1
  Ti4+  Ti12  1  0.49753020  0.50398274  0.16540531  1
  Ti4+  Ti13  1  0.50196405  0.50173185  0.49572965  1
  Ti4+  Ti14  1  0.50027875  0.49715344  0.83228465  1
  Ti4+  Ti15  1  0.49914123  0.83343622  0.16825925  1
  Ti4+  Ti16  1  0.49998185  0.83390066  0.49977641  1
  Ti4+  Ti17  1  0.50068339  0.83353960  0.83348386  1
  Ti4+  Ti18  1  0.83368895  0.16844995  0.16565031  1
  Ti4+  Ti19  1  0.83053537  0.16818473  0.50066753  1
  Ti4+  Ti20  1  0.83420574  0.17043475  0.83307909  1
  Ti4+  Ti21  1  0.83393874  0.50199482  0.16291741  1
  Ti4+  Ti22  1  0.83607464  0.50182943  0.49897562  1
  Ti4+  Ti23  1  0.82761989  0.49795207  0.83501629  1
  Ti4+  Ti24  1  0.83332780  0.83083502  0.16723534  1
  Ti4+  Ti25  1  0.83466906  0.83570475  0.49985310  1
  Ti4+  Ti26  1  0.83729292  0.83303832  0.83281492  1
  Cu+  Cu27  1  0.16729218  0.16469084  0.00253011  1
  Cu+  Cu28  1  0.17309922  0.16047331  0.33350891  1
  Cu+  Cu29  1  0.16879067  0.16912397  0.66850821  1
  Cu+  Cu30  1  0.16584471  0.49907443  0.00015358  1
  Cu+  Cu31  1  0.16787191  0.49618561  0.33588182  1
  Cu+  Cu32  1  0.16844250  0.50091926  0.66752917  1
  Cu+  Cu33  1  0.16580036  0.83352491  -0.00235514  1
  Cu+  Cu34  1  0.15529297  0.83263941  0.33328385  1
  Cu+  Cu35  1  0.17098829  0.83438746  0.66519498  1
  Cu+  Cu36  1  0.49768481  0.16506462  0.00184100  1
  Cu+  Cu37  1  0.50124025  0.16378863  0.33668396  1
  Cu+  Cu38  1  0.49774056  0.16703018  0.66777950  1
  Cu+  Cu39  1  0.49888274  0.49922507  -0.00367254  1
  Cu+  Cu40  1  0.49871193  0.50945909  0.33064162  1
  Cu+  Cu41  1  0.50207047  0.49801656  0.66539600  1
  Cu+  Cu42  1  0.49940682  0.83225845  0.00535297  1
  Cu+  Cu43  1  0.49843692  0.83440691  0.33303694  1
  Cu+  Cu44  1  0.50182431  0.83377808  0.66761538  1
  Cu+  Cu45  1  0.83679590  0.16623197  -0.00109986  1
  Cu+  Cu46  1  0.83133063  0.17003238  0.33307119  1
  Cu+  Cu47  1  0.82872800  0.17139965  0.66800667  1
  Cu+  Cu48  1  0.83382576  0.49810091  -0.00073358  1
  Cu+  Cu49  1  0.83469474  0.50518644  0.33219446  1
  Cu+  Cu50  1  0.82941703  0.49569385  0.66331220  1
  Cu+  Cu51  1  0.83436279  0.82684433  -0.00046102  1
  Cu+  Cu52  1  0.83669423  0.83648018  0.33225368  1
  Cu+  Cu53  1  0.83654879  0.83408612  0.66568377  1
  Cu+  Cu54  1  0.16618953  -0.00145775  0.16550667  1
  Cu+  Cu55  1  0.17158326  -0.00272794  0.49717051  1
  Cu+  Cu56  1  0.16944896  0.00000964  0.83278244  1
  Cu+  Cu57  1  0.16562291  0.32636433  0.16764995  1
  Cu+  Cu58  1  0.16949106  0.33264017  0.50424269  1
  Cu+  Cu59  1  0.16511461  0.33008944  0.82970087  1
  Cu+  Cu60  1  0.16231106  0.66323453  0.17089058  1
  Cu+  Cu61  1  0.17008335  0.66494746  0.50006633  1
  Cu+  Cu62  1  0.16606680  0.66748837  0.83214458  1
  Cu+  Cu63  1  0.49935016  -0.00182066  0.16909143  1
  Cu+  Cu64  1  0.50063744  0.00144683  0.49770933  1
  Cu+  Cu65  1  0.50073687  -0.00006088  0.83765701  1
  Cu+  Cu66  1  0.49673607  0.33475192  0.16602514  1
  Cu+  Cu67  1  0.49571522  0.33473362  0.50161689  1
  Cu+  Cu68  1  0.49560805  0.33376734  0.83533896  1
  Cu+  Cu69  1  0.50308621  0.66887521  0.16964091  1
  Cu+  Cu70  1  0.50033516  0.66776442  0.49454385  1
  Cu+  Cu71  1  0.50281165  0.66447313  0.82985883  1
  Cu+  Cu72  1  0.83385480  0.00082699  0.16673253  1
  Cu+  Cu73  1  0.82952331  0.00290518  0.50280897  1
  Cu+  Cu74  1  0.83776928  0.00107894  0.83276617  1
  Cu+  Cu75  1  0.83449111  0.33565484  0.16335724  1
  Cu+  Cu76  1  0.83203226  0.33555445  0.50220907  1
  Cu+  Cu77  1  0.82556220  0.33449940  0.82809357  1
  Cu+  Cu78  1  0.83705514  0.66984754  0.15756385  1
  Cu+  Cu79  1  0.83873869  0.66927344  0.49745645  1
  Cu+  Cu80  1  0.83007129  0.66840025  0.84091399  1
  Cu+  Cu81  1  0.00421462  0.16693366  0.16540058  1
  Cu+  Cu82  1  -0.00472652  0.16577594  0.50199698  1
  Cu+  Cu83  1  0.00246491  0.17039073  0.83155158  1
  Cu+  Cu84  1  -0.00182639  0.49667953  0.16281289  1
  Cu+  Cu85  1  0.00420261  0.50150797  0.50013894  1
  Cu+  Cu86  1  -0.00322202  0.49806633  0.83231114  1
  Cu+  Cu87  1  -0.00188492  0.82887755  0.17451140  1
  Cu+  Cu88  1  0.00153175  0.83526612  0.49371373  1
  Cu+  Cu89  1  0.00521247  0.83536318  0.82868441  1
  Cu+  Cu90  1  0.33137808  0.16756980  0.17216110  1
  Cu+  Cu91  1  0.32952744  0.16505490  0.50055090  1
  Cu+  Cu92  1  0.33695080  0.16175857  0.83849287  1
  Cu+  Cu93  1  0.33302283  0.49686716  0.16866594  1
  Cu+  Cu94  1  0.33756426  0.50173979  0.49753611  1
  Cu+  Cu95  1  0.33236498  0.49547081  0.83279592  1
  Cu+  Cu96  1  0.33165690  0.83184866  0.16883483  1
  Cu+  Cu97  1  0.33286732  0.83626504  0.50250341  1
  Cu+  Cu98  1  0.33417744  0.83114159  0.83342909  1
  Cu+  Cu99  1  0.66789477  0.16736534  0.16636642  1
  Cu+  Cu100  1  0.66047755  0.16536006  0.49691953  1
  Cu+  Cu101  1  0.66526894  0.17045573  0.83334336  1
  Cu+  Cu102  1  0.66470420  0.50724099  0.16635444  1
  Cu+  Cu103  1  0.67208880  0.50091877  0.49824569  1
  Cu+  Cu104  1  0.66271221  0.49919483  0.84035922  1
  Cu+  Cu105  1  0.66538206  0.83479464  0.16661399  1
  Cu+  Cu106  1  0.66856642  0.83345703  0.50015393  1
  Cu+  Cu107  1  0.67009225  0.83334318  0.83331756  1
  Cu+  Cu108  1  0.40407143  0.59891414  0.40501689  1
  Cu+  Cu109  1  0.07407416  0.25568699  0.73657280  1
  Cu+  Cu110  1  0.58450285  0.59517732  0.92608460  1
  Cu+  Cu111  1  0.41361793  0.40793581  0.26075586  1
  Cu+  Cu112  1  0.07272988  0.93201793  0.41107314  1
  Cu+  Cu113  1  0.93383575  0.74972745  0.07068090  1
  Cu+  Cu114  1  0.25738364  0.26102441  0.59836300  1
  Cu+  Cu115  1  0.07080101  0.73034278  0.26368462  1
  Cu+  Cu116  1  0.92652449  0.40527757  0.07315454  1
  Cu+  Cu117  1  0.92085814  0.93232090  0.25823110  1
  Cu+  Cu118  1  0.92871304  0.59197534  0.91898511  1
  Cu+  Cu119  1  0.26154212  0.06629229  0.40427262  1
  Cu+  Cu120  1  0.40062725  0.40786390  0.92733632  1
  Cu+  Cu121  1  0.59502093  0.06982113  0.40560523  1
  Cu+  Cu122  1  0.73822083  0.40711313  0.58651100  1
  Cu+  Cu123  1  0.73882771  0.40274600  0.93182940  1
  Cu+  Cu124  1  0.92531653  0.41396038  0.73611119  1
  Cu+  Cu125  1  0.73120142  0.25665716  0.73842652  1
  Cu+  Cu126  1  0.40822624  0.41348608  0.59262809  1
  Cu+  Cu127  1  0.59789818  0.59725242  0.26119918  1
  Cu+  Cu128  1  0.25690026  0.25802865  0.26165699  1
  Cu+  Cu129  1  0.40917919  0.06726457  0.93172849  1
  Cu+  Cu130  1  0.07710225  0.25464441  0.07288209  1
  Cu+  Cu131  1  0.73607990  0.74724092  0.92838721  1
  Cu+  Cu132  1  0.26292407  0.92396251  0.59657233  1
  Te2-  Te133  1  0.25437633  0.24975355  0.08112857  1
  Te2-  Te134  1  0.25293109  0.25439744  0.41471320  1
  Te2-  Te135  1  0.25990903  0.25166026  0.75125908  1
  Te2-  Te136  1  0.24930119  0.58360540  0.08462252  1
  Te2-  Te137  1  0.25270494  0.58592146  0.41205788  1
  Te2-  Te138  1  0.25283988  0.58432548  0.75023649  1
  Te2-  Te139  1  0.25000836  0.91512598  0.08258228  1
  Te2-  Te140  1  0.25449166  0.91416273  0.40610314  1
  Te2-  Te141  1  0.25693453  0.92052919  0.74851841  1
  Te2-  Te142  1  0.58310845  0.25187878  0.08310912  1
  Te2-  Te143  1  0.58143482  0.25578401  0.41531510  1
  Te2-  Te144  1  0.58050109  0.25525690  0.74697721  1
  Te2-  Te145  1  0.58368704  0.58886135  0.07789603  1
  Te2-  Te146  1  0.59258007  0.58827431  0.41368618  1
  Te2-  Te147  1  0.58779862  0.58192143  0.74558114  1
  Te2-  Te148  1  0.58491289  0.91981614  0.08251024  1
  Te2-  Te149  1  0.58728893  0.91786464  0.41293371  1
  Te2-  Te150  1  0.58687539  0.91942124  0.75069078  1
  Te2-  Te151  1  0.92210658  0.25327701  0.07748971  1
  Te2-  Te152  1  0.91690529  0.25345501  0.41653005  1
  Te2-  Te153  1  0.92071932  0.25735057  0.74395565  1
  Te2-  Te154  1  0.92411217  0.58798642  0.07497627  1
  Te2-  Te155  1  0.92306147  0.58563500  0.41390180  1
  Te2-  Te156  1  0.91149522  0.58487862  0.74828301  1
  Te2-  Te157  1  0.91990190  0.91523579  0.08079260  1
  Te2-  Te158  1  0.91907144  0.92744980  0.41352823  1
  Te2-  Te159  1  0.92079830  0.91960493  0.74677794  1
  Te2-  Te160  1  0.25592826  0.07185180  0.25132096  1
  Te2-  Te161  1  0.25298646  0.07786153  0.59048457  1
  Te2-  Te162  1  0.25220113  0.07843102  0.92286474  1
  Te2-  Te163  1  0.25273319  0.41034437  0.25489983  1
  Te2-  Te164  1  0.25651634  0.41453164  0.58971525  1
  Te2-  Te165  1  0.24860206  0.41065471  0.91925496  1
  Te2-  Te166  1  0.24752234  0.74841169  0.25442728  1
  Te2-  Te167  1  0.25389883  0.74626220  0.58443281  1
  Te2-  Te168  1  0.25158932  0.74687509  0.91898977  1
  Te2-  Te169  1  0.58706148  0.08022547  0.25166409  1
  Te2-  Te170  1  0.58254885  0.08202056  0.58720336  1
  Te2-  Te171  1  0.58788155  0.08344307  0.92052231  1
  Te2-  Te172  1  0.58380176  0.41823546  0.25090400  1
  Te2-  Te173  1  0.58685827  0.41428761  0.58277604  1
  Te2-  Te174  1  0.58487934  0.40763126  0.92230998  1
  Te2-  Te175  1  0.58873116  0.75007959  0.25600578  1
  Te2-  Te176  1  0.58504529  0.74789930  0.58333883  1
  Te2-  Te177  1  0.58545170  0.74739243  0.92210638  1
  Te2-  Te178  1  0.92028015  0.08557223  0.25290664  1
  Te2-  Te179  1  0.91434012  0.08354428  0.58876380  1
  Te2-  Te180  1  0.92200196  0.08422418  0.91573737  1
  Te2-  Te181  1  0.91638389  0.41661414  0.25198930  1
  Te2-  Te182  1  0.92416283  0.41401751  0.58408219  1
  Te2-  Te183  1  0.91760832  0.40837296  0.91826616  1
  Te2-  Te184  1  0.91653020  0.73988839  0.25742657  1
  Te2-  Te185  1  0.92284418  0.75129471  0.58309545  1
  Te2-  Te186  1  0.92970575  0.74634127  0.91751799  1
  Te2-  Te187  1  0.08254199  0.24741251  0.25829382  1
  Te2-  Te188  1  0.07885740  0.25180974  0.58435964  1
  Te2-  Te189  1  0.08204252  0.25273755  0.92063379  1
  Te2-  Te190  1  0.07732886  0.57779877  0.25483387  1
  Te2-  Te191  1  0.08467833  0.58563448  0.58581383  1
  Te2-  Te192  1  0.08131049  0.58486960  0.91795410  1
  Te2-  Te193  1  0.07566734  0.92662131  0.25337303  1
  Te2-  Te194  1  0.08232485  0.91893297  0.58328968  1
  Te2-  Te195  1  0.08253294  0.92001576  0.91706971  1
  Te2-  Te196  1  0.41391359  0.25294689  0.25834126  1
  Te2-  Te197  1  0.41077927  0.25295683  0.58864933  1
  Te2-  Te198  1  0.41148948  0.25361969  0.92331346  1
  Te2-  Te199  1  0.40807928  0.59226396  0.24963392  1
  Te2-  Te200  1  0.41860142  0.58689518  0.58513941  1
  Te2-  Te201  1  0.41310443  0.58538207  0.91522586  1
  Te2-  Te202  1  0.41218910  0.91850178  0.25302322  1
  Te2-  Te203  1  0.41705808  0.92191633  0.58707879  1
  Te2-  Te204  1  0.41368593  0.91553031  0.92220274  1
  Te2-  Te205  1  0.74853970  0.25532565  0.24925886  1
  Te2-  Te206  1  0.73937951  0.25388778  0.58489465  1
  Te2-  Te207  1  0.74661680  0.25177166  0.92356362  1
  Te2-  Te208  1  0.75191623  0.59125601  0.24935857  1
  Te2-  Te209  1  0.75125104  0.58980398  0.58369281  1
  Te2-  Te210  1  0.74235724  0.58796269  0.92559339  1
  Te2-  Te211  1  0.74770016  0.91900073  0.25134965  1
  Te2-  Te212  1  0.74794717  0.91807233  0.58698860  1
  Te2-  Te213  1  0.75336533  0.91916472  0.91950025  1
  Te2-  Te214  1  0.08101133  0.07748912  0.08019834  1
  Te2-  Te215  1  0.07879725  0.08321421  0.41491290  1
  Te2-  Te216  1  0.08332327  0.08159430  0.74793223  1
  Te2-  Te217  1  0.08116788  0.40981898  0.07808506  1
  Te2-  Te218  1  0.08344248  0.41187788  0.41801882  1
  Te2-  Te219  1  0.07972053  0.41294402  0.74324263  1
  Te2-  Te220  1  0.08261407  0.74575269  0.07934845  1
  Te2-  Te221  1  0.07898828  0.73992112  0.41631695  1
  Te2-  Te222  1  0.08410011  0.74847593  0.74373369  1
  Te2-  Te223  1  0.41175903  0.07985198  0.08583935  1
  Te2-  Te224  1  0.41129707  0.07891245  0.41345011  1
  Te2-  Te225  1  0.41611697  0.07957525  0.74875690  1
  Te2-  Te226  1  0.41205597  0.41490954  0.07888141  1
  Te2-  Te227  1  0.41496212  0.41391133  0.41032692  1
  Te2-  Te228  1  0.41301674  0.41208054  0.74497874  1
  Te2-  Te229  1  0.41324803  0.74626532  0.08447319  1
  Te2-  Te230  1  0.41079662  0.75095904  0.41294099  1
  Te2-  Te231  1  0.41667964  0.74723933  0.74793307  1
  Te2-  Te232  1  0.74989229  0.08193268  0.08032225  1
  Te2-  Te233  1  0.74732650  0.08159634  0.41244193  1
  Te2-  Te234  1  0.74818596  0.08203735  0.75123199  1
  Te2-  Te235  1  0.74172525  0.41560613  0.08297190  1
  Te2-  Te236  1  0.75140895  0.41637640  0.41064639  1
  Te2-  Te237  1  0.73628386  0.41485165  0.74389714  1
  Te2-  Te238  1  0.74159727  0.74642032  0.08131108  1
  Te2-  Te239  1  0.75111306  0.75029830  0.41346996  1
  Te2-  Te240  1  0.75178617  0.74761773  0.74683691  1
