# generated using pymatgen
data_Ti27(Cu53Te54)2
_symmetry_space_group_name_H-M   'P 1'
_cell_length_a   17.87878070
_cell_length_b   17.88043997
_cell_length_c   17.88094167
_cell_angle_alpha   89.95920510
_cell_angle_beta   89.96943972
_cell_angle_gamma   89.97264397
_symmetry_Int_Tables_number   1
_chemical_formula_structural   Ti27(Cu53Te54)2
_chemical_formula_sum   'Ti27 Cu106 Te108'
_cell_volume   5716.18483226
_cell_formula_units_Z   1
loop_
 _symmetry_equiv_pos_site_id
 _symmetry_equiv_pos_as_xyz
  1  'x, y, z'
loop_
 _atom_type_symbol
 _atom_type_oxidation_number
  Ti4+  4.0
  Cu+  1.0
  Te2-  -2.0
loop_
 _atom_site_type_symbol
 _atom_site_label
 _atom_site_symmetry_multiplicity
 _atom_site_fract_x
 _atom_site_fract_y
 _atom_site_fract_z
 _atom_site_occupancy
  Ti4+  Ti0  1  0.16670704  0.16561367  0.16615267  1
  Ti4+  Ti1  1  0.17127621  0.16548242  0.49875570  1
  Ti4+  Ti2  1  0.16472388  0.16817644  0.83529600  1
  Ti4+  Ti3  1  0.16819386  0.50308024  0.16719615  1
  Ti4+  Ti4  1  0.16824668  0.49836270  0.49861700  1
  Ti4+  Ti5  1  0.16481913  0.50215316  0.83093190  1
  Ti4+  Ti6  1  0.16675515  0.82969707  0.16650379  1
  Ti4+  Ti7  1  0.16568591  0.83328593  0.49930216  1
  Ti4+  Ti8  1  0.16482690  0.83334353  0.83444982  1
  Ti4+  Ti9  1  0.49825697  0.16681385  0.16650122  1
  Ti4+  Ti10  1  0.49850834  0.16912782  0.50572393  1
  Ti4+  Ti11  1  0.50069752  0.16317989  0.83128626  1
  Ti4+  Ti12  1  0.50205562  0.50294195  0.16648343  1
  Ti4+  Ti13  1  0.49791542  0.49799091  0.50074113  1
  Ti4+  Ti14  1  0.49814898  0.50015210  0.83585936  1
  Ti4+  Ti15  1  0.49997351  0.83536250  0.16545263  1
  Ti4+  Ti16  1  0.49835075  0.83141046  0.49761905  1
  Ti4+  Ti17  1  0.50164670  0.83440392  0.82968939  1
  Ti4+  Ti18  1  0.83181481  0.16709073  0.16727122  1
  Ti4+  Ti19  1  0.83483870  0.16872489  0.49981386  1
  Ti4+  Ti20  1  0.83527570  0.16821903  0.83404706  1
  Ti4+  Ti21  1  0.83335885  0.49534976  0.16532563  1
  Ti4+  Ti22  1  0.83455025  0.49823612  0.49787028  1
  Ti4+  Ti23  1  0.83229953  0.49992773  0.83488319  1
  Ti4+  Ti24  1  0.83407973  0.83338322  0.16692264  1
  Ti4+  Ti25  1  0.83248000  0.83329529  0.49994579  1
  Ti4+  Ti26  1  0.83422148  0.83242163  0.83620019  1
  Cu+  Cu27  1  0.16462955  0.16635603  0.00236515  1
  Cu+  Cu28  1  0.16626749  0.16387653  0.32971877  1
  Cu+  Cu29  1  0.17042828  0.16476402  0.67144846  1
  Cu+  Cu30  1  0.16714096  0.50363210  -0.00270896  1
  Cu+  Cu31  1  0.17133161  0.49926078  0.33196438  1
  Cu+  Cu32  1  0.16421269  0.50690188  0.66423210  1
  Cu+  Cu33  1  0.16151839  0.82593679  -0.00030870  1
  Cu+  Cu34  1  0.16818626  0.83289969  0.33287289  1
  Cu+  Cu35  1  0.16355397  0.83411971  0.66632751  1
  Cu+  Cu36  1  0.50111049  0.16135058  0.00061706  1
  Cu+  Cu37  1  0.49759975  0.16900762  0.33551577  1
  Cu+  Cu38  1  0.50010960  0.16354642  0.66490616  1
  Cu+  Cu39  1  0.49868828  0.50511352  0.00351906  1
  Cu+  Cu40  1  0.50307488  0.50007894  0.33250286  1
  Cu+  Cu41  1  0.49612896  0.49710840  0.67084381  1
  Cu+  Cu42  1  0.50100933  0.83562783  -0.00414945  1
  Cu+  Cu43  1  0.49745397  0.83291350  0.33265190  1
  Cu+  Cu44  1  0.50448516  0.83384667  0.66119307  1
  Cu+  Cu45  1  0.83466945  0.17106590  -0.00002510  1
  Cu+  Cu46  1  0.83262573  0.16736210  0.33379157  1
  Cu+  Cu47  1  0.83505795  0.16740718  0.66403555  1
  Cu+  Cu48  1  0.82429489  0.49662323  -0.00127239  1
  Cu+  Cu49  1  0.83858763  0.49342485  0.33167834  1
  Cu+  Cu50  1  0.83514589  0.49725230  0.66776002  1
  Cu+  Cu51  1  0.83867846  0.83511092  0.00086728  1
  Cu+  Cu52  1  0.83198493  0.83271306  0.33449647  1
  Cu+  Cu53  1  0.83144213  0.83358664  0.66924938  1
  Cu+  Cu54  1  0.16744788  -0.00348988  0.16687204  1
  Cu+  Cu55  1  0.16651637  -0.00270603  0.49900710  1
  Cu+  Cu56  1  0.16458505  0.00316837  0.83134946  1
  Cu+  Cu57  1  0.16505800  0.33278500  0.16496888  1
  Cu+  Cu58  1  0.17589407  0.33169699  0.49724471  1
  Cu+  Cu59  1  0.16116462  0.33721427  0.83244433  1
  Cu+  Cu60  1  0.16973390  0.66470335  0.17138613  1
  Cu+  Cu61  1  0.16645378  0.66708495  0.50057207  1
  Cu+  Cu62  1  0.16430954  0.66861342  0.83650020  1
  Cu+  Cu63  1  0.50113570  0.00516711  0.16452274  1
  Cu+  Cu64  1  0.50058496  -0.00171126  0.50320560  1
  Cu+  Cu65  1  0.50416949  -0.00449988  0.83462335  1
  Cu+  Cu66  1  0.50054269  0.33451074  0.16714438  1
  Cu+  Cu67  1  0.49294244  0.33388746  0.50707013  1
  Cu+  Cu68  1  0.49822646  0.32963036  0.83391266  1
  Cu+  Cu69  1  0.49948998  0.66935878  0.16292645  1
  Cu+  Cu70  1  0.49601088  0.66553513  0.49760752  1
  Cu+  Cu71  1  0.50142005  0.66973165  0.83003882  1
  Cu+  Cu72  1  0.83198613  0.00046068  0.16597929  1
  Cu+  Cu73  1  0.83405504  0.00390778  0.49905200  1
  Cu+  Cu74  1  0.83564535  -0.00214946  0.83430916  1
  Cu+  Cu75  1  0.82910163  0.33203882  0.16998563  1
  Cu+  Cu76  1  0.83759924  0.33401200  0.49483818  1
  Cu+  Cu77  1  0.83672485  0.33499380  0.83720544  1
  Cu+  Cu78  1  0.83531469  0.66484959  0.16487663  1
  Cu+  Cu79  1  0.83152139  0.66720120  0.50128395  1
  Cu+  Cu80  1  0.83170525  0.66631937  0.83478517  1
  Cu+  Cu81  1  0.00108499  0.16496743  0.16758692  1
  Cu+  Cu82  1  0.00440285  0.16676729  0.50000955  1
  Cu+  Cu83  1  -0.00076751  0.17302070  0.83861640  1
  Cu+  Cu84  1  -0.00089124  0.50357160  0.16857741  1
  Cu+  Cu85  1  -0.00020468  0.49506160  0.49184495  1
  Cu+  Cu86  1  -0.00406274  0.49789357  0.82726856  1
  Cu+  Cu87  1  0.00091960  0.82945605  0.16441503  1
  Cu+  Cu88  1  -0.00096312  0.83299393  0.49936503  1
  Cu+  Cu89  1  0.00042999  0.83120588  0.84199309  1
  Cu+  Cu90  1  0.33203214  0.16742823  0.16648037  1
  Cu+  Cu91  1  0.33446421  0.17284804  0.50585100  1
  Cu+  Cu92  1  0.33226901  0.16224920  0.83075693  1
  Cu+  Cu93  1  0.33710238  0.50731204  0.16741894  1
  Cu+  Cu94  1  0.33181616  0.49416626  0.50200805  1
  Cu+  Cu95  1  0.32882684  0.50567458  0.83572827  1
  Cu+  Cu96  1  0.33156516  0.83592270  0.16758633  1
  Cu+  Cu97  1  0.33209808  0.82998409  0.49683796  1
  Cu+  Cu98  1  0.33637998  0.83274599  0.82795137  1
  Cu+  Cu99  1  0.66277413  0.16642726  0.16547777  1
  Cu+  Cu100  1  0.66802174  0.17219387  0.50276427  1
  Cu+  Cu101  1  0.66791733  0.16531388  0.82884292  1
  Cu+  Cu102  1  0.67115471  0.49871335  0.16425209  1
  Cu+  Cu103  1  0.66681769  0.49985417  0.50049470  1
  Cu+  Cu104  1  0.66384246  0.49685941  0.83784534  1
  Cu+  Cu105  1  0.66843107  0.83325757  0.16692536  1
  Cu+  Cu106  1  0.66421411  0.83332620  0.49972120  1
  Cu+  Cu107  1  0.66920722  0.83822972  0.83183488  1
  Cu+  Cu108  1  0.92399767  0.40502427  0.73732494  1
  Cu+  Cu109  1  0.25948449  0.06909972  0.74486501  1
  Cu+  Cu110  1  0.59538159  0.92597904  0.58618027  1
  Cu+  Cu111  1  0.06938827  0.73427099  0.93030395  1
  Cu+  Cu112  1  0.74606453  0.92920472  0.74016102  1
  Cu+  Cu113  1  0.92239625  0.59467909  0.26000297  1
  Cu+  Cu114  1  0.93047462  0.92923911  0.92841400  1
  Cu+  Cu115  1  0.25896828  0.92847475  0.26075948  1
  Cu+  Cu116  1  0.73814825  0.40616601  0.26322858  1
  Cu+  Cu117  1  0.59580233  0.92100859  0.92821520  1
  Cu+  Cu118  1  0.40425362  0.41104501  0.60320116  1
  Cu+  Cu119  1  0.25941601  0.59744537  0.59149491  1
  Cu+  Cu120  1  0.25201709  0.26019002  0.60201945  1
  Cu+  Cu121  1  0.73288878  0.40142112  0.92258481  1
  Cu+  Cu122  1  0.92884668  0.26568384  0.93327357  1
  Cu+  Cu123  1  0.25758078  0.59723711  0.92537559  1
  Cu+  Cu124  1  0.74527140  0.59680315  0.07302849  1
  Cu+  Cu125  1  0.26615057  0.59279254  0.26399692  1
  Cu+  Cu126  1  0.26116995  0.40619997  0.39962626  1
  Cu+  Cu127  1  0.40746223  0.59885803  0.07398021  1
  Cu+  Cu128  1  0.40537921  0.06690642  0.58708507  1
  Cu+  Cu129  1  0.93141352  0.40084035  0.40144759  1
  Cu+  Cu130  1  0.59606430  0.07631340  0.07351124  1
  Cu+  Cu131  1  0.41108763  0.25917173  0.40414969  1
  Cu+  Cu132  1  0.59861021  0.26507767  0.59193056  1
  Te2-  Te133  1  0.25157601  0.25234603  0.08070906  1
  Te2-  Te134  1  0.25662068  0.25035636  0.40585981  1
  Te2-  Te135  1  0.25312280  0.25728970  0.75300857  1
  Te2-  Te136  1  0.25389488  0.59113400  0.07773322  1
  Te2-  Te137  1  0.25608564  0.58729209  0.41579289  1
  Te2-  Te138  1  0.25101688  0.59134502  0.74602232  1
  Te2-  Te139  1  0.24870029  0.91462775  0.07702475  1
  Te2-  Te140  1  0.25431762  0.91957371  0.41408641  1
  Te2-  Te141  1  0.25108092  0.91769360  0.74669013  1
  Te2-  Te142  1  0.58279198  0.25325908  0.07947024  1
  Te2-  Te143  1  0.58222365  0.25599284  0.41838695  1
  Te2-  Te144  1  0.58571940  0.25200799  0.74652359  1
  Te2-  Te145  1  0.59023024  0.58878969  0.08090349  1
  Te2-  Te146  1  0.58418058  0.58377627  0.41702064  1
  Te2-  Te147  1  0.58468583  0.58183139  0.74924458  1
  Te2-  Te148  1  0.58938983  0.92129488  0.08049373  1
  Te2-  Te149  1  0.58329864  0.91959852  0.41270930  1
  Te2-  Te150  1  0.58947921  0.92302222  0.74097510  1
  Te2-  Te151  1  0.92038521  0.25445212  0.08491329  1
  Te2-  Te152  1  0.92414625  0.25001079  0.41140742  1
  Te2-  Te153  1  0.92012987  0.25322712  0.74538029  1
  Te2-  Te154  1  0.91707165  0.58112958  0.07633831  1
  Te2-  Te155  1  0.91896421  0.58814519  0.41335008  1
  Te2-  Te156  1  0.91542961  0.58803826  0.74757435  1
  Te2-  Te157  1  0.92221073  0.92120018  0.08330602  1
  Te2-  Te158  1  0.91726413  0.91895612  0.41482014  1
  Te2-  Te159  1  0.92256364  0.91553108  0.74996974  1
  Te2-  Te160  1  0.25455935  0.07975535  0.25218074  1
  Te2-  Te161  1  0.25358447  0.07501964  0.58750039  1
  Te2-  Te162  1  0.24999010  0.08150373  0.92039926  1
  Te2-  Te163  1  0.25640076  0.41289541  0.24681549  1
  Te2-  Te164  1  0.25165146  0.41237489  0.59445910  1
  Te2-  Te165  1  0.24919524  0.41518789  0.91724095  1
  Te2-  Te166  1  0.25619717  0.74608416  0.25506615  1
  Te2-  Te167  1  0.25233124  0.74907890  0.58772775  1
  Te2-  Te168  1  0.25683373  0.74985616  0.91821068  1
  Te2-  Te169  1  0.58339064  0.08329330  0.25641605  1
  Te2-  Te170  1  0.59050245  0.08111071  0.58635972  1
  Te2-  Te171  1  0.59090163  0.07895668  0.91761879  1
  Te2-  Te172  1  0.58660761  0.41407549  0.25189784  1
  Te2-  Te173  1  0.58676056  0.41596939  0.58852073  1
  Te2-  Te174  1  0.57961446  0.41179724  0.92347159  1
  Te2-  Te175  1  0.58417587  0.74965770  0.25023705  1
  Te2-  Te176  1  0.58433956  0.74320208  0.58175547  1
  Te2-  Te177  1  0.58787282  0.74943945  0.91590349  1
  Te2-  Te178  1  0.91668883  0.08164338  0.25167915  1
  Te2-  Te179  1  0.92126411  0.08306960  0.58413509  1
  Te2-  Te180  1  0.92000745  0.08160603  0.92119062  1
  Te2-  Te181  1  0.92503281  0.40745851  0.24909514  1
  Te2-  Te182  1  0.92196730  0.41256011  0.58434205  1
  Te2-  Te183  1  0.92235030  0.41759962  0.92479186  1
  Te2-  Te184  1  0.91946976  0.74742941  0.25351614  1
  Te2-  Te185  1  0.91714198  0.74891056  0.58645683  1
  Te2-  Te186  1  0.91720091  0.74150667  0.92334624  1
  Te2-  Te187  1  0.08166193  0.25184230  0.25188725  1
  Te2-  Te188  1  0.08720647  0.25174931  0.58466444  1
  Te2-  Te189  1  0.08202162  0.25692463  0.92376701  1
  Te2-  Te190  1  0.08074390  0.58627402  0.25658063  1
  Te2-  Te191  1  0.07653772  0.58339801  0.57849398  1
  Te2-  Te192  1  0.07424825  0.58314587  0.91779270  1
  Te2-  Te193  1  0.07996474  0.91512834  0.25109259  1
  Te2-  Te194  1  0.07989261  0.91879141  0.58435614  1
  Te2-  Te195  1  0.08307901  0.92323763  0.92215470  1
  Te2-  Te196  1  0.41210094  0.25500827  0.25089824  1
  Te2-  Te197  1  0.40862770  0.25685941  0.59882630  1
  Te2-  Te198  1  0.41488492  0.24507577  0.91803641  1
  Te2-  Te199  1  0.41891408  0.59055231  0.25656952  1
  Te2-  Te200  1  0.41302754  0.58567915  0.58690341  1
  Te2-  Te201  1  0.41423046  0.59280658  0.91936301  1
  Te2-  Te202  1  0.41587007  0.92253905  0.25150246  1
  Te2-  Te203  1  0.40949304  0.91509124  0.58612568  1
  Te2-  Te204  1  0.41276188  0.91839375  0.91550471  1
  Te2-  Te205  1  0.74289729  0.25004755  0.25447382  1
  Te2-  Te206  1  0.75180489  0.25830900  0.58702486  1
  Te2-  Te207  1  0.74384202  0.25114789  0.91819451  1
  Te2-  Te208  1  0.75061861  0.58283492  0.25415664  1
  Te2-  Te209  1  0.75000385  0.58146672  0.58588182  1
  Te2-  Te210  1  0.74329717  0.58877110  0.91860142  1
  Te2-  Te211  1  0.74887866  0.91847443  0.25179873  1
  Te2-  Te212  1  0.74765975  0.92328971  0.58593806  1
  Te2-  Te213  1  0.74877377  0.92129637  0.92423015  1
  Te2-  Te214  1  0.08125822  0.07876948  0.08254876  1
  Te2-  Te215  1  0.08426141  0.08114193  0.41486041  1
  Te2-  Te216  1  0.07619212  0.08560242  0.74927463  1
  Te2-  Te217  1  0.08261784  0.41971630  0.08206519  1
  Te2-  Te218  1  0.08599186  0.40920819  0.41063972  1
  Te2-  Te219  1  0.08036190  0.41554486  0.74215827  1
  Te2-  Te220  1  0.07930513  0.73923180  0.08352823  1
  Te2-  Te221  1  0.08148996  0.74775618  0.41406344  1
  Te2-  Te222  1  0.07900316  0.74911482  0.74889944  1
  Te2-  Te223  1  0.41076458  0.08136557  0.08089216  1
  Te2-  Te224  1  0.41387862  0.08166016  0.41972689  1
  Te2-  Te225  1  0.41511040  0.07402715  0.74590039  1
  Te2-  Te226  1  0.41478734  0.41654485  0.08341077  1
  Te2-  Te227  1  0.41359532  0.41272745  0.40821915  1
  Te2-  Te228  1  0.40871925  0.41350516  0.75499603  1
  Te2-  Te229  1  0.41322429  0.75266355  0.07760456  1
  Te2-  Te230  1  0.41256571  0.74602327  0.41178535  1
  Te2-  Te231  1  0.41771366  0.74923442  0.74267852  1
  Te2-  Te232  1  0.74857351  0.08159399  0.07866802  1
  Te2-  Te233  1  0.74617698  0.08506613  0.41635913  1
  Te2-  Te234  1  0.75150916  0.08174483  0.74607155  1
  Te2-  Te235  1  0.74407395  0.40617980  0.07898451  1
  Te2-  Te236  1  0.74460437  0.41253735  0.41428237  1
  Te2-  Te237  1  0.74676280  0.41320098  0.74988108  1
  Te2-  Te238  1  0.74841206  0.74921551  0.07907611  1
  Te2-  Te239  1  0.74613647  0.74803964  0.41548681  1
  Te2-  Te240  1  0.74728951  0.74698067  0.75024179  1
