# generated using pymatgen
data_Ti27(Cu53Te54)2
_symmetry_space_group_name_H-M   'P 1'
_cell_length_a   17.87930652
_cell_length_b   17.88572190
_cell_length_c   17.88317473
_cell_angle_alpha   89.98231688
_cell_angle_beta   89.93520264
_cell_angle_gamma   89.99811581
_symmetry_Int_Tables_number   1
_chemical_formula_structural   Ti27(Cu53Te54)2
_chemical_formula_sum   'Ti27 Cu106 Te108'
_cell_volume   5718.75465417
_cell_formula_units_Z   1
loop_
 _symmetry_equiv_pos_site_id
 _symmetry_equiv_pos_as_xyz
  1  'x, y, z'
loop_
 _atom_type_symbol
 _atom_type_oxidation_number
  Ti4+  4.0
  Cu+  1.0
  Te2-  -2.0
loop_
 _atom_site_type_symbol
 _atom_site_label
 _atom_site_symmetry_multiplicity
 _atom_site_fract_x
 _atom_site_fract_y
 _atom_site_fract_z
 _atom_site_occupancy
  Ti4+  Ti0  1  0.16653323  0.17036304  0.16744795  1
  Ti4+  Ti1  1  0.16793635  0.16536666  0.50146377  1
  Ti4+  Ti2  1  0.16293828  0.16585451  0.83311726  1
  Ti4+  Ti3  1  0.16624859  0.50309700  0.16615487  1
  Ti4+  Ti4  1  0.16736392  0.50059814  0.49980012  1
  Ti4+  Ti5  1  0.16480819  0.49974513  0.83146039  1
  Ti4+  Ti6  1  0.16650206  0.83624139  0.16459391  1
  Ti4+  Ti7  1  0.16729363  0.83353904  0.49973208  1
  Ti4+  Ti8  1  0.16868455  0.83370782  0.83338298  1
  Ti4+  Ti9  1  0.50098029  0.16552769  0.16449103  1
  Ti4+  Ti10  1  0.50346828  0.16216705  0.49937539  1
  Ti4+  Ti11  1  0.49963970  0.16726705  0.83213496  1
  Ti4+  Ti12  1  0.50072138  0.50362081  0.16407569  1
  Ti4+  Ti13  1  0.50018802  0.49851307  0.49688337  1
  Ti4+  Ti14  1  0.49846185  0.49881895  0.82956109  1
  Ti4+  Ti15  1  0.49910220  0.83352428  0.16824016  1
  Ti4+  Ti16  1  0.49958966  0.83100988  0.49765588  1
  Ti4+  Ti17  1  0.50047807  0.83413321  0.83620057  1
  Ti4+  Ti18  1  0.83308115  0.16336018  0.16940629  1
  Ti4+  Ti19  1  0.83209339  0.17085700  0.50255401  1
  Ti4+  Ti20  1  0.82950324  0.16450446  0.83288641  1
  Ti4+  Ti21  1  0.83314602  0.49590055  0.17017641  1
  Ti4+  Ti22  1  0.83334653  0.50232714  0.49870145  1
  Ti4+  Ti23  1  0.83375861  0.50054035  0.83394161  1
  Ti4+  Ti24  1  0.83313856  0.83212075  0.16854078  1
  Ti4+  Ti25  1  0.83500191  0.83110927  0.50151781  1
  Ti4+  Ti26  1  0.83324297  0.83352505  0.83634928  1
  Cu+  Cu27  1  0.16684197  0.17378747  -0.00251254  1
  Cu+  Cu28  1  0.16536843  0.16372209  0.33576850  1
  Cu+  Cu29  1  0.16714567  0.16154154  0.66810279  1
  Cu+  Cu30  1  0.16496454  0.50185107  -0.00165841  1
  Cu+  Cu31  1  0.16551400  0.50110154  0.33249606  1
  Cu+  Cu32  1  0.16633641  0.49715651  0.66625993  1
  Cu+  Cu33  1  0.17037295  0.83359317  -0.00102600  1
  Cu+  Cu34  1  0.16610200  0.83462217  0.33234765  1
  Cu+  Cu35  1  0.16900804  0.83324837  0.66563016  1
  Cu+  Cu36  1  0.49533790  0.16992319  0.00214333  1
  Cu+  Cu37  1  0.50266836  0.16184323  0.32909132  1
  Cu+  Cu38  1  0.50719546  0.16242305  0.66640439  1
  Cu+  Cu39  1  0.50153567  0.50143850  -0.00784020  1
  Cu+  Cu40  1  0.49661768  0.50322877  0.33135971  1
  Cu+  Cu41  1  0.50119661  0.50021579  0.66359392  1
  Cu+  Cu42  1  0.50039296  0.83789686  0.00104685  1
  Cu+  Cu43  1  0.49650601  0.83952223  0.33475678  1
  Cu+  Cu44  1  0.49879263  0.82972228  0.66599808  1
  Cu+  Cu45  1  0.83093078  0.16457668  0.00109293  1
  Cu+  Cu46  1  0.83451497  0.17198581  0.33744692  1
  Cu+  Cu47  1  0.82273203  0.16662588  0.66725213  1
  Cu+  Cu48  1  0.82986268  0.49494816  0.00224369  1
  Cu+  Cu49  1  0.83716445  0.50128629  0.33286343  1
  Cu+  Cu50  1  0.83648075  0.50268060  0.66444369  1
  Cu+  Cu51  1  0.83331670  0.83160195  0.00095256  1
  Cu+  Cu52  1  0.83363663  0.83059439  0.33759343  1
  Cu+  Cu53  1  0.83381084  0.83240990  0.67115930  1
  Cu+  Cu54  1  0.16524349  0.00641314  0.16932231  1
  Cu+  Cu55  1  0.16702324  -0.00121402  0.50211879  1
  Cu+  Cu56  1  0.16700024  0.00017870  0.83099253  1
  Cu+  Cu57  1  0.16408224  0.34130195  0.16850772  1
  Cu+  Cu58  1  0.16769382  0.33015054  0.49950605  1
  Cu+  Cu59  1  0.16328759  0.33291629  0.83389499  1
  Cu+  Cu60  1  0.16755508  0.67111269  0.16230040  1
  Cu+  Cu61  1  0.16705230  0.66955221  0.49951868  1
  Cu+  Cu62  1  0.16695841  0.66533307  0.83302127  1
  Cu+  Cu63  1  0.49843711  -0.00401278  0.16808474  1
  Cu+  Cu64  1  0.49893094  -0.00538964  0.49555640  1
  Cu+  Cu65  1  0.50424115  0.00150246  0.83589661  1
  Cu+  Cu66  1  0.49966131  0.33567127  0.16334509  1
  Cu+  Cu67  1  0.50185469  0.33051830  0.49897143  1
  Cu+  Cu68  1  0.49470905  0.33698286  0.83075064  1
  Cu+  Cu69  1  0.50793071  0.66891999  0.16664702  1
  Cu+  Cu70  1  0.49841915  0.66356583  0.49718549  1
  Cu+  Cu71  1  0.50012819  0.66405397  0.83470045  1
  Cu+  Cu72  1  0.83406823  -0.00220148  0.16990882  1
  Cu+  Cu73  1  0.83461942  -0.00091242  0.50247255  1
  Cu+  Cu74  1  0.83359145  -0.00321866  0.83528640  1
  Cu+  Cu75  1  0.83497178  0.32483217  0.16895829  1
  Cu+  Cu76  1  0.82890175  0.33676280  0.49284095  1
  Cu+  Cu77  1  0.83087750  0.33428980  0.83388343  1
  Cu+  Cu78  1  0.83476244  0.66448668  0.17034104  1
  Cu+  Cu79  1  0.83896836  0.66604299  0.50389342  1
  Cu+  Cu80  1  0.83287239  0.67039254  0.83416579  1
  Cu+  Cu81  1  0.00051844  0.16348297  0.17412295  1
  Cu+  Cu82  1  0.00030666  0.16704132  0.50376141  1
  Cu+  Cu83  1  -0.00368151  0.16534741  0.83238136  1
  Cu+  Cu84  1  0.00172141  0.49840880  0.17480415  1
  Cu+  Cu85  1  -0.00112344  0.50270659  0.50171606  1
  Cu+  Cu86  1  0.00010145  0.49837395  0.83326702  1
  Cu+  Cu87  1  0.00022687  0.83462357  0.16614983  1
  Cu+  Cu88  1  0.00204004  0.83313196  0.50062524  1
  Cu+  Cu89  1  0.00127443  0.83223744  0.83494718  1
  Cu+  Cu90  1  0.33531252  0.17114148  0.16236966  1
  Cu+  Cu91  1  0.33492847  0.16364083  0.49941803  1
  Cu+  Cu92  1  0.32716701  0.16507745  0.83318403  1
  Cu+  Cu93  1  0.33305215  0.50293505  0.16415184  1
  Cu+  Cu94  1  0.33432476  0.49742452  0.49374887  1
  Cu+  Cu95  1  0.33225087  0.49780214  0.82814188  1
  Cu+  Cu96  1  0.33029130  0.83320496  0.15904455  1
  Cu+  Cu97  1  0.33257801  0.83366733  0.49669585  1
  Cu+  Cu98  1  0.33548396  0.83398238  0.83501201  1
  Cu+  Cu99  1  0.66776669  0.16428112  0.16257096  1
  Cu+  Cu100  1  0.66781347  0.16921314  0.50626645  1
  Cu+  Cu101  1  0.66614135  0.16658450  0.82575078  1
  Cu+  Cu102  1  0.66841965  0.50251629  0.16434705  1
  Cu+  Cu103  1  0.66645550  0.50135726  0.50136238  1
  Cu+  Cu104  1  0.66398969  0.50021703  0.83331604  1
  Cu+  Cu105  1  0.66526765  0.83046336  0.17251872  1
  Cu+  Cu106  1  0.66950982  0.82785816  0.49985173  1
  Cu+  Cu107  1  0.66746351  0.83835533  0.83804830  1
  Cu+  Cu108  1  0.92930644  0.25467894  0.26417529  1
  Cu+  Cu109  1  0.93077870  0.59707902  0.25726713  1
  Cu+  Cu110  1  0.74197562  0.25414759  0.07115880  1
  Cu+  Cu111  1  0.40323800  0.92687786  0.07203581  1
  Cu+  Cu112  1  0.59224823  0.06756994  0.74076058  1
  Cu+  Cu113  1  0.59489149  0.75058636  0.07264581  1
  Cu+  Cu114  1  0.93179394  0.59509982  0.59718710  1
  Cu+  Cu115  1  0.58824850  0.26250812  0.59407408  1
  Cu+  Cu116  1  0.59538025  0.92667390  0.26337293  1
  Cu+  Cu117  1  0.25752733  0.07029506  0.73893795  1
  Cu+  Cu118  1  0.07364349  0.07038211  0.26594725  1
  Cu+  Cu119  1  0.40576145  0.26688467  0.07669348  1
  Cu+  Cu120  1  0.74377210  0.26759229  0.74177764  1
  Cu+  Cu121  1  0.59348531  0.59126281  0.91991152  1
  Cu+  Cu122  1  0.59493650  0.58919142  0.26200300  1
  Cu+  Cu123  1  0.59701326  0.93510742  0.92892194  1
  Cu+  Cu124  1  0.07690402  0.40995602  0.26654951  1
  Cu+  Cu125  1  0.40266196  0.59268842  0.40443173  1
  Cu+  Cu126  1  0.74399038  0.06625856  0.59017428  1
  Cu+  Cu127  1  0.25638691  0.26349719  0.92047475  1
  Cu+  Cu128  1  0.73608760  0.26121635  0.40508314  1
  Cu+  Cu129  1  0.40027651  0.92922184  0.40905414  1
  Cu+  Cu130  1  0.75227478  0.59419934  0.07439825  1
  Cu+  Cu131  1  0.25819613  0.73798265  0.06874498  1
  Cu+  Cu132  1  0.59018269  0.59467720  0.59216774  1
  Te2-  Te133  1  0.25119017  0.26065089  0.08080924  1
  Te2-  Te134  1  0.25343960  0.24923648  0.41467115  1
  Te2-  Te135  1  0.24943988  0.25296652  0.74671376  1
  Te2-  Te136  1  0.25286759  0.58639851  0.07714788  1
  Te2-  Te137  1  0.25069297  0.58763030  0.41195460  1
  Te2-  Te138  1  0.25070214  0.58477931  0.74585822  1
  Te2-  Te139  1  0.24963749  0.92730612  0.07908942  1
  Te2-  Te140  1  0.25046689  0.92197730  0.41145677  1
  Te2-  Te141  1  0.25624290  0.91808053  0.74621796  1
  Te2-  Te142  1  0.58705369  0.25395588  0.07905225  1
  Te2-  Te143  1  0.58547204  0.24971789  0.41046632  1
  Te2-  Te144  1  0.58534843  0.25929672  0.74690384  1
  Te2-  Te145  1  0.59013354  0.58894988  0.07365856  1
  Te2-  Te146  1  0.58906128  0.58658100  0.41241299  1
  Te2-  Te147  1  0.58671018  0.58769305  0.74524853  1
  Te2-  Te148  1  0.59084775  0.92029097  0.08243785  1
  Te2-  Te149  1  0.59199212  0.91707208  0.41536123  1
  Te2-  Te150  1  0.58530587  0.91592460  0.74508672  1
  Te2-  Te151  1  0.92101412  0.24619678  0.08201607  1
  Te2-  Te152  1  0.92384038  0.25551885  0.41858629  1
  Te2-  Te153  1  0.91413736  0.25008075  0.74675782  1
  Te2-  Te154  1  0.91918315  0.58028025  0.08343055  1
  Te2-  Te155  1  0.92216439  0.58815600  0.41235815  1
  Te2-  Te156  1  0.92000152  0.58788732  0.75026366  1
  Te2-  Te157  1  0.91701238  0.91755767  0.08279956  1
  Te2-  Te158  1  0.91886398  0.91832600  0.41679809  1
  Te2-  Te159  1  0.91989520  0.91764985  0.75045098  1
  Te2-  Te160  1  0.25552304  0.08666788  0.25055167  1
  Te2-  Te161  1  0.25559201  0.07782476  0.58556723  1
  Te2-  Te162  1  0.24888982  0.08011555  0.92147167  1
  Te2-  Te163  1  0.25471494  0.41843906  0.25173526  1
  Te2-  Te164  1  0.25292821  0.41442777  0.58238254  1
  Te2-  Te165  1  0.25220844  0.41569927  0.91868266  1
  Te2-  Te166  1  0.25200151  0.75066011  0.25067664  1
  Te2-  Te167  1  0.25431670  0.74843754  0.58425287  1
  Te2-  Te168  1  0.25546392  0.74532305  0.91747179  1
  Te2-  Te169  1  0.58861726  0.07852712  0.24955875  1
  Te2-  Te170  1  0.58835506  0.07038147  0.58461042  1
  Te2-  Te171  1  0.58731701  0.08750040  0.92271411  1
  Te2-  Te172  1  0.58351320  0.41694020  0.24945095  1
  Te2-  Te173  1  0.58717567  0.41354664  0.58502471  1
  Te2-  Te174  1  0.58470604  0.41113202  0.91604030  1
  Te2-  Te175  1  0.58470800  0.74800085  0.26079077  1
  Te2-  Te176  1  0.58517675  0.74594148  0.58510642  1
  Te2-  Te177  1  0.58834557  0.74588707  0.92080072  1
  Te2-  Te178  1  0.91690310  0.07746984  0.25971262  1
  Te2-  Te179  1  0.91605112  0.08457063  0.58910041  1
  Te2-  Te180  1  0.91592836  0.08142609  0.91882675  1
  Te2-  Te181  1  0.91978983  0.40793239  0.25752711  1
  Te2-  Te182  1  0.91659482  0.41286143  0.58225955  1
  Te2-  Te183  1  0.91705234  0.41379531  0.91886717  1
  Te2-  Te184  1  0.92139112  0.74901576  0.25416141  1
  Te2-  Te185  1  0.92274253  0.74906765  0.59015679  1
  Te2-  Te186  1  0.91976172  0.74759264  0.92074291  1
  Te2-  Te187  1  0.08180902  0.25650804  0.25783033  1
  Te2-  Te188  1  0.08363712  0.25028677  0.58809931  1
  Te2-  Te189  1  0.07480703  0.25274274  0.91706619  1
  Te2-  Te190  1  0.08344150  0.59338264  0.25314452  1
  Te2-  Te191  1  0.08348492  0.58742488  0.58706706  1
  Te2-  Te192  1  0.07983474  0.58595824  0.91735172  1
  Te2-  Te193  1  0.07958204  0.91992486  0.25274352  1
  Te2-  Te194  1  0.08198712  0.91802449  0.58679027  1
  Te2-  Te195  1  0.08359911  0.91876821  0.91842369  1
  Te2-  Te196  1  0.41816409  0.25208126  0.25163317  1
  Te2-  Te197  1  0.41791079  0.24690118  0.58507326  1
  Te2-  Te198  1  0.41125584  0.25453906  0.91745285  1
  Te2-  Te199  1  0.41234595  0.59054162  0.24766104  1
  Te2-  Te200  1  0.41242479  0.58289550  0.58300183  1
  Te2-  Te201  1  0.41042444  0.58359666  0.91514453  1
  Te2-  Te202  1  0.40678121  0.91874595  0.25172877  1
  Te2-  Te203  1  0.41523617  0.91595154  0.58516772  1
  Te2-  Te204  1  0.41275294  0.92303933  0.91910835  1
  Te2-  Te205  1  0.74228671  0.25088356  0.25388370  1
  Te2-  Te206  1  0.74451873  0.26334476  0.58873022  1
  Te2-  Te207  1  0.74388254  0.25174167  0.91867356  1
  Te2-  Te208  1  0.74691314  0.58587349  0.25611921  1
  Te2-  Te209  1  0.74698631  0.58797296  0.58670774  1
  Te2-  Te210  1  0.74749699  0.58801431  0.92049056  1
  Te2-  Te211  1  0.74900240  0.91760667  0.25664255  1
  Te2-  Te212  1  0.74686166  0.91443272  0.58779426  1
  Te2-  Te213  1  0.74855179  0.92184349  0.92515954  1
  Te2-  Te214  1  0.08194903  0.08700747  0.08002872  1
  Te2-  Te215  1  0.07840934  0.07869612  0.41830479  1
  Te2-  Te216  1  0.07686134  0.07929825  0.74778442  1
  Te2-  Te217  1  0.07894137  0.41869648  0.08014343  1
  Te2-  Te218  1  0.07959542  0.41396450  0.41741737  1
  Te2-  Te219  1  0.07955459  0.41292256  0.74677422  1
  Te2-  Te220  1  0.07973766  0.75131328  0.07894298  1
  Te2-  Te221  1  0.08156363  0.74882134  0.41333647  1
  Te2-  Te222  1  0.08387249  0.74894688  0.74844728  1
  Te2-  Te223  1  0.41317885  0.07867488  0.08012171  1
  Te2-  Te224  1  0.41517668  0.08039663  0.41130712  1
  Te2-  Te225  1  0.41438709  0.08031189  0.74800201  1
  Te2-  Te226  1  0.41486588  0.41965133  0.07669988  1
  Te2-  Te227  1  0.41718606  0.40998330  0.41134791  1
  Te2-  Te228  1  0.41304339  0.41495252  0.74146666  1
  Te2-  Te229  1  0.41571855  0.74484169  0.07901163  1
  Te2-  Te230  1  0.41270933  0.74598874  0.41099704  1
  Te2-  Te231  1  0.41642339  0.74759537  0.75115763  1
  Te2-  Te232  1  0.74944275  0.07589811  0.08254374  1
  Te2-  Te233  1  0.74872280  0.08320808  0.41683878  1
  Te2-  Te234  1  0.74465766  0.07099602  0.74669059  1
  Te2-  Te235  1  0.74712263  0.40800721  0.08438752  1
  Te2-  Te236  1  0.74407040  0.41905589  0.40987780  1
  Te2-  Te237  1  0.74677867  0.41943049  0.74567379  1
  Te2-  Te238  1  0.74725551  0.74560591  0.08124105  1
  Te2-  Te239  1  0.75109058  0.74279292  0.41696597  1
  Te2-  Te240  1  0.74511867  0.74990727  0.75106360  1
