# generated using pymatgen
data_Ti27(Cu53Te54)2
_symmetry_space_group_name_H-M   'P 1'
_cell_length_a   17.86749024
_cell_length_b   17.87133516
_cell_length_c   17.86929159
_cell_angle_alpha   89.99240176
_cell_angle_beta   90.00582054
_cell_angle_gamma   90.03528047
_symmetry_Int_Tables_number   1
_chemical_formula_structural   Ti27(Cu53Te54)2
_chemical_formula_sum   'Ti27 Cu106 Te108'
_cell_volume   5705.94788387
_cell_formula_units_Z   1
loop_
 _symmetry_equiv_pos_site_id
 _symmetry_equiv_pos_as_xyz
  1  'x, y, z'
loop_
 _atom_type_symbol
 _atom_type_oxidation_number
  Ti4+  4.0
  Cu+  1.0
  Te2-  -2.0
loop_
 _atom_site_type_symbol
 _atom_site_label
 _atom_site_symmetry_multiplicity
 _atom_site_fract_x
 _atom_site_fract_y
 _atom_site_fract_z
 _atom_site_occupancy
  Ti4+  Ti0  1  0.16739019  0.16518040  0.16463689  1
  Ti4+  Ti1  1  0.16676136  0.16780666  0.49925119  1
  Ti4+  Ti2  1  0.16580755  0.16832682  0.83513884  1
  Ti4+  Ti3  1  0.16838399  0.49918206  0.16565881  1
  Ti4+  Ti4  1  0.16638794  0.50061758  0.50223808  1
  Ti4+  Ti5  1  0.16667653  0.49982926  0.83554087  1
  Ti4+  Ti6  1  0.16606868  0.83350766  0.17105560  1
  Ti4+  Ti7  1  0.16754332  0.83388232  0.50224939  1
  Ti4+  Ti8  1  0.16716139  0.83216293  0.83469280  1
  Ti4+  Ti9  1  0.49778779  0.16812911  0.16989282  1
  Ti4+  Ti10  1  0.49831843  0.16700917  0.50125256  1
  Ti4+  Ti11  1  0.50070903  0.16825099  0.83312674  1
  Ti4+  Ti12  1  0.49870261  0.49878531  0.16474958  1
  Ti4+  Ti13  1  0.50205014  0.50019620  0.50024356  1
  Ti4+  Ti14  1  0.50041984  0.49974200  0.82980514  1
  Ti4+  Ti15  1  0.50060345  0.83476834  0.16568388  1
  Ti4+  Ti16  1  0.50268546  0.83410712  0.50200772  1
  Ti4+  Ti17  1  0.49935182  0.83511740  0.83622826  1
  Ti4+  Ti18  1  0.83195031  0.16579666  0.16635400  1
  Ti4+  Ti19  1  0.83418341  0.16443580  0.49954383  1
  Ti4+  Ti20  1  0.83339279  0.16658320  0.83379116  1
  Ti4+  Ti21  1  0.83386911  0.49915655  0.16645447  1
  Ti4+  Ti22  1  0.83485594  0.50185623  0.49626325  1
  Ti4+  Ti23  1  0.83204805  0.50044727  0.83321258  1
  Ti4+  Ti24  1  0.83582796  0.83418307  0.16613313  1
  Ti4+  Ti25  1  0.83484924  0.83091201  0.49646406  1
  Ti4+  Ti26  1  0.83027206  0.83238757  0.83178005  1
  Cu+  Cu27  1  0.16163004  0.17032502  -0.00051065  1
  Cu+  Cu28  1  0.17394362  0.16541805  0.33247945  1
  Cu+  Cu29  1  0.16609295  0.16811331  0.66753759  1
  Cu+  Cu30  1  0.17088660  0.49662944  0.00052591  1
  Cu+  Cu31  1  0.16592252  0.50147622  0.33779613  1
  Cu+  Cu32  1  0.16605480  0.49969620  0.67124856  1
  Cu+  Cu33  1  0.16751943  0.83019328  0.00100175  1
  Cu+  Cu34  1  0.16674426  0.83341002  0.33603570  1
  Cu+  Cu35  1  0.16630555  0.83327402  0.66894143  1
  Cu+  Cu36  1  0.49815526  0.16870880  0.00007709  1
  Cu+  Cu37  1  0.49661830  0.16863543  0.33505675  1
  Cu+  Cu38  1  0.49857244  0.16796351  0.66696771  1
  Cu+  Cu39  1  0.49953134  0.50014278  -0.00463219  1
  Cu+  Cu40  1  0.49869379  0.50103838  0.33125165  1
  Cu+  Cu41  1  0.50155234  0.49396095  0.66358218  1
  Cu+  Cu42  1  0.49846518  0.83620288  0.00041394  1
  Cu+  Cu43  1  0.50137426  0.83436674  0.33072403  1
  Cu+  Cu44  1  0.50315374  0.83386832  0.67153963  1
  Cu+  Cu45  1  0.83628976  0.16463823  -0.00036446  1
  Cu+  Cu46  1  0.82911209  0.16894107  0.33650931  1
  Cu+  Cu47  1  0.83465531  0.16492320  0.66796998  1
  Cu+  Cu48  1  0.83105966  0.50260093  0.00074536  1
  Cu+  Cu49  1  0.83137161  0.50218380  0.32831667  1
  Cu+  Cu50  1  0.83666761  0.50153618  0.66668297  1
  Cu+  Cu51  1  0.82674646  0.83212962  -0.00321305  1
  Cu+  Cu52  1  0.84039191  0.83519981  0.33408928  1
  Cu+  Cu53  1  0.83286014  0.83282782  0.66077089  1
  Cu+  Cu54  1  0.16071636  -0.00470545  0.16615255  1
  Cu+  Cu55  1  0.16785000  0.00227537  0.49701467  1
  Cu+  Cu56  1  0.16803116  0.00233964  0.83537441  1
  Cu+  Cu57  1  0.17066953  0.33221729  0.16301084  1
  Cu+  Cu58  1  0.16366831  0.33481273  0.50085646  1
  Cu+  Cu59  1  0.16600080  0.33382257  0.83478851  1
  Cu+  Cu60  1  0.16968711  0.67140128  0.16523617  1
  Cu+  Cu61  1  0.16783675  0.66634953  0.50346349  1
  Cu+  Cu62  1  0.16501984  0.66492482  0.83607186  1
  Cu+  Cu63  1  0.50073438  0.00304501  0.16673301  1
  Cu+  Cu64  1  0.50029458  0.00017575  0.50293667  1
  Cu+  Cu65  1  0.49851806  0.00102924  0.83608650  1
  Cu+  Cu66  1  0.49657491  0.33196972  0.16578813  1
  Cu+  Cu67  1  0.49740553  0.33579864  0.50511485  1
  Cu+  Cu68  1  0.50335415  0.33360281  0.82845800  1
  Cu+  Cu69  1  0.50000506  0.66527544  0.16796410  1
  Cu+  Cu70  1  0.50401184  0.66727141  0.49837683  1
  Cu+  Cu71  1  0.50129655  0.66745856  0.83094505  1
  Cu+  Cu72  1  0.83797427  0.00098584  0.16323388  1
  Cu+  Cu73  1  0.83468872  -0.00252826  0.50068312  1
  Cu+  Cu74  1  0.83272954  -0.00006011  0.83111229  1
  Cu+  Cu75  1  0.82983466  0.33523566  0.17339607  1
  Cu+  Cu76  1  0.83268575  0.32969695  0.49583743  1
  Cu+  Cu77  1  0.83356338  0.33245973  0.83463591  1
  Cu+  Cu78  1  0.83665407  0.66058366  0.16587487  1
  Cu+  Cu79  1  0.83472281  0.66636889  0.49586278  1
  Cu+  Cu80  1  0.82852854  0.66877477  0.83540949  1
  Cu+  Cu81  1  -0.00004469  0.16567927  0.16063360  1
  Cu+  Cu82  1  0.00171819  0.16501554  0.50067305  1
  Cu+  Cu83  1  -0.00046494  0.16682430  0.83409671  1
  Cu+  Cu84  1  0.00139084  0.49974611  0.16946554  1
  Cu+  Cu85  1  0.00073217  0.50225433  0.50422987  1
  Cu+  Cu86  1  0.00072886  0.50109133  0.83643731  1
  Cu+  Cu87  1  0.00105208  0.84247632  0.17097037  1
  Cu+  Cu88  1  0.00116466  0.83345319  0.50110570  1
  Cu+  Cu89  1  -0.00115306  0.83227322  0.83185399  1
  Cu+  Cu90  1  0.33214138  0.16983408  0.17368517  1
  Cu+  Cu91  1  0.33024891  0.16481968  0.49597051  1
  Cu+  Cu92  1  0.33295795  0.16784170  0.83471065  1
  Cu+  Cu93  1  0.33303352  0.49613528  0.16237151  1
  Cu+  Cu94  1  0.33427360  0.49929759  0.50448154  1
  Cu+  Cu95  1  0.33374041  0.50120891  0.83231409  1
  Cu+  Cu96  1  0.33329564  0.83006411  0.16837606  1
  Cu+  Cu97  1  0.33660094  0.83447941  0.50491489  1
  Cu+  Cu98  1  0.33336340  0.83604505  0.83679343  1
  Cu+  Cu99  1  0.65989824  0.16198308  0.16646558  1
  Cu+  Cu100  1  0.66568776  0.16703035  0.49999382  1
  Cu+  Cu101  1  0.66993750  0.16802558  0.83532229  1
  Cu+  Cu102  1  0.66481360  0.49653829  0.16471199  1
  Cu+  Cu103  1  0.66970562  0.50424888  0.49482339  1
  Cu+  Cu104  1  0.66417083  0.49753348  0.82717444  1
  Cu+  Cu105  1  0.67136757  0.83739811  0.16465303  1
  Cu+  Cu106  1  0.66600342  0.82629392  0.49359199  1
  Cu+  Cu107  1  0.66364686  0.82819066  0.83437733  1
  Cu+  Cu108  1  0.93344571  0.59028904  0.25614592  1
  Cu+  Cu109  1  0.07865532  0.91908075  0.06774208  1
  Cu+  Cu110  1  0.59670597  0.40140579  0.73574691  1
  Cu+  Cu111  1  0.73456133  0.25843294  0.41113638  1
  Cu+  Cu112  1  0.74221776  0.73924853  0.58875305  1
  Cu+  Cu113  1  0.74260159  0.92792792  0.07025722  1
  Cu+  Cu114  1  0.58470006  0.73970807  0.39852390  1
  Cu+  Cu115  1  0.73430193  0.58391303  0.07104958  1
  Cu+  Cu116  1  0.26253926  0.74382585  0.07282167  1
  Cu+  Cu117  1  0.73747793  0.92775253  0.41286405  1
  Cu+  Cu118  1  0.74111110  0.59376430  0.40243031  1
  Cu+  Cu119  1  0.93110365  0.58841953  0.60061629  1
  Cu+  Cu120  1  0.92756053  0.07427370  0.06921386  1
  Cu+  Cu121  1  0.92608354  0.93463270  0.26143983  1
  Cu+  Cu122  1  0.93308277  0.74101144  0.40750112  1
  Cu+  Cu123  1  0.73510351  0.73913522  0.92849712  1
  Cu+  Cu124  1  0.26343900  0.40174100  0.06928954  1
  Cu+  Cu125  1  0.58251587  0.07566512  0.06958615  1
  Cu+  Cu126  1  0.25703841  0.26483077  0.26261492  1
  Cu+  Cu127  1  0.58980757  0.73924880  0.74199243  1
  Cu+  Cu128  1  0.40148338  0.40462730  0.59359315  1
  Cu+  Cu129  1  0.92906703  0.92691249  0.59322295  1
  Cu+  Cu130  1  0.73400549  0.40781967  0.25726904  1
  Cu+  Cu131  1  0.07085854  0.26320676  0.07424528  1
  Cu+  Cu132  1  0.26081758  0.06858023  0.40409539  1
  Te2-  Te133  1  0.25714129  0.24907415  0.07665616  1
  Te2-  Te134  1  0.25324655  0.25884906  0.41510901  1
  Te2-  Te135  1  0.25138311  0.25280126  0.74920664  1
  Te2-  Te136  1  0.25372237  0.58729618  0.08016576  1
  Te2-  Te137  1  0.25396606  0.58519274  0.41839813  1
  Te2-  Te138  1  0.25138974  0.58640591  0.74954471  1
  Te2-  Te139  1  0.25280464  0.91828450  0.08325966  1
  Te2-  Te140  1  0.25604969  0.91651337  0.41534682  1
  Te2-  Te141  1  0.25145902  0.91909915  0.75010967  1
  Te2-  Te142  1  0.58438069  0.25310785  0.08228212  1
  Te2-  Te143  1  0.58211914  0.25561040  0.41549375  1
  Te2-  Te144  1  0.58993960  0.25010980  0.74464784  1
  Te2-  Te145  1  0.58350263  0.58550722  0.07865391  1
  Te2-  Te146  1  0.58671628  0.58711421  0.40749758  1
  Te2-  Te147  1  0.58631223  0.58621595  0.74182908  1
  Te2-  Te148  1  0.58770421  0.92177831  0.07774568  1
  Te2-  Te149  1  0.58541735  0.92214729  0.41309125  1
  Te2-  Te150  1  0.58670642  0.92147801  0.75213896  1
  Te2-  Te151  1  0.91475070  0.25739030  0.08284112  1
  Te2-  Te152  1  0.92169173  0.24951092  0.41439312  1
  Te2-  Te153  1  0.91877714  0.25211854  0.74830195  1
  Te2-  Te154  1  0.92324839  0.58353525  0.07898999  1
  Te2-  Te155  1  0.92495821  0.58672518  0.40887549  1
  Te2-  Te156  1  0.91972288  0.58908974  0.75226204  1
  Te2-  Te157  1  0.92079906  0.91815849  0.07243090  1
  Te2-  Te158  1  0.92554160  0.92326445  0.41431525  1
  Te2-  Te159  1  0.91781071  0.91740499  0.74619788  1
  Te2-  Te160  1  0.25266609  0.07357012  0.24873097  1
  Te2-  Te161  1  0.25099344  0.08250191  0.58680056  1
  Te2-  Te162  1  0.25130772  0.08421549  0.92193368  1
  Te2-  Te163  1  0.25255786  0.41625158  0.25576008  1
  Te2-  Te164  1  0.24950063  0.41295392  0.58924229  1
  Te2-  Te165  1  0.25668716  0.41148271  0.91762110  1
  Te2-  Te166  1  0.25257673  0.74776831  0.25717468  1
  Te2-  Te167  1  0.25274214  0.74928892  0.58729625  1
  Te2-  Te168  1  0.25420114  0.74531443  0.91958609  1
  Te2-  Te169  1  0.58251879  0.08153428  0.25804364  1
  Te2-  Te170  1  0.58513932  0.08287980  0.58639593  1
  Te2-  Te171  1  0.58685298  0.08156961  0.91867809  1
  Te2-  Te172  1  0.58228170  0.41191725  0.25268004  1
  Te2-  Te173  1  0.59475459  0.41378848  0.58204030  1
  Te2-  Te174  1  0.58567411  0.41444422  0.91705121  1
  Te2-  Te175  1  0.58950986  0.74810088  0.24778804  1
  Te2-  Te176  1  0.58815773  0.74429985  0.58898800  1
  Te2-  Te177  1  0.58300505  0.74472598  0.92508821  1
  Te2-  Te178  1  0.91987772  0.08565129  0.25529068  1
  Te2-  Te179  1  0.92075054  0.07983009  0.58679012  1
  Te2-  Te180  1  0.92103367  0.07713068  0.91737939  1
  Te2-  Te181  1  0.92106825  0.41353656  0.25508802  1
  Te2-  Te182  1  0.91588326  0.41262328  0.58208663  1
  Te2-  Te183  1  0.91589806  0.41721777  0.91977314  1
  Te2-  Te184  1  0.92350702  0.74500071  0.25125916  1
  Te2-  Te185  1  0.92215595  0.74345660  0.58643397  1
  Te2-  Te186  1  0.91736017  0.74918711  0.91831772  1
  Te2-  Te187  1  0.08269508  0.25019240  0.25051903  1
  Te2-  Te188  1  0.08053964  0.25193995  0.58595144  1
  Te2-  Te189  1  0.07614085  0.25643497  0.91946852  1
  Te2-  Te190  1  0.08617501  0.58828000  0.25231382  1
  Te2-  Te191  1  0.08251366  0.58766128  0.59082118  1
  Te2-  Te192  1  0.08218242  0.58404049  0.92360102  1
  Te2-  Te193  1  0.08115666  0.92278986  0.26197028  1
  Te2-  Te194  1  0.08275698  0.92183547  0.58683249  1
  Te2-  Te195  1  0.07988559  0.91910583  0.91745640  1
  Te2-  Te196  1  0.41276671  0.25723618  0.25722465  1
  Te2-  Te197  1  0.40937267  0.25040944  0.58655708  1
  Te2-  Te198  1  0.41639899  0.25517893  0.91707773  1
  Te2-  Te199  1  0.41204753  0.58353648  0.24955916  1
  Te2-  Te200  1  0.41882731  0.58735948  0.58554246  1
  Te2-  Te201  1  0.41581805  0.58650941  0.91551261  1
  Te2-  Te202  1  0.41538465  0.91869740  0.25014956  1
  Te2-  Te203  1  0.41836788  0.91825299  0.58962488  1
  Te2-  Te204  1  0.41327836  0.92164339  0.92157521  1
  Te2-  Te205  1  0.74060626  0.24982432  0.25261658  1
  Te2-  Te206  1  0.74994575  0.25049622  0.58574191  1
  Te2-  Te207  1  0.74971129  0.25212094  0.92175122  1
  Te2-  Te208  1  0.74200908  0.58865485  0.24979946  1
  Te2-  Te209  1  0.74798068  0.58616447  0.58616254  1
  Te2-  Te210  1  0.74007287  0.58530516  0.91782574  1
  Te2-  Te211  1  0.75137858  0.92137584  0.25433781  1
  Te2-  Te212  1  0.74366784  0.91643769  0.58103884  1
  Te2-  Te213  1  0.74340498  0.92166961  0.91545259  1
  Te2-  Te214  1  0.08005151  0.07611522  0.07589372  1
  Te2-  Te215  1  0.08164613  0.08331385  0.41115075  1
  Te2-  Te216  1  0.08188031  0.08204052  0.74923710  1
  Te2-  Te217  1  0.07867675  0.41481648  0.08117435  1
  Te2-  Te218  1  0.07885780  0.41665122  0.41649513  1
  Te2-  Te219  1  0.07963526  0.41474880  0.75056424  1
  Te2-  Te220  1  0.07617323  0.75003113  0.08491654  1
  Te2-  Te221  1  0.08349252  0.74553769  0.41552618  1
  Te2-  Te222  1  0.08148528  0.74673424  0.74928867  1
  Te2-  Te223  1  0.41087734  0.08415839  0.08343489  1
  Te2-  Te224  1  0.41493868  0.07820079  0.41404092  1
  Te2-  Te225  1  0.41454665  0.08223984  0.74936655  1
  Te2-  Te226  1  0.41592239  0.41214396  0.07589420  1
  Te2-  Te227  1  0.41518962  0.41654738  0.41490850  1
  Te2-  Te228  1  0.41110302  0.41217417  0.74654544  1
  Te2-  Te229  1  0.41652186  0.74628743  0.08031835  1
  Te2-  Te230  1  0.41620768  0.75027957  0.41616463  1
  Te2-  Te231  1  0.41289342  0.75034255  0.74992701  1
  Te2-  Te232  1  0.74423760  0.07994715  0.07876373  1
  Te2-  Te233  1  0.74552909  0.07837691  0.41421476  1
  Te2-  Te234  1  0.74720680  0.08144219  0.74771568  1
  Te2-  Te235  1  0.74811150  0.41157344  0.07940009  1
  Te2-  Te236  1  0.74627353  0.41230795  0.41072863  1
  Te2-  Te237  1  0.75109907  0.41304615  0.74407025  1
  Te2-  Te238  1  0.74740611  0.74236698  0.08301029  1
  Te2-  Te239  1  0.74629163  0.74477659  0.40322096  1
  Te2-  Te240  1  0.74552134  0.74474092  0.74241830  1
