# generated using pymatgen
data_Ti27(Cu53Te54)2
_symmetry_space_group_name_H-M   'P 1'
_cell_length_a   17.86913602
_cell_length_b   17.86885603
_cell_length_c   17.87147255
_cell_angle_alpha   90.00199776
_cell_angle_beta   90.02425394
_cell_angle_gamma   89.98184828
_symmetry_Int_Tables_number   1
_chemical_formula_structural   Ti27(Cu53Te54)2
_chemical_formula_sum   'Ti27 Cu106 Te108'
_cell_volume   5706.37859266
_cell_formula_units_Z   1
loop_
 _symmetry_equiv_pos_site_id
 _symmetry_equiv_pos_as_xyz
  1  'x, y, z'
loop_
 _atom_type_symbol
 _atom_type_oxidation_number
  Ti4+  4.0
  Cu+  1.0
  Te2-  -2.0
loop_
 _atom_site_type_symbol
 _atom_site_label
 _atom_site_symmetry_multiplicity
 _atom_site_fract_x
 _atom_site_fract_y
 _atom_site_fract_z
 _atom_site_occupancy
  Ti4+  Ti0  1  0.16504388  0.16586509  0.16902383  1
  Ti4+  Ti1  1  0.16301541  0.16651224  0.50290066  1
  Ti4+  Ti2  1  0.16773457  0.16720438  0.83780400  1
  Ti4+  Ti3  1  0.16746409  0.49786082  0.16365778  1
  Ti4+  Ti4  1  0.16917946  0.50223126  0.49340348  1
  Ti4+  Ti5  1  0.16740847  0.50111204  0.83153612  1
  Ti4+  Ti6  1  0.16691636  0.83500716  0.16773575  1
  Ti4+  Ti7  1  0.16633065  0.82874689  0.50370102  1
  Ti4+  Ti8  1  0.16714337  0.83727691  0.83213896  1
  Ti4+  Ti9  1  0.49965901  0.16815292  0.16479178  1
  Ti4+  Ti10  1  0.49899169  0.16738640  0.49979345  1
  Ti4+  Ti11  1  0.49893732  0.16832520  0.83398124  1
  Ti4+  Ti12  1  0.50114807  0.49429921  0.16482264  1
  Ti4+  Ti13  1  0.50006688  0.49994035  0.49759727  1
  Ti4+  Ti14  1  0.50299544  0.49874249  0.83285982  1
  Ti4+  Ti15  1  0.49987403  0.83423152  0.16751029  1
  Ti4+  Ti16  1  0.49981285  0.83323749  0.50250988  1
  Ti4+  Ti17  1  0.49993266  0.83304379  0.83595852  1
  Ti4+  Ti18  1  0.83380851  0.16699915  0.16893454  1
  Ti4+  Ti19  1  0.83271567  0.16404301  0.49855932  1
  Ti4+  Ti20  1  0.83373518  0.16661995  0.83374532  1
  Ti4+  Ti21  1  0.83193959  0.49968562  0.16713073  1
  Ti4+  Ti22  1  0.83273340  0.50250237  0.49897363  1
  Ti4+  Ti23  1  0.83577086  0.50170467  0.83234214  1
  Ti4+  Ti24  1  0.83385158  0.83185472  0.16612364  1
  Ti4+  Ti25  1  0.83026930  0.83160779  0.49836963  1
  Ti4+  Ti26  1  0.83264029  0.83404302  0.83218552  1
  Cu+  Cu27  1  0.16321764  0.16204082  0.00364852  1
  Cu+  Cu28  1  0.16182859  0.16336685  0.33672464  1
  Cu+  Cu29  1  0.16667205  0.16863839  0.67153866  1
  Cu+  Cu30  1  0.16833954  0.50110451  -0.00181026  1
  Cu+  Cu31  1  0.16892696  0.50135196  0.32455851  1
  Cu+  Cu32  1  0.16830114  0.50190752  0.66288541  1
  Cu+  Cu33  1  0.16498545  0.83753220  -0.00018892  1
  Cu+  Cu34  1  0.16638477  0.82980116  0.33655561  1
  Cu+  Cu35  1  0.17292512  0.83487177  0.66793916  1
  Cu+  Cu36  1  0.49677753  0.17138590  -0.00015775  1
  Cu+  Cu37  1  0.49937691  0.16628387  0.33322207  1
  Cu+  Cu38  1  0.49862737  0.16866053  0.66577192  1
  Cu+  Cu39  1  0.50322071  0.49144938  -0.00308937  1
  Cu+  Cu40  1  0.49546943  0.49773540  0.33181119  1
  Cu+  Cu41  1  0.50360555  0.50035050  0.66635300  1
  Cu+  Cu42  1  0.50183944  0.83242262  0.00211240  1
  Cu+  Cu43  1  0.50134993  0.83550287  0.33466635  1
  Cu+  Cu44  1  0.49874601  0.83364462  0.66948703  1
  Cu+  Cu45  1  0.83396620  0.16775293  0.00178605  1
  Cu+  Cu46  1  0.83432033  0.16374823  0.33539537  1
  Cu+  Cu47  1  0.83430234  0.16526402  0.66587188  1
  Cu+  Cu48  1  0.83595580  0.50178784  -0.00193914  1
  Cu+  Cu49  1  0.82661651  0.50372492  0.33519188  1
  Cu+  Cu50  1  0.83583237  0.50184688  0.66826305  1
  Cu+  Cu51  1  0.83297374  0.83386293  -0.00188372  1
  Cu+  Cu52  1  0.83585692  0.83003154  0.33137153  1
  Cu+  Cu53  1  0.82882897  0.83154663  0.66565942  1
  Cu+  Cu54  1  0.16828643  0.00169280  0.17085188  1
  Cu+  Cu55  1  0.16281024  -0.00399784  0.50775787  1
  Cu+  Cu56  1  0.16821188  0.00480729  0.83666380  1
  Cu+  Cu57  1  0.15879645  0.33284953  0.16481472  1
  Cu+  Cu58  1  0.16118857  0.33695673  0.49922038  1
  Cu+  Cu59  1  0.16503631  0.33145339  0.83152858  1
  Cu+  Cu60  1  0.16968621  0.66625098  0.16396256  1
  Cu+  Cu61  1  0.17691752  0.66502569  0.49578847  1
  Cu+  Cu62  1  0.16694991  0.66988493  0.83045823  1
  Cu+  Cu63  1  0.49685423  0.00021289  0.16914271  1
  Cu+  Cu64  1  0.50033342  0.00074053  0.49991961  1
  Cu+  Cu65  1  0.49867261  -0.00053878  0.83663150  1
  Cu+  Cu66  1  0.50318249  0.33143302  0.16400276  1
  Cu+  Cu67  1  0.50035004  0.33432763  0.49897631  1
  Cu+  Cu68  1  0.49833890  0.33500187  0.83566595  1
  Cu+  Cu69  1  0.50504029  0.66912912  0.16041715  1
  Cu+  Cu70  1  0.50018538  0.66638516  0.50010262  1
  Cu+  Cu71  1  0.50141872  0.66334468  0.83554493  1
  Cu+  Cu72  1  0.83345103  -0.00191777  0.16548630  1
  Cu+  Cu73  1  0.83124188  -0.00181554  0.49772476  1
  Cu+  Cu74  1  0.83329348  -0.00043033  0.83108928  1
  Cu+  Cu75  1  0.83022315  0.33584674  0.17135679  1
  Cu+  Cu76  1  0.83686418  0.32953017  0.50050647  1
  Cu+  Cu77  1  0.83368798  0.33651509  0.83490812  1
  Cu+  Cu78  1  0.83263962  0.66477534  0.16764481  1
  Cu+  Cu79  1  0.82772324  0.66824444  0.49524442  1
  Cu+  Cu80  1  0.83542399  0.66696331  0.83253833  1
  Cu+  Cu81  1  -0.00040172  0.16802217  0.16930213  1
  Cu+  Cu82  1  -0.00504375  0.16765950  0.50404520  1
  Cu+  Cu83  1  0.00127331  0.16748370  0.83793813  1
  Cu+  Cu84  1  -0.00126499  0.49623560  0.16556434  1
  Cu+  Cu85  1  0.00239866  0.49931856  0.49786458  1
  Cu+  Cu86  1  -0.00010252  0.50280642  0.83268147  1
  Cu+  Cu87  1  0.00134976  0.83459431  0.16733378  1
  Cu+  Cu88  1  -0.00273863  0.82854267  0.49700196  1
  Cu+  Cu89  1  -0.00180252  0.83675733  0.83103473  1
  Cu+  Cu90  1  0.33483317  0.16304065  0.16385999  1
  Cu+  Cu91  1  0.33242226  0.16968014  0.49972991  1
  Cu+  Cu92  1  0.33218969  0.16429805  0.83395516  1
  Cu+  Cu93  1  0.33340163  0.49731059  0.16955579  1
  Cu+  Cu94  1  0.33396766  0.50416994  0.49686504  1
  Cu+  Cu95  1  0.33701330  0.49869612  0.83251694  1
  Cu+  Cu96  1  0.33550581  0.83703656  0.16684704  1
  Cu+  Cu97  1  0.33389233  0.83298648  0.50252935  1
  Cu+  Cu98  1  0.33466202  0.83319580  0.83353816  1
  Cu+  Cu99  1  0.66674489  0.17103242  0.16797852  1
  Cu+  Cu100  1  0.66738512  0.16382285  0.49774938  1
  Cu+  Cu101  1  0.66579107  0.16861093  0.83399712  1
  Cu+  Cu102  1  0.66768188  0.49065095  0.16612447  1
  Cu+  Cu103  1  0.66558113  0.50492250  0.49533120  1
  Cu+  Cu104  1  0.67110445  0.50227477  0.83209086  1
  Cu+  Cu105  1  0.66674022  0.83166704  0.16554161  1
  Cu+  Cu106  1  0.66579270  0.82903411  0.50463558  1
  Cu+  Cu107  1  0.66596074  0.83486649  0.83446940  1
  Cu+  Cu108  1  0.26357336  0.58639592  0.59405847  1
  Cu+  Cu109  1  0.26385498  0.73936051  0.74782706  1
  Cu+  Cu110  1  0.06760358  0.25991669  0.07553761  1
  Cu+  Cu111  1  0.07052266  0.07116829  0.26515905  1
  Cu+  Cu112  1  0.26255939  0.92735079  0.59035085  1
  Cu+  Cu113  1  0.40364070  0.40561893  0.26292869  1
  Cu+  Cu114  1  0.91873405  0.25845378  0.59543498  1
  Cu+  Cu115  1  0.59285385  0.25409886  0.26385362  1
  Cu+  Cu116  1  0.07633499  0.41660193  0.59243933  1
  Cu+  Cu117  1  0.73368500  0.59867389  0.40332954  1
  Cu+  Cu118  1  0.59763642  0.74463444  0.07110589  1
  Cu+  Cu119  1  0.26124318  0.07086958  0.07712778  1
  Cu+  Cu120  1  0.26401318  0.59612964  0.24845995  1
  Cu+  Cu121  1  0.40292022  0.40846911  0.92221294  1
  Cu+  Cu122  1  0.92629371  0.73810066  0.40353789  1
  Cu+  Cu123  1  0.26620067  0.74685683  0.40485469  1
  Cu+  Cu124  1  0.07320779  0.25585881  0.74488171  1
  Cu+  Cu125  1  0.41095720  0.07186332  0.26363365  1
  Cu+  Cu126  1  0.06928663  0.40875386  0.25773702  1
  Cu+  Cu127  1  0.74074209  0.40733488  0.26711010  1
  Cu+  Cu128  1  0.40291174  0.25961268  0.07502618  1
  Cu+  Cu129  1  0.06928791  0.07184445  0.92720568  1
  Cu+  Cu130  1  0.26202823  0.08012077  0.73922891  1
  Cu+  Cu131  1  0.59987186  0.40376514  0.06683935  1
  Cu+  Cu132  1  0.73854140  0.73788988  0.59782950  1
  Te2-  Te133  1  0.24987427  0.25329436  0.08075873  1
  Te2-  Te134  1  0.24599039  0.25162532  0.41665341  1
  Te2-  Te135  1  0.25504840  0.25356740  0.74933233  1
  Te2-  Te136  1  0.25573800  0.58361013  0.07949367  1
  Te2-  Te137  1  0.25892662  0.58700989  0.40317505  1
  Te2-  Te138  1  0.25740032  0.58556949  0.74697211  1
  Te2-  Te139  1  0.25291649  0.91981070  0.08105242  1
  Te2-  Te140  1  0.24952303  0.91872990  0.41792725  1
  Te2-  Te141  1  0.25699547  0.92595690  0.74814088  1
  Te2-  Te142  1  0.59039477  0.25223646  0.07537079  1
  Te2-  Te143  1  0.58678424  0.25295335  0.41506721  1
  Te2-  Te144  1  0.58319812  0.25336919  0.74897536  1
  Te2-  Te145  1  0.58802659  0.58017676  0.07941384  1
  Te2-  Te146  1  0.58151231  0.58788463  0.40822727  1
  Te2-  Te147  1  0.58741850  0.58585477  0.74792947  1
  Te2-  Te148  1  0.58482619  0.92229967  0.08339558  1
  Te2-  Te149  1  0.58702914  0.91712981  0.41834606  1
  Te2-  Te150  1  0.58373120  0.91938376  0.75004322  1
  Te2-  Te151  1  0.91660811  0.25584127  0.08335560  1
  Te2-  Te152  1  0.92021276  0.25095657  0.41181329  1
  Te2-  Te153  1  0.92052794  0.25565122  0.74855381  1
  Te2-  Te154  1  0.91908124  0.58442340  0.08284850  1
  Te2-  Te155  1  0.92079501  0.58532855  0.41227974  1
  Te2-  Te156  1  0.92142116  0.58834293  0.74613095  1
  Te2-  Te157  1  0.91891672  0.91723860  0.08064539  1
  Te2-  Te158  1  0.91791019  0.91778071  0.41387264  1
  Te2-  Te159  1  0.91619316  0.91832843  0.74341940  1
  Te2-  Te160  1  0.25486004  0.08242210  0.25758722  1
  Te2-  Te161  1  0.25367650  0.08193298  0.58720553  1
  Te2-  Te162  1  0.25662811  0.07975687  0.92477957  1
  Te2-  Te163  1  0.25165257  0.40617899  0.25087387  1
  Te2-  Te164  1  0.25366841  0.41501120  0.58074171  1
  Te2-  Te165  1  0.25014232  0.41282268  0.91750620  1
  Te2-  Te166  1  0.25667337  0.74849252  0.25192858  1
  Te2-  Te167  1  0.25829173  0.74258755  0.59077829  1
  Te2-  Te168  1  0.25014103  0.75067532  0.91956353  1
  Te2-  Te169  1  0.58621748  0.08175126  0.25042071  1
  Te2-  Te170  1  0.58435040  0.08286592  0.58555567  1
  Te2-  Te171  1  0.58348643  0.08407417  0.92040556  1
  Te2-  Te172  1  0.58687452  0.40957923  0.25847324  1
  Te2-  Te173  1  0.58739791  0.41683637  0.58196538  1
  Te2-  Te174  1  0.59427748  0.41063697  0.91504793  1
  Te2-  Te175  1  0.58490653  0.74783085  0.25354125  1
  Te2-  Te176  1  0.58291768  0.74472432  0.58993863  1
  Te2-  Te177  1  0.58792126  0.74551862  0.91939355  1
  Te2-  Te178  1  0.91868299  0.07827081  0.25330584  1
  Te2-  Te179  1  0.91696141  0.07595898  0.58542685  1
  Te2-  Te180  1  0.91719897  0.07948219  0.92101590  1
  Te2-  Te181  1  0.91701016  0.41543741  0.25733960  1
  Te2-  Te182  1  0.92034697  0.41553301  0.58667610  1
  Te2-  Te183  1  0.92166006  0.41578032  0.91859905  1
  Te2-  Te184  1  0.92234771  0.74405516  0.25028266  1
  Te2-  Te185  1  0.91552816  0.74473953  0.58482095  1
  Te2-  Te186  1  0.91981987  0.74968168  0.91723825  1
  Te2-  Te187  1  0.07832258  0.25320065  0.25778633  1
  Te2-  Te188  1  0.07735518  0.25603452  0.58982796  1
  Te2-  Te189  1  0.08038358  0.25581409  0.92393607  1
  Te2-  Te190  1  0.07998914  0.58604944  0.24642120  1
  Te2-  Te191  1  0.08345526  0.58864259  0.58012216  1
  Te2-  Te192  1  0.08419256  0.58725970  0.91634364  1
  Te2-  Te193  1  0.08167910  0.91827286  0.25675290  1
  Te2-  Te194  1  0.07592970  0.91148049  0.58775222  1
  Te2-  Te195  1  0.07856585  0.92073465  0.91889777  1
  Te2-  Te196  1  0.41073143  0.25362200  0.25208036  1
  Te2-  Te197  1  0.41416970  0.25412797  0.58456481  1
  Te2-  Te198  1  0.40763268  0.25460782  0.91964186  1
  Te2-  Te199  1  0.41917888  0.58888067  0.24750423  1
  Te2-  Te200  1  0.41672858  0.58585847  0.58677224  1
  Te2-  Te201  1  0.41717337  0.58280156  0.92180085  1
  Te2-  Te202  1  0.41250800  0.91938504  0.25696587  1
  Te2-  Te203  1  0.41507301  0.92111094  0.58821090  1
  Te2-  Te204  1  0.41416888  0.91732416  0.92182279  1
  Te2-  Te205  1  0.74760899  0.25279999  0.25880328  1
  Te2-  Te206  1  0.74689942  0.25065310  0.58475898  1
  Te2-  Te207  1  0.74945038  0.25234587  0.91876597  1
  Te2-  Te208  1  0.74095226  0.58712807  0.24936804  1
  Te2-  Te209  1  0.74645571  0.58516845  0.58752503  1
  Te2-  Te210  1  0.75014983  0.58715073  0.91875593  1
  Te2-  Te211  1  0.74852772  0.91625350  0.25169149  1
  Te2-  Te212  1  0.74630631  0.91946518  0.58449934  1
  Te2-  Te213  1  0.74797085  0.92017468  0.91823980  1
  Te2-  Te214  1  0.07592815  0.07666431  0.08414971  1
  Te2-  Te215  1  0.07736094  0.07761517  0.42119197  1
  Te2-  Te216  1  0.07980877  0.08150526  0.74934245  1
  Te2-  Te217  1  0.07824014  0.41540561  0.07393900  1
  Te2-  Te218  1  0.08061739  0.41607466  0.40782701  1
  Te2-  Te219  1  0.07914341  0.41542459  0.74556957  1
  Te2-  Te220  1  0.08380026  0.74942031  0.08204581  1
  Te2-  Te221  1  0.08084081  0.74170069  0.41425924  1
  Te2-  Te222  1  0.08107179  0.75220977  0.74653538  1
  Te2-  Te223  1  0.41616271  0.07729030  0.07602847  1
  Te2-  Te224  1  0.41158067  0.08041525  0.41538056  1
  Te2-  Te225  1  0.41601414  0.08005330  0.74719348  1
  Te2-  Te226  1  0.40866360  0.41127344  0.07795471  1
  Te2-  Te227  1  0.41072876  0.41212191  0.41482590  1
  Te2-  Te228  1  0.41713104  0.41443348  0.74451579  1
  Te2-  Te229  1  0.41267893  0.74873281  0.08156214  1
  Te2-  Te230  1  0.41606346  0.74747989  0.41362642  1
  Te2-  Te231  1  0.41620039  0.74423789  0.74872337  1
  Te2-  Te232  1  0.74780173  0.08372607  0.08422969  1
  Te2-  Te233  1  0.74666163  0.07828222  0.41223143  1
  Te2-  Te234  1  0.74761671  0.08344326  0.74841770  1
  Te2-  Te235  1  0.75191542  0.41192486  0.07520691  1
  Te2-  Te236  1  0.74711735  0.41006072  0.41871291  1
  Te2-  Te237  1  0.74980956  0.41536267  0.74640586  1
  Te2-  Te238  1  0.74935135  0.74501700  0.07856234  1
  Te2-  Te239  1  0.74061097  0.74942169  0.40762452  1
  Te2-  Te240  1  0.74423071  0.74527979  0.74970973  1
