# generated using pymatgen
data_Ti27(Cu53Te54)2
_symmetry_space_group_name_H-M   'P 1'
_cell_length_a   17.93221510
_cell_length_b   17.92993452
_cell_length_c   17.92899274
_cell_angle_alpha   89.99684322
_cell_angle_beta   89.95619480
_cell_angle_gamma   90.02128642
_symmetry_Int_Tables_number   1
_chemical_formula_structural   Ti27(Cu53Te54)2
_chemical_formula_sum   'Ti27 Cu106 Te108'
_cell_volume   5764.58937589
_cell_formula_units_Z   1
loop_
 _symmetry_equiv_pos_site_id
 _symmetry_equiv_pos_as_xyz
  1  'x, y, z'
loop_
 _atom_type_symbol
 _atom_type_oxidation_number
  Ti4+  4.0
  Cu+  1.0
  Te2-  -2.0
loop_
 _atom_site_type_symbol
 _atom_site_label
 _atom_site_symmetry_multiplicity
 _atom_site_fract_x
 _atom_site_fract_y
 _atom_site_fract_z
 _atom_site_occupancy
  Ti4+  Ti0  1  0.16281038  0.16521073  0.16999397  1
  Ti4+  Ti1  1  0.16556888  0.16537558  0.49931477  1
  Ti4+  Ti2  1  0.16709610  0.16959105  0.83359384  1
  Ti4+  Ti3  1  0.16563863  0.50291532  0.16836324  1
  Ti4+  Ti4  1  0.16652640  0.49852168  0.50158368  1
  Ti4+  Ti5  1  0.16714161  0.50137997  0.83453146  1
  Ti4+  Ti6  1  0.16424525  0.83246249  0.16661734  1
  Ti4+  Ti7  1  0.16749648  0.83014443  0.50207710  1
  Ti4+  Ti8  1  0.16848891  0.83623468  0.82972786  1
  Ti4+  Ti9  1  0.49692944  0.16959618  0.16640789  1
  Ti4+  Ti10  1  0.49494476  0.16215279  0.49811018  1
  Ti4+  Ti11  1  0.50343166  0.17003923  0.82885206  1
  Ti4+  Ti12  1  0.49967676  0.50138572  0.16737985  1
  Ti4+  Ti13  1  0.49972148  0.49744174  0.49968215  1
  Ti4+  Ti14  1  0.49932556  0.49719643  0.83413798  1
  Ti4+  Ti15  1  0.49773200  0.83612138  0.16476497  1
  Ti4+  Ti16  1  0.50472758  0.83195007  0.49817042  1
  Ti4+  Ti17  1  0.49987481  0.83311047  0.83154811  1
  Ti4+  Ti18  1  0.83070677  0.16262884  0.16869526  1
  Ti4+  Ti19  1  0.83499910  0.16801561  0.49914444  1
  Ti4+  Ti20  1  0.83534251  0.16842150  0.83633067  1
  Ti4+  Ti21  1  0.83499972  0.49960871  0.16760647  1
  Ti4+  Ti22  1  0.83569488  0.49868573  0.50102044  1
  Ti4+  Ti23  1  0.83128500  0.50146849  0.83418571  1
  Ti4+  Ti24  1  0.83133544  0.83378213  0.16164393  1
  Ti4+  Ti25  1  0.83402992  0.83371398  0.50329144  1
  Ti4+  Ti26  1  0.83371960  0.83278871  0.83798512  1
  Cu+  Cu27  1  0.16643124  0.16800551  0.00033974  1
  Cu+  Cu28  1  0.15755193  0.16383718  0.33508276  1
  Cu+  Cu29  1  0.17024653  0.16503534  0.66810797  1
  Cu+  Cu30  1  0.16671633  0.50237953  0.00251430  1
  Cu+  Cu31  1  0.16723528  0.50134979  0.33467941  1
  Cu+  Cu32  1  0.16622890  0.49970737  0.66808215  1
  Cu+  Cu33  1  0.16417137  0.83616599  -0.00215451  1
  Cu+  Cu34  1  0.16445839  0.82988051  0.33446384  1
  Cu+  Cu35  1  0.17236632  0.83134569  0.66704759  1
  Cu+  Cu36  1  0.50272609  0.17150902  -0.00296968  1
  Cu+  Cu37  1  0.48917124  0.16459886  0.33203204  1
  Cu+  Cu38  1  0.50502955  0.16867538  0.65976005  1
  Cu+  Cu39  1  0.49870918  0.49914760  0.00138876  1
  Cu+  Cu40  1  0.50092833  0.50038919  0.33198988  1
  Cu+  Cu41  1  0.49613134  0.49375149  0.66532666  1
  Cu+  Cu42  1  0.49630305  0.83551760  -0.00152408  1
  Cu+  Cu43  1  0.50118112  0.83462979  0.33143966  1
  Cu+  Cu44  1  0.50545037  0.83309497  0.66509847  1
  Cu+  Cu45  1  0.83422774  0.16121053  0.00476318  1
  Cu+  Cu46  1  0.83677717  0.16744276  0.32971272  1
  Cu+  Cu47  1  0.83609259  0.16951964  0.66747875  1
  Cu+  Cu48  1  0.82882735  0.50144492  0.00163404  1
  Cu+  Cu49  1  0.83776267  0.50085248  0.33451180  1
  Cu+  Cu50  1  0.83396939  0.50099069  0.66591278  1
  Cu+  Cu51  1  0.83162751  0.83345201  -0.00096596  1
  Cu+  Cu52  1  0.83081435  0.83617465  0.33580164  1
  Cu+  Cu53  1  0.83617723  0.83075534  0.67161581  1
  Cu+  Cu54  1  0.15996777  -0.00198140  0.17104073  1
  Cu+  Cu55  1  0.16884473  -0.00426628  0.50297646  1
  Cu+  Cu56  1  0.17208978  0.00753665  0.82704406  1
  Cu+  Cu57  1  0.16550129  0.33679385  0.16770406  1
  Cu+  Cu58  1  0.16572662  0.33273784  0.49652266  1
  Cu+  Cu59  1  0.16555972  0.33525694  0.83599614  1
  Cu+  Cu60  1  0.16569266  0.66710919  0.16715216  1
  Cu+  Cu61  1  0.16609135  0.66411171  0.50218790  1
  Cu+  Cu62  1  0.16923048  0.66779432  0.83130223  1
  Cu+  Cu63  1  0.49548839  0.00524920  0.16671104  1
  Cu+  Cu64  1  0.50029458  -0.00812620  0.49665976  1
  Cu+  Cu65  1  0.49967772  0.00128159  0.83066712  1
  Cu+  Cu66  1  0.49888229  0.33798808  0.16691630  1
  Cu+  Cu67  1  0.49101374  0.33232630  0.50172080  1
  Cu+  Cu68  1  0.51017514  0.33399070  0.83082369  1
  Cu+  Cu69  1  0.49918872  0.66955558  0.16616767  1
  Cu+  Cu70  1  0.50485105  0.66560229  0.49933639  1
  Cu+  Cu71  1  0.49813736  0.66341941  0.83273169  1
  Cu+  Cu72  1  0.83047745  -0.00040239  0.15630324  1
  Cu+  Cu73  1  0.83111282  0.00001914  0.49846133  1
  Cu+  Cu74  1  0.83592697  0.00081345  0.84077575  1
  Cu+  Cu75  1  0.83230196  0.33173337  0.17055162  1
  Cu+  Cu76  1  0.83863410  0.33255233  0.50313172  1
  Cu+  Cu77  1  0.83030165  0.33323859  0.83384845  1
  Cu+  Cu78  1  0.83422156  0.66299017  0.16355352  1
  Cu+  Cu79  1  0.83370534  0.66643573  0.50267238  1
  Cu+  Cu80  1  0.83245938  0.66932384  0.83568222  1
  Cu+  Cu81  1  -0.00112897  0.15934146  0.17488189  1
  Cu+  Cu82  1  0.00103013  0.17031136  0.49951973  1
  Cu+  Cu83  1  0.00370729  0.16935203  0.83605431  1
  Cu+  Cu84  1  0.00054214  0.50343415  0.17209114  1
  Cu+  Cu85  1  0.00102111  0.49842106  0.50139747  1
  Cu+  Cu86  1  -0.00116647  0.50205245  0.83498606  1
  Cu+  Cu87  1  -0.00275121  0.83041919  0.16213040  1
  Cu+  Cu88  1  0.00142775  0.83230101  0.50405282  1
  Cu+  Cu89  1  0.00274754  0.83081959  0.83769018  1
  Cu+  Cu90  1  0.33125205  0.16447115  0.16930517  1
  Cu+  Cu91  1  0.33287931  0.16586438  0.49405458  1
  Cu+  Cu92  1  0.33469258  0.16779771  0.82805167  1
  Cu+  Cu93  1  0.33287744  0.50330358  0.16835492  1
  Cu+  Cu94  1  0.33335701  0.49665546  0.50418555  1
  Cu+  Cu95  1  0.33288823  0.49937085  0.83575184  1
  Cu+  Cu96  1  0.32932150  0.83401992  0.16571424  1
  Cu+  Cu97  1  0.33488495  0.82966099  0.49882976  1
  Cu+  Cu98  1  0.33429390  0.83389966  0.82615467  1
  Cu+  Cu99  1  0.66252676  0.16774274  0.16787589  1
  Cu+  Cu100  1  0.66408527  0.16226704  0.49814356  1
  Cu+  Cu101  1  0.67096611  0.17395291  0.83337805  1
  Cu+  Cu102  1  0.66670061  0.50112718  0.16645550  1
  Cu+  Cu103  1  0.67081007  0.49754759  0.49784147  1
  Cu+  Cu104  1  0.66397875  0.49728038  0.83195154  1
  Cu+  Cu105  1  0.66367603  0.83909041  0.16093295  1
  Cu+  Cu106  1  0.67135226  0.83926449  0.50103842  1
  Cu+  Cu107  1  0.66423817  0.83102264  0.83736504  1
  Cu+  Cu108  1  0.08529729  0.73772418  0.92553424  1
  Cu+  Cu109  1  0.07304949  0.26405838  0.40843851  1
  Cu+  Cu110  1  0.59432435  0.41493653  0.73438349  1
  Cu+  Cu111  1  0.92617717  0.73510898  0.07747753  1
  Cu+  Cu112  1  0.73594780  0.58781618  0.07625598  1
  Cu+  Cu113  1  0.73393716  0.73953474  0.92369006  1
  Cu+  Cu114  1  0.74361295  0.93009500  0.40464608  1
  Cu+  Cu115  1  0.93142023  0.25941224  0.59691972  1
  Cu+  Cu116  1  0.92565883  0.26071379  0.25302266  1
  Cu+  Cu117  1  0.26508931  0.73644012  0.73900521  1
  Cu+  Cu118  1  0.92740593  0.59555481  0.26432183  1
  Cu+  Cu119  1  0.40245071  0.07233088  0.25600036  1
  Cu+  Cu120  1  0.93452824  0.92926240  0.91960357  1
  Cu+  Cu121  1  0.59658503  0.26004931  0.93130314  1
  Cu+  Cu122  1  0.93044977  0.07761718  0.07556037  1
  Cu+  Cu123  1  0.40289059  0.91303528  0.40475134  1
  Cu+  Cu124  1  0.73213766  0.93010026  0.07077071  1
  Cu+  Cu125  1  0.40057959  0.40535030  0.59691334  1
  Cu+  Cu126  1  0.74786565  0.26024605  0.73785529  1
  Cu+  Cu127  1  0.26701397  0.07915121  0.73616030  1
  Cu+  Cu128  1  0.92650589  0.74009947  0.74037014  1
  Cu+  Cu129  1  0.59324164  0.26144192  0.57390917  1
  Cu+  Cu130  1  0.59828524  0.92159469  0.59684690  1
  Cu+  Cu131  1  0.40547997  0.26210087  0.40298448  1
  Cu+  Cu132  1  0.06901747  0.06503698  0.26602492  1
  Te2-  Te133  1  0.24861300  0.25029153  0.08628198  1
  Te2-  Te134  1  0.25022939  0.25062383  0.40983954  1
  Te2-  Te135  1  0.25105872  0.25660815  0.74784206  1
  Te2-  Te136  1  0.25168412  0.58738616  0.08291292  1
  Te2-  Te137  1  0.25316070  0.58329103  0.41837179  1
  Te2-  Te138  1  0.25497112  0.58420827  0.74672481  1
  Te2-  Te139  1  0.24706725  0.92030747  0.08268655  1
  Te2-  Te140  1  0.25055588  0.91623129  0.41329785  1
  Te2-  Te141  1  0.25556942  0.92310774  0.74341048  1
  Te2-  Te142  1  0.58567060  0.25659867  0.08351793  1
  Te2-  Te143  1  0.57973918  0.24930957  0.41366297  1
  Te2-  Te144  1  0.59289068  0.25591016  0.73743054  1
  Te2-  Te145  1  0.58400778  0.58794787  0.07956572  1
  Te2-  Te146  1  0.58675021  0.58139645  0.41535692  1
  Te2-  Te147  1  0.58249715  0.58238981  0.74556646  1
  Te2-  Te148  1  0.57932138  0.92552801  0.07735502  1
  Te2-  Te149  1  0.59069694  0.91992116  0.40883673  1
  Te2-  Te150  1  0.58922932  0.91978785  0.75003476  1
  Te2-  Te151  1  0.91957666  0.24885525  0.08604298  1
  Te2-  Te152  1  0.92052698  0.25515489  0.41015963  1
  Te2-  Te153  1  0.92272000  0.25512515  0.75119657  1
  Te2-  Te154  1  0.92304083  0.58276097  0.07737623  1
  Te2-  Te155  1  0.92186130  0.58771357  0.41767485  1
  Te2-  Te156  1  0.91788018  0.58650478  0.74895669  1
  Te2-  Te157  1  0.92341032  0.92099490  0.07545208  1
  Te2-  Te158  1  0.92072190  0.91741058  0.41755808  1
  Te2-  Te159  1  0.91992541  0.91922207  0.75277822  1
  Te2-  Te160  1  0.24829434  0.07882460  0.25571662  1
  Te2-  Te161  1  0.25468122  0.08031772  0.58303775  1
  Te2-  Te162  1  0.25422321  0.08513010  0.91912596  1
  Te2-  Te163  1  0.25125449  0.41727306  0.25233006  1
  Te2-  Te164  1  0.24947439  0.40989219  0.58820426  1
  Te2-  Te165  1  0.25049149  0.41603727  0.92103416  1
  Te2-  Te166  1  0.25013957  0.74845870  0.25152513  1
  Te2-  Te167  1  0.25603848  0.74344658  0.58496298  1
  Te2-  Te168  1  0.25371998  0.75210037  0.91718001  1
  Te2-  Te169  1  0.58193141  0.08432009  0.25328867  1
  Te2-  Te170  1  0.58468806  0.07529593  0.58226354  1
  Te2-  Te171  1  0.58641073  0.08431256  0.91382127  1
  Te2-  Te172  1  0.58648003  0.41617971  0.25166217  1
  Te2-  Te173  1  0.59069813  0.41101672  0.58302359  1
  Te2-  Te174  1  0.58805747  0.41474296  0.92427153  1
  Te2-  Te175  1  0.58583230  0.75235631  0.24779377  1
  Te2-  Te176  1  0.59090823  0.74723141  0.58339158  1
  Te2-  Te177  1  0.58030482  0.74534115  0.92089879  1
  Te2-  Te178  1  0.91415552  0.06984608  0.25491568  1
  Te2-  Te179  1  0.91819659  0.08188252  0.58399108  1
  Te2-  Te180  1  0.92523374  0.08277868  0.92195746  1
  Te2-  Te181  1  0.92115246  0.41310021  0.25412689  1
  Te2-  Te182  1  0.92238258  0.41424770  0.58968993  1
  Te2-  Te183  1  0.91468797  0.41698106  0.91872242  1
  Te2-  Te184  1  0.91488013  0.75002919  0.25272415  1
  Te2-  Te185  1  0.92058224  0.74583338  0.58764014  1
  Te2-  Te186  1  0.92302477  0.74260395  0.92470391  1
  Te2-  Te187  1  0.07788486  0.25744556  0.25398728  1
  Te2-  Te188  1  0.08437855  0.25254252  0.58893253  1
  Te2-  Te189  1  0.08214133  0.25434024  0.92145039  1
  Te2-  Te190  1  0.08139345  0.59028000  0.25707914  1
  Te2-  Te191  1  0.08119099  0.58342418  0.58689373  1
  Te2-  Te192  1  0.08103658  0.58665406  0.92015254  1
  Te2-  Te193  1  0.07463699  0.91300055  0.25496853  1
  Te2-  Te194  1  0.08392640  0.91590287  0.58827103  1
  Te2-  Te195  1  0.08614490  0.92685192  0.91532126  1
  Te2-  Te196  1  0.40978348  0.25780234  0.25037829  1
  Te2-  Te197  1  0.40800162  0.24813746  0.58755718  1
  Te2-  Te198  1  0.41657506  0.25374649  0.91204482  1
  Te2-  Te199  1  0.41588777  0.58734390  0.25266846  1
  Te2-  Te200  1  0.41752005  0.58527041  0.58454908  1
  Te2-  Te201  1  0.41480191  0.58350759  0.91926653  1
  Te2-  Te202  1  0.40892607  0.92014962  0.25194100  1
  Te2-  Te203  1  0.41551961  0.91459679  0.58523011  1
  Te2-  Te204  1  0.41334741  0.91925973  0.91386865  1
  Te2-  Te205  1  0.74505646  0.25009345  0.25297386  1
  Te2-  Te206  1  0.74539304  0.25305886  0.58363360  1
  Te2-  Te207  1  0.75174303  0.25346584  0.92714958  1
  Te2-  Te208  1  0.74945285  0.58548898  0.25361930  1
  Te2-  Te209  1  0.74845191  0.58356030  0.58461701  1
  Te2-  Te210  1  0.74151067  0.58660481  0.91933273  1
  Te2-  Te211  1  0.74771505  0.92057363  0.24886170  1
  Te2-  Te212  1  0.75240221  0.92122743  0.59386036  1
  Te2-  Te213  1  0.74305101  0.92143711  0.91987664  1
  Te2-  Te214  1  0.08141917  0.08000273  0.07949752  1
  Te2-  Te215  1  0.07816236  0.07408247  0.41948032  1
  Te2-  Te216  1  0.07919435  0.08460237  0.74735022  1
  Te2-  Te217  1  0.07971033  0.41805826  0.08355008  1
  Te2-  Te218  1  0.07940225  0.41589726  0.41242006  1
  Te2-  Te219  1  0.08076743  0.41647144  0.75098618  1
  Te2-  Te220  1  0.08021255  0.74389438  0.07816986  1
  Te2-  Te221  1  0.08069000  0.74626059  0.41805940  1
  Te2-  Te222  1  0.08077108  0.74788665  0.74552411  1
  Te2-  Te223  1  0.41396927  0.08667573  0.07647590  1
  Te2-  Te224  1  0.40885140  0.07154921  0.41279815  1
  Te2-  Te225  1  0.41946962  0.08294476  0.74229287  1
  Te2-  Te226  1  0.41232750  0.41716404  0.08302683  1
  Te2-  Te227  1  0.41190630  0.41527290  0.41049257  1
  Te2-  Te228  1  0.41108880  0.40933083  0.75074352  1
  Te2-  Te229  1  0.41281678  0.75050169  0.08144466  1
  Te2-  Te230  1  0.41877234  0.74548337  0.41329099  1
  Te2-  Te231  1  0.41833612  0.74587472  0.74344716  1
  Te2-  Te232  1  0.73877682  0.08279444  0.07960298  1
  Te2-  Te233  1  0.74820948  0.08391875  0.41107231  1
  Te2-  Te234  1  0.75257922  0.08143868  0.75179961  1
  Te2-  Te235  1  0.74883792  0.41215144  0.08419281  1
  Te2-  Te236  1  0.75327271  0.41270901  0.41445041  1
  Te2-  Te237  1  0.74790124  0.41457632  0.74431933  1
  Te2-  Te238  1  0.74196941  0.74461648  0.07868040  1
  Te2-  Te239  1  0.74908270  0.74799744  0.41778987  1
  Te2-  Te240  1  0.74610980  0.74898213  0.75051999  1
