# generated using pymatgen
data_Ti27(Cu53Te54)2
_symmetry_space_group_name_H-M   'P 1'
_cell_length_a   17.91004904
_cell_length_b   17.91473649
_cell_length_c   17.92013142
_cell_angle_alpha   90.02228750
_cell_angle_beta   90.04274018
_cell_angle_gamma   89.92303320
_symmetry_Int_Tables_number   1
_chemical_formula_structural   Ti27(Cu53Te54)2
_chemical_formula_sum   'Ti27 Cu106 Te108'
_cell_volume   5749.73520328
_cell_formula_units_Z   1
loop_
 _symmetry_equiv_pos_site_id
 _symmetry_equiv_pos_as_xyz
  1  'x, y, z'
loop_
 _atom_type_symbol
 _atom_type_oxidation_number
  Ti4+  4.0
  Cu+  1.0
  Te2-  -2.0
loop_
 _atom_site_type_symbol
 _atom_site_label
 _atom_site_symmetry_multiplicity
 _atom_site_fract_x
 _atom_site_fract_y
 _atom_site_fract_z
 _atom_site_occupancy
  Ti4+  Ti0  1  0.16545611  0.16686019  0.16208485  1
  Ti4+  Ti1  1  0.16780754  0.16661189  0.49553183  1
  Ti4+  Ti2  1  0.16596022  0.16540303  0.83300961  1
  Ti4+  Ti3  1  0.16650969  0.50011928  0.16766596  1
  Ti4+  Ti4  1  0.16899060  0.49597754  0.50159607  1
  Ti4+  Ti5  1  0.16655657  0.50175674  0.83295088  1
  Ti4+  Ti6  1  0.16264340  0.83198627  0.16227244  1
  Ti4+  Ti7  1  0.16364978  0.83591852  0.50161634  1
  Ti4+  Ti8  1  0.16866688  0.82660099  0.82968571  1
  Ti4+  Ti9  1  0.50152436  0.16791478  0.16641896  1
  Ti4+  Ti10  1  0.49939252  0.16752042  0.50232964  1
  Ti4+  Ti11  1  0.50059408  0.16472671  0.83506714  1
  Ti4+  Ti12  1  0.50015049  0.50353921  0.16370739  1
  Ti4+  Ti13  1  0.49781162  0.50031397  0.49835685  1
  Ti4+  Ti14  1  0.50032105  0.49963679  0.83505775  1
  Ti4+  Ti15  1  0.50151901  0.83508279  0.16675124  1
  Ti4+  Ti16  1  0.49767462  0.83466326  0.49935221  1
  Ti4+  Ti17  1  0.50107449  0.83370075  0.83453258  1
  Ti4+  Ti18  1  0.83290882  0.16826853  0.16846323  1
  Ti4+  Ti19  1  0.83195017  0.16965504  0.50396960  1
  Ti4+  Ti20  1  0.83338137  0.16545164  0.83254521  1
  Ti4+  Ti21  1  0.83398375  0.50191856  0.16883499  1
  Ti4+  Ti22  1  0.83423796  0.50145402  0.49869703  1
  Ti4+  Ti23  1  0.83281870  0.49772947  0.83168535  1
  Ti4+  Ti24  1  0.83636464  0.83388360  0.17256201  1
  Ti4+  Ti25  1  0.83516914  0.83577131  0.50228958  1
  Ti4+  Ti26  1  0.83438125  0.83273998  0.83422552  1
  Cu+  Cu27  1  0.16547223  0.16651977  -0.00087495  1
  Cu+  Cu28  1  0.16694963  0.16651117  0.32493322  1
  Cu+  Cu29  1  0.16800876  0.16406140  0.66550124  1
  Cu+  Cu30  1  0.16401169  0.50247196  -0.00027828  1
  Cu+  Cu31  1  0.17244466  0.49420037  0.33961752  1
  Cu+  Cu32  1  0.17089810  0.50563582  0.66441111  1
  Cu+  Cu33  1  0.16832291  0.82969494  -0.00848026  1
  Cu+  Cu34  1  0.16191084  0.83607567  0.33212920  1
  Cu+  Cu35  1  0.15787297  0.83053972  0.66774837  1
  Cu+  Cu36  1  0.50106042  0.16640357  0.00103014  1
  Cu+  Cu37  1  0.50066065  0.17044428  0.33468428  1
  Cu+  Cu38  1  0.49891678  0.16401207  0.67062733  1
  Cu+  Cu39  1  0.50449011  0.49769247  0.00189027  1
  Cu+  Cu40  1  0.49800885  0.50417368  0.32669403  1
  Cu+  Cu41  1  0.49647680  0.50035933  0.66900382  1
  Cu+  Cu42  1  0.50480983  0.83725451  0.00059671  1
  Cu+  Cu43  1  0.49759027  0.83506547  0.33401753  1
  Cu+  Cu44  1  0.49846964  0.83389489  0.66574372  1
  Cu+  Cu45  1  0.83271785  0.16587393  0.00128922  1
  Cu+  Cu46  1  0.83231048  0.16876523  0.33464238  1
  Cu+  Cu47  1  0.82606274  0.16764653  0.66914385  1
  Cu+  Cu48  1  0.83272439  0.49833905  -0.00391212  1
  Cu+  Cu49  1  0.83930770  0.50160878  0.33364769  1
  Cu+  Cu50  1  0.82922319  0.49910555  0.66200241  1
  Cu+  Cu51  1  0.83490109  0.83397302  0.00543258  1
  Cu+  Cu52  1  0.83474422  0.83742178  0.33898847  1
  Cu+  Cu53  1  0.83549817  0.83238650  0.66878539  1
  Cu+  Cu54  1  0.16482962  0.00193577  0.15967872  1
  Cu+  Cu55  1  0.15899465  0.00321651  0.49764883  1
  Cu+  Cu56  1  0.17002090  -0.00509487  0.83048460  1
  Cu+  Cu57  1  0.16720942  0.33080711  0.16397284  1
  Cu+  Cu58  1  0.17655201  0.32911006  0.49835115  1
  Cu+  Cu59  1  0.16411416  0.33561389  0.83249445  1
  Cu+  Cu60  1  0.16000441  0.66518686  0.16604813  1
  Cu+  Cu61  1  0.16726713  0.66406187  0.50502307  1
  Cu+  Cu62  1  0.16974922  0.66331110  0.83964217  1
  Cu+  Cu63  1  0.50113991  0.00151283  0.16849531  1
  Cu+  Cu64  1  0.49826297  -0.00030111  0.49945497  1
  Cu+  Cu65  1  0.50438609  -0.00210315  0.83684080  1
  Cu+  Cu66  1  0.50061826  0.33479212  0.16089872  1
  Cu+  Cu67  1  0.49630041  0.33460935  0.50276793  1
  Cu+  Cu68  1  0.49934346  0.33171705  0.83636829  1
  Cu+  Cu69  1  0.50402276  0.66997369  0.16646740  1
  Cu+  Cu70  1  0.49714466  0.67052952  0.49626666  1
  Cu+  Cu71  1  0.49966358  0.66799476  0.83439718  1
  Cu+  Cu72  1  0.83455629  0.00189426  0.17038657  1
  Cu+  Cu73  1  0.83230923  0.00341020  0.50670799  1
  Cu+  Cu74  1  0.83546922  0.00009467  0.83676211  1
  Cu+  Cu75  1  0.83213945  0.33179089  0.16814812  1
  Cu+  Cu76  1  0.83200456  0.33854976  0.50022361  1
  Cu+  Cu77  1  0.83218641  0.32975015  0.82891173  1
  Cu+  Cu78  1  0.83991513  0.66614193  0.17414108  1
  Cu+  Cu79  1  0.83332441  0.66802675  0.49969488  1
  Cu+  Cu80  1  0.83339239  0.66340398  0.83070019  1
  Cu+  Cu81  1  -0.00174007  0.16666682  0.16474332  1
  Cu+  Cu82  1  0.00144726  0.16679019  0.49998246  1
  Cu+  Cu83  1  -0.00235078  0.16580325  0.83311704  1
  Cu+  Cu84  1  0.00101756  0.50711943  0.16948365  1
  Cu+  Cu85  1  -0.00145059  0.49386866  0.49344035  1
  Cu+  Cu86  1  0.00028885  0.49430019  0.83233604  1
  Cu+  Cu87  1  -0.00138259  0.82491221  0.16700451  1
  Cu+  Cu88  1  0.00353864  0.83677208  0.49981915  1
  Cu+  Cu89  1  -0.00235788  0.82372283  0.82254819  1
  Cu+  Cu90  1  0.33227763  0.16804581  0.16298837  1
  Cu+  Cu91  1  0.33250883  0.17031210  0.49912488  1
  Cu+  Cu92  1  0.33449636  0.16337168  0.83425863  1
  Cu+  Cu93  1  0.33670479  0.49902495  0.16992628  1
  Cu+  Cu94  1  0.33365220  0.49440876  0.50344453  1
  Cu+  Cu95  1  0.33348514  0.50340522  0.83495912  1
  Cu+  Cu96  1  0.33347802  0.83384319  0.16287271  1
  Cu+  Cu97  1  0.33190311  0.83613108  0.49913082  1
  Cu+  Cu98  1  0.33533928  0.83330924  0.83397331  1
  Cu+  Cu99  1  0.66833534  0.16771034  0.16926959  1
  Cu+  Cu100  1  0.66503701  0.16651628  0.50552328  1
  Cu+  Cu101  1  0.66705077  0.16660874  0.83117722  1
  Cu+  Cu102  1  0.66447946  0.50344757  0.16484776  1
  Cu+  Cu103  1  0.66710986  0.50202308  0.49724132  1
  Cu+  Cu104  1  0.66515565  0.50051078  0.83283774  1
  Cu+  Cu105  1  0.67078560  0.83470483  0.17039532  1
  Cu+  Cu106  1  0.66388579  0.83545350  0.50117965  1
  Cu+  Cu107  1  0.66645643  0.83623167  0.83717388  1
  Cu+  Cu108  1  0.07286536  0.08098961  0.59348215  1
  Cu+  Cu109  1  0.91618477  0.73191395  0.73648497  1
  Cu+  Cu110  1  0.92401151  0.40290412  0.40360386  1
  Cu+  Cu111  1  0.73726690  0.41275684  0.58899794  1
  Cu+  Cu112  1  0.26402335  0.40200189  0.40705580  1
  Cu+  Cu113  1  0.92994577  0.59294616  0.26588925  1
  Cu+  Cu114  1  0.25967955  0.25083655  0.59753913  1
  Cu+  Cu115  1  0.07219246  0.92616454  0.74859113  1
  Cu+  Cu116  1  0.07176040  0.58795792  0.07122923  1
  Cu+  Cu117  1  0.59887746  0.92788546  0.93080898  1
  Cu+  Cu118  1  0.73480166  0.07175287  0.59490705  1
  Cu+  Cu119  1  0.41446618  0.40361644  0.25347531  1
  Cu+  Cu120  1  0.07835903  0.74016104  0.26290630  1
  Cu+  Cu121  1  0.26570339  0.58570654  0.93284554  1
  Cu+  Cu122  1  0.59732490  0.40526564  0.07321070  1
  Cu+  Cu123  1  0.73486569  0.26046068  0.74451454  1
  Cu+  Cu124  1  0.41014881  0.40674310  0.60007097  1
  Cu+  Cu125  1  0.59304704  0.59832872  0.25758307  1
  Cu+  Cu126  1  0.07088084  0.74432757  0.92011426  1
  Cu+  Cu127  1  0.26116340  0.92634061  0.92245254  1
  Cu+  Cu128  1  0.26328066  0.59695044  0.59048273  1
  Cu+  Cu129  1  0.91584367  0.73777778  0.07418731  1
  Cu+  Cu130  1  0.07412985  0.93188799  0.39976529  1
  Cu+  Cu131  1  0.07401517  0.40410984  0.92685873  1
  Cu+  Cu132  1  0.07352282  0.73453563  0.58798828  1
  Te2-  Te133  1  0.25198668  0.25279512  0.07699296  1
  Te2-  Te134  1  0.25552296  0.24920063  0.40479360  1
  Te2-  Te135  1  0.25260245  0.25142829  0.75079120  1
  Te2-  Te136  1  0.25428679  0.58649885  0.08516231  1
  Te2-  Te137  1  0.25415368  0.58527934  0.41829169  1
  Te2-  Te138  1  0.25534596  0.58910435  0.74667331  1
  Te2-  Te139  1  0.24938446  0.91676207  0.07681959  1
  Te2-  Te140  1  0.24802778  0.92038072  0.41467432  1
  Te2-  Te141  1  0.25340355  0.91292670  0.74314413  1
  Te2-  Te142  1  0.58919298  0.25183078  0.07949612  1
  Te2-  Te143  1  0.58474085  0.25348698  0.41966217  1
  Te2-  Te144  1  0.58307316  0.25347123  0.74734349  1
  Te2-  Te145  1  0.58710831  0.59011152  0.07776767  1
  Te2-  Te146  1  0.58348344  0.58689391  0.41349678  1
  Te2-  Te147  1  0.58300052  0.58528040  0.74867079  1
  Te2-  Te148  1  0.59075162  0.92163636  0.08454562  1
  Te2-  Te149  1  0.58398384  0.91989434  0.41448936  1
  Te2-  Te150  1  0.58573029  0.91751165  0.74679650  1
  Te2-  Te151  1  0.91706140  0.25312008  0.08082533  1
  Te2-  Te152  1  0.91858596  0.25254128  0.41623017  1
  Te2-  Te153  1  0.91979716  0.24988740  0.74538578  1
  Te2-  Te154  1  0.91863695  0.58576798  0.07597256  1
  Te2-  Te155  1  0.92288477  0.59074072  0.41623919  1
  Te2-  Te156  1  0.91928482  0.58010744  0.74388628  1
  Te2-  Te157  1  0.92076038  0.91960755  0.08600854  1
  Te2-  Te158  1  0.91964403  0.92456491  0.41816645  1
  Te2-  Te159  1  0.91826895  0.92171644  0.74758802  1
  Te2-  Te160  1  0.25171927  0.07977160  0.24597989  1
  Te2-  Te161  1  0.25303936  0.07912170  0.58114178  1
  Te2-  Te162  1  0.25092167  0.07961898  0.91857277  1
  Te2-  Te163  1  0.25379733  0.41052363  0.25122373  1
  Te2-  Te164  1  0.25476567  0.40880033  0.59337147  1
  Te2-  Te165  1  0.25154280  0.41592744  0.91945752  1
  Te2-  Te166  1  0.24877949  0.75007254  0.24885459  1
  Te2-  Te167  1  0.25298248  0.75132128  0.58750311  1
  Te2-  Te168  1  0.25965986  0.74278059  0.91970949  1
  Te2-  Te169  1  0.58523286  0.08406441  0.25398435  1
  Te2-  Te170  1  0.58244015  0.07871821  0.58831334  1
  Te2-  Te171  1  0.58982466  0.08187544  0.92138502  1
  Te2-  Te172  1  0.58559318  0.41478543  0.25067212  1
  Te2-  Te173  1  0.58415079  0.41655242  0.58574715  1
  Te2-  Te174  1  0.58820818  0.41221588  0.91846730  1
  Te2-  Te175  1  0.58801392  0.75130037  0.25538408  1
  Te2-  Te176  1  0.58313136  0.74816891  0.58428030  1
  Te2-  Te177  1  0.58643065  0.74722898  0.91987992  1
  Te2-  Te178  1  0.91907153  0.08392140  0.25444302  1
  Te2-  Te179  1  0.91929076  0.08473058  0.58997433  1
  Te2-  Te180  1  0.91903665  0.08199926  0.92047198  1
  Te2-  Te181  1  0.92195514  0.41280959  0.25015215  1
  Te2-  Te182  1  0.92038982  0.41511009  0.58629101  1
  Te2-  Te183  1  0.91740528  0.40979752  0.91741949  1
  Te2-  Te184  1  0.92307658  0.74690870  0.26466534  1
  Te2-  Te185  1  0.92184986  0.74521669  0.58603681  1
  Te2-  Te186  1  0.91804433  0.74293752  0.92109627  1
  Te2-  Te187  1  0.07996984  0.25277620  0.24840745  1
  Te2-  Te188  1  0.08407766  0.25355727  0.58339642  1
  Te2-  Te189  1  0.07963050  0.25111002  0.91772603  1
  Te2-  Te190  1  0.08444180  0.58437834  0.26289713  1
  Te2-  Te191  1  0.07536707  0.57984565  0.58383633  1
  Te2-  Te192  1  0.07305777  0.58762318  0.91824614  1
  Te2-  Te193  1  0.07776654  0.92185243  0.24593139  1
  Te2-  Te194  1  0.07636156  0.92458669  0.59088511  1
  Te2-  Te195  1  0.07728015  0.91290190  0.91203593  1
  Te2-  Te196  1  0.41364009  0.25270270  0.25087669  1
  Te2-  Te197  1  0.41232081  0.25312470  0.59183818  1
  Te2-  Te198  1  0.41432803  0.24959788  0.91982982  1
  Te2-  Te199  1  0.41304212  0.59234651  0.24915522  1
  Te2-  Te200  1  0.41481658  0.58858710  0.58480660  1
  Te2-  Te201  1  0.41768836  0.58628504  0.92316482  1
  Te2-  Te202  1  0.41343441  0.91881018  0.24996450  1
  Te2-  Te203  1  0.41264263  0.92021389  0.58561260  1
  Te2-  Te204  1  0.41393455  0.92051703  0.92140930  1
  Te2-  Te205  1  0.74702729  0.25393835  0.25478569  1
  Te2-  Te206  1  0.74327638  0.25880954  0.58764393  1
  Te2-  Te207  1  0.74809592  0.25116728  0.91861623  1
  Te2-  Te208  1  0.74757221  0.58638899  0.25502604  1
  Te2-  Te209  1  0.74650887  0.58844018  0.58316975  1
  Te2-  Te210  1  0.74851116  0.58429669  0.91613903  1
  Te2-  Te211  1  0.75048819  0.92034328  0.25561174  1
  Te2-  Te212  1  0.74709032  0.91719147  0.58922063  1
  Te2-  Te213  1  0.75183633  0.91919740  0.92327137  1
  Te2-  Te214  1  0.07775463  0.08213087  0.07730736  1
  Te2-  Te215  1  0.07830067  0.08486004  0.40643147  1
  Te2-  Te216  1  0.07898795  0.07946411  0.74749597  1
  Te2-  Te217  1  0.07884990  0.41447133  0.08317932  1
  Te2-  Te218  1  0.08346116  0.40749658  0.41420078  1
  Te2-  Te219  1  0.08456158  0.41751299  0.74262426  1
  Te2-  Te220  1  0.07620298  0.74301645  0.07280053  1
  Te2-  Te221  1  0.08082717  0.74414985  0.41645050  1
  Te2-  Te222  1  0.08057955  0.73288210  0.74378322  1
  Te2-  Te223  1  0.41663950  0.08194991  0.08213844  1
  Te2-  Te224  1  0.41492870  0.08447630  0.41545305  1
  Te2-  Te225  1  0.41604861  0.07725291  0.75129760  1
  Te2-  Te226  1  0.41208401  0.41627432  0.07818274  1
  Te2-  Te227  1  0.41490698  0.41201582  0.40880551  1
  Te2-  Te228  1  0.41185124  0.41311591  0.75237873  1
  Te2-  Te229  1  0.41838807  0.74994920  0.07992966  1
  Te2-  Te230  1  0.41043127  0.75052224  0.41286039  1
  Te2-  Te231  1  0.41562749  0.74859204  0.74854214  1
  Te2-  Te232  1  0.74853602  0.08112739  0.08384332  1
  Te2-  Te233  1  0.74831909  0.08406386  0.41819738  1
  Te2-  Te234  1  0.74566504  0.07471015  0.74901660  1
  Te2-  Te235  1  0.74988441  0.41586397  0.08229127  1
  Te2-  Te236  1  0.74805385  0.41742000  0.41002748  1
  Te2-  Te237  1  0.74327918  0.41378262  0.74558178  1
  Te2-  Te238  1  0.75126695  0.74613552  0.08753279  1
  Te2-  Te239  1  0.74896512  0.75200946  0.41786076  1
  Te2-  Te240  1  0.74657086  0.74949520  0.74989402  1
