# generated using pymatgen
data_Ti27(Cu53Te54)2
_symmetry_space_group_name_H-M   'P 1'
_cell_length_a   17.87944356
_cell_length_b   17.88360392
_cell_length_c   17.88146743
_cell_angle_alpha   89.96913342
_cell_angle_beta   89.98666099
_cell_angle_gamma   89.99605819
_symmetry_Int_Tables_number   1
_chemical_formula_structural   Ti27(Cu53Te54)2
_chemical_formula_sum   'Ti27 Cu106 Te108'
_cell_volume   5717.57830975
_cell_formula_units_Z   1
loop_
 _symmetry_equiv_pos_site_id
 _symmetry_equiv_pos_as_xyz
  1  'x, y, z'
loop_
 _atom_type_symbol
 _atom_type_oxidation_number
  Ti4+  4.0
  Cu+  1.0
  Te2-  -2.0
loop_
 _atom_site_type_symbol
 _atom_site_label
 _atom_site_symmetry_multiplicity
 _atom_site_fract_x
 _atom_site_fract_y
 _atom_site_fract_z
 _atom_site_occupancy
  Ti4+  Ti0  1  0.16713545  0.16818174  0.16435819  1
  Ti4+  Ti1  1  0.16735950  0.16120630  0.49995588  1
  Ti4+  Ti2  1  0.16777482  0.16813119  0.82741147  1
  Ti4+  Ti3  1  0.16598404  0.50020361  0.16651175  1
  Ti4+  Ti4  1  0.16390748  0.49773770  0.50248606  1
  Ti4+  Ti5  1  0.17178559  0.50356842  0.83318856  1
  Ti4+  Ti6  1  0.16658422  0.83310531  0.16667329  1
  Ti4+  Ti7  1  0.16197855  0.83156127  0.49925006  1
  Ti4+  Ti8  1  0.16421585  0.83379435  0.83353710  1
  Ti4+  Ti9  1  0.49945044  0.16666269  0.16783814  1
  Ti4+  Ti10  1  0.50299681  0.16906978  0.50085541  1
  Ti4+  Ti11  1  0.49794620  0.16467217  0.83168203  1
  Ti4+  Ti12  1  0.49906876  0.49968078  0.16789386  1
  Ti4+  Ti13  1  0.50076561  0.50275022  0.50089827  1
  Ti4+  Ti14  1  0.49870568  0.49929581  0.83516338  1
  Ti4+  Ti15  1  0.50143787  0.83272691  0.16705403  1
  Ti4+  Ti16  1  0.49864701  0.83320738  0.49910443  1
  Ti4+  Ti17  1  0.50235164  0.83323568  0.83159305  1
  Ti4+  Ti18  1  0.83577751  0.16457552  0.16876610  1
  Ti4+  Ti19  1  0.83040629  0.17052920  0.50245263  1
  Ti4+  Ti20  1  0.83722151  0.16709211  0.83408365  1
  Ti4+  Ti21  1  0.83601568  0.49924960  0.16507810  1
  Ti4+  Ti22  1  0.83280480  0.50052347  0.49929116  1
  Ti4+  Ti23  1  0.83548407  0.49854462  0.83432532  1
  Ti4+  Ti24  1  0.82956899  0.82909153  0.16555359  1
  Ti4+  Ti25  1  0.83099514  0.83345590  0.50006382  1
  Ti4+  Ti26  1  0.83140000  0.83687530  0.83754932  1
  Cu+  Cu27  1  0.16675407  0.17034655  -0.00522823  1
  Cu+  Cu28  1  0.16534214  0.16601432  0.33244556  1
  Cu+  Cu29  1  0.17526523  0.16377001  0.66282484  1
  Cu+  Cu30  1  0.17107250  0.50312535  -0.00087911  1
  Cu+  Cu31  1  0.16138754  0.49837936  0.33470718  1
  Cu+  Cu32  1  0.17226053  0.50422042  0.66786088  1
  Cu+  Cu33  1  0.16732466  0.83527116  0.00192669  1
  Cu+  Cu34  1  0.16438508  0.82963207  0.33360697  1
  Cu+  Cu35  1  0.15991891  0.83472183  0.66827336  1
  Cu+  Cu36  1  0.49849347  0.16563543  0.00439650  1
  Cu+  Cu37  1  0.50013493  0.16834247  0.33302130  1
  Cu+  Cu38  1  0.49963755  0.16552073  0.66361280  1
  Cu+  Cu39  1  0.49766935  0.49600349  0.00112243  1
  Cu+  Cu40  1  0.49967192  0.50107789  0.33290523  1
  Cu+  Cu41  1  0.49673885  0.50296373  0.66928632  1
  Cu+  Cu42  1  0.50442824  0.83011350  -0.00104394  1
  Cu+  Cu43  1  0.50119835  0.82986030  0.33558250  1
  Cu+  Cu44  1  0.50367019  0.83691557  0.66247485  1
  Cu+  Cu45  1  0.83612888  0.16481828  -0.00080906  1
  Cu+  Cu46  1  0.83270167  0.16731415  0.33863568  1
  Cu+  Cu47  1  0.83472486  0.16976557  0.66946726  1
  Cu+  Cu48  1  0.83701267  0.49604040  0.00014170  1
  Cu+  Cu49  1  0.83493792  0.50092713  0.33029723  1
  Cu+  Cu50  1  0.83495566  0.49851028  0.66589692  1
  Cu+  Cu51  1  0.82925265  0.83295878  0.00533511  1
  Cu+  Cu52  1  0.82903337  0.83526312  0.32982333  1
  Cu+  Cu53  1  0.83048097  0.83427295  0.66960150  1
  Cu+  Cu54  1  0.16601620  0.00086448  0.16451299  1
  Cu+  Cu55  1  0.16320866  -0.00575450  0.49893902  1
  Cu+  Cu56  1  0.15927136  -0.00136422  0.82615233  1
  Cu+  Cu57  1  0.16727973  0.33486128  0.16461313  1
  Cu+  Cu58  1  0.16679852  0.32677026  0.50198013  1
  Cu+  Cu59  1  0.17669809  0.33749506  0.83059990  1
  Cu+  Cu60  1  0.16454025  0.66723588  0.16900205  1
  Cu+  Cu61  1  0.16057574  0.66391416  0.50077805  1
  Cu+  Cu62  1  0.16770249  0.66657572  0.83466404  1
  Cu+  Cu63  1  0.49864130  0.00308117  0.17067819  1
  Cu+  Cu64  1  0.50117886  -0.00000621  0.50504389  1
  Cu+  Cu65  1  0.50100467  -0.00291572  0.83157484  1
  Cu+  Cu66  1  0.50035432  0.33265491  0.16842602  1
  Cu+  Cu67  1  0.50464781  0.33787947  0.50266629  1
  Cu+  Cu68  1  0.49715740  0.33173312  0.83465893  1
  Cu+  Cu69  1  0.50116118  0.66470089  0.16516305  1
  Cu+  Cu70  1  0.50107867  0.67071784  0.49549520  1
  Cu+  Cu71  1  0.49715247  0.66524154  0.83167519  1
  Cu+  Cu72  1  0.83306840  -0.00662643  0.17266599  1
  Cu+  Cu73  1  0.82892386  0.00397164  0.49897542  1
  Cu+  Cu74  1  0.83240983  0.00606398  0.83947220  1
  Cu+  Cu75  1  0.83842745  0.33385399  0.16494746  1
  Cu+  Cu76  1  0.82797327  0.33498613  0.49724410  1
  Cu+  Cu77  1  0.83581948  0.33150315  0.83295204  1
  Cu+  Cu78  1  0.83601244  0.66610127  0.16248744  1
  Cu+  Cu79  1  0.83296854  0.66651915  0.50078154  1
  Cu+  Cu80  1  0.83303777  0.66701966  0.83645851  1
  Cu+  Cu81  1  0.00511095  0.16258990  0.17078867  1
  Cu+  Cu82  1  -0.00315459  0.16354237  0.49944322  1
  Cu+  Cu83  1  0.00456229  0.16575944  0.83375752  1
  Cu+  Cu84  1  -0.00085629  0.49648361  0.16270718  1
  Cu+  Cu85  1  -0.00053325  0.49844199  0.49681101  1
  Cu+  Cu86  1  0.00272998  0.50067883  0.83279697  1
  Cu+  Cu87  1  -0.00268761  0.82888792  0.16543173  1
  Cu+  Cu88  1  -0.00441170  0.83050976  0.49967989  1
  Cu+  Cu89  1  -0.00143052  0.83801007  0.83278632  1
  Cu+  Cu90  1  0.33404519  0.16848858  0.16469842  1
  Cu+  Cu91  1  0.33550348  0.16290247  0.50370320  1
  Cu+  Cu92  1  0.33069778  0.16614681  0.82953586  1
  Cu+  Cu93  1  0.33365411  0.50028421  0.16874531  1
  Cu+  Cu94  1  0.33357095  0.50025548  0.50361293  1
  Cu+  Cu95  1  0.33545736  0.50538343  0.83065172  1
  Cu+  Cu96  1  0.33388872  0.83412227  0.16893266  1
  Cu+  Cu97  1  0.32929150  0.83241676  0.49980478  1
  Cu+  Cu98  1  0.33586780  0.83022976  0.83319593  1
  Cu+  Cu99  1  0.66398463  0.16715231  0.16827513  1
  Cu+  Cu100  1  0.66734874  0.17992747  0.50214179  1
  Cu+  Cu101  1  0.66902321  0.16674074  0.83200045  1
  Cu+  Cu102  1  0.66909734  0.49951480  0.16767760  1
  Cu+  Cu103  1  0.66821205  0.50241921  0.50068005  1
  Cu+  Cu104  1  0.66706314  0.49639550  0.83591799  1
  Cu+  Cu105  1  0.66354797  0.82685097  0.15782403  1
  Cu+  Cu106  1  0.66493451  0.83397500  0.49791027  1
  Cu+  Cu107  1  0.66431885  0.83870793  0.83819494  1
  Cu+  Cu108  1  0.58369365  0.92992350  0.93010480  1
  Cu+  Cu109  1  0.73718649  0.08524465  0.92834572  1
  Cu+  Cu110  1  0.59725708  0.92759229  0.58900108  1
  Cu+  Cu111  1  0.92207334  0.07420079  0.41322598  1
  Cu+  Cu112  1  0.08430536  0.07081490  0.26127595  1
  Cu+  Cu113  1  0.07040467  0.59245072  0.74344707  1
  Cu+  Cu114  1  0.73963648  0.26504883  0.40100875  1
  Cu+  Cu115  1  0.26044645  0.26038535  0.92671243  1
  Cu+  Cu116  1  0.07163984  0.59172229  0.40374618  1
  Cu+  Cu117  1  0.59496047  0.26823384  0.59819157  1
  Cu+  Cu118  1  0.26194095  0.59890496  0.93251674  1
  Cu+  Cu119  1  0.92888621  0.40021588  0.07015724  1
  Cu+  Cu120  1  0.73766345  0.92970552  0.08394227  1
  Cu+  Cu121  1  0.25979216  0.06589876  0.74434821  1
  Cu+  Cu122  1  0.26360648  0.25860247  0.58465297  1
  Cu+  Cu123  1  0.26012597  0.59859086  0.58356017  1
  Cu+  Cu124  1  0.40845672  0.06942035  0.59126601  1
  Cu+  Cu125  1  0.92775465  0.91365071  0.25891488  1
  Cu+  Cu126  1  0.26474434  0.41114638  0.73897369  1
  Cu+  Cu127  1  0.59614378  0.74032805  0.40621937  1
  Cu+  Cu128  1  0.06463888  0.92891186  0.73502473  1
  Cu+  Cu129  1  0.07987335  0.07357487  0.92513836  1
  Cu+  Cu130  1  0.41195694  0.59864892  0.73793358  1
  Cu+  Cu131  1  0.92959406  0.74003494  0.07096210  1
  Cu+  Cu132  1  0.58736455  0.73055988  0.06725864  1
  Te2-  Te133  1  0.25393288  0.25465645  0.07910989  1
  Te2-  Te134  1  0.25361819  0.24676420  0.41487367  1
  Te2-  Te135  1  0.25884231  0.25563511  0.73988046  1
  Te2-  Te136  1  0.25390119  0.58864229  0.08478002  1
  Te2-  Te137  1  0.24997347  0.58300045  0.41588671  1
  Te2-  Te138  1  0.25822381  0.59563482  0.74312941  1
  Te2-  Te139  1  0.25313006  0.91894481  0.08299018  1
  Te2-  Te140  1  0.24866563  0.91580564  0.41357367  1
  Te2-  Te141  1  0.25429745  0.91495013  0.74702506  1
  Te2-  Te142  1  0.58511994  0.25250085  0.08156474  1
  Te2-  Te143  1  0.58408362  0.25802183  0.41060450  1
  Te2-  Te144  1  0.58479578  0.25201840  0.74956393  1
  Te2-  Te145  1  0.58715657  0.58087877  0.07857038  1
  Te2-  Te146  1  0.58717453  0.58570240  0.41280397  1
  Te2-  Te147  1  0.58725622  0.58362122  0.75067969  1
  Te2-  Te148  1  0.58471018  0.92615886  0.08103783  1
  Te2-  Te149  1  0.58351461  0.92187245  0.41366428  1
  Te2-  Te150  1  0.58897143  0.92143842  0.74471234  1
  Te2-  Te151  1  0.92333653  0.24685051  0.08189413  1
  Te2-  Te152  1  0.91956470  0.25486521  0.41654563  1
  Te2-  Te153  1  0.92329738  0.25233592  0.74868739  1
  Te2-  Te154  1  0.92260150  0.58614341  0.07681398  1
  Te2-  Te155  1  0.91813670  0.58739871  0.41261143  1
  Te2-  Te156  1  0.91787803  0.58723984  0.74745193  1
  Te2-  Te157  1  0.91854439  0.91874738  0.08155846  1
  Te2-  Te158  1  0.91776811  0.91998372  0.41309402  1
  Te2-  Te159  1  0.91347407  0.92323247  0.74910810  1
  Te2-  Te160  1  0.25256759  0.08221281  0.25022368  1
  Te2-  Te161  1  0.25405893  0.06909290  0.58523199  1
  Te2-  Te162  1  0.24920101  0.07740419  0.91403315  1
  Te2-  Te163  1  0.25005256  0.41595540  0.25322829  1
  Te2-  Te164  1  0.25514125  0.41054769  0.58656858  1
  Te2-  Te165  1  0.25937663  0.41686247  0.92128528  1
  Te2-  Te166  1  0.25150296  0.74779706  0.25193176  1
  Te2-  Te167  1  0.24820554  0.74929457  0.58740521  1
  Te2-  Te168  1  0.25295952  0.75025695  0.92056064  1
  Te2-  Te169  1  0.58590095  0.08189224  0.25488787  1
  Te2-  Te170  1  0.59249792  0.08319426  0.58617261  1
  Te2-  Te171  1  0.58433237  0.08224066  0.92101910  1
  Te2-  Te172  1  0.58590981  0.41531773  0.25253485  1
  Te2-  Te173  1  0.58758526  0.42065294  0.59027282  1
  Te2-  Te174  1  0.58328675  0.41191675  0.91927021  1
  Te2-  Te175  1  0.58725915  0.74511925  0.25216816  1
  Te2-  Te176  1  0.58638571  0.74670056  0.58510262  1
  Te2-  Te177  1  0.58756985  0.74203206  0.91521819  1
  Te2-  Te178  1  0.92046752  0.07668214  0.25713192  1
  Te2-  Te179  1  0.91531455  0.08143243  0.58739982  1
  Te2-  Te180  1  0.92542508  0.08047388  0.92174175  1
  Te2-  Te181  1  0.92114553  0.41393861  0.25321275  1
  Te2-  Te182  1  0.91772231  0.41307587  0.58252931  1
  Te2-  Te183  1  0.92432261  0.41114130  0.91718082  1
  Te2-  Te184  1  0.91641768  0.74533753  0.25471546  1
  Te2-  Te185  1  0.91456750  0.74914681  0.58734979  1
  Te2-  Te186  1  0.91894268  0.75030708  0.91931709  1
  Te2-  Te187  1  0.08296768  0.25485638  0.25162902  1
  Te2-  Te188  1  0.08015200  0.24516230  0.58554708  1
  Te2-  Te189  1  0.08500513  0.25901609  0.91203108  1
  Te2-  Te190  1  0.07689831  0.58504800  0.25052075  1
  Te2-  Te191  1  0.07589238  0.58328497  0.58920538  1
  Te2-  Te192  1  0.08198575  0.58594292  0.91994094  1
  Te2-  Te193  1  0.07902591  0.91812940  0.25395460  1
  Te2-  Te194  1  0.07412895  0.91860790  0.58407710  1
  Te2-  Te195  1  0.07987722  0.91932504  0.92234320  1
  Te2-  Te196  1  0.41329531  0.25254117  0.25290510  1
  Te2-  Te197  1  0.41584712  0.25696963  0.58607509  1
  Te2-  Te198  1  0.41329000  0.24900823  0.91956320  1
  Te2-  Te199  1  0.41446519  0.58708840  0.25262947  1
  Te2-  Te200  1  0.41435527  0.59277616  0.58502309  1
  Te2-  Te201  1  0.41472259  0.58747323  0.92395980  1
  Te2-  Te202  1  0.41713502  0.91679374  0.25404953  1
  Te2-  Te203  1  0.40923347  0.91693884  0.58685188  1
  Te2-  Te204  1  0.41555781  0.91631095  0.91922095  1
  Te2-  Te205  1  0.75007440  0.25312685  0.24955015  1
  Te2-  Te206  1  0.74907458  0.25917125  0.59374086  1
  Te2-  Te207  1  0.74961607  0.25229160  0.91994920  1
  Te2-  Te208  1  0.75067642  0.58655952  0.24945597  1
  Te2-  Te209  1  0.74925219  0.58571977  0.58681743  1
  Te2-  Te210  1  0.74955910  0.58187431  0.91999137  1
  Te2-  Te211  1  0.73780100  0.91469858  0.24974573  1
  Te2-  Te212  1  0.74769112  0.92066331  0.58611251  1
  Te2-  Te213  1  0.74399696  0.92527233  0.92592258  1
  Te2-  Te214  1  0.08175519  0.08125814  0.07693564  1
  Te2-  Te215  1  0.07890948  0.07628130  0.41353476  1
  Te2-  Te216  1  0.07832407  0.08393968  0.73844927  1
  Te2-  Te217  1  0.08403578  0.41409514  0.07602490  1
  Te2-  Te218  1  0.08207645  0.40815946  0.41722245  1
  Te2-  Te219  1  0.08598432  0.41596969  0.74778228  1
  Te2-  Te220  1  0.08205345  0.74618350  0.07915122  1
  Te2-  Te221  1  0.07572773  0.74585142  0.41278255  1
  Te2-  Te222  1  0.07730503  0.74633929  0.74947824  1
  Te2-  Te223  1  0.41312833  0.07968854  0.08258412  1
  Te2-  Te224  1  0.41800304  0.08139062  0.41603319  1
  Te2-  Te225  1  0.41357058  0.07593321  0.74546965  1
  Te2-  Te226  1  0.41308784  0.41304515  0.08412736  1
  Te2-  Te227  1  0.41574415  0.41664669  0.41721658  1
  Te2-  Te228  1  0.41491209  0.41127188  0.74651451  1
  Te2-  Te229  1  0.41489598  0.74923614  0.08141747  1
  Te2-  Te230  1  0.40977558  0.74834795  0.41411844  1
  Te2-  Te231  1  0.41588355  0.75079899  0.74274140  1
  Te2-  Te232  1  0.74696452  0.08139125  0.08357258  1
  Te2-  Te233  1  0.74087006  0.08560533  0.41722120  1
  Te2-  Te234  1  0.75009646  0.08208575  0.74713347  1
  Te2-  Te235  1  0.74867594  0.41296501  0.08135834  1
  Te2-  Te236  1  0.74499755  0.41818831  0.41000860  1
  Te2-  Te237  1  0.75002182  0.41411961  0.74932522  1
  Te2-  Te238  1  0.74456098  0.73887090  0.07615773  1
  Te2-  Te239  1  0.74830524  0.74672354  0.41239697  1
  Te2-  Te240  1  0.74672597  0.75090534  0.75373949  1
