# generated using pymatgen
data_Ti27(Cu53Te54)2
_symmetry_space_group_name_H-M   'P 1'
_cell_length_a   17.92217417
_cell_length_b   17.92626461
_cell_length_c   17.92166336
_cell_angle_alpha   90.01754063
_cell_angle_beta   90.00015910
_cell_angle_gamma   89.93606195
_symmetry_Int_Tables_number   1
_chemical_formula_structural   Ti27(Cu53Te54)2
_chemical_formula_sum   'Ti27 Cu106 Te108'
_cell_volume   5757.82579221
_cell_formula_units_Z   1
loop_
 _symmetry_equiv_pos_site_id
 _symmetry_equiv_pos_as_xyz
  1  'x, y, z'
loop_
 _atom_type_symbol
 _atom_type_oxidation_number
  Ti4+  4.0
  Cu+  1.0
  Te2-  -2.0
loop_
 _atom_site_type_symbol
 _atom_site_label
 _atom_site_symmetry_multiplicity
 _atom_site_fract_x
 _atom_site_fract_y
 _atom_site_fract_z
 _atom_site_occupancy
  Ti4+  Ti0  1  0.16959757  0.16404443  0.16648345  1
  Ti4+  Ti1  1  0.17122302  0.16557642  0.49920676  1
  Ti4+  Ti2  1  0.16763283  0.16856895  0.83304199  1
  Ti4+  Ti3  1  0.16429106  0.49912544  0.16937805  1
  Ti4+  Ti4  1  0.16541192  0.50036171  0.49777906  1
  Ti4+  Ti5  1  0.16475873  0.50243015  0.83377230  1
  Ti4+  Ti6  1  0.16251236  0.82974107  0.16550942  1
  Ti4+  Ti7  1  0.16678746  0.83370757  0.50303611  1
  Ti4+  Ti8  1  0.16170493  0.83300139  0.83338694  1
  Ti4+  Ti9  1  0.50064223  0.16721001  0.16669666  1
  Ti4+  Ti10  1  0.50234550  0.16850706  0.50062958  1
  Ti4+  Ti11  1  0.49990482  0.16769146  0.83222198  1
  Ti4+  Ti12  1  0.50131861  0.50144138  0.16956073  1
  Ti4+  Ti13  1  0.49868715  0.50261400  0.50356468  1
  Ti4+  Ti14  1  0.50234662  0.50243346  0.83417712  1
  Ti4+  Ti15  1  0.49554915  0.83331368  0.16722892  1
  Ti4+  Ti16  1  0.50147356  0.83501405  0.50173614  1
  Ti4+  Ti17  1  0.49875529  0.83381036  0.83463460  1
  Ti4+  Ti18  1  0.83501224  0.16840224  0.16392524  1
  Ti4+  Ti19  1  0.83705563  0.16365544  0.49904742  1
  Ti4+  Ti20  1  0.83268162  0.16783936  0.83231011  1
  Ti4+  Ti21  1  0.83654886  0.49425621  0.16609166  1
  Ti4+  Ti22  1  0.83451596  0.49936854  0.49398137  1
  Ti4+  Ti23  1  0.83433603  0.49642666  0.82948924  1
  Ti4+  Ti24  1  0.83066241  0.83712829  0.16654103  1
  Ti4+  Ti25  1  0.83451640  0.83233071  0.49914242  1
  Ti4+  Ti26  1  0.83165035  0.83217002  0.83386563  1
  Cu+  Cu27  1  0.16876523  0.16650663  -0.00116872  1
  Cu+  Cu28  1  0.17611411  0.16645970  0.33255750  1
  Cu+  Cu29  1  0.16853092  0.16709987  0.66807307  1
  Cu+  Cu30  1  0.16389070  0.50177374  0.00261341  1
  Cu+  Cu31  1  0.16050085  0.50190503  0.33041635  1
  Cu+  Cu32  1  0.16401382  0.50505933  0.66765397  1
  Cu+  Cu33  1  0.15535189  0.82920980  -0.00270984  1
  Cu+  Cu34  1  0.16847673  0.83234415  0.33575019  1
  Cu+  Cu35  1  0.16658751  0.83299010  0.66970110  1
  Cu+  Cu36  1  0.49994891  0.16766082  -0.00110807  1
  Cu+  Cu37  1  0.50151801  0.16900213  0.33537486  1
  Cu+  Cu38  1  0.49909441  0.16643741  0.66562672  1
  Cu+  Cu39  1  0.50239259  0.50420761  0.00349109  1
  Cu+  Cu40  1  0.50020908  0.50102686  0.33864711  1
  Cu+  Cu41  1  0.50196768  0.50017397  0.67147714  1
  Cu+  Cu42  1  0.49408151  0.83303396  0.00120605  1
  Cu+  Cu43  1  0.50129314  0.83804403  0.33180576  1
  Cu+  Cu44  1  0.50094385  0.82984408  0.66928788  1
  Cu+  Cu45  1  0.83387548  0.17008964  -0.00262338  1
  Cu+  Cu46  1  0.83421923  0.16464250  0.32963963  1
  Cu+  Cu47  1  0.83531454  0.16582411  0.66710578  1
  Cu+  Cu48  1  0.83613297  0.49052453  -0.00417101  1
  Cu+  Cu49  1  0.84054647  0.49326964  0.33126972  1
  Cu+  Cu50  1  0.83470312  0.49858489  0.65812487  1
  Cu+  Cu51  1  0.83151972  0.83476145  0.00077833  1
  Cu+  Cu52  1  0.82921098  0.83760683  0.33610721  1
  Cu+  Cu53  1  0.83506706  0.83127785  0.66681501  1
  Cu+  Cu54  1  0.16609669  -0.00489555  0.16463661  1
  Cu+  Cu55  1  0.16717726  0.00232846  0.50323693  1
  Cu+  Cu56  1  0.16594234  0.00200704  0.83356894  1
  Cu+  Cu57  1  0.16947761  0.32791723  0.17199014  1
  Cu+  Cu58  1  0.17102293  0.33070333  0.49897105  1
  Cu+  Cu59  1  0.16846980  0.33531709  0.83555563  1
  Cu+  Cu60  1  0.16332081  0.66092741  0.16524455  1
  Cu+  Cu61  1  0.16819940  0.66491223  0.50126295  1
  Cu+  Cu62  1  0.15745371  0.66817922  0.83167175  1
  Cu+  Cu63  1  0.49750842  -0.00062937  0.16838091  1
  Cu+  Cu64  1  0.50092165  0.00363123  0.50327784  1
  Cu+  Cu65  1  0.49789961  -0.00086959  0.83377333  1
  Cu+  Cu66  1  0.50117086  0.33399693  0.16589160  1
  Cu+  Cu67  1  0.50153088  0.33508511  0.49968568  1
  Cu+  Cu68  1  0.50200957  0.33476750  0.83158669  1
  Cu+  Cu69  1  0.49736705  0.66785008  0.16682509  1
  Cu+  Cu70  1  0.49557937  0.67167374  0.50603905  1
  Cu+  Cu71  1  0.50500638  0.66955639  0.83165711  1
  Cu+  Cu72  1  0.83062709  0.00545374  0.16684673  1
  Cu+  Cu73  1  0.83805688  -0.00450093  0.50046842  1
  Cu+  Cu74  1  0.83187485  0.00121733  0.83384916  1
  Cu+  Cu75  1  0.83545366  0.33386675  0.16166150  1
  Cu+  Cu76  1  0.83668832  0.32948117  0.49484476  1
  Cu+  Cu77  1  0.82941028  0.33327089  0.83340884  1
  Cu+  Cu78  1  0.83535768  0.67024068  0.16449647  1
  Cu+  Cu79  1  0.83099769  0.66771281  0.49718949  1
  Cu+  Cu80  1  0.83358953  0.66272015  0.83198215  1
  Cu+  Cu81  1  0.00123505  0.16651769  0.16282095  1
  Cu+  Cu82  1  0.00682069  0.16089658  0.49997782  1
  Cu+  Cu83  1  -0.00084493  0.17051873  0.83411355  1
  Cu+  Cu84  1  -0.00150756  0.49537529  0.16797174  1
  Cu+  Cu85  1  0.00117593  0.50061235  0.48868939  1
  Cu+  Cu86  1  0.00056971  0.50224161  0.82701164  1
  Cu+  Cu87  1  -0.00059352  0.83752590  0.16246981  1
  Cu+  Cu88  1  -0.00280288  0.83481250  0.50568482  1
  Cu+  Cu89  1  -0.00313956  0.82918130  0.83704186  1
  Cu+  Cu90  1  0.33478928  0.16824852  0.16821149  1
  Cu+  Cu91  1  0.33916315  0.16475203  0.50250573  1
  Cu+  Cu92  1  0.33303722  0.16941799  0.83256619  1
  Cu+  Cu93  1  0.33581264  0.49873668  0.17114835  1
  Cu+  Cu94  1  0.33054066  0.50486297  0.50413746  1
  Cu+  Cu95  1  0.33448386  0.50512601  0.83773215  1
  Cu+  Cu96  1  0.32766012  0.83215111  0.16843339  1
  Cu+  Cu97  1  0.33659320  0.83177042  0.50397821  1
  Cu+  Cu98  1  0.32921036  0.83412957  0.83487760  1
  Cu+  Cu99  1  0.66742752  0.16683838  0.16608805  1
  Cu+  Cu100  1  0.66894676  0.16828933  0.49967542  1
  Cu+  Cu101  1  0.66552929  0.16647126  0.83185637  1
  Cu+  Cu102  1  0.66884972  0.49999636  0.16973066  1
  Cu+  Cu103  1  0.66329672  0.49915019  0.49524033  1
  Cu+  Cu104  1  0.66863709  0.49394602  0.83046658  1
  Cu+  Cu105  1  0.66199407  0.83521021  0.16737419  1
  Cu+  Cu106  1  0.66902145  0.83537012  0.49781622  1
  Cu+  Cu107  1  0.66562616  0.83170329  0.83300752  1
  Cu+  Cu108  1  0.07778690  0.07746027  0.59837378  1
  Cu+  Cu109  1  0.58602104  0.40588316  0.40707822  1
  Cu+  Cu110  1  0.06970161  0.58622100  0.07499771  1
  Cu+  Cu111  1  0.91611530  0.60001914  0.25765952  1
  Cu+  Cu112  1  0.41038042  0.07429011  0.59608612  1
  Cu+  Cu113  1  0.07803898  0.39761194  0.25843385  1
  Cu+  Cu114  1  0.73938694  0.07927985  0.25751371  1
  Cu+  Cu115  1  0.73806500  0.40433765  0.92559859  1
  Cu+  Cu116  1  0.07266828  0.93012580  0.07008578  1
  Cu+  Cu117  1  0.93140341  0.40381916  0.06590574  1
  Cu+  Cu118  1  0.06606793  0.73747630  0.92610305  1
  Cu+  Cu119  1  0.26636620  0.25816609  0.26216723  1
  Cu+  Cu120  1  0.92443698  0.92319599  0.60009831  1
  Cu+  Cu121  1  0.07676041  0.59929748  0.40785319  1
  Cu+  Cu122  1  0.73997089  0.92896385  0.41476349  1
  Cu+  Cu123  1  0.25790103  0.59024578  0.59856187  1
  Cu+  Cu124  1  0.74049294  0.40794729  0.25787337  1
  Cu+  Cu125  1  0.59726385  0.74267069  0.73974536  1
  Cu+  Cu126  1  0.26246776  0.59124147  0.25510207  1
  Cu+  Cu127  1  0.58979575  0.92732889  0.25544232  1
  Cu+  Cu128  1  0.25325210  0.92465258  0.26205352  1
  Cu+  Cu129  1  0.93098816  0.39838321  0.41233714  1
  Cu+  Cu130  1  0.40724504  0.74264448  0.59894008  1
  Cu+  Cu131  1  0.59432133  0.40241782  0.74076187  1
  Cu+  Cu132  1  0.06889008  0.59542990  0.73663371  1
  Te2-  Te133  1  0.25295801  0.25156504  0.08123267  1
  Te2-  Te134  1  0.26025771  0.25231395  0.41597772  1
  Te2-  Te135  1  0.25201702  0.25474636  0.74792042  1
  Te2-  Te136  1  0.25384885  0.58234960  0.08341285  1
  Te2-  Te137  1  0.25252194  0.58663909  0.41068508  1
  Te2-  Te138  1  0.25276102  0.59001973  0.75142198  1
  Te2-  Te139  1  0.24725842  0.91132454  0.07588336  1
  Te2-  Te140  1  0.25370846  0.91841654  0.41931049  1
  Te2-  Te141  1  0.24914083  0.91860225  0.75008147  1
  Te2-  Te142  1  0.58557383  0.25162190  0.08144311  1
  Te2-  Te143  1  0.58927334  0.25366932  0.41339820  1
  Te2-  Te144  1  0.58671891  0.25142180  0.74451733  1
  Te2-  Te145  1  0.58771145  0.58689947  0.08646710  1
  Te2-  Te146  1  0.58107982  0.59133597  0.41886095  1
  Te2-  Te147  1  0.59056530  0.58722811  0.74703603  1
  Te2-  Te148  1  0.58077615  0.91870995  0.08049596  1
  Te2-  Te149  1  0.58594874  0.92444069  0.41476048  1
  Te2-  Te150  1  0.58448306  0.91900970  0.74874031  1
  Te2-  Te151  1  0.92249548  0.25264271  0.07646143  1
  Te2-  Te152  1  0.92443931  0.24493323  0.41161598  1
  Te2-  Te153  1  0.91757112  0.25397915  0.74775460  1
  Te2-  Te154  1  0.91680993  0.58424253  0.07638100  1
  Te2-  Te155  1  0.91910943  0.59220660  0.40951787  1
  Te2-  Te156  1  0.91644611  0.58519995  0.74178100  1
  Te2-  Te157  1  0.91552339  0.92324168  0.08000408  1
  Te2-  Te158  1  0.92284548  0.91762144  0.41215879  1
  Te2-  Te159  1  0.91926654  0.91879318  0.75112035  1
  Te2-  Te160  1  0.25566746  0.07618549  0.25040012  1
  Te2-  Te161  1  0.25619118  0.08032098  0.58845970  1
  Te2-  Te162  1  0.25324428  0.08211636  0.91712800  1
  Te2-  Te163  1  0.25388482  0.41337753  0.25687743  1
  Te2-  Te164  1  0.24924132  0.41633704  0.58636736  1
  Te2-  Te165  1  0.25091607  0.41982565  0.92027007  1
  Te2-  Te166  1  0.24889322  0.74329617  0.25262385  1
  Te2-  Te167  1  0.25234659  0.74636066  0.58961539  1
  Te2-  Te168  1  0.24679144  0.74670145  0.91780102  1
  Te2-  Te169  1  0.58615334  0.08079323  0.25557635  1
  Te2-  Te170  1  0.58944218  0.08346613  0.58626500  1
  Te2-  Te171  1  0.58399991  0.08157587  0.91708199  1
  Te2-  Te172  1  0.58652916  0.41217373  0.25543346  1
  Te2-  Te173  1  0.58625450  0.41547079  0.58754877  1
  Te2-  Te174  1  0.58509348  0.41467802  0.92229437  1
  Te2-  Te175  1  0.58306165  0.74790733  0.25217598  1
  Te2-  Te176  1  0.59111778  0.74886447  0.58493783  1
  Te2-  Te177  1  0.58428455  0.75030050  0.92242798  1
  Te2-  Te178  1  0.92173241  0.08206789  0.24887410  1
  Te2-  Te179  1  0.92203668  0.07849576  0.58818152  1
  Te2-  Te180  1  0.91814298  0.08297349  0.91768803  1
  Te2-  Te181  1  0.92429424  0.40219953  0.25459852  1
  Te2-  Te182  1  0.92216202  0.41445493  0.57809260  1
  Te2-  Te183  1  0.92569393  0.41059047  0.91196120  1
  Te2-  Te184  1  0.91842657  0.75477750  0.25292158  1
  Te2-  Te185  1  0.91761156  0.74347593  0.58531303  1
  Te2-  Te186  1  0.91380713  0.74386128  0.92202328  1
  Te2-  Te187  1  0.08028963  0.24543765  0.25517391  1
  Te2-  Te188  1  0.08440427  0.25164752  0.58374554  1
  Te2-  Te189  1  0.08293055  0.25315474  0.91944244  1
  Te2-  Te190  1  0.07200787  0.59112788  0.25409257  1
  Te2-  Te191  1  0.07541935  0.58643655  0.58226614  1
  Te2-  Te192  1  0.07383378  0.58549791  0.92192043  1
  Te2-  Te193  1  0.08072525  0.91667953  0.25422437  1
  Te2-  Te194  1  0.08123844  0.92056405  0.59013241  1
  Te2-  Te195  1  0.07551627  0.92314072  0.91718219  1
  Te2-  Te196  1  0.41733097  0.25446020  0.25395405  1
  Te2-  Te197  1  0.41665892  0.25581499  0.58531995  1
  Te2-  Te198  1  0.41596352  0.25383137  0.91702282  1
  Te2-  Te199  1  0.41640069  0.58704938  0.25661202  1
  Te2-  Te200  1  0.41260021  0.58802787  0.59354129  1
  Te2-  Te201  1  0.41942919  0.58936725  0.91966310  1
  Te2-  Te202  1  0.40816445  0.92027107  0.25371322  1
  Te2-  Te203  1  0.41607852  0.92004553  0.58909590  1
  Te2-  Te204  1  0.41163988  0.91884040  0.91855448  1
  Te2-  Te205  1  0.74868023  0.25423454  0.25135702  1
  Te2-  Te206  1  0.75368053  0.25056793  0.58248449  1
  Te2-  Te207  1  0.74393808  0.25228549  0.91918589  1
  Te2-  Te208  1  0.75410014  0.58455917  0.25242955  1
  Te2-  Te209  1  0.74781886  0.58276877  0.57911369  1
  Te2-  Te210  1  0.74990050  0.58002757  0.91731032  1
  Te2-  Te211  1  0.74349425  0.92419501  0.25448070  1
  Te2-  Te212  1  0.74862399  0.91859346  0.58718906  1
  Te2-  Te213  1  0.74705836  0.91786695  0.91709928  1
  Te2-  Te214  1  0.08265645  0.08131157  0.07881916  1
  Te2-  Te215  1  0.08823539  0.08054600  0.41031009  1
  Te2-  Te216  1  0.07897079  0.08239386  0.74937216  1
  Te2-  Te217  1  0.08366816  0.40784469  0.08060295  1
  Te2-  Te218  1  0.08304013  0.40570306  0.41148651  1
  Te2-  Te219  1  0.08359490  0.41403575  0.74716761  1
  Te2-  Te220  1  0.07276145  0.74101592  0.08087160  1
  Te2-  Te221  1  0.07981041  0.75103848  0.41740986  1
  Te2-  Te222  1  0.07439576  0.74877649  0.74271855  1
  Te2-  Te223  1  0.41546419  0.08287857  0.08221877  1
  Te2-  Te224  1  0.41769257  0.08168395  0.41371299  1
  Te2-  Te225  1  0.41278273  0.08086045  0.74839124  1
  Te2-  Te226  1  0.41673363  0.41740937  0.08298319  1
  Te2-  Te227  1  0.41148965  0.41794635  0.41924780  1
  Te2-  Te228  1  0.41290946  0.41830408  0.75119470  1
  Te2-  Te229  1  0.41009133  0.74747953  0.08289605  1
  Te2-  Te230  1  0.41697267  0.75179735  0.41349179  1
  Te2-  Te231  1  0.40986190  0.74623497  0.75078414  1
  Te2-  Te232  1  0.74830272  0.08458773  0.07744839  1
  Te2-  Te233  1  0.74744621  0.07993561  0.41359002  1
  Te2-  Te234  1  0.74809824  0.08187132  0.74724942  1
  Te2-  Te235  1  0.74412848  0.41177932  0.07964624  1
  Te2-  Te236  1  0.74528180  0.41010806  0.41137226  1
  Te2-  Te237  1  0.75000410  0.41187747  0.73949003  1
  Te2-  Te238  1  0.74650853  0.75070167  0.08373103  1
  Te2-  Te239  1  0.74627409  0.74737948  0.41245413  1
  Te2-  Te240  1  0.74907715  0.74513536  0.74650590  1
