# generated using pymatgen
data_Ti27(Cu53Te54)2
_symmetry_space_group_name_H-M   'P 1'
_cell_length_a   17.87432452
_cell_length_b   17.87036097
_cell_length_c   17.87139810
_cell_angle_alpha   89.98113921
_cell_angle_beta   89.99962950
_cell_angle_gamma   90.01407813
_symmetry_Int_Tables_number   1
_chemical_formula_structural   Ti27(Cu53Te54)2
_chemical_formula_sum   'Ti27 Cu106 Te108'
_cell_volume   5708.49278174
_cell_formula_units_Z   1
loop_
 _symmetry_equiv_pos_site_id
 _symmetry_equiv_pos_as_xyz
  1  'x, y, z'
loop_
 _atom_type_symbol
 _atom_type_oxidation_number
  Ti4+  4.0
  Cu+  1.0
  Te2-  -2.0
loop_
 _atom_site_type_symbol
 _atom_site_label
 _atom_site_symmetry_multiplicity
 _atom_site_fract_x
 _atom_site_fract_y
 _atom_site_fract_z
 _atom_site_occupancy
  Ti4+  Ti0  1  0.16826759  0.16591419  0.16479765  1
  Ti4+  Ti1  1  0.16711651  0.16887346  0.50321536  1
  Ti4+  Ti2  1  0.16502573  0.16392301  0.83307746  1
  Ti4+  Ti3  1  0.16765386  0.49981840  0.16483408  1
  Ti4+  Ti4  1  0.16882537  0.50215663  0.49926642  1
  Ti4+  Ti5  1  0.16408302  0.49955012  0.83292048  1
  Ti4+  Ti6  1  0.16837753  0.83199056  0.16210904  1
  Ti4+  Ti7  1  0.16677658  0.83582995  0.49610679  1
  Ti4+  Ti8  1  0.16625778  0.83322840  0.83475405  1
  Ti4+  Ti9  1  0.50027133  0.16579796  0.16387075  1
  Ti4+  Ti10  1  0.50028985  0.16691128  0.49904743  1
  Ti4+  Ti11  1  0.49568574  0.16735623  0.83461056  1
  Ti4+  Ti12  1  0.50302255  0.50076365  0.16487721  1
  Ti4+  Ti13  1  0.50034369  0.49806061  0.50406604  1
  Ti4+  Ti14  1  0.49827656  0.50005690  0.83730295  1
  Ti4+  Ti15  1  0.50153306  0.83379182  0.17046376  1
  Ti4+  Ti16  1  0.49854179  0.83383639  0.49947789  1
  Ti4+  Ti17  1  0.50180182  0.83434662  0.83351853  1
  Ti4+  Ti18  1  0.83341361  0.16485210  0.16695310  1
  Ti4+  Ti19  1  0.83541468  0.16894326  0.50170576  1
  Ti4+  Ti20  1  0.83062364  0.16411464  0.83262525  1
  Ti4+  Ti21  1  0.83167347  0.49702842  0.16895987  1
  Ti4+  Ti22  1  0.83134986  0.50049172  0.49861391  1
  Ti4+  Ti23  1  0.83058104  0.49982777  0.83393738  1
  Ti4+  Ti24  1  0.83442818  0.83091456  0.16997805  1
  Ti4+  Ti25  1  0.83054222  0.83397149  0.49795596  1
  Ti4+  Ti26  1  0.83506693  0.83137943  0.83126133  1
  Cu+  Cu27  1  0.16944775  0.16283111  -0.00202686  1
  Cu+  Cu28  1  0.16882104  0.16770188  0.33706667  1
  Cu+  Cu29  1  0.16095538  0.16507824  0.66542164  1
  Cu+  Cu30  1  0.16738186  0.50246554  -0.00209139  1
  Cu+  Cu31  1  0.17016892  0.50102116  0.33140588  1
  Cu+  Cu32  1  0.16477971  0.49959800  0.66628105  1
  Cu+  Cu33  1  0.16203622  0.83492346  0.00157403  1
  Cu+  Cu34  1  0.16608869  0.83344260  0.32522375  1
  Cu+  Cu35  1  0.16639363  0.83324663  0.66694006  1
  Cu+  Cu36  1  0.49159676  0.17180122  0.00126746  1
  Cu+  Cu37  1  0.50003843  0.17040766  0.32835641  1
  Cu+  Cu38  1  0.49732098  0.16392979  0.66565614  1
  Cu+  Cu39  1  0.51024539  0.50171238  -0.00092187  1
  Cu+  Cu40  1  0.50038915  0.49898027  0.33559985  1
  Cu+  Cu41  1  0.49766263  0.49894791  0.67170624  1
  Cu+  Cu42  1  0.50055036  0.83413046  0.00308255  1
  Cu+  Cu43  1  0.50274746  0.83909050  0.33432714  1
  Cu+  Cu44  1  0.50003690  0.83122534  0.66648279  1
  Cu+  Cu45  1  0.82870404  0.16495815  0.00094048  1
  Cu+  Cu46  1  0.83636692  0.17060327  0.33195131  1
  Cu+  Cu47  1  0.83779404  0.16491759  0.66997927  1
  Cu+  Cu48  1  0.82824813  0.50027116  0.00255090  1
  Cu+  Cu49  1  0.83684962  0.49587126  0.33592500  1
  Cu+  Cu50  1  0.82703901  0.49972149  0.66583026  1
  Cu+  Cu51  1  0.83918701  0.83223573  -0.00293645  1
  Cu+  Cu52  1  0.83161742  0.82520302  0.33515413  1
  Cu+  Cu53  1  0.82882246  0.83574340  0.66445527  1
  Cu+  Cu54  1  0.17383507  0.00168002  0.15735384  1
  Cu+  Cu55  1  0.16740857  0.00500978  0.49839315  1
  Cu+  Cu56  1  0.16810076  -0.00317783  0.83312662  1
  Cu+  Cu57  1  0.16584552  0.33634683  0.16564705  1
  Cu+  Cu58  1  0.16979998  0.33416959  0.50139231  1
  Cu+  Cu59  1  0.16221562  0.33128371  0.83209119  1
  Cu+  Cu60  1  0.16628957  0.66516848  0.16451048  1
  Cu+  Cu61  1  0.16811134  0.66815852  0.49854816  1
  Cu+  Cu62  1  0.16612827  0.66621997  0.83626152  1
  Cu+  Cu63  1  0.50481601  -0.00226380  0.17117318  1
  Cu+  Cu64  1  0.49318976  0.00160819  0.50302324  1
  Cu+  Cu65  1  0.50282675  0.00226342  0.83169938  1
  Cu+  Cu66  1  0.50175773  0.33374728  0.15914800  1
  Cu+  Cu67  1  0.50636700  0.33388006  0.49923205  1
  Cu+  Cu68  1  0.49469164  0.33300285  0.83457092  1
  Cu+  Cu69  1  0.49918949  0.66878360  0.16868919  1
  Cu+  Cu70  1  0.49637843  0.66369096  0.49887261  1
  Cu+  Cu71  1  0.50038933  0.66872328  0.83770791  1
  Cu+  Cu72  1  0.83469467  0.00114817  0.16738496  1
  Cu+  Cu73  1  0.83268891  -0.00031353  0.49844336  1
  Cu+  Cu74  1  0.83505348  -0.00347889  0.82730784  1
  Cu+  Cu75  1  0.83739201  0.32720486  0.17121068  1
  Cu+  Cu76  1  0.83232016  0.33678271  0.50153799  1
  Cu+  Cu77  1  0.82944569  0.33239396  0.83648640  1
  Cu+  Cu78  1  0.82757959  0.66518389  0.17240095  1
  Cu+  Cu79  1  0.83328579  0.66807278  0.49712143  1
  Cu+  Cu80  1  0.83307834  0.66682969  0.83069093  1
  Cu+  Cu81  1  -0.00159718  0.16775961  0.16919361  1
  Cu+  Cu82  1  0.00390896  0.16831096  0.50701906  1
  Cu+  Cu83  1  -0.00175515  0.16288309  0.83141211  1
  Cu+  Cu84  1  -0.00001124  0.49928720  0.16553988  1
  Cu+  Cu85  1  0.00259437  0.50266131  0.49747313  1
  Cu+  Cu86  1  -0.00328199  0.49771812  0.83244324  1
  Cu+  Cu87  1  0.00646422  0.83025562  0.16535781  1
  Cu+  Cu88  1  -0.00351254  0.83477616  0.49630657  1
  Cu+  Cu89  1  -0.00111379  0.83386630  0.83795069  1
  Cu+  Cu90  1  0.33593466  0.16557238  0.15772073  1
  Cu+  Cu91  1  0.33526085  0.16304489  0.50353446  1
  Cu+  Cu92  1  0.32974340  0.16850154  0.83236258  1
  Cu+  Cu93  1  0.33411677  0.49955958  0.16683775  1
  Cu+  Cu94  1  0.33519617  0.50323151  0.49960132  1
  Cu+  Cu95  1  0.32917364  0.50320253  0.83794962  1
  Cu+  Cu96  1  0.33123402  0.83520068  0.16895860  1
  Cu+  Cu97  1  0.33545951  0.83726318  0.49436364  1
  Cu+  Cu98  1  0.33539209  0.83334721  0.83551302  1
  Cu+  Cu99  1  0.66909148  0.16398344  0.16542579  1
  Cu+  Cu100  1  0.66955590  0.17126218  0.49992172  1
  Cu+  Cu101  1  0.66046293  0.16386557  0.83292736  1
  Cu+  Cu102  1  0.66833516  0.49935053  0.15929641  1
  Cu+  Cu103  1  0.66611804  0.49221668  0.50439640  1
  Cu+  Cu104  1  0.66328596  0.50154492  0.83766734  1
  Cu+  Cu105  1  0.66762499  0.83076627  0.17487893  1
  Cu+  Cu106  1  0.66261142  0.83303749  0.50161842  1
  Cu+  Cu107  1  0.67051559  0.83487609  0.82978661  1
  Cu+  Cu108  1  0.40127695  0.26822460  0.07426118  1
  Cu+  Cu109  1  0.07279168  0.06934723  0.59036502  1
  Cu+  Cu110  1  0.59262009  0.40756074  0.40321417  1
  Cu+  Cu111  1  0.73970119  0.92562243  0.73710116  1
  Cu+  Cu112  1  0.93356623  0.40610035  0.41615615  1
  Cu+  Cu113  1  0.26693656  0.07234986  0.06574505  1
  Cu+  Cu114  1  0.25361864  0.92923021  0.25479852  1
  Cu+  Cu115  1  0.73506113  0.73337480  0.26487649  1
  Cu+  Cu116  1  0.92772386  0.74046992  0.40900618  1
  Cu+  Cu117  1  0.40709844  0.59089988  0.40585591  1
  Cu+  Cu118  1  0.92905955  0.06948126  0.74161224  1
  Cu+  Cu119  1  0.59507366  0.60101878  0.92233652  1
  Cu+  Cu120  1  0.93197320  0.25626475  0.26177577  1
  Cu+  Cu121  1  0.60091148  0.93030772  0.26307880  1
  Cu+  Cu122  1  0.73942510  0.40405139  0.59862135  1
  Cu+  Cu123  1  0.58912980  0.07702537  0.73655126  1
  Cu+  Cu124  1  0.59837260  0.40105687  0.06902226  1
  Cu+  Cu125  1  0.25805446  0.59664004  0.92757806  1
  Cu+  Cu126  1  0.26102413  0.08218894  0.40839543  1
  Cu+  Cu127  1  0.41185205  0.93009431  0.40539279  1
  Cu+  Cu128  1  0.40465636  0.07119252  0.59902818  1
  Cu+  Cu129  1  0.92282432  0.92912052  0.92576674  1
  Cu+  Cu130  1  0.08039321  0.73496970  0.25623612  1
  Cu+  Cu131  1  0.07324729  0.93085258  0.07827943  1
  Cu+  Cu132  1  0.74519633  0.59827928  0.07410061  1
  Te2-  Te133  1  0.24942613  0.25568389  0.07805610  1
  Te2-  Te134  1  0.25620198  0.25260291  0.41738068  1
  Te2-  Te135  1  0.24746321  0.25039385  0.74628801  1
  Te2-  Te136  1  0.25505144  0.58739464  0.08128988  1
  Te2-  Te137  1  0.25378490  0.58875398  0.41157008  1
  Te2-  Te138  1  0.24993186  0.58611514  0.74735612  1
  Te2-  Te139  1  0.25896786  0.91694226  0.07315323  1
  Te2-  Te140  1  0.25315782  0.92414982  0.40850795  1
  Te2-  Te141  1  0.25334526  0.91622654  0.74846289  1
  Te2-  Te142  1  0.59006662  0.24858292  0.07755292  1
  Te2-  Te143  1  0.58782311  0.25152786  0.41093314  1
  Te2-  Te144  1  0.58058429  0.25234637  0.74766223  1
  Te2-  Te145  1  0.58841628  0.59479375  0.08075533  1
  Te2-  Te146  1  0.58827769  0.58250390  0.41831235  1
  Te2-  Te147  1  0.58315203  0.58581635  0.75028787  1
  Te2-  Te148  1  0.58941995  0.91605660  0.08457485  1
  Te2-  Te149  1  0.58714496  0.92503183  0.41801476  1
  Te2-  Te150  1  0.58656392  0.92062431  0.74262484  1
  Te2-  Te151  1  0.91839742  0.24965351  0.07814417  1
  Te2-  Te152  1  0.92456282  0.25431592  0.41703303  1
  Te2-  Te153  1  0.91715167  0.25385693  0.75205018  1
  Te2-  Te154  1  0.91522039  0.58558878  0.08430011  1
  Te2-  Te155  1  0.92033048  0.58718989  0.41200633  1
  Te2-  Te156  1  0.91552972  0.58281201  0.74617834  1
  Te2-  Te157  1  0.92050321  0.91893044  0.08326812  1
  Te2-  Te158  1  0.91546483  0.91966946  0.41034099  1
  Te2-  Te159  1  0.92411887  0.91530799  0.74148935  1
  Te2-  Te160  1  0.25721241  0.08268034  0.25253717  1
  Te2-  Te161  1  0.25256121  0.07871817  0.59124361  1
  Te2-  Te162  1  0.25505429  0.07720243  0.91584736  1
  Te2-  Te163  1  0.25348580  0.41401261  0.25081226  1
  Te2-  Te164  1  0.25422912  0.41759606  0.58514163  1
  Te2-  Te165  1  0.24857190  0.41135414  0.91793560  1
  Te2-  Te166  1  0.25349979  0.74398090  0.25038029  1
  Te2-  Te167  1  0.25203167  0.75306661  0.58073627  1
  Te2-  Te168  1  0.25267688  0.75022595  0.92251341  1
  Te2-  Te169  1  0.58819350  0.08337907  0.25405301  1
  Te2-  Te170  1  0.58874085  0.08044780  0.58232492  1
  Te2-  Te171  1  0.57999250  0.08391197  0.92383674  1
  Te2-  Te172  1  0.58662397  0.41318898  0.25019122  1
  Te2-  Te173  1  0.58408196  0.41082977  0.59506650  1
  Te2-  Te174  1  0.58726958  0.40738773  0.91778311  1
  Te2-  Te175  1  0.58358610  0.74348703  0.25891675  1
  Te2-  Te176  1  0.58215823  0.74519655  0.58402219  1
  Te2-  Te177  1  0.58983422  0.75305839  0.92082930  1
  Te2-  Te178  1  0.91997122  0.07948638  0.25450117  1
  Te2-  Te179  1  0.91963422  0.07663356  0.58646313  1
  Te2-  Te180  1  0.91689718  0.08007637  0.92082143  1
  Te2-  Te181  1  0.92388442  0.41196725  0.25425238  1
  Te2-  Te182  1  0.91983993  0.41868755  0.58561666  1
  Te2-  Te183  1  0.91446889  0.41553440  0.92080247  1
  Te2-  Te184  1  0.92387447  0.74305808  0.25252807  1
  Te2-  Te185  1  0.91630995  0.74987724  0.58535877  1
  Te2-  Te186  1  0.91954567  0.74255121  0.91763999  1
  Te2-  Te187  1  0.08565702  0.25261128  0.25321964  1
  Te2-  Te188  1  0.08238263  0.25830738  0.58792034  1
  Te2-  Te189  1  0.07949752  0.24748417  0.91869814  1
  Te2-  Te190  1  0.08017874  0.58346953  0.25276643  1
  Te2-  Te191  1  0.08213013  0.58741926  0.58388151  1
  Te2-  Te192  1  0.07643632  0.58452633  0.91810343  1
  Te2-  Te193  1  0.08365069  0.92531342  0.24657919  1
  Te2-  Te194  1  0.08001283  0.91741056  0.58329217  1
  Te2-  Te195  1  0.07880213  0.92387017  0.92127494  1
  Te2-  Te196  1  0.41392535  0.25405976  0.24630671  1
  Te2-  Te197  1  0.41651629  0.25409550  0.58398792  1
  Te2-  Te198  1  0.40677046  0.25523465  0.91848954  1
  Te2-  Te199  1  0.41540893  0.58473526  0.25190968  1
  Te2-  Te200  1  0.41484162  0.58480915  0.58980887  1
  Te2-  Te201  1  0.41408238  0.58759895  0.92456878  1
  Te2-  Te202  1  0.41090780  0.92310255  0.25355236  1
  Te2-  Te203  1  0.41123688  0.91712536  0.59014596  1
  Te2-  Te204  1  0.41806827  0.92007982  0.91859547  1
  Te2-  Te205  1  0.74534869  0.25066188  0.25227270  1
  Te2-  Te206  1  0.74978114  0.25179555  0.59011856  1
  Te2-  Te207  1  0.74377662  0.24816055  0.91750963  1
  Te2-  Te208  1  0.74387427  0.57972911  0.25824268  1
  Te2-  Te209  1  0.74577090  0.58768156  0.58239350  1
  Te2-  Te210  1  0.74624582  0.59093322  0.92069052  1
  Te2-  Te211  1  0.75256528  0.92028819  0.25637107  1
  Te2-  Te212  1  0.74368302  0.92206033  0.58245839  1
  Te2-  Te213  1  0.75055156  0.91887274  0.91907419  1
  Te2-  Te214  1  0.07749186  0.08379790  0.08018957  1
  Te2-  Te215  1  0.07868740  0.08432398  0.41451582  1
  Te2-  Te216  1  0.08009811  0.07372755  0.74608772  1
  Te2-  Te217  1  0.08120750  0.41603209  0.07858515  1
  Te2-  Te218  1  0.08552690  0.41383415  0.41251242  1
  Te2-  Te219  1  0.07861821  0.41395294  0.74675403  1
  Te2-  Te220  1  0.08080042  0.74258308  0.07733408  1
  Te2-  Te221  1  0.08133478  0.74706491  0.41084496  1
  Te2-  Te222  1  0.08086718  0.74870641  0.75039201  1
  Te2-  Te223  1  0.41851610  0.07247268  0.07922670  1
  Te2-  Te224  1  0.41415867  0.08280227  0.40674237  1
  Te2-  Te225  1  0.40891455  0.07883442  0.74961333  1
  Te2-  Te226  1  0.41434948  0.41980198  0.07615759  1
  Te2-  Te227  1  0.41466875  0.41217487  0.41672483  1
  Te2-  Te228  1  0.40985109  0.41674553  0.75230196  1
  Te2-  Te229  1  0.41434179  0.75045295  0.08455296  1
  Te2-  Te230  1  0.41481180  0.74733402  0.41049393  1
  Te2-  Te231  1  0.41567948  0.74745558  0.75034195  1
  Te2-  Te232  1  0.74752574  0.07706520  0.08145451  1
  Te2-  Te233  1  0.75108958  0.08593525  0.41480740  1
  Te2-  Te234  1  0.74287136  0.07910883  0.74359948  1
  Te2-  Te235  1  0.75103048  0.40560315  0.08200738  1
  Te2-  Te236  1  0.74553676  0.41113886  0.41080308  1
  Te2-  Te237  1  0.74283470  0.41341643  0.75145305  1
  Te2-  Te238  1  0.74791289  0.75159750  0.07967268  1
  Te2-  Te239  1  0.73987360  0.74474512  0.41640337  1
  Te2-  Te240  1  0.74776563  0.74577792  0.74506638  1
