# generated using pymatgen
data_Ti27(Cu53Te54)2
_symmetry_space_group_name_H-M   'P 1'
_cell_length_a   17.92802853
_cell_length_b   17.91704325
_cell_length_c   17.91799645
_cell_angle_alpha   90.01909385
_cell_angle_beta   90.01755820
_cell_angle_gamma   90.02983660
_symmetry_Int_Tables_number   1
_chemical_formula_structural   Ti27(Cu53Te54)2
_chemical_formula_sum   'Ti27 Cu106 Te108'
_cell_volume   5755.56839714
_cell_formula_units_Z   1
loop_
 _symmetry_equiv_pos_site_id
 _symmetry_equiv_pos_as_xyz
  1  'x, y, z'
loop_
 _atom_type_symbol
 _atom_type_oxidation_number
  Ti4+  4.0
  Cu+  1.0
  Te2-  -2.0
loop_
 _atom_site_type_symbol
 _atom_site_label
 _atom_site_symmetry_multiplicity
 _atom_site_fract_x
 _atom_site_fract_y
 _atom_site_fract_z
 _atom_site_occupancy
  Ti4+  Ti0  1  0.16774606  0.17015413  0.17105488  1
  Ti4+  Ti1  1  0.16931829  0.17091872  0.50532379  1
  Ti4+  Ti2  1  0.16876613  0.16838446  0.83377178  1
  Ti4+  Ti3  1  0.16274039  0.49815819  0.16501114  1
  Ti4+  Ti4  1  0.16997881  0.50092468  0.50097938  1
  Ti4+  Ti5  1  0.16675629  0.49604464  0.83322657  1
  Ti4+  Ti6  1  0.16570412  0.83369835  0.16782656  1
  Ti4+  Ti7  1  0.16723455  0.83225301  0.50126267  1
  Ti4+  Ti8  1  0.16680389  0.83184002  0.83614990  1
  Ti4+  Ti9  1  0.50249889  0.16706515  0.16914851  1
  Ti4+  Ti10  1  0.49906919  0.16595086  0.50131358  1
  Ti4+  Ti11  1  0.49904152  0.16335915  0.83096582  1
  Ti4+  Ti12  1  0.49958881  0.49954551  0.16124967  1
  Ti4+  Ti13  1  0.49952113  0.50183349  0.49770779  1
  Ti4+  Ti14  1  0.49979683  0.49988968  0.83615377  1
  Ti4+  Ti15  1  0.49897532  0.83675054  0.16529764  1
  Ti4+  Ti16  1  0.50032346  0.83408693  0.49795625  1
  Ti4+  Ti17  1  0.49933685  0.83070320  0.83204290  1
  Ti4+  Ti18  1  0.83839926  0.16557361  0.16843950  1
  Ti4+  Ti19  1  0.83367223  0.17274350  0.50070679  1
  Ti4+  Ti20  1  0.83087610  0.16297258  0.82823298  1
  Ti4+  Ti21  1  0.83196867  0.49899534  0.16643342  1
  Ti4+  Ti22  1  0.83193388  0.50332651  0.50024115  1
  Ti4+  Ti23  1  0.83102704  0.50031906  0.83406670  1
  Ti4+  Ti24  1  0.83285578  0.83613682  0.16671262  1
  Ti4+  Ti25  1  0.83565522  0.83496048  0.49857053  1
  Ti4+  Ti26  1  0.83453311  0.83251728  0.83439253  1
  Cu+  Cu27  1  0.16607704  0.17076701  0.00211848  1
  Cu+  Cu28  1  0.16870020  0.16903817  0.33852223  1
  Cu+  Cu29  1  0.17436994  0.17455548  0.66780952  1
  Cu+  Cu30  1  0.16832314  0.49435065  0.00070417  1
  Cu+  Cu31  1  0.16561900  0.50013013  0.33264869  1
  Cu+  Cu32  1  0.16601932  0.49551530  0.66485218  1
  Cu+  Cu33  1  0.16745906  0.83316150  0.00333675  1
  Cu+  Cu34  1  0.16676420  0.83180945  0.33500209  1
  Cu+  Cu35  1  0.16599524  0.82993061  0.66845403  1
  Cu+  Cu36  1  0.50203272  0.16623272  0.00048082  1
  Cu+  Cu37  1  0.49527649  0.16580901  0.33412432  1
  Cu+  Cu38  1  0.49949590  0.15751573  0.66672836  1
  Cu+  Cu39  1  0.50558581  0.49581322  -0.00236562  1
  Cu+  Cu40  1  0.49872175  0.50142314  0.32864217  1
  Cu+  Cu41  1  0.49783809  0.50356794  0.66625650  1
  Cu+  Cu42  1  0.49665190  0.83173982  -0.00226462  1
  Cu+  Cu43  1  0.50235562  0.83688691  0.33144706  1
  Cu+  Cu44  1  0.50077067  0.82942629  0.66294746  1
  Cu+  Cu45  1  0.83417504  0.16054898  -0.00527945  1
  Cu+  Cu46  1  0.84366395  0.16960679  0.33544378  1
  Cu+  Cu47  1  0.82273161  0.17060532  0.66510783  1
  Cu+  Cu48  1  0.83288391  0.49766258  0.00004634  1
  Cu+  Cu49  1  0.82924128  0.50308174  0.33434935  1
  Cu+  Cu50  1  0.83035633  0.50482051  0.66805373  1
  Cu+  Cu51  1  0.83240232  0.83974169  0.00076500  1
  Cu+  Cu52  1  0.83624432  0.83585562  0.33371342  1
  Cu+  Cu53  1  0.83579374  0.83177489  0.66597090  1
  Cu+  Cu54  1  0.16740812  0.00227144  0.16964192  1
  Cu+  Cu55  1  0.16590549  -0.00355252  0.50221899  1
  Cu+  Cu56  1  0.16847948  -0.00031552  0.83537890  1
  Cu+  Cu57  1  0.16332854  0.33175584  0.16272861  1
  Cu+  Cu58  1  0.17022957  0.33754611  0.50979906  1
  Cu+  Cu59  1  0.16309691  0.33051192  0.82966489  1
  Cu+  Cu60  1  0.16325906  0.66589212  0.16850437  1
  Cu+  Cu61  1  0.16866315  0.66622111  0.49904793  1
  Cu+  Cu62  1  0.16710826  0.66369762  0.83586427  1
  Cu+  Cu63  1  0.50178815  0.00151842  0.17310563  1
  Cu+  Cu64  1  0.49656873  -0.00117378  0.50168581  1
  Cu+  Cu65  1  0.50377243  -0.00183446  0.82969633  1
  Cu+  Cu66  1  0.50435999  0.33368652  0.16133183  1
  Cu+  Cu67  1  0.49880361  0.33499853  0.49687321  1
  Cu+  Cu68  1  0.49723696  0.33085770  0.83649754  1
  Cu+  Cu69  1  0.49777257  0.66787824  0.16329858  1
  Cu+  Cu70  1  0.50151592  0.66906315  0.49606898  1
  Cu+  Cu71  1  0.49492177  0.66531800  0.83714153  1
  Cu+  Cu72  1  0.83532634  -0.00306049  0.16843866  1
  Cu+  Cu73  1  0.83755514  0.00619939  0.49748111  1
  Cu+  Cu74  1  0.83346240  -0.00757179  0.82906828  1
  Cu+  Cu75  1  0.84116877  0.33273222  0.16705461  1
  Cu+  Cu76  1  0.83215193  0.33983771  0.50011443  1
  Cu+  Cu77  1  0.82649261  0.33144445  0.83052587  1
  Cu+  Cu78  1  0.82992504  0.66794216  0.16662245  1
  Cu+  Cu79  1  0.83207708  0.66793966  0.49863627  1
  Cu+  Cu80  1  0.83377407  0.66767417  0.83608128  1
  Cu+  Cu81  1  0.00140001  0.17423601  0.17244188  1
  Cu+  Cu82  1  -0.00123821  0.16924040  0.50007856  1
  Cu+  Cu83  1  0.00022981  0.16593743  0.82985010  1
  Cu+  Cu84  1  -0.00368337  0.49742133  0.16379070  1
  Cu+  Cu85  1  -0.00101688  0.50192043  0.50046319  1
  Cu+  Cu86  1  -0.00229564  0.49817240  0.83376188  1
  Cu+  Cu87  1  0.00183647  0.83386257  0.16807574  1
  Cu+  Cu88  1  0.00299304  0.83296096  0.50078443  1
  Cu+  Cu89  1  0.00138207  0.83175793  0.83899413  1
  Cu+  Cu90  1  0.33661722  0.16557010  0.17296249  1
  Cu+  Cu91  1  0.33652383  0.17199521  0.50537001  1
  Cu+  Cu92  1  0.33016013  0.16079591  0.83134010  1
  Cu+  Cu93  1  0.33063219  0.49847148  0.16144786  1
  Cu+  Cu94  1  0.33496082  0.50307496  0.49662787  1
  Cu+  Cu95  1  0.33578846  0.49882356  0.83462634  1
  Cu+  Cu96  1  0.32923826  0.83445857  0.16603606  1
  Cu+  Cu97  1  0.33186989  0.83141080  0.49834041  1
  Cu+  Cu98  1  0.33435250  0.82884775  0.83658696  1
  Cu+  Cu99  1  0.67185702  0.16603407  0.16759099  1
  Cu+  Cu100  1  0.66836181  0.16798025  0.50369594  1
  Cu+  Cu101  1  0.66400703  0.16361849  0.82537827  1
  Cu+  Cu102  1  0.66632565  0.49762406  0.16115025  1
  Cu+  Cu103  1  0.66427714  0.50378955  0.49931305  1
  Cu+  Cu104  1  0.66496367  0.50329319  0.83830976  1
  Cu+  Cu105  1  0.66458762  0.84050725  0.16617917  1
  Cu+  Cu106  1  0.66738077  0.83501510  0.49760733  1
  Cu+  Cu107  1  0.66817154  0.83169389  0.83046137  1
  Cu+  Cu108  1  0.26731523  0.26761246  0.59693130  1
  Cu+  Cu109  1  0.25913356  0.40365832  0.07774755  1
  Cu+  Cu110  1  0.59377145  0.92878590  0.26254887  1
  Cu+  Cu111  1  0.06727980  0.41309657  0.58910935  1
  Cu+  Cu112  1  0.73264861  0.26510332  0.73962109  1
  Cu+  Cu113  1  0.59176202  0.06813049  0.73917050  1
  Cu+  Cu114  1  0.40543516  0.59090921  0.73662923  1
  Cu+  Cu115  1  0.40322827  0.73969795  0.93044211  1
  Cu+  Cu116  1  0.73932940  0.91073084  0.73383024  1
  Cu+  Cu117  1  0.40401074  0.07090146  0.25960996  1
  Cu+  Cu118  1  0.40460813  0.39929065  0.92123459  1
  Cu+  Cu119  1  0.92999316  0.26586691  0.26569977  1
  Cu+  Cu120  1  0.59471504  0.59739910  0.92654170  1
  Cu+  Cu121  1  0.93249385  0.07670825  0.40960996  1
  Cu+  Cu122  1  0.92329891  0.40814807  0.06833737  1
  Cu+  Cu123  1  0.40960731  0.26418642  0.40544808  1
  Cu+  Cu124  1  0.73572657  0.92770184  0.07204556  1
  Cu+  Cu125  1  0.74322357  0.07248349  0.58472135  1
  Cu+  Cu126  1  0.06974989  0.25474972  0.73939697  1
  Cu+  Cu127  1  0.93294237  0.91672059  0.26296970  1
  Cu+  Cu128  1  0.93090136  0.92424377  0.92689191  1
  Cu+  Cu129  1  0.07280814  0.25546952  0.07180164  1
  Cu+  Cu130  1  0.40503284  0.06772016  0.59189351  1
  Cu+  Cu131  1  0.24919675  0.06713197  0.73853347  1
  Cu+  Cu132  1  0.59673951  0.40144004  0.07179246  1
  Te2-  Te133  1  0.25825729  0.25032322  0.08316036  1
  Te2-  Te134  1  0.25340361  0.25666792  0.41774449  1
  Te2-  Te135  1  0.26003214  0.25820750  0.75073554  1
  Te2-  Te136  1  0.24720433  0.58594515  0.08085859  1
  Te2-  Te137  1  0.25180787  0.58552552  0.41201370  1
  Te2-  Te138  1  0.25147276  0.58301839  0.74798908  1
  Te2-  Te139  1  0.25004945  0.92145812  0.08278048  1
  Te2-  Te140  1  0.25155547  0.91864226  0.41496804  1
  Te2-  Te141  1  0.25367911  0.91461674  0.74912282  1
  Te2-  Te142  1  0.59062179  0.24843779  0.07968699  1
  Te2-  Te143  1  0.58566231  0.24958520  0.41561461  1
  Te2-  Te144  1  0.58022390  0.25427296  0.74444300  1
  Te2-  Te145  1  0.58669916  0.58914446  0.07946010  1
  Te2-  Te146  1  0.58351823  0.58580474  0.41092844  1
  Te2-  Te147  1  0.58454866  0.58696675  0.75018597  1
  Te2-  Te148  1  0.58124084  0.92341948  0.07599912  1
  Te2-  Te149  1  0.58667285  0.92366997  0.41515561  1
  Te2-  Te150  1  0.58624792  0.91543631  0.74162781  1
  Te2-  Te151  1  0.91990308  0.25008184  0.07386850  1
  Te2-  Te152  1  0.92236617  0.26164722  0.41818953  1
  Te2-  Te153  1  0.91573444  0.25206380  0.74511977  1
  Te2-  Te154  1  0.91592190  0.58674801  0.08114453  1
  Te2-  Te155  1  0.91848763  0.58638309  0.41421174  1
  Te2-  Te156  1  0.91715844  0.58556503  0.75113470  1
  Te2-  Te157  1  0.92383487  0.92137361  0.08125787  1
  Te2-  Te158  1  0.92532309  0.92238449  0.41517214  1
  Te2-  Te159  1  0.92374777  0.91446699  0.74710210  1
  Te2-  Te160  1  0.25138313  0.08200859  0.25754023  1
  Te2-  Te161  1  0.25325414  0.07709098  0.58688208  1
  Te2-  Te162  1  0.25009498  0.08253982  0.92377335  1
  Te2-  Te163  1  0.24931465  0.41375390  0.24993832  1
  Te2-  Te164  1  0.26222596  0.41876235  0.58883186  1
  Te2-  Te165  1  0.25221345  0.40726988  0.91853708  1
  Te2-  Te166  1  0.25073489  0.74714786  0.25186195  1
  Te2-  Te167  1  0.25264973  0.74646892  0.58621454  1
  Te2-  Te168  1  0.25086958  0.74475116  0.92284487  1
  Te2-  Te169  1  0.59063478  0.08414428  0.25675441  1
  Te2-  Te170  1  0.58891881  0.07564725  0.58488798  1
  Te2-  Te171  1  0.58540834  0.08097461  0.91755662  1
  Te2-  Te172  1  0.58486508  0.41606282  0.24947692  1
  Te2-  Te173  1  0.58256508  0.41724997  0.58453531  1
  Te2-  Te174  1  0.59016299  0.40769207  0.91779842  1
  Te2-  Te175  1  0.58408151  0.74934746  0.24806770  1
  Te2-  Te176  1  0.58726038  0.74829214  0.58132336  1
  Te2-  Te177  1  0.58846098  0.74918082  0.91906650  1
  Te2-  Te178  1  0.92561439  0.07762377  0.25390227  1
  Te2-  Te179  1  0.91776361  0.08735632  0.58951705  1
  Te2-  Te180  1  0.91988334  0.07820913  0.91274153  1
  Te2-  Te181  1  0.91902250  0.41777241  0.25760161  1
  Te2-  Te182  1  0.91580771  0.41733184  0.58909615  1
  Te2-  Te183  1  0.91598002  0.40973439  0.91551573  1
  Te2-  Te184  1  0.91774271  0.74779859  0.25088164  1
  Te2-  Te185  1  0.91877000  0.74835510  0.58316799  1
  Te2-  Te186  1  0.91708511  0.74798249  0.92367609  1
  Te2-  Te187  1  0.08383953  0.25716388  0.26042106  1
  Te2-  Te188  1  0.07652240  0.25526518  0.58847433  1
  Te2-  Te189  1  0.07809931  0.25277108  0.91817225  1
  Te2-  Te190  1  0.07790901  0.58191720  0.25066158  1
  Te2-  Te191  1  0.08345347  0.58627820  0.58603208  1
  Te2-  Te192  1  0.08261623  0.57951809  0.91887322  1
  Te2-  Te193  1  0.08317540  0.92113877  0.25607570  1
  Te2-  Te194  1  0.08182039  0.91699337  0.58842480  1
  Te2-  Te195  1  0.08385835  0.92078893  0.92233784  1
  Te2-  Te196  1  0.41693070  0.25860959  0.25108866  1
  Te2-  Te197  1  0.42013073  0.25563861  0.59199942  1
  Te2-  Te198  1  0.41173202  0.24531781  0.91958338  1
  Te2-  Te199  1  0.41297071  0.58356589  0.24546942  1
  Te2-  Te200  1  0.41395676  0.59022808  0.58229747  1
  Te2-  Te201  1  0.41128847  0.58410252  0.92640967  1
  Te2-  Te202  1  0.41000315  0.91867953  0.25341439  1
  Te2-  Te203  1  0.41167230  0.91529167  0.58695419  1
  Te2-  Te204  1  0.41651574  0.92046377  0.91505362  1
  Te2-  Te205  1  0.75371234  0.25130161  0.25248100  1
  Te2-  Te206  1  0.74370445  0.26180834  0.58439842  1
  Te2-  Te207  1  0.74564129  0.24499527  0.91575089  1
  Te2-  Te208  1  0.74481307  0.58433013  0.24874272  1
  Te2-  Te209  1  0.74596419  0.58849801  0.58467370  1
  Te2-  Te210  1  0.74898978  0.58778906  0.92314114  1
  Te2-  Te211  1  0.74725290  0.92205639  0.25660598  1
  Te2-  Te212  1  0.74786465  0.92094393  0.58333715  1
  Te2-  Te213  1  0.74301460  0.92096005  0.91805660  1
  Te2-  Te214  1  0.08143486  0.08564408  0.08626939  1
  Te2-  Te215  1  0.08499935  0.08338223  0.41917619  1
  Te2-  Te216  1  0.08576876  0.08204645  0.74500120  1
  Te2-  Te217  1  0.07492570  0.41034849  0.07537325  1
  Te2-  Te218  1  0.08392966  0.41391989  0.41772915  1
  Te2-  Te219  1  0.07652218  0.41247712  0.74602682  1
  Te2-  Te220  1  0.08028260  0.74814706  0.08242295  1
  Te2-  Te221  1  0.08172349  0.74673286  0.41542717  1
  Te2-  Te222  1  0.08148068  0.74643974  0.75270442  1
  Te2-  Te223  1  0.41728922  0.08193460  0.08387962  1
  Te2-  Te224  1  0.41021477  0.07958477  0.41619471  1
  Te2-  Te225  1  0.40953562  0.07366118  0.74649391  1
  Te2-  Te226  1  0.41240419  0.40931240  0.07572947  1
  Te2-  Te227  1  0.41320250  0.41678074  0.41019918  1
  Te2-  Te228  1  0.41586897  0.41365747  0.74788831  1
  Te2-  Te229  1  0.41095370  0.74921793  0.08198964  1
  Te2-  Te230  1  0.41608239  0.75045372  0.41127479  1
  Te2-  Te231  1  0.41315221  0.74610797  0.74454057  1
  Te2-  Te232  1  0.75102724  0.08044415  0.08206806  1
  Te2-  Te233  1  0.74957055  0.08716667  0.41252306  1
  Te2-  Te234  1  0.74460487  0.07146386  0.74163204  1
  Te2-  Te235  1  0.74929804  0.40853791  0.07988275  1
  Te2-  Te236  1  0.74519009  0.41785090  0.41525347  1
  Te2-  Te237  1  0.74202631  0.41850698  0.74710652  1
  Te2-  Te238  1  0.74629552  0.75183962  0.08148161  1
  Te2-  Te239  1  0.75021819  0.75159241  0.41328846  1
  Te2-  Te240  1  0.74997980  0.74553932  0.74696332  1
