# generated using pymatgen
data_Ti27(Cu53Te54)2
_symmetry_space_group_name_H-M   'P 1'
_cell_length_a   17.87453627
_cell_length_b   17.87343290
_cell_length_c   17.87463375
_cell_angle_alpha   89.97138127
_cell_angle_beta   89.99280034
_cell_angle_gamma   89.99153444
_symmetry_Int_Tables_number   1
_chemical_formula_structural   Ti27(Cu53Te54)2
_chemical_formula_sum   'Ti27 Cu106 Te108'
_cell_volume   5710.57509609
_cell_formula_units_Z   1
loop_
 _symmetry_equiv_pos_site_id
 _symmetry_equiv_pos_as_xyz
  1  'x, y, z'
loop_
 _atom_type_symbol
 _atom_type_oxidation_number
  Ti4+  4.0
  Cu+  1.0
  Te2-  -2.0
loop_
 _atom_site_type_symbol
 _atom_site_label
 _atom_site_symmetry_multiplicity
 _atom_site_fract_x
 _atom_site_fract_y
 _atom_site_fract_z
 _atom_site_occupancy
  Ti4+  Ti0  1  0.16722174  0.16492857  0.16719731  1
  Ti4+  Ti1  1  0.16747611  0.16646277  0.49978033  1
  Ti4+  Ti2  1  0.16730560  0.16679325  0.83280038  1
  Ti4+  Ti3  1  0.16833904  0.49656451  0.16858463  1
  Ti4+  Ti4  1  0.16587583  0.49976479  0.50081999  1
  Ti4+  Ti5  1  0.16487554  0.50053863  0.83456489  1
  Ti4+  Ti6  1  0.16394916  0.83176402  0.16976422  1
  Ti4+  Ti7  1  0.16852168  0.83303099  0.50067459  1
  Ti4+  Ti8  1  0.16660996  0.83264385  0.83287710  1
  Ti4+  Ti9  1  0.50039079  0.16696186  0.17006666  1
  Ti4+  Ti10  1  0.50109342  0.16860836  0.50004058  1
  Ti4+  Ti11  1  0.50029082  0.16906408  0.83709651  1
  Ti4+  Ti12  1  0.50315720  0.50085174  0.16595491  1
  Ti4+  Ti13  1  0.49825059  0.49859054  0.50052621  1
  Ti4+  Ti14  1  0.49846149  0.50329173  0.83174680  1
  Ti4+  Ti15  1  0.49705286  0.83028220  0.16730007  1
  Ti4+  Ti16  1  0.49963970  0.83118295  0.49719028  1
  Ti4+  Ti17  1  0.50275267  0.83174944  0.83199740  1
  Ti4+  Ti18  1  0.83145459  0.16613261  0.16913635  1
  Ti4+  Ti19  1  0.83482780  0.16681372  0.50036403  1
  Ti4+  Ti20  1  0.83173509  0.16353095  0.83343747  1
  Ti4+  Ti21  1  0.83509805  0.50203428  0.16661027  1
  Ti4+  Ti22  1  0.83401327  0.50050245  0.49880646  1
  Ti4+  Ti23  1  0.83253922  0.49845116  0.83145484  1
  Ti4+  Ti24  1  0.83209040  0.84002482  0.16582924  1
  Ti4+  Ti25  1  0.83424275  0.83277773  0.50032734  1
  Ti4+  Ti26  1  0.83076300  0.83084903  0.83057588  1
  Cu+  Cu27  1  0.16713429  0.16623249  -0.00330322  1
  Cu+  Cu28  1  0.16616341  0.16577497  0.33440734  1
  Cu+  Cu29  1  0.16847309  0.16848515  0.66530689  1
  Cu+  Cu30  1  0.16516118  0.49955611  0.00355520  1
  Cu+  Cu31  1  0.16908092  0.49704200  0.33552093  1
  Cu+  Cu32  1  0.16432871  0.50065841  0.66738107  1
  Cu+  Cu33  1  0.16240500  0.82936442  0.00206451  1
  Cu+  Cu34  1  0.17045838  0.83313658  0.33527564  1
  Cu+  Cu35  1  0.16913849  0.83504298  0.66772061  1
  Cu+  Cu36  1  0.49870630  0.17127320  0.00505837  1
  Cu+  Cu37  1  0.50336711  0.17220040  0.33485690  1
  Cu+  Cu38  1  0.49981872  0.16718724  0.66841835  1
  Cu+  Cu39  1  0.50104463  0.50740954  -0.00114360  1
  Cu+  Cu40  1  0.49616304  0.49773820  0.33299571  1
  Cu+  Cu41  1  0.49942539  0.49595352  0.66677234  1
  Cu+  Cu42  1  0.49738073  0.82481056  0.00062120  1
  Cu+  Cu43  1  0.50015047  0.83424160  0.33154582  1
  Cu+  Cu44  1  0.50120555  0.83049689  0.65854333  1
  Cu+  Cu45  1  0.82882056  0.16109819  0.00176156  1
  Cu+  Cu46  1  0.83039561  0.16660036  0.33599392  1
  Cu+  Cu47  1  0.83710263  0.16484536  0.66415514  1
  Cu+  Cu48  1  0.83721030  0.50088154  -0.00075897  1
  Cu+  Cu49  1  0.83583072  0.50138220  0.33364228  1
  Cu+  Cu50  1  0.82917898  0.49921599  0.66392585  1
  Cu+  Cu51  1  0.83446136  0.84105368  -0.00767007  1
  Cu+  Cu52  1  0.83192188  0.83523451  0.33268578  1
  Cu+  Cu53  1  0.83413482  0.83006051  0.66826651  1
  Cu+  Cu54  1  0.16587619  -0.00254149  0.17036858  1
  Cu+  Cu55  1  0.16798695  0.00129977  0.50075909  1
  Cu+  Cu56  1  0.16854782  -0.00025144  0.83371504  1
  Cu+  Cu57  1  0.16928210  0.32995044  0.16696434  1
  Cu+  Cu58  1  0.16659442  0.33319907  0.49962362  1
  Cu+  Cu59  1  0.16514973  0.33401703  0.83432884  1
  Cu+  Cu60  1  0.16529867  0.66222762  0.16600028  1
  Cu+  Cu61  1  0.16783738  0.66539303  0.49999029  1
  Cu+  Cu62  1  0.16443163  0.66715797  0.83354329  1
  Cu+  Cu63  1  0.49966488  -0.00336100  0.16812783  1
  Cu+  Cu64  1  0.50143776  0.00078595  0.49766109  1
  Cu+  Cu65  1  0.50336045  0.00341063  0.83293523  1
  Cu+  Cu66  1  0.50030156  0.33571239  0.17304117  1
  Cu+  Cu67  1  0.49907030  0.33223379  0.50077473  1
  Cu+  Cu68  1  0.49889605  0.33673408  0.83219995  1
  Cu+  Cu69  1  0.50169374  0.66844999  0.15912064  1
  Cu+  Cu70  1  0.49445611  0.66354500  0.49948084  1
  Cu+  Cu71  1  0.50265426  0.66828448  0.83807798  1
  Cu+  Cu72  1  0.83695541  0.00550456  0.16968501  1
  Cu+  Cu73  1  0.83462981  -0.00072521  0.50019959  1
  Cu+  Cu74  1  0.82746466  0.00264731  0.83679649  1
  Cu+  Cu75  1  0.83422692  0.33540616  0.16540731  1
  Cu+  Cu76  1  0.83328639  0.33398517  0.49946707  1
  Cu+  Cu77  1  0.82973876  0.32968459  0.83455239  1
  Cu+  Cu78  1  0.83101268  0.67273109  0.16687115  1
  Cu+  Cu79  1  0.83456756  0.66692350  0.50033028  1
  Cu+  Cu80  1  0.83464115  0.66143720  0.82776856  1
  Cu+  Cu81  1  -0.00032116  0.16594992  0.16673267  1
  Cu+  Cu82  1  0.00189728  0.16783374  0.49831528  1
  Cu+  Cu83  1  0.00294404  0.16488501  0.82946872  1
  Cu+  Cu84  1  0.00249067  0.50021406  0.16545806  1
  Cu+  Cu85  1  -0.00015044  0.50084438  0.50036332  1
  Cu+  Cu86  1  -0.00135205  0.49946379  0.83716963  1
  Cu+  Cu87  1  0.00074199  0.84411045  0.16313748  1
  Cu+  Cu88  1  0.00380894  0.83342296  0.50044392  1
  Cu+  Cu89  1  -0.00307401  0.82810513  0.83211788  1
  Cu+  Cu90  1  0.33334242  0.16410822  0.16583309  1
  Cu+  Cu91  1  0.33414552  0.16710476  0.49938155  1
  Cu+  Cu92  1  0.33360552  0.17172987  0.83594672  1
  Cu+  Cu93  1  0.33689865  0.49486742  0.16934257  1
  Cu+  Cu94  1  0.32976577  0.49852261  0.50094410  1
  Cu+  Cu95  1  0.32944253  0.50235943  0.83408248  1
  Cu+  Cu96  1  0.32671749  0.83340693  0.17117875  1
  Cu+  Cu97  1  0.33580163  0.82849042  0.49924340  1
  Cu+  Cu98  1  0.33490014  0.83211220  0.83717266  1
  Cu+  Cu99  1  0.66544044  0.16850952  0.17509922  1
  Cu+  Cu100  1  0.66953562  0.16895248  0.50043573  1
  Cu+  Cu101  1  0.66419206  0.16100205  0.83608957  1
  Cu+  Cu102  1  0.67122080  0.50274012  0.16535563  1
  Cu+  Cu103  1  0.66514679  0.49890742  0.49852928  1
  Cu+  Cu104  1  0.66544742  0.50178671  0.82765004  1
  Cu+  Cu105  1  0.66640540  0.83005330  0.17069602  1
  Cu+  Cu106  1  0.66542313  0.83530898  0.50016875  1
  Cu+  Cu107  1  0.66695038  0.83216480  0.82084182  1
  Cu+  Cu108  1  0.59014498  0.92859586  0.58737385  1
  Cu+  Cu109  1  0.59613688  0.26750057  0.26283548  1
  Cu+  Cu110  1  0.40553168  0.40460941  0.26390007  1
  Cu+  Cu111  1  0.74036621  0.73915281  0.26298906  1
  Cu+  Cu112  1  0.40153286  0.73965710  0.92893103  1
  Cu+  Cu113  1  0.74937653  0.92952220  0.73836880  1
  Cu+  Cu114  1  0.59130651  0.40458211  0.73971892  1
  Cu+  Cu115  1  0.92923144  0.08314775  0.07285058  1
  Cu+  Cu116  1  0.92812252  0.92818712  0.91115935  1
  Cu+  Cu117  1  0.40277945  0.73396259  0.58945525  1
  Cu+  Cu118  1  0.73761897  0.58764700  0.73220136  1
  Cu+  Cu119  1  0.07556476  0.59084435  0.07644701  1
  Cu+  Cu120  1  0.92700027  0.59044417  0.92648670  1
  Cu+  Cu121  1  0.25851901  0.92832668  0.26486408  1
  Cu+  Cu122  1  0.59153983  0.92337285  0.25657558  1
  Cu+  Cu123  1  0.08476470  0.92963987  0.07054177  1
  Cu+  Cu124  1  0.92767945  0.92818380  0.26412772  1
  Cu+  Cu125  1  0.73726662  0.07893923  0.26790647  1
  Cu+  Cu126  1  0.58634958  0.73932352  0.73202875  1
  Cu+  Cu127  1  0.58904798  0.07830847  0.73887217  1
  Cu+  Cu128  1  0.93550563  0.08179837  0.73199761  1
  Cu+  Cu129  1  0.59861525  0.74585340  0.07327201  1
  Cu+  Cu130  1  0.92895469  0.73374469  0.73825548  1
  Cu+  Cu131  1  0.59770573  0.58952101  0.92582573  1
  Cu+  Cu132  1  0.73273258  0.07226404  0.93364797  1
  Te2-  Te133  1  0.25250244  0.24898901  0.08047404  1
  Te2-  Te134  1  0.25244979  0.25227925  0.41387820  1
  Te2-  Te135  1  0.25173987  0.25407411  0.74865727  1
  Te2-  Te136  1  0.25594225  0.58176600  0.08379646  1
  Te2-  Te137  1  0.25279140  0.58497058  0.41448478  1
  Te2-  Te138  1  0.24913532  0.58645885  0.74819054  1
  Te2-  Te139  1  0.24939095  0.91692042  0.08027228  1
  Te2-  Te140  1  0.25666576  0.92008709  0.41734091  1
  Te2-  Te141  1  0.25476088  0.91672979  0.75099253  1
  Te2-  Te142  1  0.58615797  0.25408727  0.08656300  1
  Te2-  Te143  1  0.58973751  0.25647827  0.41668544  1
  Te2-  Te144  1  0.58823659  0.25274888  0.74906747  1
  Te2-  Te145  1  0.59312177  0.58919795  0.07882475  1
  Te2-  Te146  1  0.58160231  0.58367440  0.41422621  1
  Te2-  Te147  1  0.58409687  0.58958181  0.74018584  1
  Te2-  Te148  1  0.58365046  0.91409715  0.08005904  1
  Te2-  Te149  1  0.58733109  0.92017201  0.41164314  1
  Te2-  Te150  1  0.58629468  0.92333326  0.74110201  1
  Te2-  Te151  1  0.91612820  0.24988677  0.07995385  1
  Te2-  Te152  1  0.91832786  0.25205284  0.41395955  1
  Te2-  Te153  1  0.91690778  0.25142985  0.74941626  1
  Te2-  Te154  1  0.91994725  0.59195451  0.08105707  1
  Te2-  Te155  1  0.92006253  0.58708726  0.41464199  1
  Te2-  Te156  1  0.92285857  0.58090166  0.74211123  1
  Te2-  Te157  1  0.91987001  0.92639061  0.07344518  1
  Te2-  Te158  1  0.92072839  0.91865318  0.41622656  1
  Te2-  Te159  1  0.91840540  0.92331863  0.74783160  1
  Te2-  Te160  1  0.25340629  0.08066333  0.25432259  1
  Te2-  Te161  1  0.25412569  0.08173277  0.58570544  1
  Te2-  Te162  1  0.25401064  0.08137046  0.91785651  1
  Te2-  Te163  1  0.25317591  0.40936887  0.25533365  1
  Te2-  Te164  1  0.24993725  0.41368199  0.58766752  1
  Te2-  Te165  1  0.25025519  0.41601487  0.92033335  1
  Te2-  Te166  1  0.24914618  0.74217866  0.25272362  1
  Te2-  Te167  1  0.25201100  0.74533997  0.58803831  1
  Te2-  Te168  1  0.24920898  0.74604786  0.92135687  1
  Te2-  Te169  1  0.58463662  0.07686814  0.25834452  1
  Te2-  Te170  1  0.58960475  0.08167681  0.58581616  1
  Te2-  Te171  1  0.58196397  0.07995594  0.92796838  1
  Te2-  Te172  1  0.59181528  0.41914959  0.25480232  1
  Te2-  Te173  1  0.58677807  0.41195743  0.58505088  1
  Te2-  Te174  1  0.58540312  0.41854247  0.91782603  1
  Te2-  Te175  1  0.58389709  0.74221137  0.25551089  1
  Te2-  Te176  1  0.58916331  0.74089655  0.57998126  1
  Te2-  Te177  1  0.59503696  0.74795102  0.92010079  1
  Te2-  Te178  1  0.92246477  0.08331954  0.25893999  1
  Te2-  Te179  1  0.92354427  0.07819927  0.58251281  1
  Te2-  Te180  1  0.92361587  0.07953379  0.92024031  1
  Te2-  Te181  1  0.91987395  0.41611077  0.25052200  1
  Te2-  Te182  1  0.91803989  0.41511258  0.58553321  1
  Te2-  Te183  1  0.91640147  0.41044759  0.91737419  1
  Te2-  Te184  1  0.92044638  0.75450042  0.24827779  1
  Te2-  Te185  1  0.92172566  0.74753885  0.58478750  1
  Te2-  Te186  1  0.91566508  0.74384849  0.92007120  1
  Te2-  Te187  1  0.08133034  0.25042756  0.25130518  1
  Te2-  Te188  1  0.08142227  0.25253058  0.58507963  1
  Te2-  Te189  1  0.07931254  0.25082500  0.91783562  1
  Te2-  Te190  1  0.08261431  0.58216468  0.25539710  1
  Te2-  Te191  1  0.08058849  0.58665405  0.58560860  1
  Te2-  Te192  1  0.07894588  0.58972012  0.92275153  1
  Te2-  Te193  1  0.08023005  0.92061263  0.25982514  1
  Te2-  Te194  1  0.08353449  0.91915671  0.58607260  1
  Te2-  Te195  1  0.07893786  0.91969565  0.91819479  1
  Te2-  Te196  1  0.41009197  0.25099642  0.25448407  1
  Te2-  Te197  1  0.41500036  0.25134422  0.58666490  1
  Te2-  Te198  1  0.41617364  0.25643298  0.92079384  1
  Te2-  Te199  1  0.41740597  0.58801511  0.24872563  1
  Te2-  Te200  1  0.41057093  0.58173815  0.58873765  1
  Te2-  Te201  1  0.40927050  0.58812144  0.91931642  1
  Te2-  Te202  1  0.41125089  0.91880851  0.25384414  1
  Te2-  Te203  1  0.41476887  0.91931631  0.58315378  1
  Te2-  Te204  1  0.42022698  0.91873641  0.91856554  1
  Te2-  Te205  1  0.75018813  0.25806641  0.25552338  1
  Te2-  Te206  1  0.75024687  0.25234934  0.58723473  1
  Te2-  Te207  1  0.74610511  0.24846981  0.91996106  1
  Te2-  Te208  1  0.74896959  0.58736282  0.25407058  1
  Te2-  Te209  1  0.74414210  0.58768098  0.58191256  1
  Te2-  Te210  1  0.74822541  0.58636535  0.91930004  1
  Te2-  Te211  1  0.74395340  0.92484821  0.25473319  1
  Te2-  Te212  1  0.74782585  0.92049932  0.58666580  1
  Te2-  Te213  1  0.73782942  0.91759967  0.91695769  1
  Te2-  Te214  1  0.08125452  0.07960233  0.07773547  1
  Te2-  Te215  1  0.08150837  0.07982430  0.41460077  1
  Te2-  Te216  1  0.08506350  0.07769393  0.74374186  1
  Te2-  Te217  1  0.08207960  0.41010857  0.08302330  1
  Te2-  Te218  1  0.08032671  0.41407625  0.41517569  1
  Te2-  Te219  1  0.07919189  0.41586693  0.74984207  1
  Te2-  Te220  1  0.07580048  0.74584796  0.08315393  1
  Te2-  Te221  1  0.08349002  0.74771801  0.41485532  1
  Te2-  Te222  1  0.08154480  0.74726656  0.74499483  1
  Te2-  Te223  1  0.41710311  0.08006100  0.08336657  1
  Te2-  Te224  1  0.41696945  0.08342544  0.41354996  1
  Te2-  Te225  1  0.41354015  0.08381000  0.75154453  1
  Te2-  Te226  1  0.42038622  0.41531305  0.07850293  1
  Te2-  Te227  1  0.41096486  0.41156314  0.41668704  1
  Te2-  Te228  1  0.41002649  0.41662350  0.74964466  1
  Te2-  Te229  1  0.40463687  0.74615798  0.08345117  1
  Te2-  Te230  1  0.41498672  0.74597459  0.40921125  1
  Te2-  Te231  1  0.41526358  0.74673723  0.74605896  1
  Te2-  Te232  1  0.74055250  0.07838482  0.08544783  1
  Te2-  Te233  1  0.74576253  0.07816890  0.41791289  1
  Te2-  Te234  1  0.74402160  0.08060001  0.74086431  1
  Te2-  Te235  1  0.75027076  0.41659994  0.07953877  1
  Te2-  Te236  1  0.74867121  0.41559037  0.41321479  1
  Te2-  Te237  1  0.74653825  0.40968527  0.74589384  1
  Te2-  Te238  1  0.75083576  0.75319270  0.07511821  1
  Te2-  Te239  1  0.74685172  0.74808919  0.41558236  1
  Te2-  Te240  1  0.74498352  0.74021054  0.74097358  1
