# generated using pymatgen
data_Ti27(Cu53Te54)2
_symmetry_space_group_name_H-M   'P 1'
_cell_length_a   17.89990691
_cell_length_b   17.90217502
_cell_length_c   17.89743435
_cell_angle_alpha   90.02094000
_cell_angle_beta   89.99300953
_cell_angle_gamma   89.97162301
_symmetry_Int_Tables_number   1
_chemical_formula_structural   Ti27(Cu53Te54)2
_chemical_formula_sum   'Ti27 Cu106 Te108'
_cell_volume   5735.18278176
_cell_formula_units_Z   1
loop_
 _symmetry_equiv_pos_site_id
 _symmetry_equiv_pos_as_xyz
  1  'x, y, z'
loop_
 _atom_type_symbol
 _atom_type_oxidation_number
  Ti4+  4.0
  Cu+  1.0
  Te2-  -2.0
loop_
 _atom_site_type_symbol
 _atom_site_label
 _atom_site_symmetry_multiplicity
 _atom_site_fract_x
 _atom_site_fract_y
 _atom_site_fract_z
 _atom_site_occupancy
  Ti4+  Ti0  1  0.16466498  0.16731148  0.16619544  1
  Ti4+  Ti1  1  0.16609918  0.16872928  0.50175260  1
  Ti4+  Ti2  1  0.16920220  0.16367757  0.83269054  1
  Ti4+  Ti3  1  0.16819178  0.50100875  0.16321828  1
  Ti4+  Ti4  1  0.16550771  0.49903364  0.49667578  1
  Ti4+  Ti5  1  0.16708965  0.49890995  0.83188730  1
  Ti4+  Ti6  1  0.16880285  0.83562639  0.16666049  1
  Ti4+  Ti7  1  0.16319571  0.83260196  0.50118723  1
  Ti4+  Ti8  1  0.16848321  0.83667754  0.83182553  1
  Ti4+  Ti9  1  0.50292440  0.16419713  0.16705705  1
  Ti4+  Ti10  1  0.50010354  0.16923977  0.50105830  1
  Ti4+  Ti11  1  0.49871511  0.16584253  0.83972164  1
  Ti4+  Ti12  1  0.50013152  0.49814257  0.16520438  1
  Ti4+  Ti13  1  0.49920419  0.50089406  0.49837834  1
  Ti4+  Ti14  1  0.50018764  0.50133266  0.83222030  1
  Ti4+  Ti15  1  0.50296552  0.83298556  0.16532128  1
  Ti4+  Ti16  1  0.49812550  0.83456858  0.50204762  1
  Ti4+  Ti17  1  0.49680129  0.82871882  0.83286783  1
  Ti4+  Ti18  1  0.83355403  0.16702640  0.16782826  1
  Ti4+  Ti19  1  0.83257449  0.16803422  0.50342565  1
  Ti4+  Ti20  1  0.83087469  0.16493876  0.83455284  1
  Ti4+  Ti21  1  0.83247441  0.49783371  0.16598937  1
  Ti4+  Ti22  1  0.83296338  0.49994686  0.49980366  1
  Ti4+  Ti23  1  0.83533097  0.50069625  0.83254697  1
  Ti4+  Ti24  1  0.83381760  0.83054266  0.16995675  1
  Ti4+  Ti25  1  0.83363116  0.83770649  0.49799164  1
  Ti4+  Ti26  1  0.83423820  0.83275432  0.83210010  1
  Cu+  Cu27  1  0.16571861  0.16218810  -0.00160523  1
  Cu+  Cu28  1  0.16682842  0.17057494  0.33364004  1
  Cu+  Cu29  1  0.16753459  0.17013503  0.66918700  1
  Cu+  Cu30  1  0.17171121  0.50490505  -0.00337311  1
  Cu+  Cu31  1  0.16478401  0.49689558  0.32891348  1
  Cu+  Cu32  1  0.16601116  0.49582823  0.66256876  1
  Cu+  Cu33  1  0.17054937  0.83563871  0.00161363  1
  Cu+  Cu34  1  0.16442569  0.82987746  0.33197242  1
  Cu+  Cu35  1  0.16815571  0.83890840  0.66628202  1
  Cu+  Cu36  1  0.49791451  0.15754546  0.00651590  1
  Cu+  Cu37  1  0.50542870  0.16834186  0.33371942  1
  Cu+  Cu38  1  0.49916343  0.17118546  0.66955090  1
  Cu+  Cu39  1  0.49826431  0.49722379  -0.00321144  1
  Cu+  Cu40  1  0.50036178  0.50095257  0.33323226  1
  Cu+  Cu41  1  0.49895939  0.50192019  0.66400171  1
  Cu+  Cu42  1  0.50364585  0.83345085  -0.00255473  1
  Cu+  Cu43  1  0.50066662  0.83423561  0.33304529  1
  Cu+  Cu44  1  0.49343188  0.82523365  0.66663695  1
  Cu+  Cu45  1  0.83067094  0.16869775  0.00141574  1
  Cu+  Cu46  1  0.83363619  0.16427497  0.33891365  1
  Cu+  Cu47  1  0.82755231  0.16335571  0.66820170  1
  Cu+  Cu48  1  0.83456974  0.49877667  -0.00240946  1
  Cu+  Cu49  1  0.83226393  0.49772052  0.33303173  1
  Cu+  Cu50  1  0.83444815  0.50299172  0.66752358  1
  Cu+  Cu51  1  0.83313708  0.82913394  0.00277477  1
  Cu+  Cu52  1  0.84106148  0.83445210  0.33310630  1
  Cu+  Cu53  1  0.83414432  0.83795028  0.66423701  1
  Cu+  Cu54  1  0.16771765  0.00235218  0.16549178  1
  Cu+  Cu55  1  0.16694770  0.00058821  0.50219294  1
  Cu+  Cu56  1  0.16239726  0.00055848  0.83368566  1
  Cu+  Cu57  1  0.16437628  0.33589149  0.16478519  1
  Cu+  Cu58  1  0.16246361  0.33608264  0.50166076  1
  Cu+  Cu59  1  0.16900869  0.32837379  0.82749886  1
  Cu+  Cu60  1  0.16882965  0.67097923  0.16556807  1
  Cu+  Cu61  1  0.16384420  0.66144028  0.49641571  1
  Cu+  Cu62  1  0.17145607  0.66656508  0.83258542  1
  Cu+  Cu63  1  0.51013035  -0.00328371  0.16590918  1
  Cu+  Cu64  1  0.49838777  0.00552646  0.50024908  1
  Cu+  Cu65  1  0.49759044  -0.00420835  0.84186454  1
  Cu+  Cu66  1  0.50300380  0.32891258  0.16647514  1
  Cu+  Cu67  1  0.50003409  0.33721181  0.49950871  1
  Cu+  Cu68  1  0.49358075  0.33716885  0.83867380  1
  Cu+  Cu69  1  0.50073030  0.66556165  0.16316653  1
  Cu+  Cu70  1  0.49698537  0.66796132  0.50186352  1
  Cu+  Cu71  1  0.50170687  0.66696410  0.82662119  1
  Cu+  Cu72  1  0.83477033  -0.00463651  0.17163648  1
  Cu+  Cu73  1  0.83528614  0.00658584  0.50299631  1
  Cu+  Cu74  1  0.83036572  0.00032507  0.83462545  1
  Cu+  Cu75  1  0.82991054  0.33132488  0.16503813  1
  Cu+  Cu76  1  0.83239035  0.33341742  0.50105656  1
  Cu+  Cu77  1  0.83378845  0.33600362  0.83336064  1
  Cu+  Cu78  1  0.83196268  0.66119537  0.16744648  1
  Cu+  Cu79  1  0.83100484  0.66666439  0.49712570  1
  Cu+  Cu80  1  0.83578249  0.66652350  0.83306749  1
  Cu+  Cu81  1  -0.00041348  0.16791552  0.16606948  1
  Cu+  Cu82  1  -0.00012816  0.16706890  0.50110293  1
  Cu+  Cu83  1  -0.00121322  0.16171536  0.83397123  1
  Cu+  Cu84  1  0.00048042  0.49683120  0.16547943  1
  Cu+  Cu85  1  -0.00039659  0.49792719  0.49937078  1
  Cu+  Cu86  1  -0.00065113  0.49929000  0.83242796  1
  Cu+  Cu87  1  0.00384711  0.83125330  0.17193069  1
  Cu+  Cu88  1  -0.00698357  0.83480602  0.49767103  1
  Cu+  Cu89  1  0.00286157  0.83518114  0.83122754  1
  Cu+  Cu90  1  0.33052417  0.16543542  0.16523772  1
  Cu+  Cu91  1  0.33360694  0.16940777  0.49970586  1
  Cu+  Cu92  1  0.33825513  0.16418941  0.83950643  1
  Cu+  Cu93  1  0.33338009  0.50157177  0.16450149  1
  Cu+  Cu94  1  0.33123162  0.50097243  0.49331697  1
  Cu+  Cu95  1  0.33058126  0.50155469  0.83693412  1
  Cu+  Cu96  1  0.33659393  0.83571538  0.16386601  1
  Cu+  Cu97  1  0.33021083  0.83106190  0.50600444  1
  Cu+  Cu98  1  0.33534814  0.83704745  0.82553244  1
  Cu+  Cu99  1  0.66913614  0.16904414  0.16530930  1
  Cu+  Cu100  1  0.66674561  0.16780582  0.50529239  1
  Cu+  Cu101  1  0.66441243  0.16697144  0.83621234  1
  Cu+  Cu102  1  0.66560359  0.49730110  0.16457111  1
  Cu+  Cu103  1  0.66561164  0.50232199  0.49925883  1
  Cu+  Cu104  1  0.66966970  0.50276681  0.83157753  1
  Cu+  Cu105  1  0.66669840  0.83206421  0.17153087  1
  Cu+  Cu106  1  0.66755336  0.83698366  0.49867205  1
  Cu+  Cu107  1  0.66564231  0.82864896  0.83082701  1
  Cu+  Cu108  1  0.40514448  0.06640233  0.93459573  1
  Cu+  Cu109  1  0.60113060  0.07122999  0.07736307  1
  Cu+  Cu110  1  0.06920299  0.41054195  0.59373448  1
  Cu+  Cu111  1  0.73403249  0.07458690  0.59569703  1
  Cu+  Cu112  1  0.39901211  0.73276126  0.59082510  1
  Cu+  Cu113  1  0.40135016  0.41144253  0.92705396  1
  Cu+  Cu114  1  0.59333391  0.92266829  0.26601484  1
  Cu+  Cu115  1  0.07192782  0.40484189  0.25511583  1
  Cu+  Cu116  1  0.59701536  0.74019673  0.73657900  1
  Cu+  Cu117  1  0.25967327  0.93133036  0.58863390  1
  Cu+  Cu118  1  0.74168941  0.26305455  0.07024830  1
  Cu+  Cu119  1  0.06877509  0.07403576  0.92914137  1
  Cu+  Cu120  1  0.07825829  0.73742839  0.25820057  1
  Cu+  Cu121  1  0.40079105  0.26033593  0.08660761  1
  Cu+  Cu122  1  0.92171419  0.93178030  0.59460773  1
  Cu+  Cu123  1  0.93391627  0.92778473  0.25291759  1
  Cu+  Cu124  1  0.06832789  0.25731109  0.74870958  1
  Cu+  Cu125  1  0.26149429  0.59964569  0.92605398  1
  Cu+  Cu126  1  0.59723547  0.91952197  0.92005638  1
  Cu+  Cu127  1  0.59544946  0.26132461  0.26255608  1
  Cu+  Cu128  1  0.93162465  0.08215842  0.40748091  1
  Cu+  Cu129  1  0.41437898  0.26577509  0.73856852  1
  Cu+  Cu130  1  0.41877680  0.92938200  0.73869386  1
  Cu+  Cu131  1  0.07222128  0.92512103  0.73951754  1
  Cu+  Cu132  1  0.92103617  0.73495406  0.40908915  1
  Te2-  Te133  1  0.24807653  0.25269888  0.07824253  1
  Te2-  Te134  1  0.24979565  0.25496276  0.41702898  1
  Te2-  Te135  1  0.26085847  0.24918808  0.74826341  1
  Te2-  Te136  1  0.25557760  0.59052714  0.08009478  1
  Te2-  Te137  1  0.24918443  0.58471891  0.40882434  1
  Te2-  Te138  1  0.25103102  0.58210159  0.74390916  1
  Te2-  Te139  1  0.25415144  0.92192026  0.08165111  1
  Te2-  Te140  1  0.24986077  0.91536979  0.41571939  1
  Te2-  Te141  1  0.25548940  0.92690002  0.74522703  1
  Te2-  Te142  1  0.58756889  0.25169318  0.07535907  1
  Te2-  Te143  1  0.58849052  0.25486524  0.41802738  1
  Te2-  Te144  1  0.58195128  0.25452572  0.75516837  1
  Te2-  Te145  1  0.58449862  0.58223926  0.07863197  1
  Te2-  Te146  1  0.58366306  0.58820490  0.41493203  1
  Te2-  Te147  1  0.58759920  0.58485521  0.74356658  1
  Te2-  Te148  1  0.59420923  0.91679369  0.07612587  1
  Te2-  Te149  1  0.58423638  0.92232207  0.41737917  1
  Te2-  Te150  1  0.58154381  0.91712291  0.74659078  1
  Te2-  Te151  1  0.91875334  0.25197052  0.08139073  1
  Te2-  Te152  1  0.91903087  0.25345364  0.41618435  1
  Te2-  Te153  1  0.91525015  0.25013826  0.74822119  1
  Te2-  Te154  1  0.91858968  0.58269981  0.08138580  1
  Te2-  Te155  1  0.91977416  0.58293570  0.41211106  1
  Te2-  Te156  1  0.92136474  0.58678356  0.74728364  1
  Te2-  Te157  1  0.91959956  0.91463433  0.08403367  1
  Te2-  Te158  1  0.92224520  0.92772578  0.41092188  1
  Te2-  Te159  1  0.91932435  0.92423778  0.74775885  1
  Te2-  Te160  1  0.25061659  0.08360669  0.25286253  1
  Te2-  Te161  1  0.25364590  0.08452424  0.58705468  1
  Te2-  Te162  1  0.25382692  0.07608931  0.92094324  1
  Te2-  Te163  1  0.25387366  0.41470629  0.24853913  1
  Te2-  Te164  1  0.25442643  0.41477647  0.58127676  1
  Te2-  Te165  1  0.24980149  0.40833479  0.91887425  1
  Te2-  Te166  1  0.25657343  0.75050383  0.25126706  1
  Te2-  Te167  1  0.24537580  0.74225214  0.58677708  1
  Te2-  Te168  1  0.25565733  0.75242440  0.91742264  1
  Te2-  Te169  1  0.59183407  0.07986812  0.25504610  1
  Te2-  Te170  1  0.58223966  0.08235871  0.59059649  1
  Te2-  Te171  1  0.59035620  0.07691349  0.92271852  1
  Te2-  Te172  1  0.58604114  0.41369053  0.25275232  1
  Te2-  Te173  1  0.58517661  0.41690373  0.58500113  1
  Te2-  Te174  1  0.58805303  0.41686178  0.91591253  1
  Te2-  Te175  1  0.58396649  0.74445138  0.25289848  1
  Te2-  Te176  1  0.58893163  0.74812881  0.58382346  1
  Te2-  Te177  1  0.58518654  0.74304979  0.91819783  1
  Te2-  Te178  1  0.92211211  0.08115310  0.25423754  1
  Te2-  Te179  1  0.92290874  0.08416535  0.59239882  1
  Te2-  Te180  1  0.91547750  0.07926326  0.92201613  1
  Te2-  Te181  1  0.91727355  0.41089690  0.25202439  1
  Te2-  Te182  1  0.91720217  0.41346255  0.58761973  1
  Te2-  Te183  1  0.92063001  0.41372414  0.91830849  1
  Te2-  Te184  1  0.92105378  0.73916239  0.25395418  1
  Te2-  Te185  1  0.91624689  0.74763293  0.58474247  1
  Te2-  Te186  1  0.92059684  0.75012713  0.91686634  1
  Te2-  Te187  1  0.07919637  0.25295722  0.25241716  1
  Te2-  Te188  1  0.07759794  0.25387282  0.58897061  1
  Te2-  Te189  1  0.08230062  0.25060065  0.91688302  1
  Te2-  Te190  1  0.08096071  0.58643496  0.24960727  1
  Te2-  Te191  1  0.07954771  0.58421291  0.58497092  1
  Te2-  Te192  1  0.08189838  0.58579135  0.91525608  1
  Te2-  Te193  1  0.08436923  0.92418104  0.25515089  1
  Te2-  Te194  1  0.07540066  0.92196094  0.58512553  1
  Te2-  Te195  1  0.08060116  0.91869522  0.92278673  1
  Te2-  Te196  1  0.41430283  0.24927541  0.25170671  1
  Te2-  Te197  1  0.41386767  0.25635437  0.58497150  1
  Te2-  Te198  1  0.41229482  0.25294099  0.92948608  1
  Te2-  Te199  1  0.41609544  0.58500872  0.24954932  1
  Te2-  Te200  1  0.40900991  0.58386547  0.58469727  1
  Te2-  Te201  1  0.41576706  0.59013617  0.91880398  1
  Te2-  Te202  1  0.41738309  0.92039633  0.25020726  1
  Te2-  Te203  1  0.41252534  0.92501877  0.58700883  1
  Te2-  Te204  1  0.40843258  0.91423476  0.92397001  1
  Te2-  Te205  1  0.74944358  0.25180134  0.25792954  1
  Te2-  Te206  1  0.74721164  0.25518751  0.58895693  1
  Te2-  Te207  1  0.74625815  0.25464415  0.91752814  1
  Te2-  Te208  1  0.74588090  0.58140287  0.25198523  1
  Te2-  Te209  1  0.74855236  0.58636725  0.58435176  1
  Te2-  Te210  1  0.75000918  0.58660140  0.91830763  1
  Te2-  Te211  1  0.74693019  0.91798141  0.25761663  1
  Te2-  Te212  1  0.74489327  0.92247350  0.58643376  1
  Te2-  Te213  1  0.74855350  0.91583623  0.92012209  1
  Te2-  Te214  1  0.07794845  0.07962549  0.08175134  1
  Te2-  Te215  1  0.08383829  0.08169825  0.41430948  1
  Te2-  Te216  1  0.08012855  0.07982532  0.74298618  1
  Te2-  Te217  1  0.08327979  0.41765620  0.07502794  1
  Te2-  Te218  1  0.07767023  0.41213874  0.41024163  1
  Te2-  Te219  1  0.07829255  0.41123995  0.74646559  1
  Te2-  Te220  1  0.08284683  0.75064558  0.07945196  1
  Te2-  Te221  1  0.07692553  0.74485716  0.41395937  1
  Te2-  Te222  1  0.08515614  0.74848154  0.74757917  1
  Te2-  Te223  1  0.41178671  0.07220622  0.08707676  1
  Te2-  Te224  1  0.41520363  0.08567528  0.41324160  1
  Te2-  Te225  1  0.41603724  0.08002395  0.74867108  1
  Te2-  Te226  1  0.41108800  0.41164009  0.07993997  1
  Te2-  Te227  1  0.41475326  0.41508310  0.41217475  1
  Te2-  Te228  1  0.41120500  0.41812122  0.74552293  1
  Te2-  Te229  1  0.41699593  0.74897341  0.07908529  1
  Te2-  Te230  1  0.41340859  0.75101450  0.41497888  1
  Te2-  Te231  1  0.40623453  0.74008102  0.74607876  1
  Te2-  Te232  1  0.75208870  0.07553925  0.08264725  1
  Te2-  Te233  1  0.74417747  0.08184672  0.41742408  1
  Te2-  Te234  1  0.74193325  0.07856850  0.75061845  1
  Te2-  Te235  1  0.74619152  0.41429024  0.07735161  1
  Te2-  Te236  1  0.74699828  0.41446011  0.41588925  1
  Te2-  Te237  1  0.74902815  0.41590543  0.74670320  1
  Te2-  Te238  1  0.74773983  0.74585114  0.08521530  1
  Te2-  Te239  1  0.74782919  0.75214587  0.41237610  1
  Te2-  Te240  1  0.75149317  0.74695964  0.74393088  1
