# generated using pymatgen
data_Ti27(Cu53Te54)2
_symmetry_space_group_name_H-M   'P 1'
_cell_length_a   17.88554964
_cell_length_b   17.88946261
_cell_length_c   17.89003892
_cell_angle_alpha   89.96102279
_cell_angle_beta   89.99881670
_cell_angle_gamma   89.99986354
_symmetry_Int_Tables_number   1
_chemical_formula_structural   Ti27(Cu53Te54)2
_chemical_formula_sum   'Ti27 Cu106 Te108'
_cell_volume   5724.14689890
_cell_formula_units_Z   1
loop_
 _symmetry_equiv_pos_site_id
 _symmetry_equiv_pos_as_xyz
  1  'x, y, z'
loop_
 _atom_type_symbol
 _atom_type_oxidation_number
  Ti4+  4.0
  Cu+  1.0
  Te2-  -2.0
loop_
 _atom_site_type_symbol
 _atom_site_label
 _atom_site_symmetry_multiplicity
 _atom_site_fract_x
 _atom_site_fract_y
 _atom_site_fract_z
 _atom_site_occupancy
  Ti4+  Ti0  1  0.16489874  0.16211595  0.16843444  1
  Ti4+  Ti1  1  0.16618311  0.16505959  0.50183408  1
  Ti4+  Ti2  1  0.17154265  0.16584642  0.83477203  1
  Ti4+  Ti3  1  0.16451754  0.50133173  0.17111032  1
  Ti4+  Ti4  1  0.16571985  0.50365117  0.50244682  1
  Ti4+  Ti5  1  0.16766517  0.49883546  0.83765931  1
  Ti4+  Ti6  1  0.16678937  0.83384565  0.16950271  1
  Ti4+  Ti7  1  0.16477164  0.83429002  0.50017911  1
  Ti4+  Ti8  1  0.16767228  0.83311969  0.83306302  1
  Ti4+  Ti9  1  0.50047080  0.16706107  0.16473914  1
  Ti4+  Ti10  1  0.49872494  0.16702254  0.49808483  1
  Ti4+  Ti11  1  0.49823320  0.16786478  0.83308123  1
  Ti4+  Ti12  1  0.49632641  0.49980997  0.16683672  1
  Ti4+  Ti13  1  0.49956987  0.49917929  0.50047581  1
  Ti4+  Ti14  1  0.50037731  0.50008041  0.83611730  1
  Ti4+  Ti15  1  0.50048937  0.83251401  0.16530697  1
  Ti4+  Ti16  1  0.50056918  0.83172331  0.50002667  1
  Ti4+  Ti17  1  0.49961412  0.83411796  0.83178878  1
  Ti4+  Ti18  1  0.83777031  0.16990672  0.16565971  1
  Ti4+  Ti19  1  0.83239998  0.16888226  0.50064081  1
  Ti4+  Ti20  1  0.83508510  0.16157382  0.83505121  1
  Ti4+  Ti21  1  0.82896009  0.50091506  0.16659522  1
  Ti4+  Ti22  1  0.83370632  0.49857889  0.49713210  1
  Ti4+  Ti23  1  0.83491773  0.49967875  0.83110095  1
  Ti4+  Ti24  1  0.83188010  0.83316877  0.16545206  1
  Ti4+  Ti25  1  0.83248940  0.83487920  0.49925591  1
  Ti4+  Ti26  1  0.83246647  0.83293542  0.82551103  1
  Cu+  Cu27  1  0.16382484  0.16179413  0.00338926  1
  Cu+  Cu28  1  0.16729226  0.16074195  0.33730359  1
  Cu+  Cu29  1  0.17662879  0.16922035  0.66547184  1
  Cu+  Cu30  1  0.16554608  0.50103906  0.00338684  1
  Cu+  Cu31  1  0.16637827  0.50648369  0.33552217  1
  Cu+  Cu32  1  0.16469354  0.50117318  0.67421339  1
  Cu+  Cu33  1  0.16709545  0.83048542  0.00492083  1
  Cu+  Cu34  1  0.16402410  0.83407473  0.33541646  1
  Cu+  Cu35  1  0.16490247  0.83609647  0.66641944  1
  Cu+  Cu36  1  0.49761098  0.16829247  -0.00143087  1
  Cu+  Cu37  1  0.49886724  0.16650627  0.32952044  1
  Cu+  Cu38  1  0.49994169  0.17051718  0.66551460  1
  Cu+  Cu39  1  0.49761377  0.49379504  0.00223734  1
  Cu+  Cu40  1  0.49810807  0.49965037  0.33518119  1
  Cu+  Cu41  1  0.50197973  0.50210488  0.66510058  1
  Cu+  Cu42  1  0.49857797  0.83166992  -0.00103208  1
  Cu+  Cu43  1  0.50075118  0.83121157  0.33336875  1
  Cu+  Cu44  1  0.50282127  0.83030911  0.66592529  1
  Cu+  Cu45  1  0.84273108  0.16619340  -0.00106355  1
  Cu+  Cu46  1  0.83356074  0.17093500  0.33467440  1
  Cu+  Cu47  1  0.83190508  0.16579608  0.66940253  1
  Cu+  Cu48  1  0.83216692  0.49982226  -0.00054253  1
  Cu+  Cu49  1  0.82745284  0.50187835  0.33094981  1
  Cu+  Cu50  1  0.83454969  0.49599585  0.66108074  1
  Cu+  Cu51  1  0.83118550  0.83008085  -0.00557421  1
  Cu+  Cu52  1  0.83348198  0.83554088  0.33082686  1
  Cu+  Cu53  1  0.83000505  0.84019044  0.66195301  1
  Cu+  Cu54  1  0.16951644  -0.00201482  0.16655142  1
  Cu+  Cu55  1  0.16822057  0.00186659  0.49630992  1
  Cu+  Cu56  1  0.16752687  0.00019324  0.83099110  1
  Cu+  Cu57  1  0.16073802  0.33075820  0.17336369  1
  Cu+  Cu58  1  0.16563632  0.33296370  0.50494696  1
  Cu+  Cu59  1  0.17630301  0.33855471  0.83125338  1
  Cu+  Cu60  1  0.16788885  0.66833387  0.17350467  1
  Cu+  Cu61  1  0.16037688  0.66928846  0.49807960  1
  Cu+  Cu62  1  0.16729823  0.66318065  0.83505540  1
  Cu+  Cu63  1  0.50320602  -0.00279576  0.16673367  1
  Cu+  Cu64  1  0.49894001  -0.00192723  0.50111856  1
  Cu+  Cu65  1  0.49823837  0.00261093  0.83378841  1
  Cu+  Cu66  1  0.49955725  0.33308430  0.16219936  1
  Cu+  Cu67  1  0.49992118  0.33348382  0.49674876  1
  Cu+  Cu68  1  0.49709748  0.33347005  0.83808447  1
  Cu+  Cu69  1  0.49796304  0.66650868  0.16674009  1
  Cu+  Cu70  1  0.50103257  0.66396722  0.49955874  1
  Cu+  Cu71  1  0.49984756  0.66876468  0.83387477  1
  Cu+  Cu72  1  0.83659034  0.00009616  0.17053292  1
  Cu+  Cu73  1  0.83339310  0.00445229  0.49979306  1
  Cu+  Cu74  1  0.83153347  -0.00726437  0.83032764  1
  Cu+  Cu75  1  0.83533699  0.33926529  0.16237001  1
  Cu+  Cu76  1  0.83000479  0.33460597  0.50233023  1
  Cu+  Cu77  1  0.83311686  0.32937474  0.83274825  1
  Cu+  Cu78  1  0.82803595  0.66600377  0.16647158  1
  Cu+  Cu79  1  0.83550180  0.66675845  0.49923525  1
  Cu+  Cu80  1  0.83389068  0.66803961  0.82805618  1
  Cu+  Cu81  1  0.00145129  0.16622826  0.16072017  1
  Cu+  Cu82  1  0.00012129  0.16964546  0.50176232  1
  Cu+  Cu83  1  0.00335052  0.16394168  0.84182157  1
  Cu+  Cu84  1  -0.00543262  0.50145716  0.16977699  1
  Cu+  Cu85  1  -0.00064783  0.50691958  0.49835479  1
  Cu+  Cu86  1  0.00459094  0.50099351  0.83310569  1
  Cu+  Cu87  1  -0.00011146  0.83520630  0.17094777  1
  Cu+  Cu88  1  -0.00402280  0.83690548  0.50341952  1
  Cu+  Cu89  1  0.00286909  0.83729042  0.82664053  1
  Cu+  Cu90  1  0.33125390  0.16417579  0.16560404  1
  Cu+  Cu91  1  0.33178030  0.16532301  0.49862374  1
  Cu+  Cu92  1  0.33613916  0.15982656  0.83353536  1
  Cu+  Cu93  1  0.32750104  0.50210234  0.17298304  1
  Cu+  Cu94  1  0.33612892  0.50089719  0.50162246  1
  Cu+  Cu95  1  0.33558231  0.49523648  0.84022565  1
  Cu+  Cu96  1  0.33559236  0.83344481  0.16837730  1
  Cu+  Cu97  1  0.33430511  0.83021768  0.50158536  1
  Cu+  Cu98  1  0.33479617  0.83065936  0.83725484  1
  Cu+  Cu99  1  0.67034599  0.16977374  0.16519784  1
  Cu+  Cu100  1  0.66510952  0.16808153  0.49926549  1
  Cu+  Cu101  1  0.66483703  0.16661045  0.83250629  1
  Cu+  Cu102  1  0.66183523  0.49814636  0.16439725  1
  Cu+  Cu103  1  0.66652325  0.49603495  0.50008031  1
  Cu+  Cu104  1  0.67001857  0.50032504  0.83355342  1
  Cu+  Cu105  1  0.66562827  0.83231594  0.16372854  1
  Cu+  Cu106  1  0.66612206  0.83154862  0.49747770  1
  Cu+  Cu107  1  0.66470317  0.83124070  0.82046383  1
  Cu+  Cu108  1  0.92781407  0.90982963  0.92614920  1
  Cu+  Cu109  1  0.92841037  0.92736133  0.26248733  1
  Cu+  Cu110  1  0.59328905  0.40492316  0.07345263  1
  Cu+  Cu111  1  0.40518635  0.40298898  0.93262395  1
  Cu+  Cu112  1  0.92680354  0.26245314  0.91841008  1
  Cu+  Cu113  1  0.26349507  0.07078858  0.40646950  1
  Cu+  Cu114  1  0.92443848  0.93434367  0.58829689  1
  Cu+  Cu115  1  0.07564896  0.59419277  0.74708600  1
  Cu+  Cu116  1  0.07896619  0.06919627  0.92640259  1
  Cu+  Cu117  1  0.26261990  0.06978326  0.73811549  1
  Cu+  Cu118  1  0.92122730  0.06816291  0.07677937  1
  Cu+  Cu119  1  0.07896860  0.93291085  0.73723599  1
  Cu+  Cu120  1  0.08327526  0.26284851  0.07280810  1
  Cu+  Cu121  1  0.92806166  0.42044542  0.07196645  1
  Cu+  Cu122  1  0.73316150  0.92894995  0.73363224  1
  Cu+  Cu123  1  0.26408625  0.26311756  0.58579672  1
  Cu+  Cu124  1  0.06996354  0.59735396  0.40402649  1
  Cu+  Cu125  1  0.41481739  0.07081826  0.92971045  1
  Cu+  Cu126  1  0.40835409  0.73843606  0.92802431  1
  Cu+  Cu127  1  0.59054298  0.73446337  0.73568439  1
  Cu+  Cu128  1  0.26242748  0.59817599  0.26508429  1
  Cu+  Cu129  1  0.73711362  0.40556371  0.59227382  1
  Cu+  Cu130  1  0.92218764  0.59418540  0.59174739  1
  Cu+  Cu131  1  0.26672818  0.41970399  0.73832561  1
  Cu+  Cu132  1  0.26205533  0.07001358  0.07669846  1
  Te2-  Te133  1  0.24794148  0.25223997  0.08369863  1
  Te2-  Te134  1  0.24933234  0.25350250  0.41477876  1
  Te2-  Te135  1  0.26046314  0.25449031  0.74933366  1
  Te2-  Te136  1  0.24905637  0.58672068  0.08409337  1
  Te2-  Te137  1  0.25484244  0.58967068  0.41903605  1
  Te2-  Te138  1  0.25753843  0.58384452  0.75250510  1
  Te2-  Te139  1  0.25515076  0.91633853  0.08084760  1
  Te2-  Te140  1  0.25435699  0.91634945  0.41461504  1
  Te2-  Te141  1  0.25710229  0.91664111  0.74762366  1
  Te2-  Te142  1  0.58734790  0.25139752  0.07691847  1
  Te2-  Te143  1  0.58383966  0.25111890  0.41206316  1
  Te2-  Te144  1  0.58371611  0.25450923  0.74985687  1
  Te2-  Te145  1  0.58103097  0.58523287  0.07989359  1
  Te2-  Te146  1  0.58657403  0.58282282  0.41484317  1
  Te2-  Te147  1  0.58704978  0.58415895  0.74865638  1
  Te2-  Te148  1  0.58539862  0.91743747  0.07815133  1
  Te2-  Te149  1  0.58458737  0.91805986  0.41425715  1
  Te2-  Te150  1  0.58146427  0.92494393  0.74374326  1
  Te2-  Te151  1  0.92587995  0.26068139  0.07582423  1
  Te2-  Te152  1  0.91832073  0.25515971  0.41761982  1
  Te2-  Te153  1  0.92196929  0.24704865  0.75064485  1
  Te2-  Te154  1  0.91609334  0.58728825  0.08130291  1
  Te2-  Te155  1  0.91637746  0.58809265  0.40785555  1
  Te2-  Te156  1  0.92092870  0.58640643  0.74455014  1
  Te2-  Te157  1  0.92114343  0.91664237  0.07730783  1
  Te2-  Te158  1  0.91860964  0.92278936  0.41364239  1
  Te2-  Te159  1  0.92340487  0.92415709  0.74011784  1
  Te2-  Te160  1  0.25431348  0.07743644  0.25409130  1
  Te2-  Te161  1  0.25583628  0.07527351  0.58613418  1
  Te2-  Te162  1  0.25533454  0.07569863  0.92343732  1
  Te2-  Te163  1  0.24693048  0.41288914  0.25639077  1
  Te2-  Te164  1  0.25418437  0.41707624  0.58805643  1
  Te2-  Te165  1  0.25221080  0.41264180  0.92886866  1
  Te2-  Te166  1  0.25433860  0.75103253  0.25739135  1
  Te2-  Te167  1  0.24840690  0.74786965  0.58539493  1
  Te2-  Te168  1  0.25041943  0.74557096  0.92102944  1
  Te2-  Te169  1  0.58726247  0.08324329  0.24840421  1
  Te2-  Te170  1  0.58338792  0.08302655  0.58448897  1
  Te2-  Te171  1  0.58493377  0.08222089  0.91907818  1
  Te2-  Te172  1  0.58136869  0.41391868  0.25235855  1
  Te2-  Te173  1  0.58427350  0.41103637  0.58730384  1
  Te2-  Te174  1  0.58940297  0.41281145  0.91856662  1
  Te2-  Te175  1  0.58557951  0.74693348  0.25050614  1
  Te2-  Te176  1  0.58872523  0.74380548  0.58373539  1
  Te2-  Te177  1  0.58865673  0.75053155  0.91646519  1
  Te2-  Te178  1  0.92175215  0.08509826  0.25535010  1
  Te2-  Te179  1  0.92013490  0.08488155  0.58808155  1
  Te2-  Te180  1  0.92285731  0.06847244  0.92053070  1
  Te2-  Te181  1  0.91527826  0.41618345  0.25509092  1
  Te2-  Te182  1  0.92371863  0.41330748  0.58127567  1
  Te2-  Te183  1  0.92243546  0.41465537  0.91762007  1
  Te2-  Te184  1  0.91610233  0.74595843  0.25079726  1
  Te2-  Te185  1  0.91805515  0.74869435  0.58813601  1
  Te2-  Te186  1  0.92099069  0.74898141  0.91176504  1
  Te2-  Te187  1  0.07948860  0.24486445  0.25698562  1
  Te2-  Te188  1  0.08159589  0.25081965  0.59004654  1
  Te2-  Te189  1  0.08621019  0.25816971  0.91889110  1
  Te2-  Te190  1  0.07507686  0.58881368  0.25294916  1
  Te2-  Te191  1  0.07986705  0.58986219  0.59158132  1
  Te2-  Te192  1  0.08075387  0.58611237  0.92304235  1
  Te2-  Te193  1  0.08185337  0.92266096  0.25537950  1
  Te2-  Te194  1  0.08060654  0.92550905  0.58510031  1
  Te2-  Te195  1  0.08239723  0.91747072  0.92388605  1
  Te2-  Te196  1  0.41335057  0.25145133  0.24792667  1
  Te2-  Te197  1  0.41407457  0.25469369  0.58439119  1
  Te2-  Te198  1  0.40876748  0.25217740  0.92119538  1
  Te2-  Te199  1  0.41389060  0.58749198  0.25564541  1
  Te2-  Te200  1  0.41539392  0.58654240  0.58679085  1
  Te2-  Te201  1  0.41486106  0.58608876  0.92222226  1
  Te2-  Te202  1  0.41708723  0.91828376  0.25270298  1
  Te2-  Te203  1  0.41492551  0.91574039  0.58662665  1
  Te2-  Te204  1  0.41307587  0.91985881  0.92026586  1
  Te2-  Te205  1  0.75203724  0.25550531  0.24857883  1
  Te2-  Te206  1  0.74492320  0.25149088  0.58918785  1
  Te2-  Te207  1  0.74913091  0.24702754  0.91941735  1
  Te2-  Te208  1  0.74097576  0.58553759  0.25013606  1
  Te2-  Te209  1  0.74755313  0.58501692  0.58320951  1
  Te2-  Te210  1  0.75174962  0.58648646  0.91598062  1
  Te2-  Te211  1  0.74538221  0.91917572  0.24975739  1
  Te2-  Te212  1  0.74189398  0.92359999  0.58049232  1
  Te2-  Te213  1  0.74302939  0.91304776  0.91341836  1
  Te2-  Te214  1  0.07681964  0.07068435  0.08029977  1
  Te2-  Te215  1  0.07667914  0.08108321  0.41696958  1
  Te2-  Te216  1  0.08241202  0.08640108  0.74475901  1
  Te2-  Te217  1  0.07895411  0.41515191  0.08194605  1
  Te2-  Te218  1  0.08332945  0.41665906  0.41800507  1
  Te2-  Te219  1  0.08111636  0.41046190  0.75049308  1
  Te2-  Te220  1  0.08089364  0.74767486  0.08654722  1
  Te2-  Te221  1  0.07424383  0.75188269  0.41426257  1
  Te2-  Te222  1  0.08263776  0.74643250  0.74691083  1
  Te2-  Te223  1  0.41451120  0.07612780  0.08086634  1
  Te2-  Te224  1  0.41514139  0.07876908  0.41189759  1
  Te2-  Te225  1  0.41606730  0.07984327  0.74170622  1
  Te2-  Te226  1  0.40507593  0.41333986  0.08511696  1
  Te2-  Te227  1  0.41262582  0.41451791  0.41471489  1
  Te2-  Te228  1  0.41790138  0.41447380  0.74597518  1
  Te2-  Te229  1  0.41170430  0.74558656  0.08097308  1
  Te2-  Te230  1  0.41570091  0.74603063  0.41516053  1
  Te2-  Te231  1  0.41283442  0.74776082  0.74630785  1
  Te2-  Te232  1  0.75323610  0.08301379  0.08161133  1
  Te2-  Te233  1  0.74796460  0.08442398  0.41404384  1
  Te2-  Te234  1  0.74564841  0.08041565  0.74796900  1
  Te2-  Te235  1  0.74458515  0.41359377  0.07718944  1
  Te2-  Te236  1  0.74682242  0.41316094  0.41195136  1
  Te2-  Te237  1  0.74883850  0.41212273  0.74775541  1
  Te2-  Te238  1  0.74753704  0.74794389  0.07841225  1
  Te2-  Te239  1  0.75021563  0.74833325  0.41333934  1
  Te2-  Te240  1  0.74907361  0.74421460  0.73849711  1
