# generated using pymatgen
data_Ti27(Cu53Te54)2
_symmetry_space_group_name_H-M   'P 1'
_cell_length_a   17.91326182
_cell_length_b   17.92137811
_cell_length_c   17.92785818
_cell_angle_alpha   89.92942621
_cell_angle_beta   89.98433195
_cell_angle_gamma   89.94966543
_symmetry_Int_Tables_number   1
_chemical_formula_structural   Ti27(Cu53Te54)2
_chemical_formula_sum   'Ti27 Cu106 Te108'
_cell_volume   5755.37957422
_cell_formula_units_Z   1
loop_
 _symmetry_equiv_pos_site_id
 _symmetry_equiv_pos_as_xyz
  1  'x, y, z'
loop_
 _atom_type_symbol
 _atom_type_oxidation_number
  Ti4+  4.0
  Cu+  1.0
  Te2-  -2.0
loop_
 _atom_site_type_symbol
 _atom_site_label
 _atom_site_symmetry_multiplicity
 _atom_site_fract_x
 _atom_site_fract_y
 _atom_site_fract_z
 _atom_site_occupancy
  Ti4+  Ti0  1  0.16815582  0.16951844  0.16746593  1
  Ti4+  Ti1  1  0.16640982  0.16666846  0.49885536  1
  Ti4+  Ti2  1  0.16646390  0.16493534  0.83264462  1
  Ti4+  Ti3  1  0.16634425  0.50239826  0.16458858  1
  Ti4+  Ti4  1  0.16747631  0.49870301  0.49747531  1
  Ti4+  Ti5  1  0.16533263  0.49868118  0.82841426  1
  Ti4+  Ti6  1  0.16778517  0.83238809  0.17020285  1
  Ti4+  Ti7  1  0.16477347  0.83116520  0.49984689  1
  Ti4+  Ti8  1  0.16660988  0.83226933  0.83523266  1
  Ti4+  Ti9  1  0.50055720  0.16429856  0.16402128  1
  Ti4+  Ti10  1  0.50309072  0.16915072  0.49680509  1
  Ti4+  Ti11  1  0.49960964  0.16678857  0.83436224  1
  Ti4+  Ti12  1  0.50157852  0.50359702  0.16413487  1
  Ti4+  Ti13  1  0.50263632  0.50331280  0.50331034  1
  Ti4+  Ti14  1  0.50006399  0.49971306  0.83327668  1
  Ti4+  Ti15  1  0.50304655  0.82962962  0.16680412  1
  Ti4+  Ti16  1  0.49970083  0.83446014  0.50337905  1
  Ti4+  Ti17  1  0.49927962  0.83736786  0.83507173  1
  Ti4+  Ti18  1  0.83184090  0.17102107  0.16809312  1
  Ti4+  Ti19  1  0.82735006  0.16390401  0.49754819  1
  Ti4+  Ti20  1  0.83176387  0.16416080  0.83462461  1
  Ti4+  Ti21  1  0.83379941  0.50078351  0.16759614  1
  Ti4+  Ti22  1  0.83249492  0.50032767  0.50367688  1
  Ti4+  Ti23  1  0.83343360  0.49776777  0.83285917  1
  Ti4+  Ti24  1  0.83444790  0.83148982  0.16468099  1
  Ti4+  Ti25  1  0.83252622  0.83185486  0.50131899  1
  Ti4+  Ti26  1  0.83358536  0.83469643  0.83659648  1
  Cu+  Cu27  1  0.16640432  0.16750800  0.00089530  1
  Cu+  Cu28  1  0.16701384  0.16880558  0.33394392  1
  Cu+  Cu29  1  0.16592988  0.16546452  0.66644524  1
  Cu+  Cu30  1  0.16591386  0.50192614  -0.00612703  1
  Cu+  Cu31  1  0.16851102  0.50225102  0.33100940  1
  Cu+  Cu32  1  0.16657554  0.49703935  0.66091481  1
  Cu+  Cu33  1  0.16947221  0.83015044  0.00438765  1
  Cu+  Cu34  1  0.16125398  0.82940899  0.33410578  1
  Cu+  Cu35  1  0.16374111  0.83124900  0.66766925  1
  Cu+  Cu36  1  0.49329493  0.17030662  -0.00037709  1
  Cu+  Cu37  1  0.50904202  0.16625585  0.32996031  1
  Cu+  Cu38  1  0.50316069  0.16438189  0.66287080  1
  Cu+  Cu39  1  0.49753848  0.49866708  -0.00284701  1
  Cu+  Cu40  1  0.50178768  0.50456716  0.33187323  1
  Cu+  Cu41  1  0.50232470  0.50351666  0.66910250  1
  Cu+  Cu42  1  0.50253344  0.83792653  0.00021004  1
  Cu+  Cu43  1  0.50241418  0.82676172  0.33878733  1
  Cu+  Cu44  1  0.49554474  0.83913766  0.66880639  1
  Cu+  Cu45  1  0.83210342  0.16807608  0.00232544  1
  Cu+  Cu46  1  0.82218370  0.16694779  0.33087552  1
  Cu+  Cu47  1  0.82941636  0.16155591  0.66706843  1
  Cu+  Cu48  1  0.83595506  0.49683128  -0.00161215  1
  Cu+  Cu49  1  0.83405002  0.50017253  0.33748295  1
  Cu+  Cu50  1  0.83298318  0.49758872  0.66933858  1
  Cu+  Cu51  1  0.83915737  0.83656155  -0.00143794  1
  Cu+  Cu52  1  0.83240566  0.83060013  0.33411574  1
  Cu+  Cu53  1  0.83276077  0.83397560  0.66970065  1
  Cu+  Cu54  1  0.16804216  0.00417515  0.17065349  1
  Cu+  Cu55  1  0.16538489  -0.00134379  0.49827509  1
  Cu+  Cu56  1  0.16636244  -0.00116027  0.83282717  1
  Cu+  Cu57  1  0.16682488  0.33507709  0.16531293  1
  Cu+  Cu58  1  0.16399110  0.33314007  0.49986917  1
  Cu+  Cu59  1  0.16640160  0.33032006  0.82928312  1
  Cu+  Cu60  1  0.16874582  0.66802839  0.17190678  1
  Cu+  Cu61  1  0.16906617  0.66492077  0.49891535  1
  Cu+  Cu62  1  0.16771261  0.66347580  0.83418283  1
  Cu+  Cu63  1  0.49409773  -0.00857308  0.16373879  1
  Cu+  Cu64  1  0.49776767  0.00399037  0.50061940  1
  Cu+  Cu65  1  0.50136911  0.00366404  0.83779955  1
  Cu+  Cu66  1  0.49916204  0.33306676  0.16157486  1
  Cu+  Cu67  1  0.50363340  0.33653430  0.50129167  1
  Cu+  Cu68  1  0.50151896  0.33367419  0.83593692  1
  Cu+  Cu69  1  0.50916586  0.66703458  0.16513806  1
  Cu+  Cu70  1  0.50514196  0.66859071  0.50581119  1
  Cu+  Cu71  1  0.49752872  0.66930992  0.83178940  1
  Cu+  Cu72  1  0.83389636  0.00027182  0.16749717  1
  Cu+  Cu73  1  0.83106341  -0.00436394  0.49826789  1
  Cu+  Cu74  1  0.83635449  -0.00107738  0.83871658  1
  Cu+  Cu75  1  0.83839044  0.33961177  0.16375503  1
  Cu+  Cu76  1  0.82875569  0.33308239  0.49977403  1
  Cu+  Cu77  1  0.83195825  0.33050176  0.83198999  1
  Cu+  Cu78  1  0.82997252  0.66358994  0.16256356  1
  Cu+  Cu79  1  0.83418628  0.66659354  0.50409102  1
  Cu+  Cu80  1  0.83298524  0.66810930  0.83306097  1
  Cu+  Cu81  1  0.00137711  0.17071725  0.16890723  1
  Cu+  Cu82  1  -0.00406987  0.16525805  0.49785696  1
  Cu+  Cu83  1  0.00054934  0.16515683  0.83250815  1
  Cu+  Cu84  1  -0.00181381  0.49586541  0.16404816  1
  Cu+  Cu85  1  0.00095855  0.49375786  0.50093145  1
  Cu+  Cu86  1  -0.00112070  0.49670520  0.82830015  1
  Cu+  Cu87  1  0.00193510  0.83121349  0.17159466  1
  Cu+  Cu88  1  -0.00189755  0.83298489  0.50034907  1
  Cu+  Cu89  1  0.00055063  0.83492484  0.83819691  1
  Cu+  Cu90  1  0.33404770  0.16973596  0.16329769  1
  Cu+  Cu91  1  0.33462650  0.16568638  0.49982235  1
  Cu+  Cu92  1  0.33122078  0.16322533  0.83422286  1
  Cu+  Cu93  1  0.33305437  0.50449271  0.16683568  1
  Cu+  Cu94  1  0.33472770  0.50334414  0.50095538  1
  Cu+  Cu95  1  0.33324972  0.49996169  0.83095968  1
  Cu+  Cu96  1  0.33347878  0.82979028  0.16487093  1
  Cu+  Cu97  1  0.33132778  0.83466620  0.50097476  1
  Cu+  Cu98  1  0.33152486  0.83372248  0.83304217  1
  Cu+  Cu99  1  0.66654566  0.16591563  0.17423333  1
  Cu+  Cu100  1  0.66545214  0.17212730  0.49082387  1
  Cu+  Cu101  1  0.66433119  0.16490664  0.83373731  1
  Cu+  Cu102  1  0.66888586  0.50861532  0.16595673  1
  Cu+  Cu103  1  0.66627438  0.50491478  0.50788381  1
  Cu+  Cu104  1  0.66816821  0.49675814  0.83331515  1
  Cu+  Cu105  1  0.66896813  0.82634394  0.16337451  1
  Cu+  Cu106  1  0.66735228  0.83043613  0.50128971  1
  Cu+  Cu107  1  0.66684234  0.83983030  0.83719043  1
  Cu+  Cu108  1  0.40259064  0.91664865  0.07393831  1
  Cu+  Cu109  1  0.06981568  0.73876700  0.26312968  1
  Cu+  Cu110  1  0.59435988  0.07536821  0.73861705  1
  Cu+  Cu111  1  0.59704830  0.59929088  0.60176691  1
  Cu+  Cu112  1  0.26140046  0.58714675  0.92166713  1
  Cu+  Cu113  1  0.25897399  0.74009158  0.07644479  1
  Cu+  Cu114  1  0.58748122  0.26357722  0.25426640  1
  Cu+  Cu115  1  0.74327102  0.06700783  0.25552177  1
  Cu+  Cu116  1  0.93399502  0.92959262  0.92650078  1
  Cu+  Cu117  1  0.59498429  0.74226885  0.06789073  1
  Cu+  Cu118  1  0.40408689  0.07745192  0.59093646  1
  Cu+  Cu119  1  0.92963517  0.40783951  0.06804247  1
  Cu+  Cu120  1  0.25756676  0.59344948  0.59167965  1
  Cu+  Cu121  1  0.40147072  0.07623873  0.92654499  1
  Cu+  Cu122  1  0.59197471  0.26181814  0.59326086  1
  Cu+  Cu123  1  0.59591062  0.74050626  0.41390978  1
  Cu+  Cu124  1  0.07212972  0.40223287  0.59124872  1
  Cu+  Cu125  1  0.40315310  0.26468669  0.07357437  1
  Cu+  Cu126  1  0.59456806  0.26165524  0.92506040  1
  Cu+  Cu127  1  0.59553574  0.92908521  0.92851227  1
  Cu+  Cu128  1  0.74493927  0.26771743  0.40346213  1
  Cu+  Cu129  1  0.26102824  0.59183837  0.26091066  1
  Cu+  Cu130  1  0.74592272  0.58762569  0.06645312  1
  Cu+  Cu131  1  0.58802369  0.07023616  0.40495434  1
  Cu+  Cu132  1  0.59843603  0.59140548  0.26101517  1
  Te2-  Te133  1  0.25193178  0.25595123  0.07808185  1
  Te2-  Te134  1  0.25308322  0.25265401  0.41652541  1
  Te2-  Te135  1  0.25353339  0.24883559  0.74664075  1
  Te2-  Te136  1  0.25389117  0.58796305  0.07637325  1
  Te2-  Te137  1  0.25556417  0.58700470  0.41225697  1
  Te2-  Te138  1  0.25229113  0.58546812  0.74340487  1
  Te2-  Te139  1  0.25109056  0.92218734  0.08268472  1
  Te2-  Te140  1  0.24870420  0.91558311  0.41295357  1
  Te2-  Te141  1  0.24937164  0.91665837  0.74791603  1
  Te2-  Te142  1  0.58914479  0.25064233  0.07994318  1
  Te2-  Te143  1  0.58757376  0.26301293  0.40737584  1
  Te2-  Te144  1  0.58616755  0.25357606  0.74710425  1
  Te2-  Te145  1  0.58767250  0.58700257  0.07121456  1
  Te2-  Te146  1  0.59013530  0.58797217  0.41432209  1
  Te2-  Te147  1  0.58817944  0.58814404  0.75206937  1
  Te2-  Te148  1  0.59129407  0.92031146  0.08323597  1
  Te2-  Te149  1  0.58580112  0.91846982  0.41597068  1
  Te2-  Te150  1  0.58510821  0.92218856  0.74711859  1
  Te2-  Te151  1  0.92050962  0.25320092  0.08024207  1
  Te2-  Te152  1  0.91261870  0.25021016  0.41258036  1
  Te2-  Te153  1  0.91543888  0.24698580  0.74748416  1
  Te2-  Te154  1  0.92027774  0.58519289  0.07972976  1
  Te2-  Te155  1  0.91944422  0.58355381  0.41993492  1
  Te2-  Te156  1  0.91677568  0.58487439  0.74823899  1
  Te2-  Te157  1  0.92262500  0.91989352  0.08515422  1
  Te2-  Te158  1  0.91725761  0.91616563  0.41353446  1
  Te2-  Te159  1  0.91940038  0.91883121  0.74978298  1
  Te2-  Te160  1  0.25527429  0.08587725  0.25281175  1
  Te2-  Te161  1  0.25101459  0.07922148  0.58516066  1
  Te2-  Te162  1  0.24968546  0.07809612  0.92182985  1
  Te2-  Te163  1  0.25231462  0.41626467  0.24913748  1
  Te2-  Te164  1  0.25506889  0.41231746  0.58179123  1
  Te2-  Te165  1  0.25041424  0.41321398  0.91451793  1
  Te2-  Te166  1  0.25747907  0.74796145  0.25814215  1
  Te2-  Te167  1  0.25237826  0.74759157  0.58744551  1
  Te2-  Te168  1  0.25566971  0.74477191  0.92058486  1
  Te2-  Te169  1  0.58493827  0.06985257  0.24908892  1
  Te2-  Te170  1  0.59304444  0.08010418  0.58211076  1
  Te2-  Te171  1  0.58665569  0.08292738  0.92668414  1
  Te2-  Te172  1  0.58620397  0.41722314  0.24920856  1
  Te2-  Te173  1  0.58724551  0.41548238  0.59030211  1
  Te2-  Te174  1  0.58737684  0.41483325  0.92116687  1
  Te2-  Te175  1  0.59193897  0.74546381  0.25710094  1
  Te2-  Te176  1  0.58635101  0.75234497  0.59441656  1
  Te2-  Te177  1  0.58571144  0.74750300  0.91680597  1
  Te2-  Te178  1  0.91715081  0.08586983  0.25308356  1
  Te2-  Te179  1  0.91388816  0.08003978  0.58191757  1
  Te2-  Te180  1  0.92064381  0.08325842  0.92322708  1
  Te2-  Te181  1  0.91886796  0.41634588  0.25615438  1
  Te2-  Te182  1  0.91630926  0.40975173  0.58692872  1
  Te2-  Te183  1  0.92077232  0.40985433  0.91596291  1
  Te2-  Te184  1  0.91547360  0.74355001  0.25168976  1
  Te2-  Te185  1  0.91837357  0.74918637  0.58830016  1
  Te2-  Te186  1  0.91926886  0.74586316  0.91933666  1
  Te2-  Te187  1  0.08319298  0.25511084  0.25279987  1
  Te2-  Te188  1  0.07761389  0.24941751  0.58522724  1
  Te2-  Te189  1  0.08167868  0.25116566  0.91718961  1
  Te2-  Te190  1  0.07655176  0.58378979  0.25115611  1
  Te2-  Te191  1  0.08050544  0.58481829  0.58245756  1
  Te2-  Te192  1  0.07730817  0.58292589  0.91344218  1
  Te2-  Te193  1  0.08228310  0.92071716  0.25301517  1
  Te2-  Te194  1  0.08090902  0.91723142  0.58454353  1
  Te2-  Te195  1  0.08521466  0.91907940  0.92444086  1
  Te2-  Te196  1  0.41764929  0.25063173  0.25196734  1
  Te2-  Te197  1  0.41639945  0.25329274  0.58387475  1
  Te2-  Te198  1  0.40859838  0.25592371  0.91692991  1
  Te2-  Te199  1  0.41609505  0.59061383  0.25025565  1
  Te2-  Te200  1  0.41506408  0.58830307  0.58854121  1
  Te2-  Te201  1  0.41434744  0.58737497  0.91819771  1
  Te2-  Te202  1  0.41604101  0.91034884  0.25583213  1
  Te2-  Te203  1  0.41134699  0.92227655  0.58547252  1
  Te2-  Te204  1  0.40803344  0.92128174  0.92075040  1
  Te2-  Te205  1  0.74502945  0.26458018  0.25047224  1
  Te2-  Te206  1  0.74494244  0.25075410  0.58785289  1
  Te2-  Te207  1  0.74671031  0.25190304  0.91986490  1
  Te2-  Te208  1  0.75070374  0.58855368  0.25843756  1
  Te2-  Te209  1  0.74977351  0.58841672  0.59219456  1
  Te2-  Te210  1  0.74774874  0.58514457  0.91688573  1
  Te2-  Te211  1  0.74683982  0.91366594  0.25077760  1
  Te2-  Te212  1  0.74656711  0.91704682  0.58635915  1
  Te2-  Te213  1  0.74805470  0.92284937  0.92515446  1
  Te2-  Te214  1  0.08158728  0.08359614  0.08439336  1
  Te2-  Te215  1  0.08122813  0.08255218  0.41399627  1
  Te2-  Te216  1  0.08120272  0.07966880  0.74756785  1
  Te2-  Te217  1  0.08364599  0.41498641  0.07704652  1
  Te2-  Te218  1  0.08273861  0.41455649  0.40970550  1
  Te2-  Te219  1  0.08026341  0.41083257  0.74375541  1
  Te2-  Te220  1  0.08149446  0.74659610  0.08414421  1
  Te2-  Te221  1  0.07718686  0.74292650  0.41661713  1
  Te2-  Te222  1  0.07995576  0.74749766  0.75230155  1
  Te2-  Te223  1  0.41006657  0.07626958  0.08030734  1
  Te2-  Te224  1  0.41687367  0.08454068  0.40926359  1
  Te2-  Te225  1  0.41385647  0.08027009  0.74629133  1
  Te2-  Te226  1  0.41223799  0.41805129  0.08039508  1
  Te2-  Te227  1  0.41902067  0.41928910  0.41616365  1
  Te2-  Te228  1  0.41680546  0.41456830  0.74793972  1
  Te2-  Te229  1  0.41729970  0.74409856  0.07853502  1
  Te2-  Te230  1  0.41426810  0.74624202  0.42130663  1
  Te2-  Te231  1  0.41420786  0.75180241  0.74909643  1
  Te2-  Te232  1  0.74702167  0.08346678  0.08379515  1
  Te2-  Te233  1  0.74234009  0.07277176  0.41073476  1
  Te2-  Te234  1  0.74718843  0.07574686  0.75027019  1
  Te2-  Te235  1  0.74496994  0.41656377  0.08222749  1
  Te2-  Te236  1  0.74302186  0.41948964  0.41669130  1
  Te2-  Te237  1  0.74770112  0.41206824  0.74809144  1
  Te2-  Te238  1  0.75011541  0.74592060  0.07301303  1
  Te2-  Te239  1  0.74869741  0.74350688  0.41469367  1
  Te2-  Te240  1  0.74587757  0.75196562  0.75214486  1
