# generated using pymatgen
data_Ti27(Cu53Te54)2
_symmetry_space_group_name_H-M   'P 1'
_cell_length_a   17.93656469
_cell_length_b   17.92289911
_cell_length_c   17.93174573
_cell_angle_alpha   90.01991650
_cell_angle_beta   89.96612617
_cell_angle_gamma   89.96691323
_symmetry_Int_Tables_number   1
_chemical_formula_structural   Ti27(Cu53Te54)2
_chemical_formula_sum   'Ti27 Cu106 Te108'
_cell_volume   5764.60993222
_cell_formula_units_Z   1
loop_
 _symmetry_equiv_pos_site_id
 _symmetry_equiv_pos_as_xyz
  1  'x, y, z'
loop_
 _atom_type_symbol
 _atom_type_oxidation_number
  Ti4+  4.0
  Cu+  1.0
  Te2-  -2.0
loop_
 _atom_site_type_symbol
 _atom_site_label
 _atom_site_symmetry_multiplicity
 _atom_site_fract_x
 _atom_site_fract_y
 _atom_site_fract_z
 _atom_site_occupancy
  Ti4+  Ti0  1  0.16673977  0.16816063  0.16402229  1
  Ti4+  Ti1  1  0.16547750  0.16402400  0.49601418  1
  Ti4+  Ti2  1  0.16667510  0.17159310  0.83134909  1
  Ti4+  Ti3  1  0.16689894  0.49885140  0.16767411  1
  Ti4+  Ti4  1  0.16593386  0.49919434  0.50090314  1
  Ti4+  Ti5  1  0.16833174  0.50285928  0.83315645  1
  Ti4+  Ti6  1  0.17241911  0.83005528  0.17027646  1
  Ti4+  Ti7  1  0.16599480  0.83221571  0.49962485  1
  Ti4+  Ti8  1  0.16403946  0.83674042  0.83516793  1
  Ti4+  Ti9  1  0.49592819  0.16518828  0.16860395  1
  Ti4+  Ti10  1  0.49889839  0.16739765  0.49969811  1
  Ti4+  Ti11  1  0.49864460  0.16516813  0.84046215  1
  Ti4+  Ti12  1  0.50109166  0.49909681  0.16679227  1
  Ti4+  Ti13  1  0.49902845  0.50126289  0.50319054  1
  Ti4+  Ti14  1  0.50090106  0.49941532  0.83182313  1
  Ti4+  Ti15  1  0.50436656  0.83042458  0.16707107  1
  Ti4+  Ti16  1  0.50018585  0.83306552  0.50101877  1
  Ti4+  Ti17  1  0.49553114  0.83452211  0.83396090  1
  Ti4+  Ti18  1  0.83144657  0.16651422  0.16526934  1
  Ti4+  Ti19  1  0.83229929  0.16649796  0.49631885  1
  Ti4+  Ti20  1  0.83390237  0.16113996  0.82987029  1
  Ti4+  Ti21  1  0.83301112  0.49920551  0.16554261  1
  Ti4+  Ti22  1  0.83305587  0.50009456  0.50278706  1
  Ti4+  Ti23  1  0.83558553  0.50051533  0.83310875  1
  Ti4+  Ti24  1  0.83949688  0.83110916  0.16897062  1
  Ti4+  Ti25  1  0.82880094  0.83269333  0.49884838  1
  Ti4+  Ti26  1  0.83382182  0.84101810  0.83187961  1
  Cu+  Cu27  1  0.16661504  0.17175912  -0.00610116  1
  Cu+  Cu28  1  0.16426413  0.16729982  0.33107760  1
  Cu+  Cu29  1  0.17424752  0.17352804  0.65555441  1
  Cu+  Cu30  1  0.16510956  0.50126048  0.00281082  1
  Cu+  Cu31  1  0.16652776  0.49690582  0.33500326  1
  Cu+  Cu32  1  0.17189172  0.50387905  0.66613831  1
  Cu+  Cu33  1  0.16634155  0.83608283  0.00704864  1
  Cu+  Cu34  1  0.16730499  0.82764401  0.33368231  1
  Cu+  Cu35  1  0.16351621  0.83380468  0.66636243  1
  Cu+  Cu36  1  0.48990579  0.16124330  0.00626551  1
  Cu+  Cu37  1  0.50078115  0.17055321  0.33284196  1
  Cu+  Cu38  1  0.49961382  0.16573707  0.67242239  1
  Cu+  Cu39  1  0.50079246  0.49875227  -0.00253952  1
  Cu+  Cu40  1  0.49817255  0.49865205  0.33450419  1
  Cu+  Cu41  1  0.50316826  0.50291490  0.66562380  1
  Cu+  Cu42  1  0.50126187  0.83329872  -0.00022411  1
  Cu+  Cu43  1  0.50440262  0.83006511  0.33449954  1
  Cu+  Cu44  1  0.49364133  0.83442667  0.66786387  1
  Cu+  Cu45  1  0.83316318  0.16485740  -0.00165367  1
  Cu+  Cu46  1  0.83190911  0.16849451  0.33168746  1
  Cu+  Cu47  1  0.82894475  0.15520666  0.65865377  1
  Cu+  Cu48  1  0.83320953  0.50001387  -0.00030014  1
  Cu+  Cu49  1  0.83366508  0.49907063  0.33640557  1
  Cu+  Cu50  1  0.83604921  0.49976963  0.67006118  1
  Cu+  Cu51  1  0.83738798  0.83950326  0.00342114  1
  Cu+  Cu52  1  0.83200923  0.82702573  0.33217412  1
  Cu+  Cu53  1  0.82943424  0.83987776  0.66481045  1
  Cu+  Cu54  1  0.17331155  0.00007942  0.16469255  1
  Cu+  Cu55  1  0.16582734  -0.00093659  0.49577247  1
  Cu+  Cu56  1  0.16007489  0.00220151  0.82922148  1
  Cu+  Cu57  1  0.16571766  0.33466656  0.16651627  1
  Cu+  Cu58  1  0.16478752  0.33176768  0.49792637  1
  Cu+  Cu59  1  0.16936308  0.34097941  0.83558912  1
  Cu+  Cu60  1  0.16953684  0.66413425  0.17322859  1
  Cu+  Cu61  1  0.16676981  0.66582289  0.50223487  1
  Cu+  Cu62  1  0.16516197  0.67059697  0.83415457  1
  Cu+  Cu63  1  0.50255833  -0.00110543  0.16532116  1
  Cu+  Cu64  1  0.49948379  -0.00006390  0.49963715  1
  Cu+  Cu65  1  0.49644984  -0.00150714  0.84443148  1
  Cu+  Cu66  1  0.49988162  0.33274267  0.16939649  1
  Cu+  Cu67  1  0.49646411  0.33596530  0.50106834  1
  Cu+  Cu68  1  0.50038530  0.33249529  0.83301618  1
  Cu+  Cu69  1  0.50261157  0.66301937  0.16559504  1
  Cu+  Cu70  1  0.50370539  0.66576304  0.50467470  1
  Cu+  Cu71  1  0.49701803  0.66830458  0.83119254  1
  Cu+  Cu72  1  0.83560539  -0.00137290  0.16597480  1
  Cu+  Cu73  1  0.82655069  -0.00017293  0.49618428  1
  Cu+  Cu74  1  0.83623377  0.00066999  0.83075570  1
  Cu+  Cu75  1  0.83131141  0.33504003  0.16408863  1
  Cu+  Cu76  1  0.83443102  0.33313635  0.50051247  1
  Cu+  Cu77  1  0.83757097  0.32875572  0.83011559  1
  Cu+  Cu78  1  0.83610213  0.66531924  0.16914560  1
  Cu+  Cu79  1  0.83335044  0.66503278  0.50250641  1
  Cu+  Cu80  1  0.83546046  0.66988027  0.83333233  1
  Cu+  Cu81  1  -0.00063163  0.16599172  0.16342812  1
  Cu+  Cu82  1  0.00012946  0.16560586  0.49251597  1
  Cu+  Cu83  1  -0.00219116  0.16354216  0.83112017  1
  Cu+  Cu84  1  -0.00314144  0.50023701  0.16699475  1
  Cu+  Cu85  1  -0.00026690  0.49872813  0.50149852  1
  Cu+  Cu86  1  0.00213958  0.50071691  0.83376382  1
  Cu+  Cu87  1  0.00926056  0.82871077  0.17308386  1
  Cu+  Cu88  1  -0.00469047  0.83284216  0.49918231  1
  Cu+  Cu89  1  0.00173106  0.84502745  0.83061477  1
  Cu+  Cu90  1  0.33195718  0.16956948  0.16249665  1
  Cu+  Cu91  1  0.33276793  0.16332904  0.49713550  1
  Cu+  Cu92  1  0.33532972  0.17303446  0.83719771  1
  Cu+  Cu93  1  0.33329113  0.49871655  0.16975596  1
  Cu+  Cu94  1  0.33184710  0.50463121  0.50296957  1
  Cu+  Cu95  1  0.33379924  0.49852262  0.82783575  1
  Cu+  Cu96  1  0.33825656  0.82870495  0.16883323  1
  Cu+  Cu97  1  0.33413910  0.83162318  0.49905778  1
  Cu+  Cu98  1  0.32827426  0.83388314  0.83386398  1
  Cu+  Cu99  1  0.66071959  0.16755432  0.17012362  1
  Cu+  Cu100  1  0.66467978  0.16783914  0.49897600  1
  Cu+  Cu101  1  0.66790083  0.15860830  0.83664264  1
  Cu+  Cu102  1  0.66700058  0.49866958  0.16503034  1
  Cu+  Cu103  1  0.66719793  0.50183874  0.50629344  1
  Cu+  Cu104  1  0.67056921  0.49980329  0.83242734  1
  Cu+  Cu105  1  0.67431476  0.82806172  0.16944192  1
  Cu+  Cu106  1  0.66118572  0.82729371  0.49485586  1
  Cu+  Cu107  1  0.66171130  0.83955667  0.83185508  1
  Cu+  Cu108  1  0.41456552  0.25948423  0.74023690  1
  Cu+  Cu109  1  0.59086781  0.07932177  0.08061165  1
  Cu+  Cu110  1  0.58964455  0.92008323  0.92794641  1
  Cu+  Cu111  1  0.74572458  0.07514048  0.92597563  1
  Cu+  Cu112  1  0.74471334  0.73307200  0.25974983  1
  Cu+  Cu113  1  0.07748453  0.07917491  0.92479795  1
  Cu+  Cu114  1  0.73274321  0.07233873  0.58127830  1
  Cu+  Cu115  1  0.40191419  0.07013816  0.93013961  1
  Cu+  Cu116  1  0.07150106  0.42038644  0.93116406  1
  Cu+  Cu117  1  0.07971037  0.92622862  0.08866206  1
  Cu+  Cu118  1  0.74338246  0.92166809  0.08374650  1
  Cu+  Cu119  1  0.72996769  0.91863319  0.73431967  1
  Cu+  Cu120  1  0.25859036  0.59900657  0.59334451  1
  Cu+  Cu121  1  0.25912304  0.41226288  0.73696727  1
  Cu+  Cu122  1  0.93277693  0.08241539  0.72651451  1
  Cu+  Cu123  1  0.08053300  0.73290910  0.26523510  1
  Cu+  Cu124  1  0.59065345  0.26356861  0.26291775  1
  Cu+  Cu125  1  0.26439253  0.26203354  0.57106157  1
  Cu+  Cu126  1  0.92827628  0.92208895  0.92994257  1
  Cu+  Cu127  1  0.25962808  0.26715914  0.92457171  1
  Cu+  Cu128  1  0.59848954  0.59557103  0.59636757  1
  Cu+  Cu129  1  0.40583029  0.26586878  0.08325721  1
  Cu+  Cu130  1  0.07792618  0.92833743  0.73227795  1
  Cu+  Cu131  1  0.91813116  0.25928322  0.92621758  1
  Cu+  Cu132  1  0.58556116  0.73373521  0.40532227  1
  Te2-  Te133  1  0.25103724  0.25756097  0.07740378  1
  Te2-  Te134  1  0.25203651  0.25138554  0.41129425  1
  Te2-  Te135  1  0.25596181  0.25732693  0.74303748  1
  Te2-  Te136  1  0.25216025  0.58467859  0.08370821  1
  Te2-  Te137  1  0.25005056  0.58486112  0.41434046  1
  Te2-  Te138  1  0.25441801  0.59278057  0.74889770  1
  Te2-  Te139  1  0.25921609  0.91568745  0.08405796  1
  Te2-  Te140  1  0.25146033  0.91470347  0.41350510  1
  Te2-  Te141  1  0.24952253  0.92043516  0.74777002  1
  Te2-  Te142  1  0.58191040  0.25010843  0.07843749  1
  Te2-  Te143  1  0.58461395  0.25609797  0.41691079  1
  Te2-  Te144  1  0.58793992  0.24684174  0.75442726  1
  Te2-  Te145  1  0.58584314  0.58238194  0.07967093  1
  Te2-  Te146  1  0.58682176  0.58263149  0.41409274  1
  Te2-  Te147  1  0.58759294  0.58766440  0.74975361  1
  Te2-  Te148  1  0.59158397  0.91884950  0.08065983  1
  Te2-  Te149  1  0.58478150  0.92026811  0.41481952  1
  Te2-  Te150  1  0.57705149  0.92507871  0.74590774  1
  Te2-  Te151  1  0.91745713  0.25196397  0.08026791  1
  Te2-  Te152  1  0.91706714  0.25296824  0.41237501  1
  Te2-  Te153  1  0.91643342  0.24463954  0.73894809  1
  Te2-  Te154  1  0.91830047  0.58542080  0.08061124  1
  Te2-  Te155  1  0.91887022  0.58480395  0.41712942  1
  Te2-  Te156  1  0.92128686  0.58684302  0.74981993  1
  Te2-  Te157  1  0.92858265  0.92093200  0.08529467  1
  Te2-  Te158  1  0.91322805  0.91673388  0.41300944  1
  Te2-  Te159  1  0.92257329  0.92611884  0.73844137  1
  Te2-  Te160  1  0.25265074  0.08504087  0.24949779  1
  Te2-  Te161  1  0.25240832  0.07712693  0.58161501  1
  Te2-  Te162  1  0.25028354  0.08061599  0.91549704  1
  Te2-  Te163  1  0.25135205  0.41317005  0.25281057  1
  Te2-  Te164  1  0.25601238  0.41110458  0.58537982  1
  Te2-  Te165  1  0.25712084  0.41929751  0.92310312  1
  Te2-  Te166  1  0.25827919  0.74451719  0.25575848  1
  Te2-  Te167  1  0.25262772  0.74997471  0.58800810  1
  Te2-  Te168  1  0.24768514  0.75129866  0.92106102  1
  Te2-  Te169  1  0.58319803  0.07906174  0.25502678  1
  Te2-  Te170  1  0.58180727  0.08169909  0.58741047  1
  Te2-  Te171  1  0.58864456  0.07674508  0.92771114  1
  Te2-  Te172  1  0.58704667  0.41474280  0.25442234  1
  Te2-  Te173  1  0.58443865  0.41265743  0.58647817  1
  Te2-  Te174  1  0.58652913  0.41461981  0.91569672  1
  Te2-  Te175  1  0.58982796  0.74178347  0.25184544  1
  Te2-  Te176  1  0.58606918  0.74960973  0.59303559  1
  Te2-  Te177  1  0.58517815  0.74844419  0.91552506  1
  Te2-  Te178  1  0.91703287  0.08344009  0.24989047  1
  Te2-  Te179  1  0.92224599  0.07599947  0.57604722  1
  Te2-  Te180  1  0.92259775  0.07617031  0.92353708  1
  Te2-  Te181  1  0.91649175  0.41365947  0.25204240  1
  Te2-  Te182  1  0.91862189  0.41419503  0.58687470  1
  Te2-  Te183  1  0.92050765  0.41226747  0.92093000  1
  Te2-  Te184  1  0.92426538  0.74383544  0.25546454  1
  Te2-  Te185  1  0.91379491  0.75149312  0.58688751  1
  Te2-  Te186  1  0.92024041  0.75579675  0.91575675  1
  Te2-  Te187  1  0.08034764  0.25134198  0.24845706  1
  Te2-  Te188  1  0.07772724  0.25044759  0.58078530  1
  Te2-  Te189  1  0.07600839  0.25786704  0.91661029  1
  Te2-  Te190  1  0.07950589  0.58163541  0.25542213  1
  Te2-  Te191  1  0.08055576  0.58422544  0.58701533  1
  Te2-  Te192  1  0.08199941  0.58778112  0.91920457  1
  Te2-  Te193  1  0.08734703  0.92122033  0.25401059  1
  Te2-  Te194  1  0.07833815  0.91970050  0.58139538  1
  Te2-  Te195  1  0.08016991  0.92546824  0.92765661  1
  Te2-  Te196  1  0.41012898  0.25302512  0.25333976  1
  Te2-  Te197  1  0.41345882  0.25323757  0.58747013  1
  Te2-  Te198  1  0.41429362  0.25929297  0.92643940  1
  Te2-  Te199  1  0.41639363  0.58464971  0.25179858  1
  Te2-  Te200  1  0.41298957  0.58894946  0.58960513  1
  Te2-  Te201  1  0.41436157  0.58323440  0.91553836  1
  Te2-  Te202  1  0.42069116  0.91489670  0.25197746  1
  Te2-  Te203  1  0.41274488  0.91936341  0.58334609  1
  Te2-  Te204  1  0.40661762  0.91596703  0.92461646  1
  Te2-  Te205  1  0.74632115  0.25320950  0.25007594  1
  Te2-  Te206  1  0.74847591  0.25104480  0.58512972  1
  Te2-  Te207  1  0.74860937  0.24980272  0.91555202  1
  Te2-  Te208  1  0.74709221  0.58277300  0.25389617  1
  Te2-  Te209  1  0.74992859  0.58739191  0.59199313  1
  Te2-  Te210  1  0.75075714  0.58667608  0.91702382  1
  Te2-  Te211  1  0.75153733  0.91855906  0.25283128  1
  Te2-  Te212  1  0.73766877  0.91906732  0.58203908  1
  Te2-  Te213  1  0.74424360  0.92380387  0.92472086  1
  Te2-  Te214  1  0.08133136  0.08113784  0.07799719  1
  Te2-  Te215  1  0.08112771  0.07914241  0.40958446  1
  Te2-  Te216  1  0.08456568  0.08660324  0.73682218  1
  Te2-  Te217  1  0.07803875  0.41380350  0.08274285  1
  Te2-  Te218  1  0.08058084  0.41394609  0.41612283  1
  Te2-  Te219  1  0.08376076  0.41731779  0.74539507  1
  Te2-  Te220  1  0.08574580  0.74349200  0.08389532  1
  Te2-  Te221  1  0.07850970  0.74477791  0.41737284  1
  Te2-  Te222  1  0.07811656  0.75072328  0.75044995  1
  Te2-  Te223  1  0.40658165  0.07231368  0.08470724  1
  Te2-  Te224  1  0.41662813  0.08236943  0.41256180  1
  Te2-  Te225  1  0.41355244  0.07997993  0.75447194  1
  Te2-  Te226  1  0.41382091  0.41565285  0.08073270  1
  Te2-  Te227  1  0.41185258  0.41783220  0.41773376  1
  Te2-  Te228  1  0.41566364  0.41255289  0.74204552  1
  Te2-  Te229  1  0.41966338  0.74658584  0.08155574  1
  Te2-  Te230  1  0.41668886  0.74490438  0.41599763  1
  Te2-  Te231  1  0.41008679  0.74973559  0.74935480  1
  Te2-  Te232  1  0.74450556  0.07761446  0.07976446  1
  Te2-  Te233  1  0.74418630  0.08330570  0.41011265  1
  Te2-  Te234  1  0.74115635  0.07353110  0.74335659  1
  Te2-  Te235  1  0.74718860  0.41493380  0.07877866  1
  Te2-  Te236  1  0.74652448  0.41571828  0.41859733  1
  Te2-  Te237  1  0.75182605  0.41245586  0.74941772  1
  Te2-  Te238  1  0.75531986  0.74719594  0.07877460  1
  Te2-  Te239  1  0.74580525  0.74066176  0.41385729  1
  Te2-  Te240  1  0.74782454  0.75343002  0.75036929  1
