# generated using pymatgen
data_Ti27(Cu53Te54)2
_symmetry_space_group_name_H-M   'P 1'
_cell_length_a   17.88322041
_cell_length_b   17.88494706
_cell_length_c   17.88490917
_cell_angle_alpha   89.99136649
_cell_angle_beta   89.99910667
_cell_angle_gamma   90.02621732
_symmetry_Int_Tables_number   1
_chemical_formula_structural   Ti27(Cu53Te54)2
_chemical_formula_sum   'Ti27 Cu106 Te108'
_cell_volume   5720.31673595
_cell_formula_units_Z   1
loop_
 _symmetry_equiv_pos_site_id
 _symmetry_equiv_pos_as_xyz
  1  'x, y, z'
loop_
 _atom_type_symbol
 _atom_type_oxidation_number
  Ti4+  4.0
  Cu+  1.0
  Te2-  -2.0
loop_
 _atom_site_type_symbol
 _atom_site_label
 _atom_site_symmetry_multiplicity
 _atom_site_fract_x
 _atom_site_fract_y
 _atom_site_fract_z
 _atom_site_occupancy
  Ti4+  Ti0  1  0.16609031  0.16622369  0.16375327  1
  Ti4+  Ti1  1  0.16621046  0.16882353  0.49667528  1
  Ti4+  Ti2  1  0.16744448  0.16606523  0.83362014  1
  Ti4+  Ti3  1  0.16752914  0.49726901  0.16893020  1
  Ti4+  Ti4  1  0.16644228  0.50392385  0.49771808  1
  Ti4+  Ti5  1  0.16969983  0.49802680  0.83193032  1
  Ti4+  Ti6  1  0.16602269  0.83424233  0.16649692  1
  Ti4+  Ti7  1  0.16319012  0.83573556  0.50472399  1
  Ti4+  Ti8  1  0.16594889  0.83021915  0.83105741  1
  Ti4+  Ti9  1  0.50209020  0.16967303  0.16119583  1
  Ti4+  Ti10  1  0.50080449  0.16600653  0.49893251  1
  Ti4+  Ti11  1  0.49960581  0.16107164  0.83298191  1
  Ti4+  Ti12  1  0.49647964  0.50054855  0.17024251  1
  Ti4+  Ti13  1  0.50071031  0.50417935  0.50031584  1
  Ti4+  Ti14  1  0.50075814  0.50056502  0.83303126  1
  Ti4+  Ti15  1  0.50101888  0.83342546  0.16699500  1
  Ti4+  Ti16  1  0.49980802  0.83508236  0.50093172  1
  Ti4+  Ti17  1  0.49910367  0.83248445  0.83591515  1
  Ti4+  Ti18  1  0.83038640  0.16561427  0.16825450  1
  Ti4+  Ti19  1  0.83425331  0.16800029  0.50163178  1
  Ti4+  Ti20  1  0.83381896  0.16776021  0.83478836  1
  Ti4+  Ti21  1  0.83295460  0.49768999  0.16864323  1
  Ti4+  Ti22  1  0.83351925  0.49608117  0.50229135  1
  Ti4+  Ti23  1  0.83400941  0.50035781  0.83313086  1
  Ti4+  Ti24  1  0.83516697  0.83225433  0.16686313  1
  Ti4+  Ti25  1  0.83420793  0.83232445  0.49760378  1
  Ti4+  Ti26  1  0.83226437  0.83350767  0.83293056  1
  Cu+  Cu27  1  0.16341443  0.16599050  -0.00239699  1
  Cu+  Cu28  1  0.16805946  0.17053298  0.32691415  1
  Cu+  Cu29  1  0.16916164  0.16704821  0.66481456  1
  Cu+  Cu30  1  0.16964009  0.49388639  0.00182496  1
  Cu+  Cu31  1  0.17474619  0.50272245  0.33257464  1
  Cu+  Cu32  1  0.16559413  0.50423121  0.66402503  1
  Cu+  Cu33  1  0.16884601  0.82958847  -0.00145200  1
  Cu+  Cu34  1  0.16203711  0.83445618  0.33784115  1
  Cu+  Cu35  1  0.16132803  0.83648730  0.67173658  1
  Cu+  Cu36  1  0.50485928  0.16150576  -0.00486162  1
  Cu+  Cu37  1  0.50091418  0.16874052  0.33253011  1
  Cu+  Cu38  1  0.50024833  0.16353429  0.66387277  1
  Cu+  Cu39  1  0.49780525  0.50012751  0.00122998  1
  Cu+  Cu40  1  0.49434709  0.50681683  0.33874037  1
  Cu+  Cu41  1  0.50119508  0.50124417  0.66874953  1
  Cu+  Cu42  1  0.50118830  0.83123450  0.00190944  1
  Cu+  Cu43  1  0.50200605  0.83439751  0.33237925  1
  Cu+  Cu44  1  0.49663732  0.83536391  0.66842576  1
  Cu+  Cu45  1  0.83307822  0.16456865  0.00343007  1
  Cu+  Cu46  1  0.83278770  0.16799434  0.33573410  1
  Cu+  Cu47  1  0.83386348  0.16897653  0.67089635  1
  Cu+  Cu48  1  0.83564692  0.50249342  -0.00301959  1
  Cu+  Cu49  1  0.83039974  0.49258210  0.33332412  1
  Cu+  Cu50  1  0.83185269  0.49553277  0.66595251  1
  Cu+  Cu51  1  0.83274938  0.83383570  -0.00031034  1
  Cu+  Cu52  1  0.83496358  0.83149574  0.32920849  1
  Cu+  Cu53  1  0.83524117  0.83089231  0.66379296  1
  Cu+  Cu54  1  0.16713894  -0.00000248  0.16532725  1
  Cu+  Cu55  1  0.15752648  0.00301901  0.49778265  1
  Cu+  Cu56  1  0.16649608  -0.00266092  0.83303267  1
  Cu+  Cu57  1  0.17130159  0.32900494  0.16719270  1
  Cu+  Cu58  1  0.16589475  0.33908799  0.49583034  1
  Cu+  Cu59  1  0.17120890  0.32951687  0.83125745  1
  Cu+  Cu60  1  0.16375900  0.66809055  0.16922720  1
  Cu+  Cu61  1  0.16742122  0.66925352  0.50899169  1
  Cu+  Cu62  1  0.16559845  0.66152175  0.83060188  1
  Cu+  Cu63  1  0.50344817  0.00034453  0.16358617  1
  Cu+  Cu64  1  0.49994558  0.00174709  0.49920077  1
  Cu+  Cu65  1  0.49110455  -0.00391916  0.83567188  1
  Cu+  Cu66  1  0.50208458  0.34065282  0.16243842  1
  Cu+  Cu67  1  0.50197373  0.32999991  0.50252693  1
  Cu+  Cu68  1  0.49962093  0.33095360  0.83275501  1
  Cu+  Cu69  1  0.49857161  0.66751288  0.16956261  1
  Cu+  Cu70  1  0.50117332  0.67298327  0.49606328  1
  Cu+  Cu71  1  0.50192900  0.66636799  0.83593291  1
  Cu+  Cu72  1  0.83636452  -0.00151830  0.16636534  1
  Cu+  Cu73  1  0.83557215  -0.00028834  0.50129565  1
  Cu+  Cu74  1  0.83071068  0.00328680  0.83653796  1
  Cu+  Cu75  1  0.82380460  0.33265208  0.17323619  1
  Cu+  Cu76  1  0.83570595  0.33392039  0.50209436  1
  Cu+  Cu77  1  0.83547036  0.33547132  0.83485994  1
  Cu+  Cu78  1  0.83581738  0.66710262  0.16647153  1
  Cu+  Cu79  1  0.83241076  0.66120021  0.49708638  1
  Cu+  Cu80  1  0.83444295  0.66903716  0.82978834  1
  Cu+  Cu81  1  -0.00346226  0.16330638  0.16330723  1
  Cu+  Cu82  1  0.00325877  0.16689639  0.50191782  1
  Cu+  Cu83  1  -0.00091162  0.16851992  0.83573379  1
  Cu+  Cu84  1  0.00253160  0.49713720  0.16865897  1
  Cu+  Cu85  1  -0.00148317  0.49173584  0.49917036  1
  Cu+  Cu86  1  0.00346897  0.50113722  0.83063852  1
  Cu+  Cu87  1  0.00104369  0.83268067  0.16718427  1
  Cu+  Cu88  1  -0.00211031  0.84006219  0.50101338  1
  Cu+  Cu89  1  -0.00444246  0.82783837  0.82811057  1
  Cu+  Cu90  1  0.33448123  0.16965623  0.16486701  1
  Cu+  Cu91  1  0.33650393  0.16686097  0.49665215  1
  Cu+  Cu92  1  0.33318992  0.15867999  0.83539924  1
  Cu+  Cu93  1  0.32785308  0.50026027  0.16906920  1
  Cu+  Cu94  1  0.33417285  0.50920167  0.49658559  1
  Cu+  Cu95  1  0.33835017  0.49788942  0.83410299  1
  Cu+  Cu96  1  0.33484138  0.83523733  0.16753007  1
  Cu+  Cu97  1  0.32863969  0.83430321  0.50442968  1
  Cu+  Cu98  1  0.33425742  0.83319651  0.83184006  1
  Cu+  Cu99  1  0.66733346  0.17005383  0.15721959  1
  Cu+  Cu100  1  0.66623324  0.16739481  0.50020140  1
  Cu+  Cu101  1  0.66537037  0.16614174  0.83652481  1
  Cu+  Cu102  1  0.66512171  0.49515099  0.17433025  1
  Cu+  Cu103  1  0.67108540  0.50151674  0.50165750  1
  Cu+  Cu104  1  0.66800971  0.50274562  0.83328913  1
  Cu+  Cu105  1  0.67142817  0.83317629  0.16753950  1
  Cu+  Cu106  1  0.66478750  0.82834473  0.49848913  1
  Cu+  Cu107  1  0.66530623  0.83433261  0.83403725  1
  Cu+  Cu108  1  0.26532943  0.40907541  0.41377398  1
  Cu+  Cu109  1  0.40486544  0.92438263  0.73671042  1
  Cu+  Cu110  1  0.07300794  0.58982146  0.73837782  1
  Cu+  Cu111  1  0.59567604  0.42262330  0.07068955  1
  Cu+  Cu112  1  0.73695185  0.40426712  0.59810483  1
  Cu+  Cu113  1  0.92779764  0.06991907  0.07356535  1
  Cu+  Cu114  1  0.92145991  0.73698068  0.73324398  1
  Cu+  Cu115  1  0.59354902  0.74466450  0.40178138  1
  Cu+  Cu116  1  0.26412440  0.59380546  0.59661811  1
  Cu+  Cu117  1  0.40181860  0.06916900  0.93001618  1
  Cu+  Cu118  1  0.26604286  0.25412845  0.25829852  1
  Cu+  Cu119  1  0.73122660  0.40059796  0.26532635  1
  Cu+  Cu120  1  0.91807413  0.92926285  0.59490443  1
  Cu+  Cu121  1  0.74684282  0.58949740  0.40360947  1
  Cu+  Cu122  1  0.40555640  0.60417853  0.40941434  1
  Cu+  Cu123  1  0.07679278  0.07870639  0.59569635  1
  Cu+  Cu124  1  0.74960219  0.26334256  0.07046951  1
  Cu+  Cu125  1  0.59172676  0.26175403  0.91755307  1
  Cu+  Cu126  1  0.07113945  0.92889621  0.40211166  1
  Cu+  Cu127  1  0.25672367  0.60107944  0.25245029  1
  Cu+  Cu128  1  0.59433461  0.06800223  0.07106150  1
  Cu+  Cu129  1  0.06604967  0.93128686  0.75807866  1
  Cu+  Cu130  1  0.92677287  0.40390400  0.40316762  1
  Cu+  Cu131  1  0.07771678  0.40905118  0.59485682  1
  Cu+  Cu132  1  0.25635865  0.40100295  0.06919051  1
  Te2-  Te133  1  0.25401380  0.24955950  0.07401733  1
  Te2-  Te134  1  0.25596366  0.25449838  0.41213311  1
  Te2-  Te135  1  0.25638451  0.24736005  0.74803477  1
  Te2-  Te136  1  0.24913123  0.58693608  0.08224683  1
  Te2-  Te137  1  0.25160422  0.59827968  0.41201131  1
  Te2-  Te138  1  0.25829282  0.58449788  0.74776240  1
  Te2-  Te139  1  0.25174176  0.91766982  0.08036995  1
  Te2-  Te140  1  0.24854458  0.92032128  0.41877469  1
  Te2-  Te141  1  0.25281312  0.91981497  0.74655751  1
  Te2-  Te142  1  0.58819597  0.26115904  0.07351980  1
  Te2-  Te143  1  0.58663511  0.25271427  0.41420643  1
  Te2-  Te144  1  0.58434414  0.24834706  0.74711288  1
  Te2-  Te145  1  0.58509269  0.58380048  0.08618768  1
  Te2-  Te146  1  0.59049083  0.58877300  0.41274375  1
  Te2-  Te147  1  0.58623637  0.58697569  0.74872728  1
  Te2-  Te148  1  0.58965385  0.91585314  0.07974596  1
  Te2-  Te149  1  0.58635612  0.91983718  0.41545141  1
  Te2-  Te150  1  0.58341116  0.91982862  0.75021246  1
  Te2-  Te151  1  0.91444543  0.25616375  0.08462471  1
  Te2-  Te152  1  0.92152637  0.25173267  0.41461196  1
  Te2-  Te153  1  0.91958592  0.25378257  0.75030773  1
  Te2-  Te154  1  0.91967939  0.58165148  0.08438790  1
  Te2-  Te155  1  0.91941852  0.58001500  0.41281142  1
  Te2-  Te156  1  0.91929004  0.58463280  0.74234071  1
  Te2-  Te157  1  0.92170057  0.91712409  0.07889759  1
  Te2-  Te158  1  0.91736456  0.92098160  0.40926451  1
  Te2-  Te159  1  0.91653870  0.92594703  0.74692986  1
  Te2-  Te160  1  0.25377317  0.08148970  0.24919870  1
  Te2-  Te161  1  0.25131229  0.08178292  0.57970052  1
  Te2-  Te162  1  0.24849378  0.07599754  0.92162045  1
  Te2-  Te163  1  0.25751276  0.40849246  0.25758606  1
  Te2-  Te164  1  0.25499647  0.41893190  0.58291624  1
  Te2-  Te165  1  0.25632779  0.41093486  0.91626747  1
  Te2-  Te166  1  0.25192370  0.75260724  0.25588506  1
  Te2-  Te167  1  0.25113165  0.75144213  0.59323203  1
  Te2-  Te168  1  0.25190082  0.74481868  0.91463522  1
  Te2-  Te169  1  0.58627959  0.08624402  0.24785349  1
  Te2-  Te170  1  0.58694878  0.08006102  0.58435956  1
  Te2-  Te171  1  0.58900238  0.07108912  0.91634121  1
  Te2-  Te172  1  0.57910830  0.41438692  0.26174232  1
  Te2-  Te173  1  0.58453898  0.41604529  0.58556924  1
  Te2-  Te174  1  0.58877175  0.41465325  0.91910512  1
  Te2-  Te175  1  0.58886453  0.74643756  0.25110053  1
  Te2-  Te176  1  0.58307715  0.74948641  0.58936229  1
  Te2-  Te177  1  0.58677094  0.74774807  0.92009788  1
  Te2-  Te178  1  0.91704812  0.08202732  0.25441215  1
  Te2-  Te179  1  0.92031325  0.08295973  0.59025101  1
  Te2-  Te180  1  0.92029884  0.08077582  0.92030187  1
  Te2-  Te181  1  0.92074652  0.40928217  0.25103638  1
  Te2-  Te182  1  0.92161396  0.40963715  0.59153555  1
  Te2-  Te183  1  0.92182880  0.41705792  0.91759835  1
  Te2-  Te184  1  0.92174343  0.74607596  0.25194385  1
  Te2-  Te185  1  0.92059428  0.74244994  0.58023484  1
  Te2-  Te186  1  0.91741952  0.74792925  0.91939494  1
  Te2-  Te187  1  0.07714497  0.25099137  0.24697647  1
  Te2-  Te188  1  0.08347287  0.25632885  0.58564177  1
  Te2-  Te189  1  0.08230842  0.25361471  0.91721116  1
  Te2-  Te190  1  0.08111042  0.58330182  0.25431285  1
  Te2-  Te191  1  0.07317729  0.58677829  0.58247933  1
  Te2-  Te192  1  0.08542769  0.58069656  0.92127854  1
  Te2-  Te193  1  0.07950493  0.92161854  0.25122283  1
  Te2-  Te194  1  0.07471014  0.92440945  0.59412564  1
  Te2-  Te195  1  0.07921411  0.91319279  0.91691346  1
  Te2-  Te196  1  0.41902780  0.25549484  0.24937356  1
  Te2-  Te197  1  0.41448927  0.25068825  0.58600506  1
  Te2-  Te198  1  0.41414901  0.24832209  0.91833162  1
  Te2-  Te199  1  0.40992515  0.59086754  0.25489560  1
  Te2-  Te200  1  0.41779444  0.59113259  0.58776899  1
  Te2-  Te201  1  0.41557341  0.58560039  0.91956686  1
  Te2-  Te202  1  0.41749660  0.92135477  0.25122635  1
  Te2-  Te203  1  0.41193727  0.92217599  0.58415320  1
  Te2-  Te204  1  0.40988603  0.91482652  0.92627473  1
  Te2-  Te205  1  0.74030884  0.24822941  0.25779536  1
  Te2-  Te206  1  0.74727391  0.25156723  0.58784732  1
  Te2-  Te207  1  0.74745500  0.25568721  0.92020335  1
  Te2-  Te208  1  0.74788610  0.58704932  0.25163793  1
  Te2-  Te209  1  0.74953297  0.58609248  0.58886265  1
  Te2-  Te210  1  0.75011480  0.58803028  0.91705817  1
  Te2-  Te211  1  0.74994817  0.91940299  0.25230416  1
  Te2-  Te212  1  0.74708056  0.91548975  0.58300189  1
  Te2-  Te213  1  0.74765314  0.91859005  0.91882832  1
  Te2-  Te214  1  0.08074607  0.07829913  0.07809989  1
  Te2-  Te215  1  0.07893086  0.08633850  0.40661881  1
  Te2-  Te216  1  0.07749964  0.08232765  0.74784181  1
  Te2-  Te217  1  0.08265512  0.41070207  0.08371982  1
  Te2-  Te218  1  0.08213497  0.41647688  0.40636178  1
  Te2-  Te219  1  0.08378578  0.41024448  0.74691372  1
  Te2-  Te220  1  0.08167812  0.74765649  0.08130134  1
  Te2-  Te221  1  0.07947201  0.74741780  0.42109070  1
  Te2-  Te222  1  0.07798479  0.74149143  0.74294573  1
  Te2-  Te223  1  0.41331489  0.08097796  0.08113882  1
  Te2-  Te224  1  0.41603800  0.08117115  0.41094748  1
  Te2-  Te225  1  0.41226982  0.07884581  0.74303347  1
  Te2-  Te226  1  0.40933781  0.41656047  0.08118047  1
  Te2-  Te227  1  0.41649389  0.41295067  0.41818666  1
  Te2-  Te228  1  0.41686243  0.41299663  0.74722929  1
  Te2-  Te229  1  0.41465183  0.74756782  0.08308704  1
  Te2-  Te230  1  0.40880081  0.75430068  0.41274479  1
  Te2-  Te231  1  0.41553114  0.74513895  0.74960543  1
  Te2-  Te232  1  0.74705830  0.07515108  0.07974700  1
  Te2-  Te233  1  0.74945776  0.08133948  0.41750207  1
  Te2-  Te234  1  0.74730946  0.08331196  0.74955430  1
  Te2-  Te235  1  0.74676725  0.41592323  0.07573730  1
  Te2-  Te236  1  0.74304528  0.40779158  0.41650290  1
  Te2-  Te237  1  0.74572444  0.41227471  0.75034552  1
  Te2-  Te238  1  0.74980825  0.74674401  0.08104562  1
  Te2-  Te239  1  0.74869253  0.74534730  0.40952523  1
  Te2-  Te240  1  0.74580358  0.75008574  0.74618271  1
