# generated using pymatgen
data_Ti27(Cu53Te54)2
_symmetry_space_group_name_H-M   'P 1'
_cell_length_a   17.87447552
_cell_length_b   17.86973281
_cell_length_c   17.87105486
_cell_angle_alpha   89.98596909
_cell_angle_beta   89.99656007
_cell_angle_gamma   90.00009941
_symmetry_Int_Tables_number   1
_chemical_formula_structural   Ti27(Cu53Te54)2
_chemical_formula_sum   'Ti27 Cu106 Te108'
_cell_volume   5708.23100815
_cell_formula_units_Z   1
loop_
 _symmetry_equiv_pos_site_id
 _symmetry_equiv_pos_as_xyz
  1  'x, y, z'
loop_
 _atom_type_symbol
 _atom_type_oxidation_number
  Ti4+  4.0
  Cu+  1.0
  Te2-  -2.0
loop_
 _atom_site_type_symbol
 _atom_site_label
 _atom_site_symmetry_multiplicity
 _atom_site_fract_x
 _atom_site_fract_y
 _atom_site_fract_z
 _atom_site_occupancy
  Ti4+  Ti0  1  0.16398644  0.16843340  0.16422218  1
  Ti4+  Ti1  1  0.16487895  0.16708810  0.50122339  1
  Ti4+  Ti2  1  0.17135836  0.16852878  0.83469818  1
  Ti4+  Ti3  1  0.16837315  0.49732680  0.17007244  1
  Ti4+  Ti4  1  0.16623258  0.49969614  0.50304817  1
  Ti4+  Ti5  1  0.16801775  0.49927493  0.83089153  1
  Ti4+  Ti6  1  0.16700338  0.83193015  0.16528832  1
  Ti4+  Ti7  1  0.16725514  0.83295360  0.49998197  1
  Ti4+  Ti8  1  0.16859280  0.83572114  0.83315387  1
  Ti4+  Ti9  1  0.49718134  0.16499180  0.16709917  1
  Ti4+  Ti10  1  0.49915908  0.16564898  0.49902058  1
  Ti4+  Ti11  1  0.50380309  0.16662890  0.83143180  1
  Ti4+  Ti12  1  0.49607833  0.50182758  0.16455781  1
  Ti4+  Ti13  1  0.50266794  0.50078398  0.50090210  1
  Ti4+  Ti14  1  0.50006635  0.49730715  0.83317455  1
  Ti4+  Ti15  1  0.50138757  0.83390787  0.16644641  1
  Ti4+  Ti16  1  0.49953601  0.83358089  0.49958790  1
  Ti4+  Ti17  1  0.50061765  0.83309306  0.83225520  1
  Ti4+  Ti18  1  0.82850990  0.16805195  0.16640213  1
  Ti4+  Ti19  1  0.83444647  0.16779238  0.49887231  1
  Ti4+  Ti20  1  0.83496970  0.16686355  0.83557397  1
  Ti4+  Ti21  1  0.82883005  0.50284951  0.16647235  1
  Ti4+  Ti22  1  0.83152885  0.49653455  0.49973132  1
  Ti4+  Ti23  1  0.83243061  0.50069002  0.83459898  1
  Ti4+  Ti24  1  0.83139504  0.83413569  0.16608591  1
  Ti4+  Ti25  1  0.83513718  0.83290512  0.50051515  1
  Ti4+  Ti26  1  0.83559388  0.83133497  0.83469833  1
  Cu+  Cu27  1  0.16640114  0.15957731  -0.00262198  1
  Cu+  Cu28  1  0.16233949  0.17136803  0.33418682  1
  Cu+  Cu29  1  0.16652720  0.17134677  0.66951636  1
  Cu+  Cu30  1  0.16851374  0.49757156  0.00283023  1
  Cu+  Cu31  1  0.16482395  0.50054615  0.33752749  1
  Cu+  Cu32  1  0.17246168  0.49968113  0.66585326  1
  Cu+  Cu33  1  0.16584682  0.83081131  -0.00343753  1
  Cu+  Cu34  1  0.16608915  0.83288318  0.33365415  1
  Cu+  Cu35  1  0.16772185  0.83550827  0.66672985  1
  Cu+  Cu36  1  0.50124592  0.16362357  -0.00098049  1
  Cu+  Cu37  1  0.49477837  0.16473860  0.33498373  1
  Cu+  Cu38  1  0.50451486  0.16875433  0.66268093  1
  Cu+  Cu39  1  0.49674694  0.50224311  -0.00262849  1
  Cu+  Cu40  1  0.50000446  0.50211336  0.33182192  1
  Cu+  Cu41  1  0.50371637  0.49647430  0.66872135  1
  Cu+  Cu42  1  0.50055258  0.83129456  -0.00194439  1
  Cu+  Cu43  1  0.49965812  0.83400267  0.33177359  1
  Cu+  Cu44  1  0.49769734  0.83641571  0.66765372  1
  Cu+  Cu45  1  0.83400922  0.16602387  0.00331385  1
  Cu+  Cu46  1  0.82919961  0.17302995  0.33094606  1
  Cu+  Cu47  1  0.83835869  0.16486369  0.66878172  1
  Cu+  Cu48  1  0.82601339  0.50201764  -0.00005047  1
  Cu+  Cu49  1  0.82778406  0.50171417  0.33676594  1
  Cu+  Cu50  1  0.83659488  0.50083969  0.66327722  1
  Cu+  Cu51  1  0.83665952  0.82960364  0.00233109  1
  Cu+  Cu52  1  0.83408446  0.83285913  0.33258678  1
  Cu+  Cu53  1  0.83458322  0.83337404  0.66844138  1
  Cu+  Cu54  1  0.16489963  -0.00228926  0.16157933  1
  Cu+  Cu55  1  0.16773017  0.00005970  0.50133805  1
  Cu+  Cu56  1  0.17065971  0.00310475  0.83737497  1
  Cu+  Cu57  1  0.17454117  0.33401383  0.16768409  1
  Cu+  Cu58  1  0.16220366  0.33216648  0.49938681  1
  Cu+  Cu59  1  0.16827096  0.33236759  0.82556365  1
  Cu+  Cu60  1  0.16895732  0.66191319  0.16767827  1
  Cu+  Cu61  1  0.16824397  0.66660065  0.50457981  1
  Cu+  Cu62  1  0.16741094  0.66849725  0.83435139  1
  Cu+  Cu63  1  0.50574485  -0.00021763  0.16514596  1
  Cu+  Cu64  1  0.49968526  0.00199678  0.49840558  1
  Cu+  Cu65  1  0.49884410  -0.00316542  0.82997162  1
  Cu+  Cu66  1  0.49254815  0.33537047  0.16815419  1
  Cu+  Cu67  1  0.50335255  0.33062695  0.50366950  1
  Cu+  Cu68  1  0.50629963  0.33432550  0.82955266  1
  Cu+  Cu69  1  0.49903814  0.66818431  0.17215412  1
  Cu+  Cu70  1  0.49955576  0.66925663  0.50029275  1
  Cu+  Cu71  1  0.49898031  0.66460086  0.83354415  1
  Cu+  Cu72  1  0.83012613  0.00222472  0.16531528  1
  Cu+  Cu73  1  0.83660583  0.00005515  0.49983250  1
  Cu+  Cu74  1  0.83596685  -0.00391598  0.83472755  1
  Cu+  Cu75  1  0.82969288  0.33461189  0.17123692  1
  Cu+  Cu76  1  0.82717546  0.33057042  0.49595629  1
  Cu+  Cu77  1  0.83161185  0.33506167  0.83908127  1
  Cu+  Cu78  1  0.82834950  0.66814284  0.16062914  1
  Cu+  Cu79  1  0.83471176  0.66597217  0.50222380  1
  Cu+  Cu80  1  0.83408813  0.66698135  0.83158766  1
  Cu+  Cu81  1  -0.00800655  0.16864926  0.16650457  1
  Cu+  Cu82  1  0.00272340  0.16829606  0.49691197  1
  Cu+  Cu83  1  0.00327465  0.17041478  0.83667507  1
  Cu+  Cu84  1  0.00198942  0.49919001  0.16891250  1
  Cu+  Cu85  1  -0.00463097  0.49810931  0.50670785  1
  Cu+  Cu86  1  -0.00045236  0.50027974  0.83366752  1
  Cu+  Cu87  1  -0.00023953  0.83110270  0.16320480  1
  Cu+  Cu88  1  0.00227411  0.83171608  0.49854773  1
  Cu+  Cu89  1  0.00235208  0.83227144  0.83743125  1
  Cu+  Cu90  1  0.32824722  0.16668281  0.16500009  1
  Cu+  Cu91  1  0.33297284  0.16444211  0.50185881  1
  Cu+  Cu92  1  0.34022096  0.16773947  0.83422129  1
  Cu+  Cu93  1  0.33262734  0.49004193  0.16849895  1
  Cu+  Cu94  1  0.33412844  0.50177504  0.50443834  1
  Cu+  Cu95  1  0.33280845  0.49602455  0.82792460  1
  Cu+  Cu96  1  0.33534889  0.83173760  0.16682116  1
  Cu+  Cu97  1  0.33208983  0.83413189  0.49787074  1
  Cu+  Cu98  1  0.33606754  0.83778672  0.82904180  1
  Cu+  Cu99  1  0.66023836  0.16312122  0.16341483  1
  Cu+  Cu100  1  0.66665338  0.16989030  0.49811703  1
  Cu+  Cu101  1  0.67095432  0.16461027  0.83303494  1
  Cu+  Cu102  1  0.66318331  0.50856921  0.16184165  1
  Cu+  Cu103  1  0.66952253  0.50034486  0.49483378  1
  Cu+  Cu104  1  0.66745765  0.49399329  0.83703348  1
  Cu+  Cu105  1  0.66448296  0.84016937  0.17076858  1
  Cu+  Cu106  1  0.66743522  0.83290098  0.50283489  1
  Cu+  Cu107  1  0.66807728  0.83207995  0.83517965  1
  Cu+  Cu108  1  0.07545878  0.73584920  0.92238709  1
  Cu+  Cu109  1  0.73414898  0.60011078  0.06695793  1
  Cu+  Cu110  1  0.59171964  0.93071392  0.26536541  1
  Cu+  Cu111  1  0.25933516  0.25363043  0.26398417  1
  Cu+  Cu112  1  0.74393080  0.59936943  0.41320262  1
  Cu+  Cu113  1  0.73177341  0.25720425  0.40124405  1
  Cu+  Cu114  1  0.92232916  0.07350983  0.07686562  1
  Cu+  Cu115  1  0.07253536  0.07359887  0.91944436  1
  Cu+  Cu116  1  0.92539705  0.59580410  0.59304729  1
  Cu+  Cu117  1  0.59778619  0.25736583  0.59271881  1
  Cu+  Cu118  1  0.59157779  0.59227441  0.25938835  1
  Cu+  Cu119  1  0.26078902  0.40631333  0.06807892  1
  Cu+  Cu120  1  0.92204708  0.26388186  0.25766337  1
  Cu+  Cu121  1  0.07389006  0.26414004  0.40490063  1
  Cu+  Cu122  1  0.41018763  0.40748050  0.26709598  1
  Cu+  Cu123  1  0.26280300  0.40328434  0.73422558  1
  Cu+  Cu124  1  0.26026828  0.06829745  0.07452761  1
  Cu+  Cu125  1  0.40555817  0.92990211  0.73580820  1
  Cu+  Cu126  1  0.92852346  0.73493180  0.07893421  1
  Cu+  Cu127  1  0.60038593  0.41015339  0.73908785  1
  Cu+  Cu128  1  0.07061629  0.25998795  0.74221153  1
  Cu+  Cu129  1  0.59186991  0.07156542  0.06709212  1
  Cu+  Cu130  1  0.26614028  0.59827951  0.59250027  1
  Cu+  Cu131  1  0.40436526  0.74329167  0.26133107  1
  Cu+  Cu132  1  0.73871379  0.40216743  0.93213447  1
  Te2-  Te133  1  0.25165085  0.25147963  0.07415503  1
  Te2-  Te134  1  0.25440657  0.25334817  0.41709098  1
  Te2-  Te135  1  0.26107237  0.25072482  0.74574699  1
  Te2-  Te136  1  0.25550647  0.58188157  0.08383449  1
  Te2-  Te137  1  0.25222507  0.58494971  0.41707565  1
  Te2-  Te138  1  0.25398695  0.58988467  0.74790256  1
  Te2-  Te139  1  0.25445719  0.91530812  0.07805068  1
  Te2-  Te140  1  0.25098173  0.91968685  0.41352186  1
  Te2-  Te141  1  0.25168610  0.92447851  0.74585390  1
  Te2-  Te142  1  0.57981979  0.25434564  0.08339998  1
  Te2-  Te143  1  0.58172875  0.25421725  0.40851522  1
  Te2-  Te144  1  0.59370365  0.25279328  0.74574488  1
  Te2-  Te145  1  0.57914515  0.59173536  0.07569881  1
  Te2-  Te146  1  0.58616179  0.59002894  0.41337911  1
  Te2-  Te147  1  0.58776487  0.58347022  0.75065161  1
  Te2-  Te148  1  0.58725249  0.91805645  0.07487858  1
  Te2-  Te149  1  0.58730232  0.91942351  0.41584919  1
  Te2-  Te150  1  0.58925443  0.91755331  0.74757651  1
  Te2-  Te151  1  0.91438460  0.25772164  0.08158124  1
  Te2-  Te152  1  0.92115476  0.25673336  0.41172740  1
  Te2-  Te153  1  0.91851644  0.25548457  0.75080543  1
  Te2-  Te154  1  0.92005995  0.58208861  0.08006400  1
  Te2-  Te155  1  0.91937401  0.58336957  0.41498071  1
  Te2-  Te156  1  0.92041131  0.58604054  0.74815059  1
  Te2-  Te157  1  0.91901681  0.92057960  0.08087995  1
  Te2-  Te158  1  0.92017985  0.91737797  0.41384025  1
  Te2-  Te159  1  0.92206470  0.91605252  0.75001517  1
  Te2-  Te160  1  0.24561300  0.08180847  0.25228365  1
  Te2-  Te161  1  0.24956954  0.08320332  0.58815047  1
  Te2-  Te162  1  0.26174388  0.08050327  0.91933582  1
  Te2-  Te163  1  0.25375087  0.41137223  0.26429909  1
  Te2-  Te164  1  0.25401289  0.40811167  0.58315670  1
  Te2-  Te165  1  0.25234231  0.41137776  0.91636386  1
  Te2-  Te166  1  0.25129377  0.74646231  0.25300332  1
  Te2-  Te167  1  0.25576925  0.74970932  0.58871050  1
  Te2-  Te168  1  0.25722627  0.75029397  0.91590147  1
  Te2-  Te169  1  0.58472287  0.08276358  0.25742548  1
  Te2-  Te170  1  0.58839701  0.08033674  0.58227744  1
  Te2-  Te171  1  0.58726353  0.07713869  0.91509408  1
  Te2-  Te172  1  0.58510377  0.41631357  0.24769718  1
  Te2-  Te173  1  0.59236873  0.41410189  0.58482487  1
  Te2-  Te174  1  0.58438148  0.41169192  0.92505909  1
  Te2-  Te175  1  0.58968418  0.74771885  0.25497139  1
  Te2-  Te176  1  0.58348287  0.74992661  0.58730986  1
  Te2-  Te177  1  0.58529909  0.74575943  0.91760147  1
  Te2-  Te178  1  0.91385083  0.08198767  0.25418228  1
  Te2-  Te179  1  0.92177056  0.08331445  0.58291110  1
  Te2-  Te180  1  0.92078517  0.07869298  0.92130326  1
  Te2-  Te181  1  0.91580686  0.41926556  0.25447856  1
  Te2-  Te182  1  0.91453774  0.40660860  0.58492927  1
  Te2-  Te183  1  0.91870029  0.41796294  0.92249202  1
  Te2-  Te184  1  0.91683169  0.74593038  0.24943441  1
  Te2-  Te185  1  0.92154510  0.74823438  0.58752044  1
  Te2-  Te186  1  0.92209493  0.74105650  0.92227819  1
  Te2-  Te187  1  0.07636917  0.25757646  0.24957573  1
  Te2-  Te188  1  0.07760817  0.25395098  0.58841066  1
  Te2-  Te189  1  0.08666159  0.25628798  0.92072896  1
  Te2-  Te190  1  0.08187446  0.58480081  0.25386134  1
  Te2-  Te191  1  0.07992345  0.58521879  0.58975165  1
  Te2-  Te192  1  0.08310984  0.58225561  0.92059743  1
  Te2-  Te193  1  0.08097903  0.91612268  0.24887198  1
  Te2-  Te194  1  0.08113206  0.91856487  0.58491424  1
  Te2-  Te195  1  0.08139825  0.92175395  0.92110627  1
  Te2-  Te196  1  0.41034541  0.25177434  0.25539552  1
  Te2-  Te197  1  0.41306496  0.25149777  0.58508858  1
  Te2-  Te198  1  0.42126276  0.25333838  0.91737167  1
  Te2-  Te199  1  0.40767493  0.58576123  0.25302562  1
  Te2-  Te200  1  0.41963057  0.58596292  0.58938523  1
  Te2-  Te201  1  0.41072648  0.58322177  0.91461618  1
  Te2-  Te202  1  0.41509211  0.92195953  0.24992877  1
  Te2-  Te203  1  0.41269177  0.92126411  0.58291167  1
  Te2-  Te204  1  0.41549433  0.91882106  0.92031075  1
  Te2-  Te205  1  0.73657775  0.25384363  0.24865347  1
  Te2-  Te206  1  0.75042294  0.25112811  0.59032931  1
  Te2-  Te207  1  0.74640454  0.24974600  0.92286321  1
  Te2-  Te208  1  0.74517675  0.59169442  0.25521214  1
  Te2-  Te209  1  0.74560172  0.58453196  0.58590255  1
  Te2-  Te210  1  0.74351354  0.59044985  0.91601055  1
  Te2-  Te211  1  0.74921623  0.92245342  0.25533829  1
  Te2-  Te212  1  0.75081522  0.91930462  0.58548545  1
  Te2-  Te213  1  0.75068355  0.91591419  0.92068108  1
  Te2-  Te214  1  0.07473747  0.08005866  0.08026649  1
  Te2-  Te215  1  0.08259966  0.07962673  0.41384934  1
  Te2-  Te216  1  0.08355835  0.08220074  0.75012492  1
  Te2-  Te217  1  0.08156975  0.41258442  0.08428552  1
  Te2-  Te218  1  0.07638756  0.41706719  0.41609283  1
  Te2-  Te219  1  0.07834968  0.41618421  0.74449858  1
  Te2-  Te220  1  0.08249240  0.74125733  0.07903796  1
  Te2-  Te221  1  0.08343639  0.74499417  0.41531939  1
  Te2-  Te222  1  0.08268194  0.74964769  0.74781411  1
  Te2-  Te223  1  0.41259298  0.07837507  0.08150122  1
  Te2-  Te224  1  0.41095871  0.07976651  0.41486481  1
  Te2-  Te225  1  0.41723402  0.08368466  0.74348833  1
  Te2-  Te226  1  0.41369255  0.41215481  0.07448182  1
  Te2-  Te227  1  0.41612092  0.41450637  0.41871389  1
  Te2-  Te228  1  0.41540214  0.40973146  0.74410923  1
  Te2-  Te229  1  0.41664204  0.74675389  0.08056297  1
  Te2-  Te230  1  0.41271280  0.74720309  0.41368766  1
  Te2-  Te231  1  0.41503653  0.74612968  0.74714160  1
  Te2-  Te232  1  0.74369253  0.07962655  0.07794528  1
  Te2-  Te233  1  0.74909005  0.08219338  0.41435157  1
  Te2-  Te234  1  0.75328750  0.07964544  0.74949783  1
  Te2-  Te235  1  0.74258479  0.41279828  0.08454527  1
  Te2-  Te236  1  0.74280837  0.41051746  0.40930254  1
  Te2-  Te237  1  0.75171530  0.41352386  0.74414169  1
  Te2-  Te238  1  0.73943633  0.75249485  0.07970532  1
  Te2-  Te239  1  0.74724777  0.74891057  0.41432270  1
  Te2-  Te240  1  0.74861855  0.74854567  0.74818667  1
