# generated using pymatgen
data_Ti27(Cu53Te54)2
_symmetry_space_group_name_H-M   'P 1'
_cell_length_a   17.87026869
_cell_length_b   17.87262332
_cell_length_c   17.87624913
_cell_angle_alpha   90.02406454
_cell_angle_beta   89.98421369
_cell_angle_gamma   90.01594051
_symmetry_Int_Tables_number   1
_chemical_formula_structural   Ti27(Cu53Te54)2
_chemical_formula_sum   'Ti27 Cu106 Te108'
_cell_volume   5709.46890198
_cell_formula_units_Z   1
loop_
 _symmetry_equiv_pos_site_id
 _symmetry_equiv_pos_as_xyz
  1  'x, y, z'
loop_
 _atom_type_symbol
 _atom_type_oxidation_number
  Ti4+  4.0
  Cu+  1.0
  Te2-  -2.0
loop_
 _atom_site_type_symbol
 _atom_site_label
 _atom_site_symmetry_multiplicity
 _atom_site_fract_x
 _atom_site_fract_y
 _atom_site_fract_z
 _atom_site_occupancy
  Ti4+  Ti0  1  0.17007007  0.16458952  0.16624406  1
  Ti4+  Ti1  1  0.16755153  0.17045878  0.50082638  1
  Ti4+  Ti2  1  0.17008549  0.16702229  0.83268115  1
  Ti4+  Ti3  1  0.16583227  0.50228058  0.16831887  1
  Ti4+  Ti4  1  0.16449266  0.50094699  0.50256372  1
  Ti4+  Ti5  1  0.16694897  0.50143951  0.83420487  1
  Ti4+  Ti6  1  0.16619425  0.83059683  0.16755043  1
  Ti4+  Ti7  1  0.16478267  0.83203936  0.50126179  1
  Ti4+  Ti8  1  0.16694638  0.83330970  0.83262071  1
  Ti4+  Ti9  1  0.49791600  0.17058464  0.16758498  1
  Ti4+  Ti10  1  0.49709745  0.16549377  0.49676648  1
  Ti4+  Ti11  1  0.49918460  0.16666924  0.83732871  1
  Ti4+  Ti12  1  0.50108341  0.49930909  0.16540755  1
  Ti4+  Ti13  1  0.50282921  0.49629972  0.50094554  1
  Ti4+  Ti14  1  0.50166444  0.50110115  0.83048794  1
  Ti4+  Ti15  1  0.49863096  0.83168077  0.16742012  1
  Ti4+  Ti16  1  0.50079068  0.83011863  0.49596128  1
  Ti4+  Ti17  1  0.50066300  0.83469593  0.83030734  1
  Ti4+  Ti18  1  0.83611774  0.16569062  0.16758001  1
  Ti4+  Ti19  1  0.83392419  0.16532071  0.49907573  1
  Ti4+  Ti20  1  0.83451068  0.16666659  0.83297943  1
  Ti4+  Ti21  1  0.83613967  0.49924470  0.16663569  1
  Ti4+  Ti22  1  0.83038932  0.49994593  0.49949796  1
  Ti4+  Ti23  1  0.83068936  0.49947408  0.83335233  1
  Ti4+  Ti24  1  0.83272088  0.83094832  0.16853921  1
  Ti4+  Ti25  1  0.83451535  0.83899832  0.50092087  1
  Ti4+  Ti26  1  0.83098142  0.83583834  0.83375067  1
  Cu+  Cu27  1  0.17135183  0.16257226  -0.00216291  1
  Cu+  Cu28  1  0.17432911  0.16864347  0.33472833  1
  Cu+  Cu29  1  0.16875992  0.16848068  0.66588418  1
  Cu+  Cu30  1  0.16587300  0.50436963  0.00255320  1
  Cu+  Cu31  1  0.16659784  0.50050730  0.33748230  1
  Cu+  Cu32  1  0.16349975  0.50121875  0.66727826  1
  Cu+  Cu33  1  0.16672523  0.83352751  -0.00214134  1
  Cu+  Cu34  1  0.16071779  0.82839256  0.33116924  1
  Cu+  Cu35  1  0.16914782  0.83007464  0.66942572  1
  Cu+  Cu36  1  0.49780588  0.17229124  0.00544556  1
  Cu+  Cu37  1  0.49063257  0.16901359  0.33212934  1
  Cu+  Cu38  1  0.49802056  0.16644497  0.67048685  1
  Cu+  Cu39  1  0.50072628  0.49807784  -0.00589333  1
  Cu+  Cu40  1  0.50511844  0.49578465  0.33355262  1
  Cu+  Cu41  1  0.50283085  0.49930301  0.66536925  1
  Cu+  Cu42  1  0.50033224  0.83531272  -0.00061110  1
  Cu+  Cu43  1  0.49388598  0.82910659  0.33220943  1
  Cu+  Cu44  1  0.50461027  0.83189246  0.66032509  1
  Cu+  Cu45  1  0.83504095  0.16487417  0.00147512  1
  Cu+  Cu46  1  0.83341267  0.16521868  0.33303924  1
  Cu+  Cu47  1  0.83709819  0.16700576  0.66558351  1
  Cu+  Cu48  1  0.83173776  0.50242255  0.00104466  1
  Cu+  Cu49  1  0.83951063  0.49731423  0.33341410  1
  Cu+  Cu50  1  0.82476713  0.50044930  0.66659916  1
  Cu+  Cu51  1  0.83345527  0.82840464  0.00243766  1
  Cu+  Cu52  1  0.83686273  0.84039614  0.33238036  1
  Cu+  Cu53  1  0.83239224  0.84148124  0.66871169  1
  Cu+  Cu54  1  0.17115083  -0.00174977  0.16073455  1
  Cu+  Cu55  1  0.16684020  0.00206812  0.50204273  1
  Cu+  Cu56  1  0.16635012  -0.00112335  0.83325543  1
  Cu+  Cu57  1  0.16867534  0.33528194  0.17033903  1
  Cu+  Cu58  1  0.16340947  0.33733475  0.50525832  1
  Cu+  Cu59  1  0.16853562  0.33396873  0.83492315  1
  Cu+  Cu60  1  0.15877780  0.66622540  0.16882229  1
  Cu+  Cu61  1  0.16258545  0.66401930  0.50106311  1
  Cu+  Cu62  1  0.16898047  0.66977632  0.83121301  1
  Cu+  Cu63  1  0.49953757  0.00294973  0.17032005  1
  Cu+  Cu64  1  0.49879400  -0.00590183  0.49678439  1
  Cu+  Cu65  1  0.50417198  -0.00150346  0.83966486  1
  Cu+  Cu66  1  0.49796887  0.33381786  0.16071592  1
  Cu+  Cu67  1  0.50333285  0.33296897  0.49495736  1
  Cu+  Cu68  1  0.49664975  0.33485855  0.83368191  1
  Cu+  Cu69  1  0.49947640  0.66651010  0.16687382  1
  Cu+  Cu70  1  0.50295638  0.66210433  0.49848697  1
  Cu+  Cu71  1  0.50223600  0.66892682  0.83026080  1
  Cu+  Cu72  1  0.83799270  -0.00201746  0.16897806  1
  Cu+  Cu73  1  0.83549684  -0.00065852  0.49790073  1
  Cu+  Cu74  1  0.82612488  0.00418028  0.83452741  1
  Cu+  Cu75  1  0.83699887  0.33164100  0.16734832  1
  Cu+  Cu76  1  0.83205581  0.33419161  0.49955144  1
  Cu+  Cu77  1  0.83653808  0.33144466  0.83423336  1
  Cu+  Cu78  1  0.83062801  0.66271345  0.16472840  1
  Cu+  Cu79  1  0.83151446  0.67218552  0.50185270  1
  Cu+  Cu80  1  0.82948611  0.66628364  0.83054713  1
  Cu+  Cu81  1  0.00354297  0.16425766  0.16595762  1
  Cu+  Cu82  1  0.00264455  0.16883301  0.50000103  1
  Cu+  Cu83  1  0.00198750  0.16644710  0.83255897  1
  Cu+  Cu84  1  0.00355533  0.50290535  0.16427814  1
  Cu+  Cu85  1  -0.00356340  0.50045426  0.49836822  1
  Cu+  Cu86  1  -0.00246570  0.50013989  0.83520689  1
  Cu+  Cu87  1  -0.00126910  0.82976722  0.17421808  1
  Cu+  Cu88  1  -0.00091359  0.83673316  0.50550467  1
  Cu+  Cu89  1  0.00022788  0.83323039  0.83501185  1
  Cu+  Cu90  1  0.33134688  0.16836411  0.16831106  1
  Cu+  Cu91  1  0.33121857  0.16879531  0.49337603  1
  Cu+  Cu92  1  0.33589246  0.16982848  0.83036560  1
  Cu+  Cu93  1  0.33141681  0.50221768  0.16653605  1
  Cu+  Cu94  1  0.33145586  0.50000081  0.50241559  1
  Cu+  Cu95  1  0.33479544  0.50048489  0.83472783  1
  Cu+  Cu96  1  0.33457634  0.82654969  0.16902367  1
  Cu+  Cu97  1  0.33320597  0.82952072  0.49649253  1
  Cu+  Cu98  1  0.33226646  0.82960727  0.82780971  1
  Cu+  Cu99  1  0.66703737  0.16713581  0.16857711  1
  Cu+  Cu100  1  0.66557458  0.16332700  0.49995619  1
  Cu+  Cu101  1  0.66827503  0.16273913  0.83919313  1
  Cu+  Cu102  1  0.66918833  0.50058542  0.16512474  1
  Cu+  Cu103  1  0.66681534  0.49059737  0.50304052  1
  Cu+  Cu104  1  0.66757156  0.50326948  0.82737951  1
  Cu+  Cu105  1  0.66417067  0.83122316  0.16724354  1
  Cu+  Cu106  1  0.66623534  0.83894092  0.49815606  1
  Cu+  Cu107  1  0.66662794  0.84153296  0.83184356  1
  Cu+  Cu108  1  0.26064536  0.06698491  0.06539771  1
  Cu+  Cu109  1  0.40617330  0.73205135  0.26013702  1
  Cu+  Cu110  1  0.92930797  0.40522199  0.40673223  1
  Cu+  Cu111  1  0.40824026  0.26216968  0.73724073  1
  Cu+  Cu112  1  0.40626927  0.07325772  0.25524580  1
  Cu+  Cu113  1  0.73956595  0.93446478  0.73979169  1
  Cu+  Cu114  1  0.73654051  0.59140255  0.07302522  1
  Cu+  Cu115  1  0.59644965  0.40374969  0.40028176  1
  Cu+  Cu116  1  0.06624990  0.73496795  0.26486831  1
  Cu+  Cu117  1  0.40104170  0.26211579  0.07586894  1
  Cu+  Cu118  1  0.74282474  0.07718297  0.93456638  1
  Cu+  Cu119  1  0.25643294  0.26672061  0.26140944  1
  Cu+  Cu120  1  0.73973212  0.59871608  0.73480058  1
  Cu+  Cu121  1  0.40485021  0.41037605  0.92428838  1
  Cu+  Cu122  1  0.74084328  0.40000667  0.59734744  1
  Cu+  Cu123  1  0.07465842  0.59747273  0.06814740  1
  Cu+  Cu124  1  0.59344342  0.92231293  0.93282155  1
  Cu+  Cu125  1  0.25194661  0.06905478  0.40974814  1
  Cu+  Cu126  1  0.93260190  0.92756215  0.60110395  1
  Cu+  Cu127  1  0.93219814  0.93054128  0.25870200  1
  Cu+  Cu128  1  0.73852320  0.92653376  0.40125050  1
  Cu+  Cu129  1  0.40571718  0.26620799  0.40899499  1
  Cu+  Cu130  1  0.40220105  0.91829018  0.40690907  1
  Cu+  Cu131  1  0.26246420  0.73679960  0.73714093  1
  Cu+  Cu132  1  0.58963944  0.92815770  0.58872277  1
  Te2-  Te133  1  0.25083034  0.25608628  0.07836385  1
  Te2-  Te134  1  0.25232697  0.26452968  0.41513567  1
  Te2-  Te135  1  0.25368574  0.25595832  0.74557185  1
  Te2-  Te136  1  0.25127633  0.59032037  0.08405993  1
  Te2-  Te137  1  0.25159900  0.58579960  0.41714469  1
  Te2-  Te138  1  0.25436108  0.58454354  0.74608570  1
  Te2-  Te139  1  0.25661011  0.91245156  0.08002144  1
  Te2-  Te140  1  0.24907894  0.91612294  0.41006639  1
  Te2-  Te141  1  0.25266940  0.92059447  0.74689456  1
  Te2-  Te142  1  0.58911706  0.25277536  0.08266985  1
  Te2-  Te143  1  0.58765700  0.24772232  0.40998825  1
  Te2-  Te144  1  0.58625745  0.25012887  0.75283886  1
  Te2-  Te145  1  0.58351464  0.58564243  0.07827836  1
  Te2-  Te146  1  0.59024163  0.58107024  0.41582402  1
  Te2-  Te147  1  0.58596828  0.58943080  0.74268897  1
  Te2-  Te148  1  0.58472461  0.92151218  0.08554634  1
  Te2-  Te149  1  0.58454152  0.91878701  0.40575908  1
  Te2-  Te150  1  0.58547233  0.92522058  0.74207096  1
  Te2-  Te151  1  0.92181761  0.24971452  0.08146399  1
  Te2-  Te152  1  0.91945059  0.25169930  0.41376015  1
  Te2-  Te153  1  0.92107369  0.25187158  0.74769612  1
  Te2-  Te154  1  0.92135793  0.58751711  0.07864947  1
  Te2-  Te155  1  0.91529745  0.58970184  0.41683845  1
  Te2-  Te156  1  0.91597065  0.58370503  0.74630501  1
  Te2-  Te157  1  0.92037503  0.91383058  0.08217638  1
  Te2-  Te158  1  0.92647382  0.92253915  0.41338405  1
  Te2-  Te159  1  0.92060026  0.92461293  0.75329630  1
  Te2-  Te160  1  0.25466678  0.07401913  0.25505915  1
  Te2-  Te161  1  0.25498652  0.08438267  0.58513538  1
  Te2-  Te162  1  0.25799126  0.07813017  0.91470318  1
  Te2-  Te163  1  0.25414040  0.41885731  0.25579981  1
  Te2-  Te164  1  0.25114118  0.41622245  0.58855101  1
  Te2-  Te165  1  0.25118549  0.41604787  0.92275363  1
  Te2-  Te166  1  0.25101576  0.74230046  0.25418450  1
  Te2-  Te167  1  0.25243120  0.74464715  0.58291576  1
  Te2-  Te168  1  0.25363256  0.74803819  0.91958640  1
  Te2-  Te169  1  0.58379134  0.08598070  0.25475415  1
  Te2-  Te170  1  0.58142921  0.08157369  0.58514025  1
  Te2-  Te171  1  0.58513695  0.08119600  0.92880036  1
  Te2-  Te172  1  0.58800569  0.41073065  0.24679037  1
  Te2-  Te173  1  0.58503067  0.40655115  0.59074400  1
  Te2-  Te174  1  0.58915972  0.41486759  0.91394331  1
  Te2-  Te175  1  0.58493085  0.74673151  0.25340872  1
  Te2-  Te176  1  0.58930446  0.74518087  0.57993135  1
  Te2-  Te177  1  0.58711567  0.75070559  0.91613918  1
  Te2-  Te178  1  0.92373385  0.08181991  0.25498253  1
  Te2-  Te179  1  0.92221296  0.08095706  0.58462408  1
  Te2-  Te180  1  0.92028878  0.08006338  0.91746755  1
  Te2-  Te181  1  0.92503094  0.41264120  0.25011301  1
  Te2-  Te182  1  0.91543640  0.41650743  0.58795266  1
  Te2-  Te183  1  0.91658150  0.41590004  0.92064807  1
  Te2-  Te184  1  0.91403103  0.74132969  0.25665996  1
  Te2-  Te185  1  0.91585723  0.75149934  0.58937151  1
  Te2-  Te186  1  0.91580098  0.74686317  0.91581379  1
  Te2-  Te187  1  0.08406368  0.24922997  0.25251995  1
  Te2-  Te188  1  0.08075545  0.25313866  0.58796755  1
  Te2-  Te189  1  0.08438704  0.25005298  0.91970759  1
  Te2-  Te190  1  0.07774972  0.58384786  0.25972834  1
  Te2-  Te191  1  0.07591659  0.58486469  0.58668203  1
  Te2-  Te192  1  0.07981378  0.58963145  0.91647173  1
  Te2-  Te193  1  0.08418376  0.92359240  0.25145207  1
  Te2-  Te194  1  0.08529692  0.92081420  0.59013505  1
  Te2-  Te195  1  0.08089895  0.91933968  0.91917827  1
  Te2-  Te196  1  0.41003061  0.26240662  0.25401961  1
  Te2-  Te197  1  0.41456203  0.25285028  0.58360951  1
  Te2-  Te198  1  0.40997503  0.25514141  0.92301417  1
  Te2-  Te199  1  0.41581351  0.58125251  0.25464763  1
  Te2-  Te200  1  0.41677614  0.58353748  0.58457630  1
  Te2-  Te201  1  0.41725026  0.58902632  0.91619040  1
  Te2-  Te202  1  0.40898420  0.91990727  0.25298757  1
  Te2-  Te203  1  0.41266736  0.91461852  0.58345636  1
  Te2-  Te204  1  0.41131841  0.91557171  0.91585239  1
  Te2-  Te205  1  0.74986514  0.25178402  0.25224338  1
  Te2-  Te206  1  0.74657293  0.24883773  0.58558724  1
  Te2-  Te207  1  0.74998718  0.25221077  0.92042598  1
  Te2-  Te208  1  0.75011458  0.58202061  0.25541735  1
  Te2-  Te209  1  0.74251828  0.58977147  0.58218567  1
  Te2-  Te210  1  0.74443094  0.58742699  0.91947606  1
  Te2-  Te211  1  0.74369729  0.92071907  0.24961099  1
  Te2-  Te212  1  0.74406908  0.92695004  0.58701896  1
  Te2-  Te213  1  0.74699863  0.92081013  0.92782631  1
  Te2-  Te214  1  0.08360674  0.08022034  0.07957181  1
  Te2-  Te215  1  0.08357963  0.08437751  0.41310720  1
  Te2-  Te216  1  0.08434380  0.08229914  0.74707035  1
  Te2-  Te217  1  0.08376071  0.41289929  0.08250382  1
  Te2-  Te218  1  0.08017680  0.41307827  0.41438707  1
  Te2-  Te219  1  0.08121408  0.41564686  0.75142621  1
  Te2-  Te220  1  0.07725786  0.75055033  0.07854229  1
  Te2-  Te221  1  0.07544523  0.74689591  0.41878200  1
  Te2-  Te222  1  0.07822311  0.74787451  0.74786138  1
  Te2-  Te223  1  0.41284402  0.07960205  0.08046746  1
  Te2-  Te224  1  0.40938990  0.07403475  0.41126171  1
  Te2-  Te225  1  0.41719544  0.07737804  0.75223174  1
  Te2-  Te226  1  0.40974897  0.41690488  0.07828919  1
  Te2-  Te227  1  0.41120559  0.41676612  0.41346426  1
  Te2-  Te228  1  0.41273331  0.41585197  0.74325389  1
  Te2-  Te229  1  0.41636796  0.74703139  0.07785790  1
  Te2-  Te230  1  0.41233278  0.73862154  0.41434179  1
  Te2-  Te231  1  0.41839445  0.74730578  0.74158193  1
  Te2-  Te232  1  0.74785948  0.07812526  0.08599105  1
  Te2-  Te233  1  0.74661266  0.08001576  0.41268535  1
  Te2-  Te234  1  0.74432521  0.08531993  0.74208599  1
  Te2-  Te235  1  0.75072147  0.41221390  0.08194515  1
  Te2-  Te236  1  0.74774094  0.41141108  0.40856418  1
  Te2-  Te237  1  0.74577222  0.40756709  0.74989760  1
  Te2-  Te238  1  0.74425319  0.74642997  0.08124291  1
  Te2-  Te239  1  0.74977294  0.75382089  0.41394479  1
  Te2-  Te240  1  0.74493335  0.75168486  0.74551739  1
