# generated using pymatgen
data_Ti27(Cu53Te54)2
_symmetry_space_group_name_H-M   'P 1'
_cell_length_a   17.87914996
_cell_length_b   17.87918947
_cell_length_c   17.87856522
_cell_angle_alpha   89.89935814
_cell_angle_beta   90.03320483
_cell_angle_gamma   90.01096468
_symmetry_Int_Tables_number   1
_chemical_formula_structural   Ti27(Cu53Te54)2
_chemical_formula_sum   'Ti27 Cu106 Te108'
_cell_volume   5715.13647975
_cell_formula_units_Z   1
loop_
 _symmetry_equiv_pos_site_id
 _symmetry_equiv_pos_as_xyz
  1  'x, y, z'
loop_
 _atom_type_symbol
 _atom_type_oxidation_number
  Ti4+  4.0
  Cu+  1.0
  Te2-  -2.0
loop_
 _atom_site_type_symbol
 _atom_site_label
 _atom_site_symmetry_multiplicity
 _atom_site_fract_x
 _atom_site_fract_y
 _atom_site_fract_z
 _atom_site_occupancy
  Ti4+  Ti0  1  0.16853198  0.16746081  0.16353961  1
  Ti4+  Ti1  1  0.16674199  0.16512044  0.49804809  1
  Ti4+  Ti2  1  0.16741915  0.16466258  0.83303674  1
  Ti4+  Ti3  1  0.16508109  0.49821525  0.16825154  1
  Ti4+  Ti4  1  0.16858704  0.50178576  0.49925202  1
  Ti4+  Ti5  1  0.16727029  0.49957176  0.83259926  1
  Ti4+  Ti6  1  0.16474993  0.82951429  0.16606668  1
  Ti4+  Ti7  1  0.16175627  0.83498172  0.50122118  1
  Ti4+  Ti8  1  0.16734192  0.83468974  0.83258396  1
  Ti4+  Ti9  1  0.49958121  0.16769920  0.16725734  1
  Ti4+  Ti10  1  0.50061321  0.16818406  0.50211116  1
  Ti4+  Ti11  1  0.50130575  0.16765386  0.83364278  1
  Ti4+  Ti12  1  0.50148294  0.50146348  0.16565423  1
  Ti4+  Ti13  1  0.49822415  0.49753078  0.49980253  1
  Ti4+  Ti14  1  0.50184265  0.49946472  0.83267225  1
  Ti4+  Ti15  1  0.49546329  0.83645923  0.16800814  1
  Ti4+  Ti16  1  0.49976789  0.83452382  0.50201833  1
  Ti4+  Ti17  1  0.50303738  0.83300569  0.83310665  1
  Ti4+  Ti18  1  0.83483364  0.16728094  0.16836801  1
  Ti4+  Ti19  1  0.83160970  0.16527192  0.50135947  1
  Ti4+  Ti20  1  0.83504117  0.16536211  0.83359330  1
  Ti4+  Ti21  1  0.82914890  0.49977868  0.16536073  1
  Ti4+  Ti22  1  0.83382269  0.49838565  0.49900209  1
  Ti4+  Ti23  1  0.83490706  0.49990240  0.83519452  1
  Ti4+  Ti24  1  0.83239145  0.83730296  0.16508877  1
  Ti4+  Ti25  1  0.83012814  0.83620028  0.49880663  1
  Ti4+  Ti26  1  0.83507178  0.82942808  0.83298779  1
  Cu+  Cu27  1  0.17076049  0.16939913  -0.00459756  1
  Cu+  Cu28  1  0.16590966  0.16637783  0.32843790  1
  Cu+  Cu29  1  0.16465246  0.16376813  0.66641404  1
  Cu+  Cu30  1  0.16588405  0.49695380  0.00144765  1
  Cu+  Cu31  1  0.17145420  0.50201651  0.33280067  1
  Cu+  Cu32  1  0.16593940  0.50310680  0.66669856  1
  Cu+  Cu33  1  0.16475351  0.82999555  -0.00307761  1
  Cu+  Cu34  1  0.16278332  0.82855587  0.33565266  1
  Cu+  Cu35  1  0.16576046  0.83952728  0.66577406  1
  Cu+  Cu36  1  0.49993891  0.16601606  0.00047630  1
  Cu+  Cu37  1  0.49820814  0.16780722  0.33339528  1
  Cu+  Cu38  1  0.50247776  0.17215750  0.66799503  1
  Cu+  Cu39  1  0.50646383  0.50230649  -0.00141002  1
  Cu+  Cu40  1  0.50121061  0.49758438  0.33555950  1
  Cu+  Cu41  1  0.49490016  0.49692545  0.66464160  1
  Cu+  Cu42  1  0.49989308  0.83164092  0.00474357  1
  Cu+  Cu43  1  0.49445236  0.83542323  0.33189617  1
  Cu+  Cu44  1  0.50611870  0.83258533  0.66830221  1
  Cu+  Cu45  1  0.83632705  0.16484803  0.00296866  1
  Cu+  Cu46  1  0.83483112  0.16278914  0.33610238  1
  Cu+  Cu47  1  0.83071744  0.16464796  0.66981482  1
  Cu+  Cu48  1  0.83006315  0.49373188  -0.00083654  1
  Cu+  Cu49  1  0.82887637  0.50371331  0.33142336  1
  Cu+  Cu50  1  0.83593220  0.49766368  0.66635960  1
  Cu+  Cu51  1  0.84003518  0.83247628  -0.00102740  1
  Cu+  Cu52  1  0.82457770  0.83867503  0.33254199  1
  Cu+  Cu53  1  0.83387365  0.83503971  0.66460304  1
  Cu+  Cu54  1  0.16420157  -0.00153783  0.16566991  1
  Cu+  Cu55  1  0.16582786  -0.00129008  0.50221872  1
  Cu+  Cu56  1  0.17073735  -0.00100169  0.83388992  1
  Cu+  Cu57  1  0.16906603  0.33419131  0.16212135  1
  Cu+  Cu58  1  0.16808252  0.33123123  0.49757370  1
  Cu+  Cu59  1  0.16752496  0.33053897  0.83444478  1
  Cu+  Cu60  1  0.16549481  0.65967787  0.17214388  1
  Cu+  Cu61  1  0.16580418  0.67189972  0.49569158  1
  Cu+  Cu62  1  0.16349566  0.66739665  0.83167506  1
  Cu+  Cu63  1  0.49749017  0.00165668  0.17035681  1
  Cu+  Cu64  1  0.50240271  0.00024032  0.50464492  1
  Cu+  Cu65  1  0.49895378  0.00359686  0.83252338  1
  Cu+  Cu66  1  0.49994560  0.33269689  0.16555061  1
  Cu+  Cu67  1  0.50096274  0.33470482  0.50343045  1
  Cu+  Cu68  1  0.49889249  0.33209901  0.83103865  1
  Cu+  Cu69  1  0.49823498  0.67315058  0.16570066  1
  Cu+  Cu70  1  0.49658591  0.66364688  0.50101321  1
  Cu+  Cu71  1  0.50697507  0.66602757  0.83168034  1
  Cu+  Cu72  1  0.83680478  0.00528307  0.16396419  1
  Cu+  Cu73  1  0.83271376  0.00095715  0.49550495  1
  Cu+  Cu74  1  0.83462473  -0.00429013  0.83689067  1
  Cu+  Cu75  1  0.83331278  0.33269550  0.16712088  1
  Cu+  Cu76  1  0.83287373  0.33205210  0.50166300  1
  Cu+  Cu77  1  0.83663414  0.33344901  0.83344789  1
  Cu+  Cu78  1  0.82962750  0.66778832  0.16547062  1
  Cu+  Cu79  1  0.82964924  0.66586884  0.49779982  1
  Cu+  Cu80  1  0.83230855  0.66377395  0.83128383  1
  Cu+  Cu81  1  0.00320892  0.16618418  0.16493372  1
  Cu+  Cu82  1  0.00105704  0.16163339  0.49843934  1
  Cu+  Cu83  1  0.00314938  0.16489922  0.83143687  1
  Cu+  Cu84  1  -0.00305980  0.49863779  0.16555521  1
  Cu+  Cu85  1  0.00153008  0.50339817  0.49906572  1
  Cu+  Cu86  1  -0.00050078  0.49711825  0.83063848  1
  Cu+  Cu87  1  -0.00130893  0.82909900  0.16452079  1
  Cu+  Cu88  1  -0.00547271  0.83812337  0.50362695  1
  Cu+  Cu89  1  0.00216504  0.83154332  0.83839711  1
  Cu+  Cu90  1  0.33499295  0.16677433  0.16655410  1
  Cu+  Cu91  1  0.33451619  0.16573952  0.49812005  1
  Cu+  Cu92  1  0.33418352  0.16826375  0.83307974  1
  Cu+  Cu93  1  0.33412339  0.50111529  0.16831754  1
  Cu+  Cu94  1  0.33233359  0.49362860  0.49864371  1
  Cu+  Cu95  1  0.33492524  0.50262444  0.83296996  1
  Cu+  Cu96  1  0.33233626  0.83383370  0.16888028  1
  Cu+  Cu97  1  0.33100479  0.83501363  0.50292837  1
  Cu+  Cu98  1  0.33570535  0.83587632  0.83400721  1
  Cu+  Cu99  1  0.66807671  0.16938266  0.17112818  1
  Cu+  Cu100  1  0.66414188  0.17145994  0.50589085  1
  Cu+  Cu101  1  0.66798287  0.16498791  0.83429576  1
  Cu+  Cu102  1  0.66423670  0.49880403  0.16292370  1
  Cu+  Cu103  1  0.66749582  0.49749316  0.49659909  1
  Cu+  Cu104  1  0.66817075  0.50312607  0.83989039  1
  Cu+  Cu105  1  0.66315764  0.83803235  0.16839943  1
  Cu+  Cu106  1  0.66545034  0.83955664  0.49994923  1
  Cu+  Cu107  1  0.66824782  0.82795256  0.82651349  1
  Cu+  Cu108  1  0.26142000  0.74818139  0.40996942  1
  Cu+  Cu109  1  0.58934863  0.40202937  0.07267589  1
  Cu+  Cu110  1  0.59729658  0.40530203  0.40618943  1
  Cu+  Cu111  1  0.59430915  0.74748076  0.08022361  1
  Cu+  Cu112  1  0.26517093  0.59104287  0.25869355  1
  Cu+  Cu113  1  0.93080691  0.07264626  0.40598309  1
  Cu+  Cu114  1  0.25611503  0.40046232  0.40508906  1
  Cu+  Cu115  1  0.92343179  0.93030295  0.59512244  1
  Cu+  Cu116  1  0.59514609  0.59743705  0.92752786  1
  Cu+  Cu117  1  0.26176443  0.92906190  0.59092636  1
  Cu+  Cu118  1  0.26344405  0.41240005  0.07342313  1
  Cu+  Cu119  1  0.92695042  0.40441706  0.07734712  1
  Cu+  Cu120  1  0.93233340  0.07695506  0.07253508  1
  Cu+  Cu121  1  0.92839525  0.92625068  0.92583535  1
  Cu+  Cu122  1  0.26414148  0.26180263  0.92073879  1
  Cu+  Cu123  1  0.92522274  0.73564048  0.07835315  1
  Cu+  Cu124  1  0.07733812  0.73463349  0.92535714  1
  Cu+  Cu125  1  0.40056574  0.40423849  0.59584553  1
  Cu+  Cu126  1  0.92761532  0.40537180  0.73612895  1
  Cu+  Cu127  1  0.59498111  0.73311653  0.73376948  1
  Cu+  Cu128  1  0.59523584  0.92863237  0.59801758  1
  Cu+  Cu129  1  0.59571061  0.26569883  0.59890509  1
  Cu+  Cu130  1  0.73321075  0.93206426  0.40255677  1
  Cu+  Cu131  1  0.74014375  0.39988976  0.91989042  1
  Cu+  Cu132  1  0.26543832  0.92215909  0.93063485  1
  Te2-  Te133  1  0.25840455  0.25461907  0.07782776  1
  Te2-  Te134  1  0.25382098  0.24872391  0.41037037  1
  Te2-  Te135  1  0.25112678  0.25074352  0.74543689  1
  Te2-  Te136  1  0.25111152  0.58464308  0.08085650  1
  Te2-  Te137  1  0.25758977  0.59048136  0.41394788  1
  Te2-  Te138  1  0.25135266  0.58686843  0.74925213  1
  Te2-  Te139  1  0.25007104  0.91649126  0.08136021  1
  Te2-  Te140  1  0.24945606  0.91832676  0.41303989  1
  Te2-  Te141  1  0.25592770  0.92093267  0.74599534  1
  Te2-  Te142  1  0.58799707  0.25076626  0.07986124  1
  Te2-  Te143  1  0.58547859  0.25327770  0.41304008  1
  Te2-  Te144  1  0.59075404  0.25509927  0.75035924  1
  Te2-  Te145  1  0.58839154  0.59253913  0.08133241  1
  Te2-  Te146  1  0.58412146  0.58587011  0.41595475  1
  Te2-  Te147  1  0.58842337  0.58071834  0.74223898  1
  Te2-  Te148  1  0.58216486  0.92317718  0.08246657  1
  Te2-  Te149  1  0.58120370  0.92111904  0.41111518  1
  Te2-  Te150  1  0.58847105  0.92366657  0.75018692  1
  Te2-  Te151  1  0.92161433  0.25317484  0.08052581  1
  Te2-  Te152  1  0.91848106  0.25054428  0.41718174  1
  Te2-  Te153  1  0.92077800  0.25060904  0.74643889  1
  Te2-  Te154  1  0.91611688  0.58462601  0.07877676  1
  Te2-  Te155  1  0.91658325  0.58562304  0.41341287  1
  Te2-  Te156  1  0.91969193  0.58542124  0.74716581  1
  Te2-  Te157  1  0.92451087  0.92310324  0.07973090  1
  Te2-  Te158  1  0.91934660  0.91952447  0.40887794  1
  Te2-  Te159  1  0.92153602  0.91728401  0.74895912  1
  Te2-  Te160  1  0.25143598  0.08036646  0.24876255  1
  Te2-  Te161  1  0.25413657  0.08154940  0.58586020  1
  Te2-  Te162  1  0.25684049  0.07852255  0.91991604  1
  Te2-  Te163  1  0.25509959  0.41069494  0.25272697  1
  Te2-  Te164  1  0.24871322  0.41221752  0.58920859  1
  Te2-  Te165  1  0.25648760  0.41431788  0.91929613  1
  Te2-  Te166  1  0.25312539  0.74533335  0.25422868  1
  Te2-  Te167  1  0.24854824  0.74883526  0.58777351  1
  Te2-  Te168  1  0.25368215  0.74623002  0.91614498  1
  Te2-  Te169  1  0.58487479  0.08307826  0.25349220  1
  Te2-  Te170  1  0.58661166  0.08196598  0.59044968  1
  Te2-  Te171  1  0.58562565  0.08145764  0.91945389  1
  Te2-  Te172  1  0.58609823  0.41332349  0.25196662  1
  Te2-  Te173  1  0.58944500  0.41623357  0.58929756  1
  Te2-  Te174  1  0.58677252  0.40754766  0.91916205  1
  Te2-  Te175  1  0.58335185  0.75105392  0.25460762  1
  Te2-  Te176  1  0.58788483  0.74428941  0.58206751  1
  Te2-  Te177  1  0.59075021  0.74876051  0.92268848  1
  Te2-  Te178  1  0.92366162  0.08048472  0.25329156  1
  Te2-  Te179  1  0.91813962  0.08071222  0.58912588  1
  Te2-  Te180  1  0.92350871  0.07967870  0.91955065  1
  Te2-  Te181  1  0.91477843  0.41660122  0.25321965  1
  Te2-  Te182  1  0.92297099  0.41248916  0.58325535  1
  Te2-  Te183  1  0.92342142  0.41211644  0.92179857  1
  Te2-  Te184  1  0.91239571  0.75065368  0.25382560  1
  Te2-  Te185  1  0.91445906  0.74674686  0.58272214  1
  Te2-  Te186  1  0.92141750  0.73882088  0.92010102  1
  Te2-  Te187  1  0.08311936  0.25357333  0.24825345  1
  Te2-  Te188  1  0.08154427  0.24977116  0.58239189  1
  Te2-  Te189  1  0.07973547  0.25114160  0.91788383  1
  Te2-  Te190  1  0.07600917  0.58090843  0.25433304  1
  Te2-  Te191  1  0.08354665  0.58838777  0.58302412  1
  Te2-  Te192  1  0.07980535  0.58186571  0.91945626  1
  Te2-  Te193  1  0.08073356  0.91411351  0.25050267  1
  Te2-  Te194  1  0.07631381  0.92369095  0.58849693  1
  Te2-  Te195  1  0.08139158  0.92297700  0.92070034  1
  Te2-  Te196  1  0.41377907  0.25387056  0.25199409  1
  Te2-  Te197  1  0.41076150  0.25240662  0.58692693  1
  Te2-  Te198  1  0.41617497  0.25415833  0.92085189  1
  Te2-  Te199  1  0.41834566  0.58715263  0.25362866  1
  Te2-  Te200  1  0.41054605  0.58354277  0.58449512  1
  Te2-  Te201  1  0.41794450  0.58654231  0.91744203  1
  Te2-  Te202  1  0.40944299  0.92208193  0.25382167  1
  Te2-  Te203  1  0.41468683  0.91896938  0.58975162  1
  Te2-  Te204  1  0.41899694  0.91959873  0.92071190  1
  Te2-  Te205  1  0.75115691  0.25196285  0.25588628  1
  Te2-  Te206  1  0.74937917  0.25400633  0.59017724  1
  Te2-  Te207  1  0.74987273  0.24912352  0.92080574  1
  Te2-  Te208  1  0.74331965  0.58639807  0.24887521  1
  Te2-  Te209  1  0.74789374  0.58175898  0.58472986  1
  Te2-  Te210  1  0.74989400  0.59008523  0.92363959  1
  Te2-  Te211  1  0.74547806  0.92665683  0.24755522  1
  Te2-  Te212  1  0.74696214  0.92441368  0.58886065  1
  Te2-  Te213  1  0.74713350  0.91219521  0.91771657  1
  Te2-  Te214  1  0.08461452  0.08103697  0.07627979  1
  Te2-  Te215  1  0.08379560  0.07739985  0.41056516  1
  Te2-  Te216  1  0.08230998  0.07737619  0.74817475  1
  Te2-  Te217  1  0.07858190  0.41237475  0.07977367  1
  Te2-  Te218  1  0.08321327  0.41693299  0.41371650  1
  Te2-  Te219  1  0.08361306  0.41179340  0.74637222  1
  Te2-  Te220  1  0.08043876  0.73932970  0.08038677  1
  Te2-  Te221  1  0.07194461  0.75061617  0.41730411  1
  Te2-  Te222  1  0.08066070  0.75120805  0.74537780  1
  Te2-  Te223  1  0.41496748  0.08141769  0.08158374  1
  Te2-  Te224  1  0.41773258  0.08034217  0.41692673  1
  Te2-  Te225  1  0.41533730  0.08494337  0.74630177  1
  Te2-  Te226  1  0.41585670  0.41692932  0.07857063  1
  Te2-  Te227  1  0.41283017  0.40926506  0.41093358  1
  Te2-  Te228  1  0.41178653  0.41283989  0.74972241  1
  Te2-  Te229  1  0.40887138  0.74897879  0.08132462  1
  Te2-  Te230  1  0.41395065  0.74857425  0.41628875  1
  Te2-  Te231  1  0.41698569  0.74787290  0.74922676  1
  Te2-  Te232  1  0.74585506  0.08420705  0.08291338  1
  Te2-  Te233  1  0.74002816  0.08403628  0.41542772  1
  Te2-  Te234  1  0.74959916  0.07770764  0.75209516  1
  Te2-  Te235  1  0.74262265  0.40813097  0.07939949  1
  Te2-  Te236  1  0.74965761  0.41098420  0.41133769  1
  Te2-  Te237  1  0.74661119  0.41581099  0.75048321  1
  Te2-  Te238  1  0.74648511  0.75186797  0.07933835  1
  Te2-  Te239  1  0.74379520  0.74944228  0.41498157  1
  Te2-  Te240  1  0.75072959  0.74401675  0.74224973  1
