# generated using pymatgen
data_Ti27(Cu53Te54)2
_symmetry_space_group_name_H-M   'P 1'
_cell_length_a   17.86682862
_cell_length_b   17.86548720
_cell_length_c   17.86382513
_cell_angle_alpha   90.01008668
_cell_angle_beta   89.99368350
_cell_angle_gamma   89.98062896
_symmetry_Int_Tables_number   1
_chemical_formula_structural   Ti27(Cu53Te54)2
_chemical_formula_sum   'Ti27 Cu106 Te108'
_cell_volume   5702.12535221
_cell_formula_units_Z   1
loop_
 _symmetry_equiv_pos_site_id
 _symmetry_equiv_pos_as_xyz
  1  'x, y, z'
loop_
 _atom_type_symbol
 _atom_type_oxidation_number
  Ti4+  4.0
  Cu+  1.0
  Te2-  -2.0
loop_
 _atom_site_type_symbol
 _atom_site_label
 _atom_site_symmetry_multiplicity
 _atom_site_fract_x
 _atom_site_fract_y
 _atom_site_fract_z
 _atom_site_occupancy
  Ti4+  Ti0  1  0.16869854  0.16432521  0.16513579  1
  Ti4+  Ti1  1  0.16550294  0.16745287  0.50064360  1
  Ti4+  Ti2  1  0.16319671  0.16839266  0.83294208  1
  Ti4+  Ti3  1  0.16522020  0.49958309  0.16673953  1
  Ti4+  Ti4  1  0.16731030  0.49803549  0.49883328  1
  Ti4+  Ti5  1  0.16708939  0.49914570  0.82884314  1
  Ti4+  Ti6  1  0.16987269  0.83146367  0.16607538  1
  Ti4+  Ti7  1  0.16673754  0.83237307  0.49914141  1
  Ti4+  Ti8  1  0.16627880  0.83041390  0.83427550  1
  Ti4+  Ti9  1  0.50112194  0.17027610  0.16663852  1
  Ti4+  Ti10  1  0.49951970  0.16714446  0.49973485  1
  Ti4+  Ti11  1  0.50058007  0.16641080  0.83527174  1
  Ti4+  Ti12  1  0.50009705  0.49800802  0.16528217  1
  Ti4+  Ti13  1  0.49599613  0.50066155  0.49935920  1
  Ti4+  Ti14  1  0.50004252  0.49931164  0.83389973  1
  Ti4+  Ti15  1  0.49904008  0.83447869  0.16579551  1
  Ti4+  Ti16  1  0.50105612  0.82982553  0.50028101  1
  Ti4+  Ti17  1  0.49906777  0.83288015  0.83586385  1
  Ti4+  Ti18  1  0.83827893  0.16595785  0.16754852  1
  Ti4+  Ti19  1  0.82995714  0.16529397  0.49866682  1
  Ti4+  Ti20  1  0.83481569  0.16693027  0.83327217  1
  Ti4+  Ti21  1  0.83349664  0.50176567  0.16838411  1
  Ti4+  Ti22  1  0.83071043  0.50094884  0.50084394  1
  Ti4+  Ti23  1  0.83320286  0.50093481  0.83411506  1
  Ti4+  Ti24  1  0.83390375  0.83597782  0.16743868  1
  Ti4+  Ti25  1  0.83631587  0.83394734  0.49846755  1
  Ti4+  Ti26  1  0.83302497  0.83517446  0.83326261  1
  Cu+  Cu27  1  0.16300046  0.16904778  0.00302838  1
  Cu+  Cu28  1  0.16730093  0.16644454  0.33283354  1
  Cu+  Cu29  1  0.16175937  0.17009714  0.66582233  1
  Cu+  Cu30  1  0.16756885  0.49800719  -0.00265578  1
  Cu+  Cu31  1  0.16397471  0.49898708  0.33328835  1
  Cu+  Cu32  1  0.17501687  0.49683114  0.66421594  1
  Cu+  Cu33  1  0.17081759  0.83512771  -0.00192904  1
  Cu+  Cu34  1  0.17101079  0.82575658  0.33336381  1
  Cu+  Cu35  1  0.16316734  0.83538254  0.67124075  1
  Cu+  Cu36  1  0.50399521  0.17584477  0.00023944  1
  Cu+  Cu37  1  0.49896981  0.16561975  0.33373910  1
  Cu+  Cu38  1  0.49848937  0.16555019  0.66713465  1
  Cu+  Cu39  1  0.50422959  0.50194172  -0.00185483  1
  Cu+  Cu40  1  0.49731389  0.49182702  0.33243685  1
  Cu+  Cu41  1  0.49476506  0.50498704  0.66782326  1
  Cu+  Cu42  1  0.49755084  0.83296536  -0.00088518  1
  Cu+  Cu43  1  0.50111002  0.83112819  0.33259321  1
  Cu+  Cu44  1  0.49931033  0.83211216  0.66662449  1
  Cu+  Cu45  1  0.84051810  0.16408246  0.00060744  1
  Cu+  Cu46  1  0.83542609  0.15951959  0.33408147  1
  Cu+  Cu47  1  0.83078697  0.16655236  0.66541925  1
  Cu+  Cu48  1  0.83453179  0.50101659  0.00302747  1
  Cu+  Cu49  1  0.83158793  0.50283783  0.33372087  1
  Cu+  Cu50  1  0.83230648  0.49907912  0.66947157  1
  Cu+  Cu51  1  0.83389259  0.83500996  0.00031941  1
  Cu+  Cu52  1  0.83310088  0.84051054  0.33481311  1
  Cu+  Cu53  1  0.83433760  0.83203785  0.66465787  1
  Cu+  Cu54  1  0.17273616  -0.00333538  0.16864103  1
  Cu+  Cu55  1  0.16719712  0.00220871  0.50297126  1
  Cu+  Cu56  1  0.16460356  -0.00282441  0.83293265  1
  Cu+  Cu57  1  0.16635516  0.33056520  0.16352022  1
  Cu+  Cu58  1  0.16274485  0.33207572  0.49833896  1
  Cu+  Cu59  1  0.16217994  0.33644397  0.82838583  1
  Cu+  Cu60  1  0.16272858  0.66624485  0.16763965  1
  Cu+  Cu61  1  0.17172162  0.66743702  0.49576604  1
  Cu+  Cu62  1  0.16559066  0.66585432  0.83230133  1
  Cu+  Cu63  1  0.49753687  0.00306383  0.16698399  1
  Cu+  Cu64  1  0.50012102  -0.00135173  0.50007866  1
  Cu+  Cu65  1  0.50238030  -0.00002145  0.83514226  1
  Cu+  Cu66  1  0.49441515  0.33527589  0.16514352  1
  Cu+  Cu67  1  0.49945818  0.33508674  0.49562396  1
  Cu+  Cu68  1  0.50416971  0.32977718  0.83723593  1
  Cu+  Cu69  1  0.49959433  0.66632808  0.16503366  1
  Cu+  Cu70  1  0.50338674  0.66283498  0.50290307  1
  Cu+  Cu71  1  0.49627393  0.66613967  0.83886657  1
  Cu+  Cu72  1  0.83600135  0.00287861  0.16776825  1
  Cu+  Cu73  1  0.83465914  -0.00083401  0.49050754  1
  Cu+  Cu74  1  0.83292838  0.00228693  0.83419528  1
  Cu+  Cu75  1  0.83588260  0.33563740  0.16904985  1
  Cu+  Cu76  1  0.83035698  0.33274028  0.50117566  1
  Cu+  Cu77  1  0.83364222  0.33468817  0.83305387  1
  Cu+  Cu78  1  0.83269104  0.66763422  0.16766062  1
  Cu+  Cu79  1  0.83143591  0.66919695  0.50252438  1
  Cu+  Cu80  1  0.83420349  0.66808636  0.83221675  1
  Cu+  Cu81  1  0.00177353  0.16254700  0.15980030  1
  Cu+  Cu82  1  -0.00344354  0.16356458  0.49861278  1
  Cu+  Cu83  1  0.00081478  0.17189030  0.82972078  1
  Cu+  Cu84  1  -0.00354630  0.50091560  0.16694919  1
  Cu+  Cu85  1  -0.00055898  0.50015938  0.50057234  1
  Cu+  Cu86  1  -0.00111909  0.49867498  0.83329166  1
  Cu+  Cu87  1  0.00350007  0.83104125  0.16828053  1
  Cu+  Cu88  1  0.00143437  0.83437147  0.50200751  1
  Cu+  Cu89  1  -0.00096898  0.83340915  0.82941836  1
  Cu+  Cu90  1  0.33872339  0.16733333  0.16695131  1
  Cu+  Cu91  1  0.33173861  0.16899862  0.50043268  1
  Cu+  Cu92  1  0.33271449  0.16324802  0.83457776  1
  Cu+  Cu93  1  0.33149458  0.49632198  0.16707178  1
  Cu+  Cu94  1  0.32774995  0.50349663  0.50518977  1
  Cu+  Cu95  1  0.33486989  0.49815153  0.82253485  1
  Cu+  Cu96  1  0.33204385  0.83781961  0.16860301  1
  Cu+  Cu97  1  0.33510674  0.82757738  0.49562363  1
  Cu+  Cu98  1  0.33191441  0.82875097  0.84207948  1
  Cu+  Cu99  1  0.67065665  0.16805935  0.16828135  1
  Cu+  Cu100  1  0.66319582  0.16781757  0.50143601  1
  Cu+  Cu101  1  0.66805323  0.16854306  0.83670321  1
  Cu+  Cu102  1  0.66904244  0.50083356  0.16619113  1
  Cu+  Cu103  1  0.66253122  0.50007484  0.49870503  1
  Cu+  Cu104  1  0.66821432  0.50244287  0.83684364  1
  Cu+  Cu105  1  0.66500661  0.83506861  0.16443976  1
  Cu+  Cu106  1  0.67021790  0.83040329  0.50149009  1
  Cu+  Cu107  1  0.66537197  0.83663755  0.83451737  1
  Cu+  Cu108  1  0.59459684  0.40649297  0.40492854  1
  Cu+  Cu109  1  0.59383053  0.58496367  0.59483218  1
  Cu+  Cu110  1  0.40923881  0.59892942  0.74214374  1
  Cu+  Cu111  1  0.25882510  0.93111584  0.92328432  1
  Cu+  Cu112  1  0.07187199  0.41291871  0.92625974  1
  Cu+  Cu113  1  0.93263702  0.07186450  0.40676177  1
  Cu+  Cu114  1  0.06949465  0.92640296  0.74154035  1
  Cu+  Cu115  1  0.59580826  0.92879970  0.92699443  1
  Cu+  Cu116  1  0.74417233  0.74199601  0.59569919  1
  Cu+  Cu117  1  0.40965837  0.07391521  0.26242094  1
  Cu+  Cu118  1  0.74001525  0.07647043  0.25764127  1
  Cu+  Cu119  1  0.07033106  0.73874386  0.26057947  1
  Cu+  Cu120  1  0.26504701  0.40002256  0.73759516  1
  Cu+  Cu121  1  0.26642911  0.73504901  0.40250993  1
  Cu+  Cu122  1  0.73529655  0.92358108  0.41006571  1
  Cu+  Cu123  1  0.25039981  0.60040212  0.59415732  1
  Cu+  Cu124  1  0.59842895  0.59461005  0.92888469  1
  Cu+  Cu125  1  0.92892538  0.06830745  0.06780599  1
  Cu+  Cu126  1  0.60148836  0.26175517  0.92891637  1
  Cu+  Cu127  1  0.40363659  0.73524284  0.93254916  1
  Cu+  Cu128  1  0.39908779  0.40903664  0.26278422  1
  Cu+  Cu129  1  0.40650894  0.26273080  0.06940164  1
  Cu+  Cu130  1  0.07003832  0.26575458  0.73439636  1
  Cu+  Cu131  1  0.07058966  0.26151599  0.07968867  1
  Cu+  Cu132  1  0.25520844  0.92502040  0.26695799  1
  Te2-  Te133  1  0.25532727  0.25195710  0.07990567  1
  Te2-  Te134  1  0.25026893  0.25256402  0.41400881  1
  Te2-  Te135  1  0.25342978  0.24985120  0.74740486  1
  Te2-  Te136  1  0.25011212  0.58339702  0.08208457  1
  Te2-  Te137  1  0.25462039  0.58293011  0.40830966  1
  Te2-  Te138  1  0.25384909  0.59250270  0.74503446  1
  Te2-  Te139  1  0.25627336  0.92101502  0.07807714  1
  Te2-  Te140  1  0.25364513  0.92075176  0.41693101  1
  Te2-  Te141  1  0.25618102  0.91597399  0.75089747  1
  Te2-  Te142  1  0.59243907  0.25764127  0.08477923  1
  Te2-  Te143  1  0.58642903  0.25220184  0.41141013  1
  Te2-  Te144  1  0.58592072  0.24995210  0.74750564  1
  Te2-  Te145  1  0.58764037  0.58697623  0.08202726  1
  Te2-  Te146  1  0.58170979  0.58324310  0.40908894  1
  Te2-  Te147  1  0.58629852  0.58857078  0.74965299  1
  Te2-  Te148  1  0.58391435  0.92196917  0.08061952  1
  Te2-  Te149  1  0.58473286  0.91698415  0.41447095  1
  Te2-  Te150  1  0.58327357  0.91796096  0.74710484  1
  Te2-  Te151  1  0.91979654  0.25693465  0.08001008  1
  Te2-  Te152  1  0.91563804  0.25215978  0.41413340  1
  Te2-  Te153  1  0.91651889  0.25472359  0.74386221  1
  Te2-  Te154  1  0.91888090  0.58835349  0.08203407  1
  Te2-  Te155  1  0.91647423  0.58679532  0.41774887  1
  Te2-  Te156  1  0.91907215  0.58537003  0.74808039  1
  Te2-  Te157  1  0.92282098  0.91802858  0.08153746  1
  Te2-  Te158  1  0.92782845  0.91865070  0.41094937  1
  Te2-  Te159  1  0.91649605  0.92171358  0.74477704  1
  Te2-  Te160  1  0.25631711  0.08083105  0.25521128  1
  Te2-  Te161  1  0.25139222  0.08433780  0.58783588  1
  Te2-  Te162  1  0.24827562  0.08307591  0.92022886  1
  Te2-  Te163  1  0.24755924  0.41024635  0.25321970  1
  Te2-  Te164  1  0.25433948  0.40571280  0.58308690  1
  Te2-  Te165  1  0.25470650  0.41416040  0.91342478  1
  Te2-  Te166  1  0.25869987  0.74110858  0.24938809  1
  Te2-  Te167  1  0.25237547  0.75178791  0.59008576  1
  Te2-  Te168  1  0.24976693  0.73916576  0.92318052  1
  Te2-  Te169  1  0.58644006  0.08117597  0.25251968  1
  Te2-  Te170  1  0.58360565  0.08063958  0.58563751  1
  Te2-  Te171  1  0.58756337  0.08186354  0.92339482  1
  Te2-  Te172  1  0.58880927  0.41109530  0.24901263  1
  Te2-  Te173  1  0.58078131  0.41637074  0.58824337  1
  Te2-  Te174  1  0.58893985  0.41368248  0.92044534  1
  Te2-  Te175  1  0.58506707  0.74830880  0.24898613  1
  Te2-  Te176  1  0.58818592  0.74505104  0.58988423  1
  Te2-  Te177  1  0.58805918  0.74648404  0.92143649  1
  Te2-  Te178  1  0.92780815  0.07850199  0.25288856  1
  Te2-  Te179  1  0.91441608  0.07866860  0.58480496  1
  Te2-  Te180  1  0.92522635  0.07992959  0.91561313  1
  Te2-  Te181  1  0.91895619  0.41630500  0.25556805  1
  Te2-  Te182  1  0.91618465  0.41532772  0.58484797  1
  Te2-  Te183  1  0.91794746  0.41352305  0.92116601  1
  Te2-  Te184  1  0.91672382  0.74922489  0.25508204  1
  Te2-  Te185  1  0.92199244  0.74723080  0.58552928  1
  Te2-  Te186  1  0.91883847  0.75041403  0.91766830  1
  Te2-  Te187  1  0.08094689  0.24851077  0.24960866  1
  Te2-  Te188  1  0.07413988  0.25340066  0.58249478  1
  Te2-  Te189  1  0.07807651  0.25647066  0.92167418  1
  Te2-  Te190  1  0.07785136  0.58416829  0.25377311  1
  Te2-  Te191  1  0.08484027  0.58536271  0.58490958  1
  Te2-  Te192  1  0.08173837  0.58428804  0.91682370  1
  Te2-  Te193  1  0.08560701  0.91707574  0.25473096  1
  Te2-  Te194  1  0.08147513  0.92054252  0.58579286  1
  Te2-  Te195  1  0.07863869  0.91627173  0.91965647  1
  Te2-  Te196  1  0.41324562  0.25512279  0.25661703  1
  Te2-  Te197  1  0.41585008  0.25342961  0.58473640  1
  Te2-  Te198  1  0.40952435  0.25433712  0.91744787  1
  Te2-  Te199  1  0.41540113  0.58322316  0.25114606  1
  Te2-  Te200  1  0.40819172  0.59168451  0.58709073  1
  Te2-  Te201  1  0.40771803  0.58061579  0.92117433  1
  Te2-  Te202  1  0.41397568  0.92042354  0.25695856  1
  Te2-  Te203  1  0.41406867  0.91500564  0.58270528  1
  Te2-  Te204  1  0.41286730  0.92304160  0.92070969  1
  Te2-  Te205  1  0.75325206  0.25175354  0.25432942  1
  Te2-  Te206  1  0.74544567  0.25174467  0.58539042  1
  Te2-  Te207  1  0.75291187  0.25288477  0.92333111  1
  Te2-  Te208  1  0.74636610  0.58785314  0.25285650  1
  Te2-  Te209  1  0.74477321  0.58671435  0.59003776  1
  Te2-  Te210  1  0.75048624  0.58925425  0.92213387  1
  Te2-  Te211  1  0.74367057  0.92256425  0.25201201  1
  Te2-  Te212  1  0.75070515  0.92192362  0.58369978  1
  Te2-  Te213  1  0.74852801  0.92185116  0.92134298  1
  Te2-  Te214  1  0.08525848  0.07258426  0.07989750  1
  Te2-  Te215  1  0.08339082  0.07898997  0.41270737  1
  Te2-  Te216  1  0.07960952  0.07996600  0.74673302  1
  Te2-  Te217  1  0.07723031  0.41422571  0.07996297  1
  Te2-  Te218  1  0.07881549  0.41475860  0.41440449  1
  Te2-  Te219  1  0.07664501  0.41802517  0.73876835  1
  Te2-  Te220  1  0.08356829  0.74925043  0.07756721  1
  Te2-  Te221  1  0.07845472  0.74515993  0.41538665  1
  Te2-  Te222  1  0.07977945  0.74444428  0.74746225  1
  Te2-  Te223  1  0.41816796  0.08485558  0.07686360  1
  Te2-  Te224  1  0.41201600  0.07952650  0.41613429  1
  Te2-  Te225  1  0.41555310  0.08002196  0.74998657  1
  Te2-  Te226  1  0.41272673  0.41672818  0.07376003  1
  Te2-  Te227  1  0.40491014  0.41394107  0.41694712  1
  Te2-  Te228  1  0.41992532  0.40695254  0.74562895  1
  Te2-  Te229  1  0.41099521  0.74710174  0.08336337  1
  Te2-  Te230  1  0.41878408  0.74135435  0.41204719  1
  Te2-  Te231  1  0.41163195  0.74939076  0.74734318  1
  Te2-  Te232  1  0.74978863  0.08244129  0.08027771  1
  Te2-  Te233  1  0.73853139  0.07917877  0.41214676  1
  Te2-  Te234  1  0.74702711  0.08303185  0.74961081  1
  Te2-  Te235  1  0.74947178  0.41397106  0.08233857  1
  Te2-  Te236  1  0.74669451  0.41422597  0.41387569  1
  Te2-  Te237  1  0.74570069  0.41543530  0.75020887  1
  Te2-  Te238  1  0.74945370  0.75081813  0.08246793  1
  Te2-  Te239  1  0.74985240  0.74792585  0.41080614  1
  Te2-  Te240  1  0.74545262  0.74874983  0.74913091  1
