# generated using pymatgen
data_Ti27(Cu53Te54)2
_symmetry_space_group_name_H-M   'P 1'
_cell_length_a   17.88330078
_cell_length_b   17.88249390
_cell_length_c   17.87798330
_cell_angle_alpha   90.03105142
_cell_angle_beta   89.98699779
_cell_angle_gamma   90.00337317
_symmetry_Int_Tables_number   1
_chemical_formula_structural   Ti27(Cu53Te54)2
_chemical_formula_sum   'Ti27 Cu106 Te108'
_cell_volume   5717.34261518
_cell_formula_units_Z   1
loop_
 _symmetry_equiv_pos_site_id
 _symmetry_equiv_pos_as_xyz
  1  'x, y, z'
loop_
 _atom_type_symbol
 _atom_type_oxidation_number
  Ti4+  4.0
  Cu+  1.0
  Te2-  -2.0
loop_
 _atom_site_type_symbol
 _atom_site_label
 _atom_site_symmetry_multiplicity
 _atom_site_fract_x
 _atom_site_fract_y
 _atom_site_fract_z
 _atom_site_occupancy
  Ti4+  Ti0  1  0.16926273  0.16614817  0.16528905  1
  Ti4+  Ti1  1  0.16497091  0.16579467  0.49956795  1
  Ti4+  Ti2  1  0.16429659  0.16593623  0.83168332  1
  Ti4+  Ti3  1  0.16897125  0.49819075  0.16873420  1
  Ti4+  Ti4  1  0.16997717  0.50369648  0.49961487  1
  Ti4+  Ti5  1  0.16455609  0.50128863  0.83411806  1
  Ti4+  Ti6  1  0.16869680  0.82981195  0.16480159  1
  Ti4+  Ti7  1  0.16685573  0.83439922  0.50167670  1
  Ti4+  Ti8  1  0.16720340  0.83264056  0.83282978  1
  Ti4+  Ti9  1  0.49981151  0.16529994  0.16466069  1
  Ti4+  Ti10  1  0.49872436  0.16553368  0.49970198  1
  Ti4+  Ti11  1  0.49747059  0.16974480  0.83400085  1
  Ti4+  Ti12  1  0.50309687  0.49933963  0.16654410  1
  Ti4+  Ti13  1  0.50000960  0.49758212  0.50067674  1
  Ti4+  Ti14  1  0.50151274  0.50354994  0.83353554  1
  Ti4+  Ti15  1  0.49777195  0.83391559  0.16256220  1
  Ti4+  Ti16  1  0.50125550  0.83335245  0.50079970  1
  Ti4+  Ti17  1  0.50303867  0.83535259  0.83471895  1
  Ti4+  Ti18  1  0.83357302  0.16404195  0.16891670  1
  Ti4+  Ti19  1  0.83180389  0.16809344  0.49936493  1
  Ti4+  Ti20  1  0.83183321  0.16762902  0.83529080  1
  Ti4+  Ti21  1  0.83128128  0.49996714  0.16793276  1
  Ti4+  Ti22  1  0.83434903  0.50185464  0.50072208  1
  Ti4+  Ti23  1  0.83209088  0.50075057  0.83163571  1
  Ti4+  Ti24  1  0.83654607  0.83284046  0.17144452  1
  Ti4+  Ti25  1  0.82964478  0.83241295  0.49587729  1
  Ti4+  Ti26  1  0.83336027  0.83514069  0.83369136  1
  Cu+  Cu27  1  0.16936114  0.16772453  -0.00368663  1
  Cu+  Cu28  1  0.16704471  0.16537153  0.33067596  1
  Cu+  Cu29  1  0.16315024  0.16528018  0.66576133  1
  Cu+  Cu30  1  0.16277446  0.50028328  0.00254497  1
  Cu+  Cu31  1  0.17769149  0.50108437  0.33513779  1
  Cu+  Cu32  1  0.16611511  0.50303745  0.66695071  1
  Cu+  Cu33  1  0.16327096  0.82756917  -0.00418741  1
  Cu+  Cu34  1  0.17183488  0.83196047  0.33429771  1
  Cu+  Cu35  1  0.16523544  0.83517208  0.66725890  1
  Cu+  Cu36  1  0.49610207  0.17126568  -0.00106676  1
  Cu+  Cu37  1  0.50238699  0.16243588  0.33149130  1
  Cu+  Cu38  1  0.49772527  0.16731537  0.66745405  1
  Cu+  Cu39  1  0.50476248  0.50826356  -0.00089382  1
  Cu+  Cu40  1  0.49817405  0.49275946  0.33104562  1
  Cu+  Cu41  1  0.50396043  0.50468282  0.66564340  1
  Cu+  Cu42  1  0.49481754  0.83396116  -0.00237431  1
  Cu+  Cu43  1  0.50105270  0.83178664  0.33213688  1
  Cu+  Cu44  1  0.50316349  0.83447985  0.66932165  1
  Cu+  Cu45  1  0.83156068  0.16714173  0.00298101  1
  Cu+  Cu46  1  0.83816897  0.16233892  0.33638931  1
  Cu+  Cu47  1  0.83186472  0.16822284  0.66894409  1
  Cu+  Cu48  1  0.82998430  0.49752825  -0.00384922  1
  Cu+  Cu49  1  0.83429645  0.50664952  0.33285295  1
  Cu+  Cu50  1  0.83145821  0.49663452  0.66477843  1
  Cu+  Cu51  1  0.83596875  0.83637795  0.00401693  1
  Cu+  Cu52  1  0.83036877  0.82459627  0.33594382  1
  Cu+  Cu53  1  0.83324588  0.83506388  0.66441983  1
  Cu+  Cu54  1  0.16979606  -0.00054581  0.16359413  1
  Cu+  Cu55  1  0.16367136  -0.00159330  0.50144927  1
  Cu+  Cu56  1  0.16576473  -0.00121216  0.82962365  1
  Cu+  Cu57  1  0.16741820  0.33191214  0.16684029  1
  Cu+  Cu58  1  0.16604496  0.33287864  0.50088089  1
  Cu+  Cu59  1  0.16564044  0.33357554  0.83327436  1
  Cu+  Cu60  1  0.16808555  0.66105164  0.16720951  1
  Cu+  Cu61  1  0.17132299  0.67171103  0.49870670  1
  Cu+  Cu62  1  0.16282520  0.66808532  0.83583358  1
  Cu+  Cu63  1  0.49413497  -0.00167366  0.16388895  1
  Cu+  Cu64  1  0.50027886  -0.00015269  0.50075670  1
  Cu+  Cu65  1  0.50050271  0.00469821  0.83242661  1
  Cu+  Cu66  1  0.50243508  0.33033955  0.16923829  1
  Cu+  Cu67  1  0.49926410  0.32922412  0.49942077  1
  Cu+  Cu68  1  0.49868391  0.33667181  0.83028712  1
  Cu+  Cu69  1  0.49916596  0.66380737  0.15923873  1
  Cu+  Cu70  1  0.50244051  0.66447367  0.50387028  1
  Cu+  Cu71  1  0.50545244  0.66994200  0.84103497  1
  Cu+  Cu72  1  0.83271668  -0.00419085  0.16855335  1
  Cu+  Cu73  1  0.83276186  0.00235852  0.49460188  1
  Cu+  Cu74  1  0.83431500  0.00243156  0.83499112  1
  Cu+  Cu75  1  0.83106885  0.33042278  0.16568379  1
  Cu+  Cu76  1  0.83229934  0.33594253  0.50378760  1
  Cu+  Cu77  1  0.82950246  0.33530152  0.83511534  1
  Cu+  Cu78  1  0.83574289  0.66670875  0.17715610  1
  Cu+  Cu79  1  0.82989088  0.66508794  0.48989560  1
  Cu+  Cu80  1  0.83460381  0.66899655  0.82817930  1
  Cu+  Cu81  1  0.00264764  0.16288975  0.16730959  1
  Cu+  Cu82  1  -0.00185687  0.16622534  0.49728455  1
  Cu+  Cu83  1  -0.00198701  0.16687635  0.83321210  1
  Cu+  Cu84  1  -0.00270687  0.50031006  0.16874544  1
  Cu+  Cu85  1  0.00706877  0.50181169  0.50200601  1
  Cu+  Cu86  1  -0.00299040  0.50018311  0.83030092  1
  Cu+  Cu87  1  0.00459277  0.83153003  0.16905934  1
  Cu+  Cu88  1  -0.00108077  0.83265291  0.49992466  1
  Cu+  Cu89  1  -0.00113780  0.83445576  0.83285587  1
  Cu+  Cu90  1  0.33625497  0.16447450  0.16451856  1
  Cu+  Cu91  1  0.33244444  0.16521805  0.50015517  1
  Cu+  Cu92  1  0.32866783  0.16981223  0.83497079  1
  Cu+  Cu93  1  0.33820411  0.49948160  0.17178164  1
  Cu+  Cu94  1  0.33264418  0.49623409  0.49667376  1
  Cu+  Cu95  1  0.33019210  0.50057917  0.83237315  1
  Cu+  Cu96  1  0.33393229  0.83613677  0.16073685  1
  Cu+  Cu97  1  0.33488026  0.83378454  0.50187899  1
  Cu+  Cu98  1  0.33464824  0.83163767  0.83282309  1
  Cu+  Cu99  1  0.66777021  0.16894136  0.16774147  1
  Cu+  Cu100  1  0.66391328  0.16716316  0.50260054  1
  Cu+  Cu101  1  0.66288615  0.16704175  0.83285444  1
  Cu+  Cu102  1  0.66575820  0.49579328  0.16542447  1
  Cu+  Cu103  1  0.66613210  0.50170246  0.50559812  1
  Cu+  Cu104  1  0.66689793  0.50303488  0.83690984  1
  Cu+  Cu105  1  0.66740256  0.83529115  0.16624540  1
  Cu+  Cu106  1  0.66569577  0.83668703  0.49784729  1
  Cu+  Cu107  1  0.66896815  0.83683396  0.83372770  1
  Cu+  Cu108  1  0.25619755  0.39947839  0.41167305  1
  Cu+  Cu109  1  0.74192955  0.25831768  0.07394014  1
  Cu+  Cu110  1  0.73252086  0.58368635  0.40608643  1
  Cu+  Cu111  1  0.73568641  0.40638055  0.92456813  1
  Cu+  Cu112  1  0.93169618  0.59070125  0.26060854  1
  Cu+  Cu113  1  0.06729942  0.58604494  0.07496724  1
  Cu+  Cu114  1  0.59721245  0.25555140  0.26415554  1
  Cu+  Cu115  1  0.73249119  0.74182445  0.25596844  1
  Cu+  Cu116  1  0.93154848  0.73849089  0.41393660  1
  Cu+  Cu117  1  0.93048084  0.07177815  0.40739356  1
  Cu+  Cu118  1  0.60102489  0.60087414  0.93007525  1
  Cu+  Cu119  1  0.73778938  0.40477426  0.59192232  1
  Cu+  Cu120  1  0.40813535  0.06893262  0.26253396  1
  Cu+  Cu121  1  0.59548094  0.59771086  0.59508200  1
  Cu+  Cu122  1  0.73436342  0.93391336  0.41203964  1
  Cu+  Cu123  1  0.06686193  0.74245795  0.92081471  1
  Cu+  Cu124  1  0.40774093  0.26291189  0.07536644  1
  Cu+  Cu125  1  0.26691025  0.74882618  0.40851830  1
  Cu+  Cu126  1  0.40117820  0.92866977  0.06674345  1
  Cu+  Cu127  1  0.40934949  0.40170516  0.25801707  1
  Cu+  Cu128  1  0.74159310  0.92306161  0.07343442  1
  Cu+  Cu129  1  0.40446364  0.74036149  0.92112443  1
  Cu+  Cu130  1  0.40562288  0.58818011  0.07301444  1
  Cu+  Cu131  1  0.26717824  0.59430611  0.25872572  1
  Cu+  Cu132  1  0.25483707  0.26377424  0.92296731  1
  Te2-  Te133  1  0.25510183  0.25571888  0.07902612  1
  Te2-  Te134  1  0.25283998  0.24927214  0.41275334  1
  Te2-  Te135  1  0.24920481  0.25258916  0.74488507  1
  Te2-  Te136  1  0.25546839  0.58271141  0.07997434  1
  Te2-  Te137  1  0.26082449  0.59269192  0.41346320  1
  Te2-  Te138  1  0.24914694  0.58797195  0.75021436  1
  Te2-  Te139  1  0.24879755  0.91706217  0.07431206  1
  Te2-  Te140  1  0.25359351  0.92046587  0.41641251  1
  Te2-  Te141  1  0.25368775  0.91728802  0.74769405  1
  Te2-  Te142  1  0.58669806  0.25369854  0.07824727  1
  Te2-  Te143  1  0.58658565  0.25185137  0.41413939  1
  Te2-  Te144  1  0.58324854  0.25326084  0.74747222  1
  Te2-  Te145  1  0.59371313  0.58787486  0.08211805  1
  Te2-  Te146  1  0.58200984  0.58269900  0.41074769  1
  Te2-  Te147  1  0.58859776  0.59057798  0.74909408  1
  Te2-  Te148  1  0.58525749  0.91997993  0.07896613  1
  Te2-  Te149  1  0.58295768  0.92115729  0.41125110  1
  Te2-  Te150  1  0.58678351  0.92208089  0.74957312  1
  Te2-  Te151  1  0.92041621  0.24930050  0.08447890  1
  Te2-  Te152  1  0.91683733  0.25649939  0.41575345  1
  Te2-  Te153  1  0.91610128  0.25400501  0.75018927  1
  Te2-  Te154  1  0.91375538  0.58651043  0.07970731  1
  Te2-  Te155  1  0.92788065  0.58582649  0.41383253  1
  Te2-  Te156  1  0.91710304  0.58470072  0.74409452  1
  Te2-  Te157  1  0.92394325  0.91789538  0.08596077  1
  Te2-  Te158  1  0.91948425  0.91725716  0.41053548  1
  Te2-  Te159  1  0.91783975  0.91979521  0.74772146  1
  Te2-  Te160  1  0.25427345  0.07882579  0.25153677  1
  Te2-  Te161  1  0.24988482  0.08052515  0.58486022  1
  Te2-  Te162  1  0.25063213  0.07809889  0.91623563  1
  Te2-  Te163  1  0.25632427  0.40729221  0.25355855  1
  Te2-  Te164  1  0.25111603  0.41591385  0.58695605  1
  Te2-  Te165  1  0.25108704  0.41711224  0.92147458  1
  Te2-  Te166  1  0.25869184  0.74639996  0.25079331  1
  Te2-  Te167  1  0.25325092  0.75034621  0.58923796  1
  Te2-  Te168  1  0.25365934  0.74444098  0.91947537  1
  Te2-  Te169  1  0.58614878  0.07658190  0.24735886  1
  Te2-  Te170  1  0.58323214  0.08172199  0.58705099  1
  Te2-  Te171  1  0.58266654  0.08469562  0.92060220  1
  Te2-  Te172  1  0.59038781  0.41144690  0.25390521  1
  Te2-  Te173  1  0.58422607  0.40990044  0.58713348  1
  Te2-  Te174  1  0.58306482  0.41343391  0.92045259  1
  Te2-  Te175  1  0.58139080  0.74594701  0.24811126  1
  Te2-  Te176  1  0.58930133  0.75000098  0.58750818  1
  Te2-  Te177  1  0.59259372  0.75336211  0.92444044  1
  Te2-  Te178  1  0.92171670  0.07666104  0.25193778  1
  Te2-  Te179  1  0.91565291  0.08184466  0.58508113  1
  Te2-  Te180  1  0.91781168  0.08350000  0.92129096  1
  Te2-  Te181  1  0.91492688  0.41323114  0.25249927  1
  Te2-  Te182  1  0.92295407  0.41691520  0.58404231  1
  Te2-  Te183  1  0.91906087  0.41519019  0.91749602  1
  Te2-  Te184  1  0.92837695  0.74576238  0.25780494  1
  Te2-  Te185  1  0.91384906  0.74576156  0.58170018  1
  Te2-  Te186  1  0.91636279  0.74734161  0.92108726  1
  Te2-  Te187  1  0.08227616  0.25041944  0.25059317  1
  Te2-  Te188  1  0.07912912  0.25154654  0.58359287  1
  Te2-  Te189  1  0.07923199  0.25242017  0.91874708  1
  Te2-  Te190  1  0.08354724  0.58336399  0.25734641  1
  Te2-  Te191  1  0.08549048  0.59046965  0.58436569  1
  Te2-  Te192  1  0.07430424  0.58645899  0.92089147  1
  Te2-  Te193  1  0.08806760  0.91692763  0.25123542  1
  Te2-  Te194  1  0.07785536  0.91784567  0.58603794  1
  Te2-  Te195  1  0.08116594  0.91957058  0.91796826  1
  Te2-  Te196  1  0.41229969  0.25033693  0.25489450  1
  Te2-  Te197  1  0.41301494  0.25082712  0.58497269  1
  Te2-  Te198  1  0.41057903  0.26041237  0.91919739  1
  Te2-  Te199  1  0.42016204  0.58953871  0.25589757  1
  Te2-  Te200  1  0.41232855  0.58252347  0.58376046  1
  Te2-  Te201  1  0.40900893  0.58717274  0.91960228  1
  Te2-  Te202  1  0.41215967  0.91578228  0.25430297  1
  Te2-  Te203  1  0.41671791  0.91771076  0.58682717  1
  Te2-  Te204  1  0.41253403  0.92401440  0.91551501  1
  Te2-  Te205  1  0.75067864  0.25118294  0.25870386  1
  Te2-  Te206  1  0.74527093  0.25238497  0.58769036  1
  Te2-  Te207  1  0.74162048  0.25308131  0.92127974  1
  Te2-  Te208  1  0.73883807  0.58594685  0.25307969  1
  Te2-  Te209  1  0.74997501  0.59132603  0.58824872  1
  Te2-  Te210  1  0.75089012  0.59242237  0.91942673  1
  Te2-  Te211  1  0.74725691  0.91853836  0.25788676  1
  Te2-  Te212  1  0.74878193  0.92104277  0.58309045  1
  Te2-  Te213  1  0.74846236  0.92184148  0.92104328  1
  Te2-  Te214  1  0.08476223  0.08184697  0.07916926  1
  Te2-  Te215  1  0.08161677  0.07855845  0.41150101  1
  Te2-  Te216  1  0.07785812  0.08035278  0.74727498  1
  Te2-  Te217  1  0.07944350  0.41364545  0.08497639  1
  Te2-  Te218  1  0.08510407  0.41760071  0.41301618  1
  Te2-  Te219  1  0.08176050  0.41577489  0.74760279  1
  Te2-  Te220  1  0.07908523  0.74204088  0.08115613  1
  Te2-  Te221  1  0.08250251  0.74752902  0.41262025  1
  Te2-  Te222  1  0.07963267  0.74830263  0.74674526  1
  Te2-  Te223  1  0.41224574  0.08006851  0.07443640  1
  Te2-  Te224  1  0.41286755  0.07834672  0.41424155  1
  Te2-  Te225  1  0.41153081  0.08459806  0.74981461  1
  Te2-  Te226  1  0.41715226  0.41545894  0.07844335  1
  Te2-  Te227  1  0.41329996  0.40794361  0.41339707  1
  Te2-  Te228  1  0.41575917  0.42072435  0.74669195  1
  Te2-  Te229  1  0.40991964  0.74381735  0.07710010  1
  Te2-  Te230  1  0.41836142  0.74531658  0.41471898  1
  Te2-  Te231  1  0.41955739  0.74645785  0.74954404  1
  Te2-  Te232  1  0.74600502  0.07796196  0.08309415  1
  Te2-  Te233  1  0.74133637  0.08453020  0.41246103  1
  Te2-  Te234  1  0.74695733  0.08215460  0.74982550  1
  Te2-  Te235  1  0.74492485  0.41252021  0.07972472  1
  Te2-  Te236  1  0.74820745  0.41785386  0.41393537  1
  Te2-  Te237  1  0.74295881  0.41433479  0.74700240  1
  Te2-  Te238  1  0.75234640  0.74617135  0.08490205  1
  Te2-  Te239  1  0.73556651  0.74194710  0.41098150  1
  Te2-  Te240  1  0.74779887  0.75155911  0.74665243  1
