# generated using pymatgen
data_Ti27(Cu53Te54)2
_symmetry_space_group_name_H-M   'P 1'
_cell_length_a   17.87668130
_cell_length_b   17.87461402
_cell_length_c   17.87350477
_cell_angle_alpha   90.01409288
_cell_angle_beta   89.99782954
_cell_angle_gamma   89.95413633
_symmetry_Int_Tables_number   1
_chemical_formula_structural   Ti27(Cu53Te54)2
_chemical_formula_sum   'Ti27 Cu106 Te108'
_cell_volume   5711.27587054
_cell_formula_units_Z   1
loop_
 _symmetry_equiv_pos_site_id
 _symmetry_equiv_pos_as_xyz
  1  'x, y, z'
loop_
 _atom_type_symbol
 _atom_type_oxidation_number
  Ti4+  4.0
  Cu+  1.0
  Te2-  -2.0
loop_
 _atom_site_type_symbol
 _atom_site_label
 _atom_site_symmetry_multiplicity
 _atom_site_fract_x
 _atom_site_fract_y
 _atom_site_fract_z
 _atom_site_occupancy
  Ti4+  Ti0  1  0.16538756  0.17012235  0.16488057  1
  Ti4+  Ti1  1  0.16822822  0.16547751  0.49668945  1
  Ti4+  Ti2  1  0.16914876  0.16371981  0.82898107  1
  Ti4+  Ti3  1  0.16785044  0.50170117  0.16822605  1
  Ti4+  Ti4  1  0.16654901  0.49970142  0.49938587  1
  Ti4+  Ti5  1  0.16803545  0.49852903  0.83439701  1
  Ti4+  Ti6  1  0.16797227  0.83668056  0.16667911  1
  Ti4+  Ti7  1  0.16388498  0.83379098  0.50120594  1
  Ti4+  Ti8  1  0.16771976  0.83733754  0.83439156  1
  Ti4+  Ti9  1  0.50076682  0.16777280  0.16565780  1
  Ti4+  Ti10  1  0.49940778  0.16404021  0.49759167  1
  Ti4+  Ti11  1  0.50244263  0.16780547  0.83436411  1
  Ti4+  Ti12  1  0.49896441  0.49999812  0.16595019  1
  Ti4+  Ti13  1  0.49949193  0.49449290  0.50202523  1
  Ti4+  Ti14  1  0.49802738  0.50129543  0.83082326  1
  Ti4+  Ti15  1  0.50149028  0.83229715  0.16739582  1
  Ti4+  Ti16  1  0.49681948  0.83173594  0.49785719  1
  Ti4+  Ti17  1  0.49971389  0.83448049  0.83018708  1
  Ti4+  Ti18  1  0.83414507  0.16502359  0.16734708  1
  Ti4+  Ti19  1  0.83277529  0.16563684  0.49924459  1
  Ti4+  Ti20  1  0.83442575  0.16392226  0.83592696  1
  Ti4+  Ti21  1  0.83234416  0.49915910  0.16676080  1
  Ti4+  Ti22  1  0.83159452  0.50180536  0.50282735  1
  Ti4+  Ti23  1  0.83587445  0.50029867  0.83287519  1
  Ti4+  Ti24  1  0.83411387  0.83238310  0.16919482  1
  Ti4+  Ti25  1  0.83142404  0.83074155  0.50005112  1
  Ti4+  Ti26  1  0.83050704  0.83668688  0.83419418  1
  Cu+  Cu27  1  0.17159800  0.16359114  -0.00235429  1
  Cu+  Cu28  1  0.16587074  0.17110059  0.32938008  1
  Cu+  Cu29  1  0.16547034  0.16352165  0.66013177  1
  Cu+  Cu30  1  0.17121252  0.50444520  0.00060026  1
  Cu+  Cu31  1  0.16372748  0.49710395  0.33276844  1
  Cu+  Cu32  1  0.16867541  0.49635479  0.66829232  1
  Cu+  Cu33  1  0.16964733  0.83607522  0.00323957  1
  Cu+  Cu34  1  0.16308389  0.83190164  0.33352662  1
  Cu+  Cu35  1  0.16717684  0.84068447  0.66787510  1
  Cu+  Cu36  1  0.50013324  0.17023862  0.00130886  1
  Cu+  Cu37  1  0.49892364  0.16503132  0.33329891  1
  Cu+  Cu38  1  0.50225786  0.16762525  0.66436374  1
  Cu+  Cu39  1  0.49517530  0.49820022  -0.00229870  1
  Cu+  Cu40  1  0.49419009  0.49802512  0.33480989  1
  Cu+  Cu41  1  0.50796695  0.49641130  0.66749441  1
  Cu+  Cu42  1  0.50135588  0.83260469  0.00002498  1
  Cu+  Cu43  1  0.49947983  0.83044722  0.33308094  1
  Cu+  Cu44  1  0.49660623  0.83134929  0.66480897  1
  Cu+  Cu45  1  0.82865950  0.16596667  0.00306270  1
  Cu+  Cu46  1  0.83294309  0.16421403  0.33407009  1
  Cu+  Cu47  1  0.83694491  0.16511524  0.66842749  1
  Cu+  Cu48  1  0.83522787  0.49856594  -0.00062061  1
  Cu+  Cu49  1  0.83058237  0.49915042  0.33664145  1
  Cu+  Cu50  1  0.83430646  0.50711764  0.66774385  1
  Cu+  Cu51  1  0.83819052  0.83503053  0.00276011  1
  Cu+  Cu52  1  0.82961675  0.82731178  0.33359241  1
  Cu+  Cu53  1  0.82753341  0.83564707  0.66702014  1
  Cu+  Cu54  1  0.16727211  0.00407623  0.16244681  1
  Cu+  Cu55  1  0.16622950  -0.00060256  0.50540158  1
  Cu+  Cu56  1  0.16072449  0.00063470  0.83150805  1
  Cu+  Cu57  1  0.16693467  0.33677494  0.17211435  1
  Cu+  Cu58  1  0.16748320  0.33263459  0.49600126  1
  Cu+  Cu59  1  0.17298870  0.33164074  0.82711920  1
  Cu+  Cu60  1  0.16568454  0.67102734  0.16836708  1
  Cu+  Cu61  1  0.16679719  0.66690669  0.49897180  1
  Cu+  Cu62  1  0.16879135  0.66786669  0.83810997  1
  Cu+  Cu63  1  0.50000340  -0.00106128  0.16570955  1
  Cu+  Cu64  1  0.49917804  -0.00018646  0.49734020  1
  Cu+  Cu65  1  0.50516387  -0.00036626  0.83458023  1
  Cu+  Cu66  1  0.50049440  0.33536924  0.16682675  1
  Cu+  Cu67  1  0.50254217  0.32553196  0.50334795  1
  Cu+  Cu68  1  0.49870197  0.33708005  0.83237970  1
  Cu+  Cu69  1  0.50189695  0.66553845  0.16494821  1
  Cu+  Cu70  1  0.49409249  0.66414508  0.49826627  1
  Cu+  Cu71  1  0.49731428  0.67143123  0.83112662  1
  Cu+  Cu72  1  0.83323602  0.00045969  0.17246334  1
  Cu+  Cu73  1  0.83380933  -0.00314539  0.49780617  1
  Cu+  Cu74  1  0.82898932  -0.00194943  0.83852413  1
  Cu+  Cu75  1  0.83371360  0.33082341  0.16193059  1
  Cu+  Cu76  1  0.83082171  0.33522072  0.50052362  1
  Cu+  Cu77  1  0.83860955  0.33207432  0.83461043  1
  Cu+  Cu78  1  0.83283297  0.66543537  0.16980096  1
  Cu+  Cu79  1  0.83747290  0.66510125  0.50454807  1
  Cu+  Cu80  1  0.83176316  0.66786548  0.83037141  1
  Cu+  Cu81  1  -0.00018001  0.16514340  0.16852356  1
  Cu+  Cu82  1  -0.00105021  0.16568586  0.49753536  1
  Cu+  Cu83  1  0.00251366  0.16205093  0.83538535  1
  Cu+  Cu84  1  -0.00069632  0.49848928  0.16891142  1
  Cu+  Cu85  1  -0.00242053  0.50275032  0.50328278  1
  Cu+  Cu86  1  0.00320148  0.49813865  0.83395353  1
  Cu+  Cu87  1  0.00296734  0.83268491  0.16898977  1
  Cu+  Cu88  1  -0.00491629  0.83054547  0.49825222  1
  Cu+  Cu89  1  -0.00065761  0.83847663  0.83379806  1
  Cu+  Cu90  1  0.33164332  0.17010210  0.16298258  1
  Cu+  Cu91  1  0.33544552  0.16437242  0.49352571  1
  Cu+  Cu92  1  0.33644120  0.16835723  0.82991117  1
  Cu+  Cu93  1  0.33412663  0.50153272  0.16498090  1
  Cu+  Cu94  1  0.33650729  0.49973964  0.49545256  1
  Cu+  Cu95  1  0.33011025  0.49789745  0.83693204  1
  Cu+  Cu96  1  0.33561187  0.83595053  0.16644408  1
  Cu+  Cu97  1  0.32843330  0.83426754  0.50176624  1
  Cu+  Cu98  1  0.33595724  0.83462879  0.83265932  1
  Cu+  Cu99  1  0.66883331  0.16815427  0.16566042  1
  Cu+  Cu100  1  0.66557871  0.16709734  0.49937468  1
  Cu+  Cu101  1  0.67107453  0.16315757  0.83782575  1
  Cu+  Cu102  1  0.66290778  0.49937795  0.16542311  1
  Cu+  Cu103  1  0.66321669  0.50011835  0.50657002  1
  Cu+  Cu104  1  0.67115447  0.50335656  0.82671725  1
  Cu+  Cu105  1  0.66952502  0.82896046  0.16841265  1
  Cu+  Cu106  1  0.66469200  0.83043824  0.49690099  1
  Cu+  Cu107  1  0.66180615  0.84239588  0.83208189  1
  Cu+  Cu108  1  0.59805738  0.25047701  0.59387036  1
  Cu+  Cu109  1  0.40453246  0.40544016  0.92789280  1
  Cu+  Cu110  1  0.74176376  0.59810331  0.74112913  1
  Cu+  Cu111  1  0.25972251  0.40432022  0.73402671  1
  Cu+  Cu112  1  0.73774970  0.73422858  0.26130697  1
  Cu+  Cu113  1  0.40656260  0.59325602  0.40477574  1
  Cu+  Cu114  1  0.60090938  0.40462554  0.74903742  1
  Cu+  Cu115  1  0.26066533  0.59825337  0.92833106  1
  Cu+  Cu116  1  0.06751729  0.40798287  0.26117276  1
  Cu+  Cu117  1  0.58431753  0.59769144  0.58855156  1
  Cu+  Cu118  1  0.73933703  0.07248859  0.93086155  1
  Cu+  Cu119  1  0.07846771  0.07381524  0.25975065  1
  Cu+  Cu120  1  0.26338420  0.26236343  0.25731606  1
  Cu+  Cu121  1  0.93285027  0.59526034  0.59662588  1
  Cu+  Cu122  1  0.73441233  0.93029010  0.73424731  1
  Cu+  Cu123  1  0.06864269  0.07665476  0.58800976  1
  Cu+  Cu124  1  0.06844608  0.92294877  0.73798087  1
  Cu+  Cu125  1  0.07537038  0.73945710  0.26194564  1
  Cu+  Cu126  1  0.73613025  0.07786433  0.26367632  1
  Cu+  Cu127  1  0.07706972  0.07754202  0.92825147  1
  Cu+  Cu128  1  0.58518489  0.92618230  0.93293378  1
  Cu+  Cu129  1  0.92781084  0.92332323  0.93150196  1
  Cu+  Cu130  1  0.26328716  0.92754668  0.59545957  1
  Cu+  Cu131  1  0.26401690  0.07544082  0.07153022  1
  Cu+  Cu132  1  0.73881838  0.26265250  0.07369362  1
  Te2-  Te133  1  0.24942302  0.25708509  0.07845178  1
  Te2-  Te134  1  0.25452333  0.25315852  0.41167077  1
  Te2-  Te135  1  0.25468108  0.24777760  0.74015427  1
  Te2-  Te136  1  0.25384358  0.59100869  0.08404411  1
  Te2-  Te137  1  0.25097266  0.58548220  0.41186749  1
  Te2-  Te138  1  0.25230572  0.58641812  0.74882821  1
  Te2-  Te139  1  0.25637450  0.92197611  0.08026839  1
  Te2-  Te140  1  0.24754248  0.91859973  0.41371740  1
  Te2-  Te141  1  0.25630071  0.92427433  0.75040601  1
  Te2-  Te142  1  0.58617033  0.25547725  0.08056753  1
  Te2-  Te143  1  0.58565020  0.25061072  0.41101048  1
  Te2-  Te144  1  0.59128019  0.25191936  0.74949809  1
  Te2-  Te145  1  0.58331880  0.58323336  0.07732705  1
  Te2-  Te146  1  0.58335530  0.58177763  0.41520866  1
  Te2-  Te147  1  0.58552483  0.59288615  0.74610815  1
  Te2-  Te148  1  0.58939738  0.91862457  0.08400464  1
  Te2-  Te149  1  0.58359020  0.91657063  0.41378229  1
  Te2-  Te150  1  0.58254996  0.92242360  0.73882026  1
  Te2-  Te151  1  0.92114008  0.24873950  0.07982697  1
  Te2-  Te152  1  0.91652776  0.25250963  0.41498624  1
  Te2-  Te153  1  0.92161746  0.24813511  0.75094809  1
  Te2-  Te154  1  0.91839689  0.58438833  0.08309257  1
  Te2-  Te155  1  0.91761110  0.58480590  0.41419804  1
  Te2-  Te156  1  0.92535131  0.58877941  0.75016568  1
  Te2-  Te157  1  0.92160794  0.92133488  0.08651017  1
  Te2-  Te158  1  0.91572783  0.91477083  0.41195379  1
  Te2-  Te159  1  0.91548149  0.92296774  0.74554113  1
  Te2-  Te160  1  0.25233522  0.08317700  0.25087654  1
  Te2-  Te161  1  0.25801507  0.08162404  0.58407800  1
  Te2-  Te162  1  0.25776060  0.07796563  0.91399620  1
  Te2-  Te163  1  0.25768854  0.41704536  0.25484525  1
  Te2-  Te164  1  0.25478313  0.41294921  0.58124936  1
  Te2-  Te165  1  0.25133558  0.40846214  0.92386013  1
  Te2-  Te166  1  0.25391411  0.75131603  0.25210076  1
  Te2-  Te167  1  0.24815356  0.74821416  0.58802406  1
  Te2-  Te168  1  0.25495343  0.75283909  0.92099761  1
  Te2-  Te169  1  0.58495165  0.08088905  0.25136324  1
  Te2-  Te170  1  0.58582488  0.07847674  0.58410243  1
  Te2-  Te171  1  0.58651122  0.08125131  0.92516297  1
  Te2-  Te172  1  0.58333227  0.41591974  0.25385529  1
  Te2-  Te173  1  0.59005224  0.40555037  0.58934574  1
  Te2-  Te174  1  0.58861461  0.41927102  0.91497067  1
  Te2-  Te175  1  0.58557534  0.74392273  0.25412888  1
  Te2-  Te176  1  0.58340190  0.74763360  0.58434647  1
  Te2-  Te177  1  0.58625569  0.74839630  0.91569471  1
  Te2-  Te178  1  0.92180878  0.07925452  0.25601152  1
  Te2-  Te179  1  0.91734784  0.07795532  0.58478741  1
  Te2-  Te180  1  0.92095857  0.07818746  0.92515968  1
  Te2-  Te181  1  0.91480747  0.41154488  0.25413974  1
  Te2-  Te182  1  0.91647827  0.41515232  0.58770650  1
  Te2-  Te183  1  0.92138983  0.41475149  0.91887544  1
  Te2-  Te184  1  0.92132071  0.74554442  0.25430925  1
  Te2-  Te185  1  0.91875520  0.74963480  0.59151363  1
  Te2-  Te186  1  0.91809557  0.74879655  0.91583275  1
  Te2-  Te187  1  0.07532370  0.25554893  0.25300810  1
  Te2-  Te188  1  0.08189481  0.25229282  0.58113510  1
  Te2-  Te189  1  0.08715092  0.25129151  0.91508325  1
  Te2-  Te190  1  0.07978824  0.58703411  0.25388519  1
  Te2-  Te191  1  0.08487279  0.58605231  0.58870516  1
  Te2-  Te192  1  0.08113812  0.58507937  0.91947679  1
  Te2-  Te193  1  0.08121281  0.92290994  0.25277668  1
  Te2-  Te194  1  0.07131409  0.91990251  0.58552618  1
  Te2-  Te195  1  0.08068043  0.92186654  0.92653142  1
  Te2-  Te196  1  0.41550401  0.25308166  0.25185389  1
  Te2-  Te197  1  0.41110091  0.24829344  0.58436125  1
  Te2-  Te198  1  0.41428062  0.25298325  0.91881521  1
  Te2-  Te199  1  0.41305668  0.58793947  0.25129482  1
  Te2-  Te200  1  0.41470994  0.58050475  0.58965588  1
  Te2-  Te201  1  0.41396418  0.58958880  0.91780475  1
  Te2-  Te202  1  0.41658171  0.91860923  0.25290284  1
  Te2-  Te203  1  0.41442897  0.92029064  0.58479908  1
  Te2-  Te204  1  0.41595805  0.92008424  0.91875728  1
  Te2-  Te205  1  0.74974676  0.25287506  0.25318868  1
  Te2-  Te206  1  0.75028024  0.25114359  0.58838910  1
  Te2-  Te207  1  0.74876864  0.25585483  0.91871450  1
  Te2-  Te208  1  0.74455738  0.58253018  0.25353036  1
  Te2-  Te209  1  0.74209290  0.59164151  0.58889222  1
  Te2-  Te210  1  0.74935796  0.58518387  0.91876442  1
  Te2-  Te211  1  0.74612831  0.91858360  0.25542933  1
  Te2-  Te212  1  0.74333536  0.91968657  0.58153388  1
  Te2-  Te213  1  0.74251928  0.91892517  0.92806918  1
  Te2-  Te214  1  0.07763287  0.08207768  0.07869387  1
  Te2-  Te215  1  0.08162876  0.07915399  0.41204949  1
  Te2-  Te216  1  0.07699056  0.07923264  0.74130484  1
  Te2-  Te217  1  0.08445776  0.41700012  0.08087666  1
  Te2-  Te218  1  0.07664897  0.41438936  0.41665012  1
  Te2-  Te219  1  0.08148373  0.41223178  0.74817059  1
  Te2-  Te220  1  0.08256562  0.75050174  0.07973110  1
  Te2-  Te221  1  0.07800543  0.74541495  0.41586311  1
  Te2-  Te222  1  0.08347593  0.75036629  0.75084405  1
  Te2-  Te223  1  0.41561665  0.08144025  0.07948751  1
  Te2-  Te224  1  0.41440863  0.07768909  0.41041438  1
  Te2-  Te225  1  0.42022424  0.08170398  0.74846773  1
  Te2-  Te226  1  0.41176174  0.41194435  0.08115025  1
  Te2-  Te227  1  0.41640494  0.40634462  0.41691997  1
  Te2-  Te228  1  0.41161099  0.41512307  0.74380291  1
  Te2-  Te229  1  0.41575045  0.74859160  0.08118361  1
  Te2-  Te230  1  0.40823577  0.74765114  0.41312925  1
  Te2-  Te231  1  0.41147305  0.74868531  0.74549681  1
  Te2-  Te232  1  0.74599232  0.07510002  0.08307751  1
  Te2-  Te233  1  0.74509159  0.07861318  0.41581741  1
  Te2-  Te234  1  0.74795190  0.08075131  0.74564551  1
  Te2-  Te235  1  0.74582085  0.41551497  0.07906604  1
  Te2-  Te236  1  0.74409224  0.41684617  0.41845759  1
  Te2-  Te237  1  0.75376155  0.41045045  0.74517915  1
  Te2-  Te238  1  0.75178040  0.74724811  0.07988990  1
  Te2-  Te239  1  0.74623135  0.74083186  0.41690824  1
  Te2-  Te240  1  0.74250938  0.75129056  0.74880791  1
