# generated using pymatgen
data_Ti27(Cu53Te54)2
_symmetry_space_group_name_H-M   'P 1'
_cell_length_a   17.90060825
_cell_length_b   17.89727771
_cell_length_c   17.90144972
_cell_angle_alpha   90.00884981
_cell_angle_beta   89.95602498
_cell_angle_gamma   90.00101202
_symmetry_Int_Tables_number   1
_chemical_formula_structural   Ti27(Cu53Te54)2
_chemical_formula_sum   'Ti27 Cu106 Te108'
_cell_volume   5735.12430186
_cell_formula_units_Z   1
loop_
 _symmetry_equiv_pos_site_id
 _symmetry_equiv_pos_as_xyz
  1  'x, y, z'
loop_
 _atom_type_symbol
 _atom_type_oxidation_number
  Ti4+  4.0
  Cu+  1.0
  Te2-  -2.0
loop_
 _atom_site_type_symbol
 _atom_site_label
 _atom_site_symmetry_multiplicity
 _atom_site_fract_x
 _atom_site_fract_y
 _atom_site_fract_z
 _atom_site_occupancy
  Ti4+  Ti0  1  0.17155311  0.16421479  0.16699008  1
  Ti4+  Ti1  1  0.16500525  0.16510275  0.49952282  1
  Ti4+  Ti2  1  0.16313376  0.16535234  0.83250574  1
  Ti4+  Ti3  1  0.16654417  0.49842452  0.16588275  1
  Ti4+  Ti4  1  0.16810554  0.50170349  0.49815918  1
  Ti4+  Ti5  1  0.16849187  0.49605956  0.83125106  1
  Ti4+  Ti6  1  0.16464772  0.83275287  0.16496517  1
  Ti4+  Ti7  1  0.16482558  0.83131835  0.50129515  1
  Ti4+  Ti8  1  0.16508612  0.83462634  0.83319834  1
  Ti4+  Ti9  1  0.50221164  0.16848565  0.16913676  1
  Ti4+  Ti10  1  0.50148222  0.16384387  0.49900019  1
  Ti4+  Ti11  1  0.50123480  0.17087916  0.83162268  1
  Ti4+  Ti12  1  0.49793806  0.50197938  0.16448531  1
  Ti4+  Ti13  1  0.49781099  0.49933743  0.50032588  1
  Ti4+  Ti14  1  0.49569940  0.50814356  0.83578088  1
  Ti4+  Ti15  1  0.49997954  0.83432062  0.16703329  1
  Ti4+  Ti16  1  0.50146799  0.83142411  0.49919721  1
  Ti4+  Ti17  1  0.50235968  0.83710221  0.83315225  1
  Ti4+  Ti18  1  0.83540146  0.16816570  0.16727606  1
  Ti4+  Ti19  1  0.83360645  0.16501872  0.50195954  1
  Ti4+  Ti20  1  0.83279161  0.16734019  0.83462316  1
  Ti4+  Ti21  1  0.83225454  0.49828849  0.16485953  1
  Ti4+  Ti22  1  0.83482052  0.49672506  0.49748432  1
  Ti4+  Ti23  1  0.83618335  0.49870833  0.82843628  1
  Ti4+  Ti24  1  0.83320195  0.83251302  0.16780293  1
  Ti4+  Ti25  1  0.83450978  0.82987673  0.50152611  1
  Ti4+  Ti26  1  0.83160417  0.83427641  0.83645378  1
  Cu+  Cu27  1  0.16498586  0.16739009  0.00157229  1
  Cu+  Cu28  1  0.16930441  0.16362470  0.33395422  1
  Cu+  Cu29  1  0.15910849  0.16029565  0.66347862  1
  Cu+  Cu30  1  0.16727388  0.49668652  -0.00201875  1
  Cu+  Cu31  1  0.16595276  0.49957463  0.33139302  1
  Cu+  Cu32  1  0.17078220  0.50042976  0.66298587  1
  Cu+  Cu33  1  0.16256173  0.83270486  0.00062523  1
  Cu+  Cu34  1  0.16382192  0.83243508  0.33355884  1
  Cu+  Cu35  1  0.16520318  0.83400538  0.66818354  1
  Cu+  Cu36  1  0.50415887  0.17261974  0.00055406  1
  Cu+  Cu37  1  0.49722891  0.16562202  0.33583363  1
  Cu+  Cu38  1  0.50439557  0.16724953  0.66273031  1
  Cu+  Cu39  1  0.49135236  0.50588586  -0.00012627  1
  Cu+  Cu40  1  0.49468919  0.50130482  0.33354514  1
  Cu+  Cu41  1  0.49804205  0.50132813  0.67164197  1
  Cu+  Cu42  1  0.50315162  0.83356561  0.00158850  1
  Cu+  Cu43  1  0.50132167  0.83153529  0.33417420  1
  Cu+  Cu44  1  0.50439352  0.83477516  0.66501190  1
  Cu+  Cu45  1  0.83240945  0.17156869  0.00109221  1
  Cu+  Cu46  1  0.83477238  0.16577021  0.33574911  1
  Cu+  Cu47  1  0.83024500  0.16533286  0.66975974  1
  Cu+  Cu48  1  0.83267329  0.49931192  -0.00229433  1
  Cu+  Cu49  1  0.83170333  0.49605721  0.32899449  1
  Cu+  Cu50  1  0.84075665  0.49585051  0.66205114  1
  Cu+  Cu51  1  0.83280602  0.83403971  0.00097640  1
  Cu+  Cu52  1  0.83376245  0.82948053  0.33414337  1
  Cu+  Cu53  1  0.83454301  0.83112061  0.67173125  1
  Cu+  Cu54  1  0.17170043  -0.00398855  0.16949925  1
  Cu+  Cu55  1  0.16132604  0.00059402  0.50174382  1
  Cu+  Cu56  1  0.16381621  -0.00039867  0.83306116  1
  Cu+  Cu57  1  0.17039233  0.33184533  0.16298961  1
  Cu+  Cu58  1  0.16646613  0.33510963  0.49897691  1
  Cu+  Cu59  1  0.16948015  0.32684298  0.83205165  1
  Cu+  Cu60  1  0.16294768  0.66844136  0.16629066  1
  Cu+  Cu61  1  0.17100941  0.66576961  0.50206715  1
  Cu+  Cu62  1  0.16444708  0.66449143  0.83174820  1
  Cu+  Cu63  1  0.50132707  0.00262563  0.17125499  1
  Cu+  Cu64  1  0.50513277  -0.00464157  0.49861876  1
  Cu+  Cu65  1  0.50306684  0.00382364  0.83321731  1
  Cu+  Cu66  1  0.49604990  0.33567583  0.16857438  1
  Cu+  Cu67  1  0.50004258  0.32753631  0.49976165  1
  Cu+  Cu68  1  0.50035910  0.34505997  0.83153293  1
  Cu+  Cu69  1  0.50237525  0.67001411  0.15837246  1
  Cu+  Cu70  1  0.49837822  0.66585717  0.49723542  1
  Cu+  Cu71  1  0.49584653  0.67643761  0.83815727  1
  Cu+  Cu72  1  0.83386587  0.00012380  0.16993167  1
  Cu+  Cu73  1  0.83310338  -0.00366725  0.50355297  1
  Cu+  Cu74  1  0.83139905  -0.00017178  0.83729408  1
  Cu+  Cu75  1  0.83068331  0.33437358  0.16291794  1
  Cu+  Cu76  1  0.83153785  0.32925772  0.49564641  1
  Cu+  Cu77  1  0.83767459  0.33350296  0.82828218  1
  Cu+  Cu78  1  0.83291565  0.66250822  0.16712086  1
  Cu+  Cu79  1  0.83896605  0.66288991  0.49888001  1
  Cu+  Cu80  1  0.83608337  0.67010886  0.82953139  1
  Cu+  Cu81  1  0.00497187  0.16525464  0.16593103  1
  Cu+  Cu82  1  0.00113019  0.16131906  0.50518853  1
  Cu+  Cu83  1  -0.00484153  0.16759560  0.83935686  1
  Cu+  Cu84  1  -0.00270070  0.49711822  0.16488571  1
  Cu+  Cu85  1  0.00069906  0.50209568  0.50041735  1
  Cu+  Cu86  1  0.00291729  0.49178828  0.82413542  1
  Cu+  Cu87  1  -0.00015439  0.83293041  0.16643849  1
  Cu+  Cu88  1  -0.00213188  0.82790692  0.49649105  1
  Cu+  Cu89  1  -0.00211848  0.83344391  0.83490811  1
  Cu+  Cu90  1  0.34095625  0.16204945  0.16836722  1
  Cu+  Cu91  1  0.33105857  0.16290186  0.49715039  1
  Cu+  Cu92  1  0.33090752  0.16679601  0.83057406  1
  Cu+  Cu93  1  0.33462551  0.50045614  0.16784272  1
  Cu+  Cu94  1  0.33298736  0.50700663  0.49796765  1
  Cu+  Cu95  1  0.32972055  0.50571850  0.84298539  1
  Cu+  Cu96  1  0.32624134  0.83856278  0.17040509  1
  Cu+  Cu97  1  0.33466885  0.83326048  0.50098349  1
  Cu+  Cu98  1  0.33457353  0.83768934  0.83158833  1
  Cu+  Cu99  1  0.66862120  0.16975218  0.16685621  1
  Cu+  Cu100  1  0.66817513  0.16719002  0.49862852  1
  Cu+  Cu101  1  0.66890494  0.17283200  0.83091863  1
  Cu+  Cu102  1  0.66593324  0.49931930  0.16535607  1
  Cu+  Cu103  1  0.66749581  0.49602566  0.50144053  1
  Cu+  Cu104  1  0.66454832  0.50524792  0.83088607  1
  Cu+  Cu105  1  0.66667315  0.83246210  0.16602154  1
  Cu+  Cu106  1  0.66833011  0.82948358  0.50150097  1
  Cu+  Cu107  1  0.66849586  0.83869377  0.83430287  1
  Cu+  Cu108  1  0.40144783  0.25614592  0.41427106  1
  Cu+  Cu109  1  0.41148016  0.25568262  0.07493608  1
  Cu+  Cu110  1  0.41241548  0.07020058  0.26389931  1
  Cu+  Cu111  1  0.06863387  0.06704817  0.59604867  1
  Cu+  Cu112  1  0.74467668  0.26142268  0.74067319  1
  Cu+  Cu113  1  0.40623259  0.41053834  0.26194062  1
  Cu+  Cu114  1  0.92592320  0.73705106  0.40116010  1
  Cu+  Cu115  1  0.92841019  0.59222137  0.59094634  1
  Cu+  Cu116  1  0.93395532  0.40058169  0.73155820  1
  Cu+  Cu117  1  0.40176674  0.59947693  0.08022998  1
  Cu+  Cu118  1  0.24350657  0.59777680  0.92987012  1
  Cu+  Cu119  1  0.40729123  0.41013290  0.92293412  1
  Cu+  Cu120  1  0.25971650  0.24919572  0.92574608  1
  Cu+  Cu121  1  0.40117051  0.76066785  0.93071318  1
  Cu+  Cu122  1  0.74250435  0.25656608  0.40420957  1
  Cu+  Cu123  1  0.25388333  0.92298602  0.26712388  1
  Cu+  Cu124  1  0.07581808  0.25955080  0.07932004  1
  Cu+  Cu125  1  0.59936562  0.74205074  0.07129272  1
  Cu+  Cu126  1  0.40618568  0.59797885  0.40553107  1
  Cu+  Cu127  1  0.59482118  0.25761680  0.58829458  1
  Cu+  Cu128  1  0.26368726  0.59565528  0.59534708  1
  Cu+  Cu129  1  0.92135144  0.26374695  0.92856841  1
  Cu+  Cu130  1  0.73913757  0.26029379  0.07329932  1
  Cu+  Cu131  1  0.59190277  0.41920718  0.74246411  1
  Cu+  Cu132  1  0.92933230  0.74535216  0.74481370  1
  Te2-  Te133  1  0.25986369  0.25153426  0.08033378  1
  Te2-  Te134  1  0.25052523  0.25329517  0.41293645  1
  Te2-  Te135  1  0.24802756  0.24599949  0.74135782  1
  Te2-  Te136  1  0.25058777  0.58859088  0.08055933  1
  Te2-  Te137  1  0.25187145  0.58868964  0.40767917  1
  Te2-  Te138  1  0.25364456  0.58646361  0.74749509  1
  Te2-  Te139  1  0.25073681  0.91842928  0.07654321  1
  Te2-  Te140  1  0.25029167  0.91900996  0.41850231  1
  Te2-  Te141  1  0.25053231  0.92010575  0.74820984  1
  Te2-  Te142  1  0.58701259  0.25835883  0.08320479  1
  Te2-  Te143  1  0.58782819  0.25261356  0.41039623  1
  Te2-  Te144  1  0.58699788  0.26065773  0.74456249  1
  Te2-  Te145  1  0.58768024  0.58447826  0.07682974  1
  Te2-  Te146  1  0.58566473  0.58138558  0.41549470  1
  Te2-  Te147  1  0.58087056  0.59319837  0.74966154  1
  Te2-  Te148  1  0.58503728  0.92178029  0.08401671  1
  Te2-  Te149  1  0.58965734  0.91445947  0.41362611  1
  Te2-  Te150  1  0.58733102  0.92180081  0.74749950  1
  Te2-  Te151  1  0.92408228  0.25630975  0.08114059  1
  Te2-  Te152  1  0.92272713  0.24768367  0.41749436  1
  Te2-  Te153  1  0.92344362  0.24960187  0.74314039  1
  Te2-  Te154  1  0.91795579  0.58342510  0.07945993  1
  Te2-  Te155  1  0.92040315  0.58107650  0.40796945  1
  Te2-  Te156  1  0.92448124  0.58708287  0.74456058  1
  Te2-  Te157  1  0.91761604  0.91866739  0.08319374  1
  Te2-  Te158  1  0.91770350  0.91783214  0.41533012  1
  Te2-  Te159  1  0.91742345  0.92126333  0.75056203  1
  Te2-  Te160  1  0.25746003  0.07785988  0.25620475  1
  Te2-  Te161  1  0.25154526  0.07929621  0.58483016  1
  Te2-  Te162  1  0.25015519  0.08114702  0.91796094  1
  Te2-  Te163  1  0.25258581  0.41288863  0.25260096  1
  Te2-  Te164  1  0.25511122  0.41504198  0.58146397  1
  Te2-  Te165  1  0.25274143  0.40712326  0.92155803  1
  Te2-  Te166  1  0.24966893  0.74621634  0.25270992  1
  Te2-  Te167  1  0.25385793  0.74966075  0.58843951  1
  Te2-  Te168  1  0.25055938  0.74855917  0.92093078  1
  Te2-  Te169  1  0.58895470  0.08422472  0.25439590  1
  Te2-  Te170  1  0.58860240  0.07859698  0.58373324  1
  Te2-  Te171  1  0.58731068  0.08838882  0.91730462  1
  Te2-  Te172  1  0.58277294  0.41747799  0.25153941  1
  Te2-  Te173  1  0.58456582  0.41308572  0.58787003  1
  Te2-  Te174  1  0.58407961  0.42310430  0.92131959  1
  Te2-  Te175  1  0.58432752  0.74680892  0.25100051  1
  Te2-  Te176  1  0.58511117  0.74458108  0.58420871  1
  Te2-  Te177  1  0.59090777  0.74953619  0.91912453  1
  Te2-  Te178  1  0.92064574  0.08314737  0.25200376  1
  Te2-  Te179  1  0.91602405  0.07755845  0.59045675  1
  Te2-  Te180  1  0.91556391  0.08080413  0.92297058  1
  Te2-  Te181  1  0.91769285  0.41128414  0.24958774  1
  Te2-  Te182  1  0.92286944  0.40684839  0.57970404  1
  Te2-  Te183  1  0.92141221  0.41542871  0.91843545  1
  Te2-  Te184  1  0.92040192  0.74416903  0.25024499  1
  Te2-  Te185  1  0.92285996  0.74456967  0.59066192  1
  Te2-  Te186  1  0.91837233  0.74739701  0.92156695  1
  Te2-  Te187  1  0.08663994  0.25078855  0.25186343  1
  Te2-  Te188  1  0.08121169  0.25397512  0.58398198  1
  Te2-  Te189  1  0.07749455  0.25557072  0.92125675  1
  Te2-  Te190  1  0.08008185  0.58265670  0.24895000  1
  Te2-  Te191  1  0.08177208  0.58717589  0.58694289  1
  Te2-  Te192  1  0.07926443  0.57950109  0.91507773  1
  Te2-  Te193  1  0.07939046  0.91884970  0.25228587  1
  Te2-  Te194  1  0.07629660  0.91484927  0.58615131  1
  Te2-  Te195  1  0.07929657  0.91833262  0.91885006  1
  Te2-  Te196  1  0.41063343  0.25566856  0.25811679  1
  Te2-  Te197  1  0.41171756  0.24821551  0.58461143  1
  Te2-  Te198  1  0.41331169  0.25726359  0.91871010  1
  Te2-  Te199  1  0.41400721  0.59266514  0.24985959  1
  Te2-  Te200  1  0.41582098  0.58767738  0.58905734  1
  Te2-  Te201  1  0.40712368  0.59918130  0.92450816  1
  Te2-  Te202  1  0.41311512  0.91886380  0.25667468  1
  Te2-  Te203  1  0.41731892  0.91830095  0.58464056  1
  Te2-  Te204  1  0.41703122  0.92277944  0.91979458  1
  Te2-  Te205  1  0.74883753  0.25427927  0.25403420  1
  Te2-  Te206  1  0.74696648  0.25541019  0.58902238  1
  Te2-  Te207  1  0.74656068  0.25899975  0.91904582  1
  Te2-  Te208  1  0.74632484  0.58311727  0.25131639  1
  Te2-  Te209  1  0.75044022  0.58183299  0.58415317  1
  Te2-  Te210  1  0.75213895  0.58517079  0.91291889  1
  Te2-  Te211  1  0.74829416  0.91658305  0.25345489  1
  Te2-  Te212  1  0.74898653  0.91398209  0.58794697  1
  Te2-  Te213  1  0.74702403  0.92063475  0.92320520  1
  Te2-  Te214  1  0.08607648  0.07701504  0.08387365  1
  Te2-  Te215  1  0.07961868  0.08043677  0.41189017  1
  Te2-  Te216  1  0.07373326  0.07874373  0.75093662  1
  Te2-  Te217  1  0.08072881  0.41338778  0.07923870  1
  Te2-  Te218  1  0.08145466  0.41628367  0.41423743  1
  Te2-  Te219  1  0.08776451  0.40834703  0.74118500  1
  Te2-  Te220  1  0.07792864  0.74680865  0.07991508  1
  Te2-  Te221  1  0.08266540  0.74301662  0.41398064  1
  Te2-  Te222  1  0.08103724  0.74620034  0.74750169  1
  Te2-  Te223  1  0.42108392  0.08142492  0.07844922  1
  Te2-  Te224  1  0.41437900  0.07384099  0.41607942  1
  Te2-  Te225  1  0.41791555  0.08521521  0.74770730  1
  Te2-  Te226  1  0.40886334  0.41195666  0.07723169  1
  Te2-  Te227  1  0.40999379  0.41116697  0.41582214  1
  Te2-  Te228  1  0.40676124  0.42150204  0.75116304  1
  Te2-  Te229  1  0.40572366  0.75261089  0.08206257  1
  Te2-  Te230  1  0.41183278  0.74830845  0.41213354  1
  Te2-  Te231  1  0.41593704  0.75288081  0.74556305  1
  Te2-  Te232  1  0.74949949  0.08235836  0.08290056  1
  Te2-  Te233  1  0.75000013  0.07803081  0.41656685  1
  Te2-  Te234  1  0.74630854  0.07973488  0.75068173  1
  Te2-  Te235  1  0.74440274  0.41451648  0.07633061  1
  Te2-  Te236  1  0.74577525  0.41232448  0.41191967  1
  Te2-  Te237  1  0.74556616  0.41553051  0.74224827  1
  Te2-  Te238  1  0.74975939  0.74516644  0.08069563  1
  Te2-  Te239  1  0.74909974  0.74358240  0.41663657  1
  Te2-  Te240  1  0.74448286  0.74890018  0.74954982  1
