# generated using pymatgen
data_Ti27(Cu53Te54)2
_symmetry_space_group_name_H-M   'P 1'
_cell_length_a   17.86575270
_cell_length_b   17.86651646
_cell_length_c   17.86769398
_cell_angle_alpha   89.99245867
_cell_angle_beta   89.99273593
_cell_angle_gamma   89.98748053
_symmetry_Int_Tables_number   1
_chemical_formula_structural   Ti27(Cu53Te54)2
_chemical_formula_sum   'Ti27 Cu106 Te108'
_cell_volume   5703.34561578
_cell_formula_units_Z   1
loop_
 _symmetry_equiv_pos_site_id
 _symmetry_equiv_pos_as_xyz
  1  'x, y, z'
loop_
 _atom_type_symbol
 _atom_type_oxidation_number
  Ti4+  4.0
  Cu+  1.0
  Te2-  -2.0
loop_
 _atom_site_type_symbol
 _atom_site_label
 _atom_site_symmetry_multiplicity
 _atom_site_fract_x
 _atom_site_fract_y
 _atom_site_fract_z
 _atom_site_occupancy
  Ti4+  Ti0  1  0.16724343  0.16679014  0.16385694  1
  Ti4+  Ti1  1  0.16715018  0.16630883  0.49983805  1
  Ti4+  Ti2  1  0.16761177  0.16557341  0.83154176  1
  Ti4+  Ti3  1  0.16892399  0.49856466  0.16659942  1
  Ti4+  Ti4  1  0.16647491  0.50046476  0.49918183  1
  Ti4+  Ti5  1  0.16733807  0.50066219  0.83225807  1
  Ti4+  Ti6  1  0.16789660  0.83559187  0.16722456  1
  Ti4+  Ti7  1  0.16589734  0.83133872  0.49997897  1
  Ti4+  Ti8  1  0.16512106  0.83516507  0.83195762  1
  Ti4+  Ti9  1  0.50128006  0.16633532  0.16730000  1
  Ti4+  Ti10  1  0.50133974  0.16492965  0.50155489  1
  Ti4+  Ti11  1  0.50115069  0.17088556  0.83430760  1
  Ti4+  Ti12  1  0.49889487  0.50081131  0.16814650  1
  Ti4+  Ti13  1  0.49742824  0.50200096  0.49842491  1
  Ti4+  Ti14  1  0.49925414  0.50063519  0.83241332  1
  Ti4+  Ti15  1  0.49990655  0.83001605  0.16874745  1
  Ti4+  Ti16  1  0.49924346  0.83269538  0.50333524  1
  Ti4+  Ti17  1  0.49941218  0.83390651  0.83771433  1
  Ti4+  Ti18  1  0.83373479  0.16549681  0.17028668  1
  Ti4+  Ti19  1  0.83322291  0.16802146  0.50116535  1
  Ti4+  Ti20  1  0.83115187  0.16769268  0.83398605  1
  Ti4+  Ti21  1  0.83351920  0.49508879  0.16620410  1
  Ti4+  Ti22  1  0.83210671  0.50242248  0.49801597  1
  Ti4+  Ti23  1  0.83333066  0.50038793  0.82987589  1
  Ti4+  Ti24  1  0.83408432  0.83009872  0.16637630  1
  Ti4+  Ti25  1  0.83314565  0.83286359  0.49789987  1
  Ti4+  Ti26  1  0.83413197  0.83613305  0.83207021  1
  Cu+  Cu27  1  0.16556568  0.16505422  -0.00560082  1
  Cu+  Cu28  1  0.16725091  0.16511615  0.33139825  1
  Cu+  Cu29  1  0.16517308  0.16601680  0.66552612  1
  Cu+  Cu30  1  0.16568090  0.50043664  -0.00057981  1
  Cu+  Cu31  1  0.17290005  0.50022329  0.33156812  1
  Cu+  Cu32  1  0.17094492  0.49948009  0.66859971  1
  Cu+  Cu33  1  0.16756178  0.83623189  0.00072484  1
  Cu+  Cu34  1  0.16444190  0.83218260  0.33496271  1
  Cu+  Cu35  1  0.16729082  0.83725169  0.66405894  1
  Cu+  Cu36  1  0.49888149  0.17036206  0.00000671  1
  Cu+  Cu37  1  0.50439538  0.16390632  0.33591371  1
  Cu+  Cu38  1  0.50075118  0.16726810  0.66810995  1
  Cu+  Cu39  1  0.49866139  0.50488376  0.00116274  1
  Cu+  Cu40  1  0.49328295  0.49692781  0.33055084  1
  Cu+  Cu41  1  0.50041352  0.50446623  0.66443110  1
  Cu+  Cu42  1  0.50041243  0.83223138  0.00485621  1
  Cu+  Cu43  1  0.50157952  0.82786925  0.33679175  1
  Cu+  Cu44  1  0.49819210  0.83395765  0.67302530  1
  Cu+  Cu45  1  0.83178913  0.16874664  0.00592130  1
  Cu+  Cu46  1  0.83601119  0.16610857  0.33587345  1
  Cu+  Cu47  1  0.82774101  0.16691690  0.66627990  1
  Cu+  Cu48  1  0.83266296  0.49482848  -0.00424109  1
  Cu+  Cu49  1  0.83334678  0.49182242  0.33278969  1
  Cu+  Cu50  1  0.83386692  0.50712724  0.66360862  1
  Cu+  Cu51  1  0.83098174  0.83050872  -0.00298632  1
  Cu+  Cu52  1  0.83894472  0.83176740  0.33115590  1
  Cu+  Cu53  1  0.83256985  0.83625047  0.66721259  1
  Cu+  Cu54  1  0.16608173  0.00329036  0.16498782  1
  Cu+  Cu55  1  0.16717701  -0.00082368  0.50115669  1
  Cu+  Cu56  1  0.16509515  -0.00008782  0.83687738  1
  Cu+  Cu57  1  0.16552342  0.33179836  0.16421817  1
  Cu+  Cu58  1  0.16603639  0.33218381  0.49572752  1
  Cu+  Cu59  1  0.17175880  0.33484003  0.82937383  1
  Cu+  Cu60  1  0.16965798  0.66963274  0.16925227  1
  Cu+  Cu61  1  0.16538342  0.66437559  0.50472751  1
  Cu+  Cu62  1  0.16275077  0.66924865  0.83121338  1
  Cu+  Cu63  1  0.49938228  -0.00145317  0.17008900  1
  Cu+  Cu64  1  0.49943176  -0.00114834  0.50225556  1
  Cu+  Cu65  1  0.50157209  0.00461337  0.83728275  1
  Cu+  Cu66  1  0.49634531  0.33179858  0.16685960  1
  Cu+  Cu67  1  0.49999539  0.33072436  0.49899549  1
  Cu+  Cu68  1  0.50129276  0.33723924  0.83223451  1
  Cu+  Cu69  1  0.50069645  0.66443160  0.16021811  1
  Cu+  Cu70  1  0.50373429  0.66776541  0.50071479  1
  Cu+  Cu71  1  0.49851317  0.66653082  0.83413842  1
  Cu+  Cu72  1  0.83620000  -0.00390316  0.17191364  1
  Cu+  Cu73  1  0.83105825  0.00221946  0.50331358  1
  Cu+  Cu74  1  0.83574071  0.00000588  0.83372902  1
  Cu+  Cu75  1  0.82741134  0.33085151  0.17087987  1
  Cu+  Cu76  1  0.83435410  0.33637829  0.49549606  1
  Cu+  Cu77  1  0.82810704  0.33353007  0.82937011  1
  Cu+  Cu78  1  0.83495787  0.65952675  0.16462314  1
  Cu+  Cu79  1  0.83819442  0.66823005  0.49750470  1
  Cu+  Cu80  1  0.83326540  0.67027428  0.83225557  1
  Cu+  Cu81  1  0.00028063  0.16591846  0.16666329  1
  Cu+  Cu82  1  0.00204658  0.16748520  0.50068624  1
  Cu+  Cu83  1  -0.00025799  0.16307588  0.83443702  1
  Cu+  Cu84  1  0.00178869  0.49869049  0.16555099  1
  Cu+  Cu85  1  -0.00304214  0.50086045  0.49883738  1
  Cu+  Cu86  1  0.00144039  0.50161171  0.83120870  1
  Cu+  Cu87  1  0.00099776  0.83627802  0.16907034  1
  Cu+  Cu88  1  -0.00068470  0.82875255  0.49377185  1
  Cu+  Cu89  1  -0.00119541  0.83533009  0.82776687  1
  Cu+  Cu90  1  0.33455024  0.16913546  0.16332560  1
  Cu+  Cu91  1  0.33633291  0.16562515  0.49971493  1
  Cu+  Cu92  1  0.33365136  0.17149491  0.83637248  1
  Cu+  Cu93  1  0.33341521  0.50470330  0.17286026  1
  Cu+  Cu94  1  0.32989991  0.50050087  0.49776373  1
  Cu+  Cu95  1  0.33287765  0.49662471  0.82810799  1
  Cu+  Cu96  1  0.33684630  0.83651030  0.16573543  1
  Cu+  Cu97  1  0.33246616  0.83550344  0.50505670  1
  Cu+  Cu98  1  0.33115969  0.83712866  0.83720156  1
  Cu+  Cu99  1  0.66752788  0.16636071  0.16626245  1
  Cu+  Cu100  1  0.66766703  0.16338709  0.50488452  1
  Cu+  Cu101  1  0.66619270  0.17188746  0.82915213  1
  Cu+  Cu102  1  0.66845416  0.49420819  0.17184568  1
  Cu+  Cu103  1  0.66222923  0.50712843  0.50086881  1
  Cu+  Cu104  1  0.66691687  0.49799644  0.83355371  1
  Cu+  Cu105  1  0.66654417  0.82600299  0.16590630  1
  Cu+  Cu106  1  0.66447759  0.82893526  0.49814706  1
  Cu+  Cu107  1  0.66798219  0.83322046  0.83727328  1
  Cu+  Cu108  1  0.59434276  0.73749201  0.07285853  1
  Cu+  Cu109  1  0.26022498  0.60153533  0.26134133  1
  Cu+  Cu110  1  0.93038182  0.92753219  0.26193892  1
  Cu+  Cu111  1  0.25842992  0.40217997  0.40593652  1
  Cu+  Cu112  1  0.26357915  0.40227750  0.73632890  1
  Cu+  Cu113  1  0.59397492  0.73749201  0.40626004  1
  Cu+  Cu114  1  0.73715950  0.40152540  0.26672809  1
  Cu+  Cu115  1  0.73934552  0.25739989  0.07737158  1
  Cu+  Cu116  1  0.06876959  0.07013190  0.92522236  1
  Cu+  Cu117  1  0.59323892  0.59651096  0.59724191  1
  Cu+  Cu118  1  0.93017545  0.73815163  0.40002853  1
  Cu+  Cu119  1  0.92763049  0.59719341  0.59399631  1
  Cu+  Cu120  1  0.40605442  0.26241402  0.07301627  1
  Cu+  Cu121  1  0.92880937  0.40432196  0.40486553  1
  Cu+  Cu122  1  0.73918091  0.40537684  0.92283568  1
  Cu+  Cu123  1  0.74113568  0.73910847  0.92250491  1
  Cu+  Cu124  1  0.26043133  0.59226188  0.59726476  1
  Cu+  Cu125  1  0.73811936  0.06981528  0.59663207  1
  Cu+  Cu126  1  0.40524219  0.40096098  0.25693596  1
  Cu+  Cu127  1  0.25476763  0.26432626  0.92495369  1
  Cu+  Cu128  1  0.40183451  0.59272428  0.07007649  1
  Cu+  Cu129  1  0.26017574  0.93074183  0.59173990  1
  Cu+  Cu130  1  0.41248255  0.92947367  0.07734683  1
  Cu+  Cu131  1  0.73905399  0.26434899  0.73394051  1
  Cu+  Cu132  1  0.25908285  0.92570105  0.92887415  1
  Te2-  Te133  1  0.25298672  0.25546207  0.07619830  1
  Te2-  Te134  1  0.25481585  0.24965640  0.41195693  1
  Te2-  Te135  1  0.25551902  0.25045618  0.74207372  1
  Te2-  Te136  1  0.25178211  0.58710921  0.07869166  1
  Te2-  Te137  1  0.25284945  0.59100255  0.41357992  1
  Te2-  Te138  1  0.25413546  0.59143953  0.74891577  1
  Te2-  Te139  1  0.25506551  0.92430814  0.08117507  1
  Te2-  Te140  1  0.25175052  0.91713980  0.41463670  1
  Te2-  Te141  1  0.25252317  0.92329801  0.74696981  1
  Te2-  Te142  1  0.58607200  0.25541754  0.08115413  1
  Te2-  Te143  1  0.58860990  0.24987540  0.41714631  1
  Te2-  Te144  1  0.58507337  0.25782726  0.74424030  1
  Te2-  Te145  1  0.59269810  0.58146569  0.08229825  1
  Te2-  Te146  1  0.58286878  0.58466611  0.40696346  1
  Te2-  Te147  1  0.58732772  0.58750298  0.74959802  1
  Te2-  Te148  1  0.58704713  0.91827798  0.08492426  1
  Te2-  Te149  1  0.58411409  0.91806490  0.41610667  1
  Te2-  Te150  1  0.58484389  0.91850764  0.75375524  1
  Te2-  Te151  1  0.91843568  0.25405786  0.08568857  1
  Te2-  Te152  1  0.92232394  0.25221617  0.41367475  1
  Te2-  Te153  1  0.91802540  0.24981621  0.74848177  1
  Te2-  Te154  1  0.91837982  0.57881820  0.07821810  1
  Te2-  Te155  1  0.91942788  0.58495154  0.40709688  1
  Te2-  Te156  1  0.92060118  0.59015141  0.74785387  1
  Te2-  Te157  1  0.91674751  0.91565220  0.07927788  1
  Te2-  Te158  1  0.91903127  0.92339155  0.41572894  1
  Te2-  Te159  1  0.91902540  0.92250718  0.74473433  1
  Te2-  Te160  1  0.25399576  0.08300809  0.24888093  1
  Te2-  Te161  1  0.25442858  0.08203566  0.58709428  1
  Te2-  Te162  1  0.25698629  0.07937187  0.91912043  1
  Te2-  Te163  1  0.25447634  0.40617336  0.25219787  1
  Te2-  Te164  1  0.25287286  0.41105197  0.58425718  1
  Te2-  Te165  1  0.25471029  0.41660815  0.92175692  1
  Te2-  Te166  1  0.25628243  0.75281850  0.25446239  1
  Te2-  Te167  1  0.25285016  0.74575680  0.58863643  1
  Te2-  Te168  1  0.24890187  0.74775308  0.91808666  1
  Te2-  Te169  1  0.58705546  0.07988533  0.25104253  1
  Te2-  Te170  1  0.58504575  0.07728310  0.59067601  1
  Te2-  Te171  1  0.58771523  0.08739931  0.91982097  1
  Te2-  Te172  1  0.58331350  0.41010356  0.25461810  1
  Te2-  Te173  1  0.58308762  0.41615413  0.58254752  1
  Te2-  Te174  1  0.58358760  0.41584039  0.92219333  1
  Te2-  Te175  1  0.58632260  0.74078095  0.25358231  1
  Te2-  Te176  1  0.58634616  0.74868329  0.59313169  1
  Te2-  Te177  1  0.58617457  0.74346942  0.92206239  1
  Te2-  Te178  1  0.92261150  0.08057939  0.25578871  1
  Te2-  Te179  1  0.91917366  0.08366936  0.58723096  1
  Te2-  Te180  1  0.91530107  0.08231599  0.92336526  1
  Te2-  Te181  1  0.92341870  0.40900556  0.25055918  1
  Te2-  Te182  1  0.91643963  0.41582933  0.58547987  1
  Te2-  Te183  1  0.91947318  0.41267876  0.91222766  1
  Te2-  Te184  1  0.92257007  0.74084203  0.24877086  1
  Te2-  Te185  1  0.91988105  0.75006326  0.58819080  1
  Te2-  Te186  1  0.92204468  0.74944976  0.91662572  1
  Te2-  Te187  1  0.08247041  0.25065306  0.25084504  1
  Te2-  Te188  1  0.08249432  0.25365974  0.58481523  1
  Te2-  Te189  1  0.08206310  0.25546773  0.91414683  1
  Te2-  Te190  1  0.08306775  0.58374116  0.25132135  1
  Te2-  Te191  1  0.07898610  0.58309783  0.58870358  1
  Te2-  Te192  1  0.08173123  0.58603705  0.91790313  1
  Te2-  Te193  1  0.08344979  0.92255714  0.25450194  1
  Te2-  Te194  1  0.07661021  0.91677421  0.58143486  1
  Te2-  Te195  1  0.07541746  0.91786872  0.92058799  1
  Te2-  Te196  1  0.41410010  0.24850012  0.25741919  1
  Te2-  Te197  1  0.41527366  0.25148537  0.58599370  1
  Te2-  Te198  1  0.41349037  0.26059655  0.92055876  1
  Te2-  Te199  1  0.41562456  0.59353223  0.25533994  1
  Te2-  Te200  1  0.41168313  0.58866460  0.58413292  1
  Te2-  Te201  1  0.40995441  0.58537829  0.91639538  1
  Te2-  Te202  1  0.41713136  0.91603166  0.25775232  1
  Te2-  Te203  1  0.41502948  0.92066997  0.59132281  1
  Te2-  Te204  1  0.41480563  0.92345060  0.92395683  1
  Te2-  Te205  1  0.74428363  0.24910834  0.25963969  1
  Te2-  Te206  1  0.74646013  0.25921924  0.58304109  1
  Te2-  Te207  1  0.74349238  0.25338319  0.92286282  1
  Te2-  Te208  1  0.75043124  0.58221571  0.25339381  1
  Te2-  Te209  1  0.74628698  0.59231332  0.58384837  1
  Te2-  Te210  1  0.74788184  0.58604467  0.91834629  1
  Te2-  Te211  1  0.74609515  0.91248489  0.25204819  1
  Te2-  Te212  1  0.74442356  0.91590054  0.58454448  1
  Te2-  Te213  1  0.74853010  0.92226290  0.91978941  1
  Te2-  Te214  1  0.07910364  0.08121407  0.07846167  1
  Te2-  Te215  1  0.08257614  0.08048849  0.41524729  1
  Te2-  Te216  1  0.08117615  0.07949974  0.74662663  1
  Te2-  Te217  1  0.08258639  0.41460301  0.08026926  1
  Te2-  Te218  1  0.08049846  0.41596761  0.41092439  1
  Te2-  Te219  1  0.08211556  0.41441156  0.74674015  1
  Te2-  Te220  1  0.08338524  0.75030743  0.08353764  1
  Te2-  Te221  1  0.08259312  0.74095539  0.41197401  1
  Te2-  Te222  1  0.08125355  0.75082840  0.74387877  1
  Te2-  Te223  1  0.41539705  0.08057529  0.08000299  1
  Te2-  Te224  1  0.41638495  0.07948258  0.41483094  1
  Te2-  Te225  1  0.41502670  0.08455486  0.75176033  1
  Te2-  Te226  1  0.41076565  0.41647295  0.08063418  1
  Te2-  Te227  1  0.41146018  0.40992686  0.41418103  1
  Te2-  Te228  1  0.41698369  0.41424820  0.74197230  1
  Te2-  Te229  1  0.41001109  0.74510896  0.07904609  1
  Te2-  Te230  1  0.41143124  0.74793468  0.41945335  1
  Te2-  Te231  1  0.41202212  0.75037577  0.75341009  1
  Te2-  Te232  1  0.75023244  0.07692104  0.08549369  1
  Te2-  Te233  1  0.74836087  0.08200671  0.41444822  1
  Te2-  Te234  1  0.74534277  0.07773307  0.75000474  1
  Te2-  Te235  1  0.74336070  0.41110358  0.07745723  1
  Te2-  Te236  1  0.73945146  0.41522437  0.41752899  1
  Te2-  Te237  1  0.74590699  0.41817214  0.73957787  1
  Te2-  Te238  1  0.74843383  0.74000716  0.07917375  1
  Te2-  Te239  1  0.74842136  0.74559116  0.41094316  1
  Te2-  Te240  1  0.74667419  0.74991803  0.74640628  1
