# generated using pymatgen
data_Ti27(Cu53Te54)2
_symmetry_space_group_name_H-M   'P 1'
_cell_length_a   17.91103335
_cell_length_b   17.91261929
_cell_length_c   17.90496003
_cell_angle_alpha   89.97068593
_cell_angle_beta   89.98397701
_cell_angle_gamma   90.05848499
_symmetry_Int_Tables_number   1
_chemical_formula_structural   Ti27(Cu53Te54)2
_chemical_formula_sum   'Ti27 Cu106 Te108'
_cell_volume   5744.50741245
_cell_formula_units_Z   1
loop_
 _symmetry_equiv_pos_site_id
 _symmetry_equiv_pos_as_xyz
  1  'x, y, z'
loop_
 _atom_type_symbol
 _atom_type_oxidation_number
  Ti4+  4.0
  Cu+  1.0
  Te2-  -2.0
loop_
 _atom_site_type_symbol
 _atom_site_label
 _atom_site_symmetry_multiplicity
 _atom_site_fract_x
 _atom_site_fract_y
 _atom_site_fract_z
 _atom_site_occupancy
  Ti4+  Ti0  1  0.16424300  0.16637305  0.16461829  1
  Ti4+  Ti1  1  0.16880994  0.16732915  0.49801264  1
  Ti4+  Ti2  1  0.16910433  0.16512941  0.83367351  1
  Ti4+  Ti3  1  0.16977722  0.49965285  0.17154875  1
  Ti4+  Ti4  1  0.16592241  0.50171879  0.49465437  1
  Ti4+  Ti5  1  0.16356310  0.49868876  0.83470113  1
  Ti4+  Ti6  1  0.16740346  0.83451388  0.16760115  1
  Ti4+  Ti7  1  0.16322794  0.83643914  0.50199480  1
  Ti4+  Ti8  1  0.16405251  0.83015250  0.83270155  1
  Ti4+  Ti9  1  0.50131269  0.16677927  0.16417183  1
  Ti4+  Ti10  1  0.50136440  0.17207186  0.49949482  1
  Ti4+  Ti11  1  0.50125975  0.16843763  0.83291692  1
  Ti4+  Ti12  1  0.50226127  0.50068439  0.16529032  1
  Ti4+  Ti13  1  0.50013729  0.49919134  0.50349961  1
  Ti4+  Ti14  1  0.49918740  0.49978302  0.83342718  1
  Ti4+  Ti15  1  0.49995902  0.83349101  0.16745350  1
  Ti4+  Ti16  1  0.49873663  0.83476832  0.50077384  1
  Ti4+  Ti17  1  0.49922924  0.83402104  0.83170743  1
  Ti4+  Ti18  1  0.83363309  0.16158114  0.16721292  1
  Ti4+  Ti19  1  0.83399150  0.16914979  0.50115407  1
  Ti4+  Ti20  1  0.83544418  0.16584274  0.83225249  1
  Ti4+  Ti21  1  0.83579820  0.49645569  0.16529290  1
  Ti4+  Ti22  1  0.83197885  0.49832163  0.49864398  1
  Ti4+  Ti23  1  0.83392535  0.50156506  0.83479162  1
  Ti4+  Ti24  1  0.83494812  0.82909502  0.16755496  1
  Ti4+  Ti25  1  0.83063151  0.83420384  0.50125899  1
  Ti4+  Ti26  1  0.82866905  0.83575715  0.83121770  1
  Cu+  Cu27  1  0.16974602  0.16211564  0.00095135  1
  Cu+  Cu28  1  0.16593151  0.16669540  0.32991607  1
  Cu+  Cu29  1  0.16934097  0.16677505  0.66408384  1
  Cu+  Cu30  1  0.16368026  0.50044352  0.00408788  1
  Cu+  Cu31  1  0.17269214  0.49625728  0.33145838  1
  Cu+  Cu32  1  0.16149873  0.50204206  0.66378348  1
  Cu+  Cu33  1  0.16802515  0.83437350  -0.00390930  1
  Cu+  Cu34  1  0.16754567  0.83257938  0.33834153  1
  Cu+  Cu35  1  0.15885487  0.83553754  0.66856292  1
  Cu+  Cu36  1  0.50134203  0.16726628  -0.00179494  1
  Cu+  Cu37  1  0.49964131  0.16812858  0.32994299  1
  Cu+  Cu38  1  0.50069192  0.17588240  0.66715579  1
  Cu+  Cu39  1  0.50342224  0.49861647  -0.00098235  1
  Cu+  Cu40  1  0.50185666  0.49910441  0.33426234  1
  Cu+  Cu41  1  0.49616797  0.50016550  0.66858562  1
  Cu+  Cu42  1  0.50018065  0.83276552  -0.00083901  1
  Cu+  Cu43  1  0.49865491  0.83527912  0.33393847  1
  Cu+  Cu44  1  0.49769364  0.83251970  0.66468695  1
  Cu+  Cu45  1  0.83358847  0.15947876  -0.00276187  1
  Cu+  Cu46  1  0.83104976  0.16671677  0.33483440  1
  Cu+  Cu47  1  0.83839974  0.16895662  0.66609280  1
  Cu+  Cu48  1  0.83144460  0.50363770  0.00138312  1
  Cu+  Cu49  1  0.83832495  0.49716024  0.33132568  1
  Cu+  Cu50  1  0.83329588  0.50026444  0.66925033  1
  Cu+  Cu51  1  0.82900583  0.83472093  0.00241478  1
  Cu+  Cu52  1  0.83563824  0.83043994  0.33538920  1
  Cu+  Cu53  1  0.83025692  0.83488797  0.66837127  1
  Cu+  Cu54  1  0.16380580  0.00314079  0.16444510  1
  Cu+  Cu55  1  0.16663720  0.00156863  0.50250597  1
  Cu+  Cu56  1  0.16694399  -0.00441821  0.83480084  1
  Cu+  Cu57  1  0.16945265  0.33002141  0.17656284  1
  Cu+  Cu58  1  0.16792838  0.33342474  0.49474634  1
  Cu+  Cu59  1  0.16486078  0.33371351  0.83516822  1
  Cu+  Cu60  1  0.16712471  0.66574196  0.16959950  1
  Cu+  Cu61  1  0.16571753  0.67209058  0.49566197  1
  Cu+  Cu62  1  0.16342558  0.66325601  0.83474335  1
  Cu+  Cu63  1  0.49981636  0.00003657  0.16697990  1
  Cu+  Cu64  1  0.50012635  0.00261937  0.50086351  1
  Cu+  Cu65  1  0.49921328  0.00163958  0.83130113  1
  Cu+  Cu66  1  0.50257016  0.33568032  0.16012679  1
  Cu+  Cu67  1  0.50862650  0.33481080  0.50403147  1
  Cu+  Cu68  1  0.49656376  0.33280159  0.83080771  1
  Cu+  Cu69  1  0.50138554  0.67007294  0.16665993  1
  Cu+  Cu70  1  0.49727275  0.66585517  0.50256304  1
  Cu+  Cu71  1  0.49950102  0.66817585  0.83478661  1
  Cu+  Cu72  1  0.83609549  -0.00755077  0.16743295  1
  Cu+  Cu73  1  0.83216429  0.00393612  0.50235437  1
  Cu+  Cu74  1  0.82539164  0.00200902  0.83300189  1
  Cu+  Cu75  1  0.83542170  0.32694266  0.16353638  1
  Cu+  Cu76  1  0.83240359  0.33255678  0.49409977  1
  Cu+  Cu77  1  0.83895434  0.33428650  0.83426096  1
  Cu+  Cu78  1  0.83583941  0.66007857  0.16799915  1
  Cu+  Cu79  1  0.82863610  0.66867509  0.50251904  1
  Cu+  Cu80  1  0.83104174  0.66791683  0.82843454  1
  Cu+  Cu81  1  -0.00100306  0.15908646  0.16801638  1
  Cu+  Cu82  1  0.00285832  0.16797292  0.50067540  1
  Cu+  Cu83  1  0.00270721  0.16427952  0.83410451  1
  Cu+  Cu84  1  0.00469247  0.50227766  0.17208745  1
  Cu+  Cu85  1  -0.00258949  0.49907479  0.49467871  1
  Cu+  Cu86  1  -0.00196592  0.49642614  0.83345401  1
  Cu+  Cu87  1  -0.00094784  0.83198124  0.17115125  1
  Cu+  Cu88  1  -0.00245246  0.83656252  0.50470414  1
  Cu+  Cu89  1  -0.00333192  0.83275332  0.82675275  1
  Cu+  Cu90  1  0.33409988  0.16857442  0.16070127  1
  Cu+  Cu91  1  0.33542699  0.16797234  0.49903821  1
  Cu+  Cu92  1  0.33619644  0.16918643  0.83108142  1
  Cu+  Cu93  1  0.33737070  0.50307081  0.17008130  1
  Cu+  Cu94  1  0.33367459  0.50066973  0.49703871  1
  Cu+  Cu95  1  0.32915956  0.50043341  0.83730809  1
  Cu+  Cu96  1  0.33674438  0.83489765  0.16536150  1
  Cu+  Cu97  1  0.33242275  0.83466369  0.50268906  1
  Cu+  Cu98  1  0.33282656  0.82986612  0.83546303  1
  Cu+  Cu99  1  0.66583511  0.16425510  0.16591823  1
  Cu+  Cu100  1  0.66810483  0.17657442  0.50284334  1
  Cu+  Cu101  1  0.66969983  0.16479092  0.83601136  1
  Cu+  Cu102  1  0.66700767  0.49537540  0.15875370  1
  Cu+  Cu103  1  0.66411443  0.49530313  0.50072809  1
  Cu+  Cu104  1  0.66813541  0.50376152  0.83301513  1
  Cu+  Cu105  1  0.66600814  0.82985170  0.16569458  1
  Cu+  Cu106  1  0.66368192  0.83355032  0.50037220  1
  Cu+  Cu107  1  0.66391366  0.83823494  0.82991319  1
  Cu+  Cu108  1  0.07356874  0.40384061  0.25623960  1
  Cu+  Cu109  1  0.92448965  0.74147680  0.73843450  1
  Cu+  Cu110  1  0.73714951  0.07552923  0.92799013  1
  Cu+  Cu111  1  0.26436041  0.40486666  0.41269997  1
  Cu+  Cu112  1  0.92535295  0.40471737  0.73977385  1
  Cu+  Cu113  1  0.07996796  0.59518533  0.07456188  1
  Cu+  Cu114  1  0.73659430  0.92410917  0.08321429  1
  Cu+  Cu115  1  0.26833845  0.59745064  0.25460991  1
  Cu+  Cu116  1  0.26339177  0.74787589  0.41252808  1
  Cu+  Cu117  1  0.73645214  0.59151912  0.73645916  1
  Cu+  Cu118  1  0.92771477  0.59103590  0.26198003  1
  Cu+  Cu119  1  0.59437831  0.40372876  0.06619544  1
  Cu+  Cu120  1  0.07569393  0.07235638  0.26194445  1
  Cu+  Cu121  1  0.92430743  0.92202148  0.26545138  1
  Cu+  Cu122  1  0.73428644  0.93195804  0.73596153  1
  Cu+  Cu123  1  0.92533553  0.40339605  0.40606627  1
  Cu+  Cu124  1  0.26306185  0.92273511  0.92054992  1
  Cu+  Cu125  1  0.40347604  0.26274097  0.73780730  1
  Cu+  Cu126  1  0.73913970  0.59209946  0.07671032  1
  Cu+  Cu127  1  0.59077676  0.41071514  0.40435106  1
  Cu+  Cu128  1  0.07209922  0.92991408  0.74216010  1
  Cu+  Cu129  1  0.73910377  0.25647312  0.40153224  1
  Cu+  Cu130  1  0.26495235  0.24920082  0.25742779  1
  Cu+  Cu131  1  0.26267067  0.07369790  0.07687517  1
  Cu+  Cu132  1  0.59936273  0.26177846  0.60003442  1
  Te2-  Te133  1  0.24942329  0.25597777  0.07960538  1
  Te2-  Te134  1  0.25713956  0.25234613  0.40964136  1
  Te2-  Te135  1  0.25059179  0.25417273  0.74748667  1
  Te2-  Te136  1  0.25382381  0.58558212  0.08299479  1
  Te2-  Te137  1  0.25597254  0.59100915  0.41100237  1
  Te2-  Te138  1  0.24832715  0.58317924  0.74845496  1
  Te2-  Te139  1  0.25364711  0.91977396  0.08009617  1
  Te2-  Te140  1  0.25154273  0.92133456  0.41695675  1
  Te2-  Te141  1  0.25252748  0.91507113  0.74746461  1
  Te2-  Te142  1  0.58922080  0.25096862  0.07743636  1
  Te2-  Te143  1  0.58705521  0.25648549  0.40702199  1
  Te2-  Te144  1  0.59240103  0.25535435  0.75176777  1
  Te2-  Te145  1  0.58564041  0.58961140  0.07883294  1
  Te2-  Te146  1  0.58504553  0.58554415  0.41766276  1
  Te2-  Te147  1  0.58330651  0.58736210  0.74696859  1
  Te2-  Te148  1  0.58493960  0.91953788  0.08000516  1
  Te2-  Te149  1  0.58390078  0.92028279  0.41552709  1
  Te2-  Te150  1  0.58210016  0.92212230  0.74292436  1
  Te2-  Te151  1  0.91895983  0.24325578  0.08005906  1
  Te2-  Te152  1  0.92322548  0.25072957  0.41165603  1
  Te2-  Te153  1  0.92438438  0.25168442  0.74779889  1
  Te2-  Te154  1  0.92464776  0.58416040  0.08032768  1
  Te2-  Te155  1  0.91593874  0.58979285  0.41543140  1
  Te2-  Te156  1  0.92235204  0.58689831  0.74685368  1
  Te2-  Te157  1  0.92181624  0.91435653  0.08013390  1
  Te2-  Te158  1  0.91783772  0.92156411  0.41770213  1
  Te2-  Te159  1  0.91534485  0.92490326  0.74622167  1
  Te2-  Te160  1  0.25467128  0.08096883  0.25022365  1
  Te2-  Te161  1  0.25450528  0.08298978  0.58341569  1
  Te2-  Te162  1  0.25807684  0.07850331  0.91818452  1
  Te2-  Te163  1  0.26291480  0.41002605  0.25561714  1
  Te2-  Te164  1  0.24907529  0.41744285  0.58247125  1
  Te2-  Te165  1  0.24797356  0.41528575  0.92238486  1
  Te2-  Te166  1  0.25553754  0.75031882  0.25341607  1
  Te2-  Te167  1  0.24746863  0.75071044  0.58858164  1
  Te2-  Te168  1  0.24981812  0.74350045  0.91851742  1
  Te2-  Te169  1  0.58444304  0.08141836  0.25135972  1
  Te2-  Te170  1  0.58509777  0.08700241  0.58522807  1
  Te2-  Te171  1  0.58480689  0.07902973  0.91946189  1
  Te2-  Te172  1  0.58787687  0.41301343  0.25048534  1
  Te2-  Te173  1  0.58783295  0.41590596  0.59487770  1
  Te2-  Te174  1  0.58793595  0.41263606  0.91482726  1
  Te2-  Te175  1  0.58545860  0.74920371  0.25416221  1
  Te2-  Te176  1  0.58359614  0.74753693  0.58520616  1
  Te2-  Te177  1  0.58621709  0.75040911  0.91674141  1
  Te2-  Te178  1  0.91755307  0.07646960  0.25778997  1
  Te2-  Te179  1  0.92078816  0.08316309  0.58468036  1
  Te2-  Te180  1  0.92041098  0.07693622  0.91509517  1
  Te2-  Te181  1  0.92073352  0.40559263  0.25144853  1
  Te2-  Te182  1  0.91850077  0.41337143  0.58430856  1
  Te2-  Te183  1  0.91788647  0.41679257  0.92393192  1
  Te2-  Te184  1  0.92073534  0.74264236  0.25526516  1
  Te2-  Te185  1  0.91677081  0.74766505  0.58668935  1
  Te2-  Te186  1  0.91380483  0.75112249  0.91713745  1
  Te2-  Te187  1  0.07394257  0.24995733  0.25387702  1
  Te2-  Te188  1  0.08518181  0.25374989  0.58316506  1
  Te2-  Te189  1  0.08399374  0.24790121  0.91999036  1
  Te2-  Te190  1  0.08293472  0.58869294  0.26100068  1
  Te2-  Te191  1  0.07979495  0.58621337  0.57804923  1
  Te2-  Te192  1  0.07654230  0.58476086  0.92046514  1
  Te2-  Te193  1  0.08183185  0.91888553  0.25626343  1
  Te2-  Te194  1  0.07690166  0.92470974  0.58763340  1
  Te2-  Te195  1  0.07587482  0.91591436  0.91755233  1
  Te2-  Te196  1  0.41699232  0.25518179  0.24801095  1
  Te2-  Te197  1  0.41155591  0.25849262  0.58370389  1
  Te2-  Te198  1  0.41508821  0.25244746  0.92024718  1
  Te2-  Te199  1  0.42040658  0.58827629  0.25513395  1
  Te2-  Te200  1  0.41160632  0.58410886  0.58596400  1
  Te2-  Te201  1  0.41566013  0.58431817  0.91938006  1
  Te2-  Te202  1  0.41452782  0.92016490  0.25210767  1
  Te2-  Te203  1  0.41377507  0.92095074  0.58555823  1
  Te2-  Te204  1  0.41521990  0.92042295  0.91914603  1
  Te2-  Te205  1  0.74716649  0.25084597  0.24890997  1
  Te2-  Te206  1  0.75252099  0.25853388  0.59096184  1
  Te2-  Te207  1  0.75219997  0.25253161  0.91865976  1
  Te2-  Te208  1  0.74680719  0.57858640  0.25083124  1
  Te2-  Te209  1  0.74532867  0.58314751  0.58450655  1
  Te2-  Te210  1  0.74683076  0.58994285  0.92039700  1
  Te2-  Te211  1  0.74753430  0.91381997  0.25344277  1
  Te2-  Te212  1  0.74444452  0.92146327  0.58457957  1
  Te2-  Te213  1  0.74184097  0.92027669  0.92265773  1
  Te2-  Te214  1  0.07796069  0.07971325  0.07688373  1
  Te2-  Te215  1  0.08135935  0.08045256  0.41476779  1
  Te2-  Te216  1  0.08366914  0.08130034  0.74663566  1
  Te2-  Te217  1  0.08387459  0.41075183  0.08825881  1
  Te2-  Te218  1  0.07829575  0.41117566  0.40940234  1
  Te2-  Te219  1  0.07993170  0.41258422  0.74566382  1
  Te2-  Te220  1  0.08211909  0.74992240  0.08213616  1
  Te2-  Te221  1  0.07501579  0.75226808  0.41590892  1
  Te2-  Te222  1  0.07881598  0.74125136  0.74559174  1
  Te2-  Te223  1  0.41636940  0.07996996  0.07812548  1
  Te2-  Te224  1  0.41758517  0.08479906  0.41475591  1
  Te2-  Te225  1  0.41686543  0.08418370  0.74499222  1
  Te2-  Te226  1  0.41296902  0.41801273  0.08057363  1
  Te2-  Te227  1  0.41693122  0.41122134  0.41515222  1
  Te2-  Te228  1  0.40931807  0.41625290  0.74883755  1
  Te2-  Te229  1  0.41507908  0.74802958  0.08040153  1
  Te2-  Te230  1  0.41443860  0.74704172  0.41430417  1
  Te2-  Te231  1  0.41377521  0.74762473  0.74820411  1
  Te2-  Te232  1  0.74604520  0.07590661  0.08194418  1
  Te2-  Te233  1  0.74487249  0.08416822  0.41842398  1
  Te2-  Te234  1  0.74641345  0.08483407  0.74131503  1
  Te2-  Te235  1  0.75133155  0.40798327  0.07702728  1
  Te2-  Te236  1  0.74457629  0.41345760  0.40879957  1
  Te2-  Te237  1  0.74837497  0.41349111  0.75075977  1
  Te2-  Te238  1  0.74798927  0.74266463  0.08166911  1
  Te2-  Te239  1  0.74609435  0.74916865  0.41547332  1
  Te2-  Te240  1  0.74117619  0.74769506  0.74514523  1
