# generated using pymatgen
data_Ti27(Cu53Te54)2
_symmetry_space_group_name_H-M   'P 1'
_cell_length_a   17.87851623
_cell_length_b   17.87474886
_cell_length_c   17.87439917
_cell_angle_alpha   90.04013045
_cell_angle_beta   90.02085280
_cell_angle_gamma   89.96802879
_symmetry_Int_Tables_number   1
_chemical_formula_structural   Ti27(Cu53Te54)2
_chemical_formula_sum   'Ti27 Cu106 Te108'
_cell_volume   5712.19035179
_cell_formula_units_Z   1
loop_
 _symmetry_equiv_pos_site_id
 _symmetry_equiv_pos_as_xyz
  1  'x, y, z'
loop_
 _atom_type_symbol
 _atom_type_oxidation_number
  Ti4+  4.0
  Cu+  1.0
  Te2-  -2.0
loop_
 _atom_site_type_symbol
 _atom_site_label
 _atom_site_symmetry_multiplicity
 _atom_site_fract_x
 _atom_site_fract_y
 _atom_site_fract_z
 _atom_site_occupancy
  Ti4+  Ti0  1  0.16437554  0.16501640  0.16842400  1
  Ti4+  Ti1  1  0.17007647  0.16957134  0.49824790  1
  Ti4+  Ti2  1  0.16735259  0.16619779  0.83395574  1
  Ti4+  Ti3  1  0.16655417  0.50029262  0.16779212  1
  Ti4+  Ti4  1  0.16397134  0.49646277  0.50073156  1
  Ti4+  Ti5  1  0.16659130  0.50085330  0.83550839  1
  Ti4+  Ti6  1  0.16729161  0.83220435  0.16929219  1
  Ti4+  Ti7  1  0.16736079  0.83249150  0.49609738  1
  Ti4+  Ti8  1  0.16781361  0.83436103  0.83050058  1
  Ti4+  Ti9  1  0.49892416  0.16641848  0.16518697  1
  Ti4+  Ti10  1  0.50205868  0.16705399  0.50343056  1
  Ti4+  Ti11  1  0.49707814  0.16638063  0.83386356  1
  Ti4+  Ti12  1  0.50119906  0.49954680  0.16700439  1
  Ti4+  Ti13  1  0.49963008  0.50185322  0.49617383  1
  Ti4+  Ti14  1  0.49854232  0.49979364  0.83112966  1
  Ti4+  Ti15  1  0.50207370  0.83674691  0.16559776  1
  Ti4+  Ti16  1  0.50071830  0.83294281  0.50062652  1
  Ti4+  Ti17  1  0.49933501  0.83265039  0.83568940  1
  Ti4+  Ti18  1  0.83377555  0.16760507  0.16401758  1
  Ti4+  Ti19  1  0.83553530  0.16766828  0.50017594  1
  Ti4+  Ti20  1  0.83472218  0.16672425  0.83197031  1
  Ti4+  Ti21  1  0.83358737  0.50021281  0.16804474  1
  Ti4+  Ti22  1  0.82839058  0.49879300  0.50153533  1
  Ti4+  Ti23  1  0.83041743  0.50080461  0.83418001  1
  Ti4+  Ti24  1  0.83324402  0.83060720  0.16588059  1
  Ti4+  Ti25  1  0.83371348  0.83382671  0.49891679  1
  Ti4+  Ti26  1  0.83228190  0.83026941  0.83653219  1
  Cu+  Cu27  1  0.16214640  0.16547730  0.00309797  1
  Cu+  Cu28  1  0.16835258  0.17437058  0.33267135  1
  Cu+  Cu29  1  0.17134376  0.16568611  0.66809859  1
  Cu+  Cu30  1  0.17039926  0.50284379  0.00295739  1
  Cu+  Cu31  1  0.16351368  0.49353789  0.33221351  1
  Cu+  Cu32  1  0.16329817  0.50129735  0.66939621  1
  Cu+  Cu33  1  0.16685326  0.83322619  -0.00211294  1
  Cu+  Cu34  1  0.16432404  0.83640176  0.33276277  1
  Cu+  Cu35  1  0.16898954  0.83374769  0.66344987  1
  Cu+  Cu36  1  0.49425201  0.16311680  -0.00064661  1
  Cu+  Cu37  1  0.50014989  0.16711557  0.33393089  1
  Cu+  Cu38  1  0.49936099  0.16340308  0.66714952  1
  Cu+  Cu39  1  0.49939114  0.49913180  -0.00074758  1
  Cu+  Cu40  1  0.50763508  0.49923505  0.33339831  1
  Cu+  Cu41  1  0.49711169  0.49965152  0.66230934  1
  Cu+  Cu42  1  0.50564051  0.83879493  -0.00215581  1
  Cu+  Cu43  1  0.50019631  0.83213941  0.33379616  1
  Cu+  Cu44  1  0.50148784  0.83410341  0.67157399  1
  Cu+  Cu45  1  0.83444598  0.16710501  -0.00513364  1
  Cu+  Cu46  1  0.83270480  0.16483666  0.32950405  1
  Cu+  Cu47  1  0.83768459  0.16912852  0.66617998  1
  Cu+  Cu48  1  0.83571331  0.50376818  -0.00007257  1
  Cu+  Cu49  1  0.82567528  0.49735202  0.33445557  1
  Cu+  Cu50  1  0.82876642  0.50198919  0.67067954  1
  Cu+  Cu51  1  0.82530866  0.82965059  0.00319498  1
  Cu+  Cu52  1  0.83588853  0.83476512  0.33097300  1
  Cu+  Cu53  1  0.83264265  0.82930878  0.66569913  1
  Cu+  Cu54  1  0.17110750  -0.00349031  0.17088332  1
  Cu+  Cu55  1  0.16697042  -0.00062716  0.49542848  1
  Cu+  Cu56  1  0.16762461  -0.00102068  0.83076310  1
  Cu+  Cu57  1  0.16208617  0.33071846  0.16722159  1
  Cu+  Cu58  1  0.16951330  0.33416609  0.49377597  1
  Cu+  Cu59  1  0.16808551  0.33371810  0.83433598  1
  Cu+  Cu60  1  0.16504810  0.66831009  0.17078289  1
  Cu+  Cu61  1  0.16544948  0.66218492  0.50084544  1
  Cu+  Cu62  1  0.16595847  0.66971659  0.83264016  1
  Cu+  Cu63  1  0.50093738  0.00342895  0.16548686  1
  Cu+  Cu64  1  0.50285911  -0.00150562  0.50519705  1
  Cu+  Cu65  1  0.49733647  0.00018829  0.83825613  1
  Cu+  Cu66  1  0.50004305  0.33164537  0.16335513  1
  Cu+  Cu67  1  0.49779715  0.33532898  0.49956862  1
  Cu+  Cu68  1  0.49580388  0.33443550  0.83347567  1
  Cu+  Cu69  1  0.50133346  0.66860552  0.16732420  1
  Cu+  Cu70  1  0.50082927  0.66752642  0.50056711  1
  Cu+  Cu71  1  0.49923970  0.66440727  0.83014548  1
  Cu+  Cu72  1  0.83468254  -0.00014980  0.16270549  1
  Cu+  Cu73  1  0.83495003  0.00171960  0.49987590  1
  Cu+  Cu74  1  0.83618721  0.00150084  0.83012274  1
  Cu+  Cu75  1  0.83191664  0.33357829  0.16737219  1
  Cu+  Cu76  1  0.84108549  0.33090560  0.50420149  1
  Cu+  Cu77  1  0.83234089  0.33474914  0.83187273  1
  Cu+  Cu78  1  0.83674868  0.66490468  0.16657746  1
  Cu+  Cu79  1  0.82510950  0.66982128  0.50305624  1
  Cu+  Cu80  1  0.83049169  0.66393843  0.84139412  1
  Cu+  Cu81  1  -0.00177328  0.16624432  0.15895728  1
  Cu+  Cu82  1  0.00069560  0.17259867  0.50311878  1
  Cu+  Cu83  1  0.00146084  0.16462310  0.83280234  1
  Cu+  Cu84  1  0.00347158  0.49818627  0.16884909  1
  Cu+  Cu85  1  -0.00744749  0.49772110  0.50072535  1
  Cu+  Cu86  1  -0.00315014  0.50394135  0.83472655  1
  Cu+  Cu87  1  -0.00129808  0.82812466  0.16822511  1
  Cu+  Cu88  1  0.00101636  0.83548310  0.49415067  1
  Cu+  Cu89  1  0.00355954  0.82926315  0.83422754  1
  Cu+  Cu90  1  0.33037305  0.16411608  0.17036809  1
  Cu+  Cu91  1  0.34155419  0.16680695  0.50158724  1
  Cu+  Cu92  1  0.33177072  0.16356296  0.83688863  1
  Cu+  Cu93  1  0.33549989  0.50427458  0.16604969  1
  Cu+  Cu94  1  0.33116473  0.49481574  0.50229741  1
  Cu+  Cu95  1  0.33291153  0.49844220  0.83476420  1
  Cu+  Cu96  1  0.33724009  0.83322044  0.17078070  1
  Cu+  Cu97  1  0.33318217  0.83214744  0.49924323  1
  Cu+  Cu98  1  0.33167883  0.83495922  0.82973304  1
  Cu+  Cu99  1  0.66347644  0.16721350  0.16346752  1
  Cu+  Cu100  1  0.66998241  0.16622953  0.50123896  1
  Cu+  Cu101  1  0.66834089  0.16800977  0.82856571  1
  Cu+  Cu102  1  0.66735557  0.49805750  0.16837435  1
  Cu+  Cu103  1  0.66640609  0.50593210  0.48987997  1
  Cu+  Cu104  1  0.66263320  0.50010836  0.82999642  1
  Cu+  Cu105  1  0.66971795  0.83734920  0.16052156  1
  Cu+  Cu106  1  0.66688198  0.83215842  0.50367483  1
  Cu+  Cu107  1  0.66495903  0.83044638  0.84196782  1
  Cu+  Cu108  1  0.73630470  0.74238230  0.59786900  1
  Cu+  Cu109  1  0.40137957  0.06944843  0.93026250  1
  Cu+  Cu110  1  0.26577867  0.92507777  0.26083504  1
  Cu+  Cu111  1  0.73351838  0.73357027  0.93200730  1
  Cu+  Cu112  1  0.41631491  0.25884045  0.40547590  1
  Cu+  Cu113  1  0.59575020  0.93325902  0.92026288  1
  Cu+  Cu114  1  0.91868817  0.41019402  0.40678760  1
  Cu+  Cu115  1  0.74272465  0.60118659  0.40264133  1
  Cu+  Cu116  1  0.92771227  0.59147877  0.92855497  1
  Cu+  Cu117  1  0.07296923  0.40364727  0.25596568  1
  Cu+  Cu118  1  0.41180854  0.73753306  0.26059508  1
  Cu+  Cu119  1  0.93183314  0.26102961  0.60042134  1
  Cu+  Cu120  1  0.26130289  0.41513321  0.40396940  1
  Cu+  Cu121  1  0.07177038  0.25684543  0.41006091  1
  Cu+  Cu122  1  0.07042568  0.25975731  0.06891615  1
  Cu+  Cu123  1  0.40638680  0.40932642  0.93040094  1
  Cu+  Cu124  1  0.07091275  0.74041007  0.26303833  1
  Cu+  Cu125  1  0.26148590  0.26238759  0.24931323  1
  Cu+  Cu126  1  0.74425684  0.93195769  0.07481077  1
  Cu+  Cu127  1  0.40939257  0.06756010  0.59357587  1
  Cu+  Cu128  1  0.40447534  0.40804899  0.59434433  1
  Cu+  Cu129  1  0.73815550  0.40287142  0.25601540  1
  Cu+  Cu130  1  0.07924284  0.74251299  0.92638552  1
  Cu+  Cu131  1  0.07104845  0.93076669  0.40550594  1
  Cu+  Cu132  1  0.59309174  0.40298913  0.41298315  1
  Te2-  Te133  1  0.25126153  0.25113415  0.08265028  1
  Te2-  Te134  1  0.26207586  0.25570944  0.41105985  1
  Te2-  Te135  1  0.25416352  0.25180992  0.75012276  1
  Te2-  Te136  1  0.25178164  0.58917068  0.08537635  1
  Te2-  Te137  1  0.25036727  0.58037962  0.41423507  1
  Te2-  Te138  1  0.25117019  0.58530330  0.74975603  1
  Te2-  Te139  1  0.25302816  0.91528954  0.08173013  1
  Te2-  Te140  1  0.25692672  0.92001954  0.41281894  1
  Te2-  Te141  1  0.25275505  0.92021740  0.74397376  1
  Te2-  Te142  1  0.58235107  0.25032325  0.07679296  1
  Te2-  Te143  1  0.58874870  0.25110938  0.41459917  1
  Te2-  Te144  1  0.58141453  0.25217408  0.74831505  1
  Te2-  Te145  1  0.58501001  0.58362137  0.08229618  1
  Te2-  Te146  1  0.58492780  0.59437685  0.40949952  1
  Te2-  Te147  1  0.58298939  0.58452210  0.74330536  1
  Te2-  Te148  1  0.58850667  0.92685696  0.07829199  1
  Te2-  Te149  1  0.58598831  0.91794488  0.41694012  1
  Te2-  Te150  1  0.58718904  0.91932124  0.75291600  1
  Te2-  Te151  1  0.91677239  0.25624214  0.07677318  1
  Te2-  Te152  1  0.91924493  0.25339686  0.40672491  1
  Te2-  Te153  1  0.92312669  0.25536563  0.75012884  1
  Te2-  Te154  1  0.92364197  0.58518253  0.08403495  1
  Te2-  Te155  1  0.91213663  0.58660359  0.41616067  1
  Te2-  Te156  1  0.91495128  0.58878772  0.74821863  1
  Te2-  Te157  1  0.92016327  0.91380336  0.07952318  1
  Te2-  Te158  1  0.91784736  0.92254995  0.41129657  1
  Te2-  Te159  1  0.91812322  0.91219826  0.74974987  1
  Te2-  Te160  1  0.25195729  0.07991530  0.25846304  1
  Te2-  Te161  1  0.25362342  0.08061592  0.58268213  1
  Te2-  Te162  1  0.24865821  0.07818044  0.92323743  1
  Te2-  Te163  1  0.25765121  0.41313080  0.25077344  1
  Te2-  Te164  1  0.24833733  0.41138931  0.59113839  1
  Te2-  Te165  1  0.25186253  0.41354800  0.92235215  1
  Te2-  Te166  1  0.25478569  0.74603302  0.25649318  1
  Te2-  Te167  1  0.25115830  0.74616211  0.58234927  1
  Te2-  Te168  1  0.25449021  0.74891383  0.91760253  1
  Te2-  Te169  1  0.58528811  0.08333948  0.25219602  1
  Te2-  Te170  1  0.58982318  0.08173961  0.58746569  1
  Te2-  Te171  1  0.58871584  0.08498269  0.91904221  1
  Te2-  Te172  1  0.58657486  0.40771800  0.25265222  1
  Te2-  Te173  1  0.58878742  0.41786189  0.58041581  1
  Te2-  Te174  1  0.58473090  0.41398145  0.91695218  1
  Te2-  Te175  1  0.58988072  0.75265230  0.24927704  1
  Te2-  Te176  1  0.58402990  0.74647191  0.58985646  1
  Te2-  Te177  1  0.58164620  0.74033309  0.92240446  1
  Te2-  Te178  1  0.91918425  0.08111070  0.24766400  1
  Te2-  Te179  1  0.92220789  0.08147643  0.58460388  1
  Te2-  Te180  1  0.92054475  0.08017567  0.91760503  1
  Te2-  Te181  1  0.92006229  0.41214844  0.25431932  1
  Te2-  Te182  1  0.91717500  0.41702669  0.59362360  1
  Te2-  Te183  1  0.91745600  0.41463637  0.91863311  1
  Te2-  Te184  1  0.91816234  0.74365215  0.25542830  1
  Te2-  Te185  1  0.92129331  0.74768896  0.58129706  1
  Te2-  Te186  1  0.92107168  0.74659204  0.92527595  1
  Te2-  Te187  1  0.07187542  0.25161799  0.25429397  1
  Te2-  Te188  1  0.08741328  0.25567722  0.58864336  1
  Te2-  Te189  1  0.07976620  0.25318550  0.91802408  1
  Te2-  Te190  1  0.08021307  0.58596352  0.25623898  1
  Te2-  Te191  1  0.07730400  0.58205532  0.58377996  1
  Te2-  Te192  1  0.08115292  0.58823110  0.92352806  1
  Te2-  Te193  1  0.07560157  0.92106540  0.25107745  1
  Te2-  Te194  1  0.08275716  0.91841807  0.58270689  1
  Te2-  Te195  1  0.08164470  0.92016945  0.91765296  1
  Te2-  Te196  1  0.41384194  0.25519663  0.25235111  1
  Te2-  Te197  1  0.41511051  0.25545314  0.59080332  1
  Te2-  Te198  1  0.41086848  0.25350644  0.92052247  1
  Te2-  Te199  1  0.41650963  0.58474322  0.25553459  1
  Te2-  Te200  1  0.41186790  0.58620616  0.58148497  1
  Te2-  Te201  1  0.41433467  0.58617883  0.91818374  1
  Te2-  Te202  1  0.41838190  0.92425211  0.25444506  1
  Te2-  Te203  1  0.41339966  0.91582341  0.58867718  1
  Te2-  Te204  1  0.40866214  0.91714912  0.92157328  1
  Te2-  Te205  1  0.74494983  0.25025343  0.25124481  1
  Te2-  Te206  1  0.74882892  0.25299804  0.58586041  1
  Te2-  Te207  1  0.74769806  0.25265171  0.91609336  1
  Te2-  Te208  1  0.74602930  0.58888766  0.25122809  1
  Te2-  Te209  1  0.74178858  0.58471844  0.58897580  1
  Te2-  Te210  1  0.73928481  0.58205488  0.92283079  1
  Te2-  Te211  1  0.74962338  0.91950472  0.25075903  1
  Te2-  Te212  1  0.75015172  0.92018955  0.58583112  1
  Te2-  Te213  1  0.74885731  0.92497627  0.91994291  1
  Te2-  Te214  1  0.08289754  0.07407457  0.08416474  1
  Te2-  Te215  1  0.08072013  0.08558117  0.41329371  1
  Te2-  Te216  1  0.08314822  0.08152416  0.74651101  1
  Te2-  Te217  1  0.08136879  0.41484409  0.07789624  1
  Te2-  Te218  1  0.07255042  0.41045518  0.41220059  1
  Te2-  Te219  1  0.07932683  0.41623525  0.75225493  1
  Te2-  Te220  1  0.08152129  0.74667906  0.08089872  1
  Te2-  Te221  1  0.08069493  0.74242683  0.41360466  1
  Te2-  Te222  1  0.08269139  0.74839855  0.74278441  1
  Te2-  Te223  1  0.40881162  0.07893356  0.08329936  1
  Te2-  Te224  1  0.41918336  0.07836820  0.41586965  1
  Te2-  Te225  1  0.41205687  0.07766748  0.74788429  1
  Te2-  Te226  1  0.41242582  0.41402756  0.08275013  1
  Te2-  Te227  1  0.41291535  0.41436287  0.40648327  1
  Te2-  Te228  1  0.41112898  0.41344859  0.74503205  1
  Te2-  Te229  1  0.41751737  0.75201774  0.07934601  1
  Te2-  Te230  1  0.41379068  0.74585315  0.41497865  1
  Te2-  Te231  1  0.41428499  0.74820279  0.74863706  1
  Te2-  Te232  1  0.74731256  0.08414471  0.07738147  1
  Te2-  Te233  1  0.74954510  0.08204273  0.41455871  1
  Te2-  Te234  1  0.75048752  0.08201277  0.74440284  1
  Te2-  Te235  1  0.75000475  0.41683614  0.07928817  1
  Te2-  Te236  1  0.74541974  0.40422494  0.41511666  1
  Te2-  Te237  1  0.74516160  0.41429022  0.74832933  1
  Te2-  Te238  1  0.74414131  0.73891770  0.08390538  1
  Te2-  Te239  1  0.74513183  0.75222558  0.40906245  1
  Te2-  Te240  1  0.74516806  0.74546423  0.75124250  1
