# generated using pymatgen
data_Ti27(Cu53Te54)2
_symmetry_space_group_name_H-M   'P 1'
_cell_length_a   17.91221848
_cell_length_b   17.91984603
_cell_length_c   17.91696249
_cell_angle_alpha   89.97548270
_cell_angle_beta   89.99877688
_cell_angle_gamma   90.05803826
_symmetry_Int_Tables_number   1
_chemical_formula_structural   Ti27(Cu53Te54)2
_chemical_formula_sum   'Ti27 Cu106 Te108'
_cell_volume   5751.05834182
_cell_formula_units_Z   1
loop_
 _symmetry_equiv_pos_site_id
 _symmetry_equiv_pos_as_xyz
  1  'x, y, z'
loop_
 _atom_type_symbol
 _atom_type_oxidation_number
  Ti4+  4.0
  Cu+  1.0
  Te2-  -2.0
loop_
 _atom_site_type_symbol
 _atom_site_label
 _atom_site_symmetry_multiplicity
 _atom_site_fract_x
 _atom_site_fract_y
 _atom_site_fract_z
 _atom_site_occupancy
  Ti4+  Ti0  1  0.16255705  0.16584874  0.16909967  1
  Ti4+  Ti1  1  0.16629656  0.16501293  0.49869574  1
  Ti4+  Ti2  1  0.16734668  0.16502967  0.83437686  1
  Ti4+  Ti3  1  0.16436462  0.49850499  0.16958667  1
  Ti4+  Ti4  1  0.17401497  0.50438442  0.49888654  1
  Ti4+  Ti5  1  0.16845300  0.49741915  0.83359885  1
  Ti4+  Ti6  1  0.16457153  0.83106684  0.16355424  1
  Ti4+  Ti7  1  0.16686807  0.83477725  0.50405793  1
  Ti4+  Ti8  1  0.16729583  0.83280513  0.83516980  1
  Ti4+  Ti9  1  0.49955244  0.16565531  0.16872647  1
  Ti4+  Ti10  1  0.50204196  0.16730447  0.50255398  1
  Ti4+  Ti11  1  0.50127170  0.16759688  0.83606158  1
  Ti4+  Ti12  1  0.50020208  0.49889337  0.16646733  1
  Ti4+  Ti13  1  0.49307817  0.49726289  0.49897277  1
  Ti4+  Ti14  1  0.49852094  0.50021632  0.83329937  1
  Ti4+  Ti15  1  0.50076004  0.83257681  0.16428615  1
  Ti4+  Ti16  1  0.50065264  0.83485141  0.49761940  1
  Ti4+  Ti17  1  0.50176673  0.83479510  0.83192466  1
  Ti4+  Ti18  1  0.83104177  0.16681503  0.17193885  1
  Ti4+  Ti19  1  0.83289925  0.16943158  0.49858775  1
  Ti4+  Ti20  1  0.83559324  0.16728215  0.83337691  1
  Ti4+  Ti21  1  0.83557193  0.50147775  0.16675449  1
  Ti4+  Ti22  1  0.83316595  0.50272439  0.50195854  1
  Ti4+  Ti23  1  0.83210520  0.49768020  0.82979938  1
  Ti4+  Ti24  1  0.83606794  0.83335003  0.16493911  1
  Ti4+  Ti25  1  0.83315027  0.83322627  0.50031755  1
  Ti4+  Ti26  1  0.83341139  0.83266119  0.83178676  1
  Cu+  Cu27  1  0.16696749  0.16251619  0.00195853  1
  Cu+  Cu28  1  0.15873560  0.16840920  0.33619877  1
  Cu+  Cu29  1  0.16812852  0.16517041  0.66425246  1
  Cu+  Cu30  1  0.16381937  0.49697875  0.00179403  1
  Cu+  Cu31  1  0.17786280  0.50280793  0.33180867  1
  Cu+  Cu32  1  0.17287145  0.50350369  0.66652562  1
  Cu+  Cu33  1  0.16753915  0.83115907  -0.00072331  1
  Cu+  Cu34  1  0.16241858  0.83330836  0.33364732  1
  Cu+  Cu35  1  0.16303699  0.83742660  0.67300111  1
  Cu+  Cu36  1  0.50057170  0.16662752  0.00171139  1
  Cu+  Cu37  1  0.50795767  0.16900194  0.33379879  1
  Cu+  Cu38  1  0.50330075  0.16610818  0.67084583  1
  Cu+  Cu39  1  0.49891229  0.49780233  -0.00053357  1
  Cu+  Cu40  1  0.49205754  0.49546679  0.32993755  1
  Cu+  Cu41  1  0.49423504  0.49685601  0.66624706  1
  Cu+  Cu42  1  0.49985132  0.83151055  -0.00254511  1
  Cu+  Cu43  1  0.50257798  0.83479829  0.32788328  1
  Cu+  Cu44  1  0.50248128  0.83596724  0.66451809  1
  Cu+  Cu45  1  0.83167079  0.16494879  0.00351171  1
  Cu+  Cu46  1  0.83889584  0.16798849  0.33594164  1
  Cu+  Cu47  1  0.83035534  0.16985330  0.66650861  1
  Cu+  Cu48  1  0.83256436  0.49541722  -0.00437301  1
  Cu+  Cu49  1  0.83443612  0.50528742  0.33538406  1
  Cu+  Cu50  1  0.83176114  0.49963261  0.66800814  1
  Cu+  Cu51  1  0.83803265  0.83386967  -0.00434799  1
  Cu+  Cu52  1  0.83233681  0.83427092  0.33374596  1
  Cu+  Cu53  1  0.83254411  0.83361694  0.66397883  1
  Cu+  Cu54  1  0.16569171  -0.00047467  0.16520208  1
  Cu+  Cu55  1  0.16615042  -0.00129885  0.50336076  1
  Cu+  Cu56  1  0.16478556  -0.00106176  0.83238958  1
  Cu+  Cu57  1  0.16038185  0.33140013  0.16723690  1
  Cu+  Cu58  1  0.16829433  0.33270260  0.49741160  1
  Cu+  Cu59  1  0.16754914  0.33017355  0.83286067  1
  Cu+  Cu60  1  0.16003762  0.66094411  0.16418947  1
  Cu+  Cu61  1  0.17883855  0.67350821  0.50025638  1
  Cu+  Cu62  1  0.16758145  0.66536929  0.83497865  1
  Cu+  Cu63  1  0.49864031  -0.00382363  0.16497240  1
  Cu+  Cu64  1  0.50618220  0.00165794  0.49928811  1
  Cu+  Cu65  1  0.50448393  0.00118844  0.83432442  1
  Cu+  Cu66  1  0.50217845  0.33192422  0.17181117  1
  Cu+  Cu67  1  0.48949488  0.33004506  0.50134766  1
  Cu+  Cu68  1  0.49946894  0.33426558  0.83793369  1
  Cu+  Cu69  1  0.50434446  0.66826100  0.16233920  1
  Cu+  Cu70  1  0.49600329  0.66790223  0.49892653  1
  Cu+  Cu71  1  0.49833713  0.66984996  0.83326340  1
  Cu+  Cu72  1  0.83239493  0.00224151  0.16407913  1
  Cu+  Cu73  1  0.83363580  0.00031966  0.49851271  1
  Cu+  Cu74  1  0.83609528  -0.00122926  0.83749127  1
  Cu+  Cu75  1  0.83266771  0.33436104  0.17190662  1
  Cu+  Cu76  1  0.83112317  0.33989476  0.50280197  1
  Cu+  Cu77  1  0.83247171  0.33110706  0.82478542  1
  Cu+  Cu78  1  0.84057238  0.66735217  0.16556007  1
  Cu+  Cu79  1  0.83059658  0.66872489  0.50246611  1
  Cu+  Cu80  1  0.82961508  0.66274972  0.82868953  1
  Cu+  Cu81  1  -0.00557549  0.16579214  0.17248943  1
  Cu+  Cu82  1  -0.00018865  0.16762938  0.49435313  1
  Cu+  Cu83  1  0.00310190  0.16657746  0.83512453  1
  Cu+  Cu84  1  -0.00117116  0.50691010  0.17040517  1
  Cu+  Cu85  1  0.00448362  0.50391683  0.50260179  1
  Cu+  Cu86  1  -0.00060608  0.49381842  0.82922678  1
  Cu+  Cu87  1  -0.00132345  0.82768941  0.15994056  1
  Cu+  Cu88  1  -0.00029400  0.83295128  0.50475210  1
  Cu+  Cu89  1  0.00058396  0.83735427  0.83329880  1
  Cu+  Cu90  1  0.32667974  0.16102656  0.16620821  1
  Cu+  Cu91  1  0.33463830  0.16627575  0.50111183  1
  Cu+  Cu92  1  0.33401377  0.16635353  0.83473730  1
  Cu+  Cu93  1  0.33368295  0.49532701  0.17033440  1
  Cu+  Cu94  1  0.33353444  0.50044817  0.49944054  1
  Cu+  Cu95  1  0.33410571  0.49634365  0.83933811  1
  Cu+  Cu96  1  0.33437790  0.83267134  0.16431750  1
  Cu+  Cu97  1  0.33400706  0.83470990  0.50052941  1
  Cu+  Cu98  1  0.33662444  0.83101982  0.83631839  1
  Cu+  Cu99  1  0.66437871  0.17082665  0.17415238  1
  Cu+  Cu100  1  0.66444125  0.16517155  0.49833543  1
  Cu+  Cu101  1  0.66942652  0.16832673  0.83361530  1
  Cu+  Cu102  1  0.67027701  0.50115147  0.16491722  1
  Cu+  Cu103  1  0.66190961  0.49937734  0.50087901  1
  Cu+  Cu104  1  0.66539590  0.50363548  0.82786810  1
  Cu+  Cu105  1  0.66850191  0.83369629  0.16317178  1
  Cu+  Cu106  1  0.66759351  0.83346551  0.49965512  1
  Cu+  Cu107  1  0.66616156  0.83342697  0.83089801  1
  Cu+  Cu108  1  0.25865665  0.60222212  0.60080466  1
  Cu+  Cu109  1  0.40782310  0.74232128  0.92698424  1
  Cu+  Cu110  1  0.73611567  0.59622484  0.73693383  1
  Cu+  Cu111  1  0.92927340  0.92758854  0.92419022  1
  Cu+  Cu112  1  0.07220582  0.58508896  0.06807467  1
  Cu+  Cu113  1  0.92814955  0.06848915  0.41194573  1
  Cu+  Cu114  1  0.07173290  0.92989884  0.74076060  1
  Cu+  Cu115  1  0.73613608  0.25600542  0.73749553  1
  Cu+  Cu116  1  0.92026902  0.73692256  0.06499278  1
  Cu+  Cu117  1  0.40673650  0.24430082  0.40368672  1
  Cu+  Cu118  1  0.25430853  0.40389894  0.40591717  1
  Cu+  Cu119  1  0.40691167  0.40307502  0.92834264  1
  Cu+  Cu120  1  0.40513531  0.40063359  0.25309895  1
  Cu+  Cu121  1  0.07064514  0.26719487  0.41325906  1
  Cu+  Cu122  1  0.25949974  0.06946999  0.07195857  1
  Cu+  Cu123  1  0.92363828  0.08064402  0.07430835  1
  Cu+  Cu124  1  0.92333174  0.59850744  0.26747704  1
  Cu+  Cu125  1  0.26251565  0.75841922  0.40169452  1
  Cu+  Cu126  1  0.40570203  0.40112096  0.59734987  1
  Cu+  Cu127  1  0.92444972  0.26377276  0.25910490  1
  Cu+  Cu128  1  0.41893280  0.59854501  0.40038565  1
  Cu+  Cu129  1  0.93063522  0.40374053  0.73718360  1
  Cu+  Cu130  1  0.59315869  0.06995922  0.40556053  1
  Cu+  Cu131  1  0.26384259  0.59825878  0.24267179  1
  Cu+  Cu132  1  0.59464660  0.26468404  0.26307009  1
  Te2-  Te133  1  0.24794090  0.25203017  0.08396514  1
  Te2-  Te134  1  0.25459214  0.25033094  0.40994425  1
  Te2-  Te135  1  0.25216200  0.24904563  0.74791687  1
  Te2-  Te136  1  0.25312310  0.58114101  0.08243678  1
  Te2-  Te137  1  0.26149549  0.59404366  0.40840518  1
  Te2-  Te138  1  0.25703274  0.58582927  0.75314222  1
  Te2-  Te139  1  0.25211623  0.91712045  0.07988741  1
  Te2-  Te140  1  0.25046254  0.91970936  0.41477825  1
  Te2-  Te141  1  0.25552787  0.91789727  0.75226979  1
  Te2-  Te142  1  0.58451920  0.25190494  0.08365957  1
  Te2-  Te143  1  0.58749429  0.26010692  0.41820135  1
  Te2-  Te144  1  0.58515632  0.25560551  0.74968598  1
  Te2-  Te145  1  0.58550429  0.58200193  0.08033983  1
  Te2-  Te146  1  0.57919907  0.58202667  0.41298145  1
  Te2-  Te147  1  0.57992126  0.58724363  0.74360235  1
  Te2-  Te148  1  0.58533590  0.91752186  0.07825624  1
  Te2-  Te149  1  0.58865938  0.91754156  0.41120912  1
  Te2-  Te150  1  0.58714765  0.92057567  0.74658109  1
  Te2-  Te151  1  0.91655288  0.25266347  0.08432497  1
  Te2-  Te152  1  0.91852351  0.26281650  0.41497890  1
  Te2-  Te153  1  0.92465807  0.24955208  0.74482558  1
  Te2-  Te154  1  0.92008116  0.58445425  0.07194639  1
  Te2-  Te155  1  0.92097650  0.58995528  0.41955661  1
  Te2-  Te156  1  0.92071796  0.58448241  0.74627893  1
  Te2-  Te157  1  0.92257793  0.92309131  0.07867833  1
  Te2-  Te158  1  0.92163033  0.91693431  0.41416241  1
  Te2-  Te159  1  0.91749258  0.92072813  0.74445416  1
  Te2-  Te160  1  0.24555274  0.08074661  0.25667266  1
  Te2-  Te161  1  0.25324412  0.08086684  0.58371820  1
  Te2-  Te162  1  0.25346994  0.07760265  0.91877890  1
  Te2-  Te163  1  0.25172747  0.40471479  0.25238469  1
  Te2-  Te164  1  0.25333212  0.41124161  0.58702078  1
  Te2-  Te165  1  0.24997779  0.41066852  0.92301543  1
  Te2-  Te166  1  0.25232579  0.74733741  0.24973556  1
  Te2-  Te167  1  0.25563313  0.75501158  0.59523046  1
  Te2-  Te168  1  0.25289605  0.74477569  0.92095072  1
  Te2-  Te169  1  0.58541257  0.07599778  0.25149920  1
  Te2-  Te170  1  0.58760315  0.08232075  0.58894218  1
  Te2-  Te171  1  0.58818606  0.08377064  0.92006363  1
  Te2-  Te172  1  0.58968955  0.41738220  0.25450772  1
  Te2-  Te173  1  0.57981204  0.41277181  0.58374487  1
  Te2-  Te174  1  0.58806890  0.41787853  0.91711523  1
  Te2-  Te175  1  0.58828524  0.74812969  0.24898531  1
  Te2-  Te176  1  0.58346999  0.74782149  0.58188544  1
  Te2-  Te177  1  0.58790882  0.74762492  0.91713798  1
  Te2-  Te178  1  0.91799807  0.07536051  0.25674789  1
  Te2-  Te179  1  0.91723354  0.08526987  0.58421534  1
  Te2-  Te180  1  0.92299721  0.08136288  0.92168522  1
  Te2-  Te181  1  0.92050924  0.41733439  0.25594464  1
  Te2-  Te182  1  0.92203204  0.41669096  0.58561112  1
  Te2-  Te183  1  0.91700075  0.40993610  0.91495067  1
  Te2-  Te184  1  0.92206800  0.74997979  0.25594785  1
  Te2-  Te185  1  0.91788074  0.74715064  0.58677084  1
  Te2-  Te186  1  0.92006474  0.74221328  0.91260681  1
  Te2-  Te187  1  0.07573068  0.25595352  0.25625973  1
  Te2-  Te188  1  0.08203996  0.25170796  0.58362113  1
  Te2-  Te189  1  0.08358813  0.25059516  0.92075489  1
  Te2-  Te190  1  0.08083143  0.58635624  0.26115222  1
  Te2-  Te191  1  0.08918794  0.58992532  0.58415951  1
  Te2-  Te192  1  0.07889284  0.58207542  0.91530500  1
  Te2-  Te193  1  0.07931058  0.91474272  0.24778077  1
  Te2-  Te194  1  0.07861182  0.92110976  0.58803271  1
  Te2-  Te195  1  0.08231789  0.92041824  0.92342298  1
  Te2-  Te196  1  0.40726965  0.24906262  0.25291003  1
  Te2-  Te197  1  0.41179327  0.24780098  0.59346231  1
  Te2-  Te198  1  0.41272739  0.25125019  0.92285490  1
  Te2-  Te199  1  0.41461935  0.59246502  0.24904902  1
  Te2-  Te200  1  0.41149483  0.58842989  0.58838365  1
  Te2-  Te201  1  0.41426539  0.58695323  0.92086169  1
  Te2-  Te202  1  0.41351850  0.91723016  0.25014783  1
  Te2-  Te203  1  0.41750246  0.92130995  0.58221643  1
  Te2-  Te204  1  0.41695937  0.92123755  0.91831074  1
  Te2-  Te205  1  0.74708720  0.25515437  0.25997815  1
  Te2-  Te206  1  0.74488495  0.25465308  0.58308920  1
  Te2-  Te207  1  0.75204160  0.25222123  0.92007063  1
  Te2-  Te208  1  0.74996256  0.58866923  0.24980059  1
  Te2-  Te209  1  0.74327210  0.58635604  0.58532465  1
  Te2-  Te210  1  0.74741518  0.58292691  0.91785201  1
  Te2-  Te211  1  0.74963362  0.91787305  0.24878546  1
  Te2-  Te212  1  0.74801827  0.92044157  0.58398918  1
  Te2-  Te213  1  0.74716795  0.91664796  0.91793107  1
  Te2-  Te214  1  0.07618770  0.08102674  0.08321936  1
  Te2-  Te215  1  0.08092253  0.07473306  0.41422656  1
  Te2-  Te216  1  0.08023405  0.08187973  0.74585311  1
  Te2-  Te217  1  0.07603593  0.41478849  0.08461022  1
  Te2-  Te218  1  0.08355383  0.42047336  0.41286407  1
  Te2-  Te219  1  0.08664923  0.41269703  0.74348849  1
  Te2-  Te220  1  0.07971824  0.74264261  0.07457000  1
  Te2-  Te221  1  0.08162842  0.74770948  0.41994547  1
  Te2-  Te222  1  0.08090466  0.74625223  0.75135429  1
  Te2-  Te223  1  0.41449904  0.08012136  0.08158803  1
  Te2-  Te224  1  0.41749184  0.08212477  0.41420490  1
  Te2-  Te225  1  0.41703715  0.08164960  0.75097491  1
  Te2-  Te226  1  0.41421353  0.41042302  0.08229023  1
  Te2-  Te227  1  0.40658512  0.40612824  0.40835279  1
  Te2-  Te228  1  0.41127385  0.41097567  0.74985802  1
  Te2-  Te229  1  0.41329740  0.74515926  0.07963580  1
  Te2-  Te230  1  0.41377669  0.75027503  0.40787067  1
  Te2-  Te231  1  0.41612961  0.75029450  0.74430636  1
  Te2-  Te232  1  0.74233532  0.08480038  0.08568490  1
  Te2-  Te233  1  0.74746311  0.08190719  0.41234526  1
  Te2-  Te234  1  0.75084702  0.07965725  0.75019383  1
  Te2-  Te235  1  0.75085193  0.41377901  0.08299746  1
  Te2-  Te236  1  0.74772859  0.42000560  0.41507241  1
  Te2-  Te237  1  0.74173690  0.41218254  0.74333985  1
  Te2-  Te238  1  0.75169238  0.74798015  0.07922120  1
  Te2-  Te239  1  0.74775314  0.74822265  0.41430506  1
  Te2-  Te240  1  0.74618517  0.74897135  0.74454244  1
