# generated using pymatgen
data_Ti27(Cu53Te54)2
_symmetry_space_group_name_H-M   'P 1'
_cell_length_a   17.89101921
_cell_length_b   17.89245360
_cell_length_c   17.89319582
_cell_angle_alpha   90.03355085
_cell_angle_beta   89.95190127
_cell_angle_gamma   89.98563598
_symmetry_Int_Tables_number   1
_chemical_formula_structural   Ti27(Cu53Te54)2
_chemical_formula_sum   'Ti27 Cu106 Te108'
_cell_volume   5727.86343968
_cell_formula_units_Z   1
loop_
 _symmetry_equiv_pos_site_id
 _symmetry_equiv_pos_as_xyz
  1  'x, y, z'
loop_
 _atom_type_symbol
 _atom_type_oxidation_number
  Ti4+  4.0
  Cu+  1.0
  Te2-  -2.0
loop_
 _atom_site_type_symbol
 _atom_site_label
 _atom_site_symmetry_multiplicity
 _atom_site_fract_x
 _atom_site_fract_y
 _atom_site_fract_z
 _atom_site_occupancy
  Ti4+  Ti0  1  0.16735370  0.16420726  0.17237412  1
  Ti4+  Ti1  1  0.16490688  0.16394429  0.49934137  1
  Ti4+  Ti2  1  0.16566751  0.16588901  0.83389382  1
  Ti4+  Ti3  1  0.16844838  0.50103887  0.17272368  1
  Ti4+  Ti4  1  0.16784749  0.49879917  0.50244619  1
  Ti4+  Ti5  1  0.16820346  0.49954589  0.83517948  1
  Ti4+  Ti6  1  0.16093726  0.83673604  0.16219998  1
  Ti4+  Ti7  1  0.16920345  0.83355330  0.49781616  1
  Ti4+  Ti8  1  0.16396044  0.83463442  0.83236694  1
  Ti4+  Ti9  1  0.49911028  0.16698980  0.16690453  1
  Ti4+  Ti10  1  0.50113736  0.16674445  0.49966944  1
  Ti4+  Ti11  1  0.49960030  0.16721901  0.83253087  1
  Ti4+  Ti12  1  0.49822365  0.49968812  0.16218947  1
  Ti4+  Ti13  1  0.50105641  0.49845972  0.50169526  1
  Ti4+  Ti14  1  0.50100562  0.50197116  0.83103017  1
  Ti4+  Ti15  1  0.50128907  0.83106249  0.16646210  1
  Ti4+  Ti16  1  0.50149260  0.83214611  0.50154310  1
  Ti4+  Ti17  1  0.49903631  0.83404347  0.83530074  1
  Ti4+  Ti18  1  0.83120811  0.16876559  0.16522609  1
  Ti4+  Ti19  1  0.83399084  0.16753790  0.49505598  1
  Ti4+  Ti20  1  0.83243034  0.16936771  0.83267181  1
  Ti4+  Ti21  1  0.83332662  0.50183663  0.16523513  1
  Ti4+  Ti22  1  0.83511756  0.49818931  0.49894857  1
  Ti4+  Ti23  1  0.83588307  0.49886240  0.83336821  1
  Ti4+  Ti24  1  0.83529585  0.83339577  0.16807828  1
  Ti4+  Ti25  1  0.83307562  0.83285700  0.50003057  1
  Ti4+  Ti26  1  0.83244261  0.83423901  0.83217904  1
  Cu+  Cu27  1  0.16643577  0.16394539  0.00116394  1
  Cu+  Cu28  1  0.16689639  0.16165977  0.33554259  1
  Cu+  Cu29  1  0.16511595  0.16299186  0.66873847  1
  Cu+  Cu30  1  0.17126471  0.50022066  0.00627396  1
  Cu+  Cu31  1  0.16745155  0.50218306  0.34175111  1
  Cu+  Cu32  1  0.16689179  0.50031577  0.67037365  1
  Cu+  Cu33  1  0.16149737  0.83941676  -0.00361751  1
  Cu+  Cu34  1  0.16327280  0.84260912  0.33276328  1
  Cu+  Cu35  1  0.16760373  0.83280179  0.66491605  1
  Cu+  Cu36  1  0.49939972  0.16718872  -0.00126380  1
  Cu+  Cu37  1  0.50166213  0.16485179  0.33322202  1
  Cu+  Cu38  1  0.49950859  0.16664067  0.66640983  1
  Cu+  Cu39  1  0.49536680  0.49771338  -0.00652712  1
  Cu+  Cu40  1  0.49839057  0.49919424  0.33534118  1
  Cu+  Cu41  1  0.50300746  0.50032278  0.66603164  1
  Cu+  Cu42  1  0.49719754  0.83534591  0.00277961  1
  Cu+  Cu43  1  0.50193157  0.83111361  0.33724850  1
  Cu+  Cu44  1  0.50225189  0.83119304  0.66951019  1
  Cu+  Cu45  1  0.83415654  0.17489354  -0.00228628  1
  Cu+  Cu46  1  0.82666225  0.17190599  0.33054099  1
  Cu+  Cu47  1  0.83581311  0.16682804  0.66391793  1
  Cu+  Cu48  1  0.83266826  0.49775550  -0.00287445  1
  Cu+  Cu49  1  0.83646619  0.50063141  0.33037869  1
  Cu+  Cu50  1  0.83596638  0.49654049  0.66680845  1
  Cu+  Cu51  1  0.83564925  0.83541434  -0.00263519  1
  Cu+  Cu52  1  0.83105844  0.83083870  0.33332610  1
  Cu+  Cu53  1  0.83305411  0.83451670  0.66472735  1
  Cu+  Cu54  1  0.16241806  -0.00228191  0.17127152  1
  Cu+  Cu55  1  0.16900333  -0.00133612  0.49210931  1
  Cu+  Cu56  1  0.16569319  0.00187557  0.83258940  1
  Cu+  Cu57  1  0.17208243  0.33311493  0.17384152  1
  Cu+  Cu58  1  0.16475404  0.33252186  0.50171250  1
  Cu+  Cu59  1  0.16956357  0.33132267  0.83510420  1
  Cu+  Cu60  1  0.16018991  0.66785609  0.16457997  1
  Cu+  Cu61  1  0.16886910  0.66472060  0.50120778  1
  Cu+  Cu62  1  0.16456783  0.66780242  0.83260768  1
  Cu+  Cu63  1  0.49954861  -0.00238213  0.16220569  1
  Cu+  Cu64  1  0.50245411  -0.00232489  0.50353776  1
  Cu+  Cu65  1  0.49867779  0.00181820  0.83540630  1
  Cu+  Cu66  1  0.49532482  0.33640655  0.16663682  1
  Cu+  Cu67  1  0.50113061  0.33228507  0.50138379  1
  Cu+  Cu68  1  0.49891679  0.33378077  0.83241357  1
  Cu+  Cu69  1  0.50445344  0.66313788  0.16491421  1
  Cu+  Cu70  1  0.50065119  0.66524953  0.50175343  1
  Cu+  Cu71  1  0.50462977  0.67005470  0.83000641  1
  Cu+  Cu72  1  0.82943992  0.00388517  0.16716494  1
  Cu+  Cu73  1  0.83324510  0.00019790  0.49769663  1
  Cu+  Cu74  1  0.83008126  0.00143812  0.83210339  1
  Cu+  Cu75  1  0.83076128  0.33170098  0.16056249  1
  Cu+  Cu76  1  0.83515506  0.33299103  0.49720533  1
  Cu+  Cu77  1  0.83790388  0.33384589  0.83671018  1
  Cu+  Cu78  1  0.83813254  0.66886223  0.16993567  1
  Cu+  Cu79  1  0.83404702  0.66722776  0.50154702  1
  Cu+  Cu80  1  0.83347840  0.66471052  0.83180670  1
  Cu+  Cu81  1  -0.00184857  0.16550921  0.17281880  1
  Cu+  Cu82  1  -0.00156561  0.17303994  0.49795559  1
  Cu+  Cu83  1  -0.00014999  0.16867589  0.83603206  1
  Cu+  Cu84  1  0.00141444  0.50534707  0.16764846  1
  Cu+  Cu85  1  0.00217317  0.49928524  0.50055046  1
  Cu+  Cu86  1  0.00363197  0.50080526  0.83250746  1
  Cu+  Cu87  1  -0.00250247  0.82866352  0.15724197  1
  Cu+  Cu88  1  -0.00193970  0.83383367  0.49914413  1
  Cu+  Cu89  1  -0.00267878  0.83390504  0.83052763  1
  Cu+  Cu90  1  0.33154257  0.16681726  0.17170807  1
  Cu+  Cu91  1  0.33511817  0.16172153  0.50056126  1
  Cu+  Cu92  1  0.33128775  0.16543578  0.83237938  1
  Cu+  Cu93  1  0.33569330  0.49454134  0.17098447  1
  Cu+  Cu94  1  0.33309244  0.49722934  0.50465122  1
  Cu+  Cu95  1  0.33542998  0.49920452  0.83585727  1
  Cu+  Cu96  1  0.33527263  0.83722745  0.16074741  1
  Cu+  Cu97  1  0.33910083  0.83085894  0.50234748  1
  Cu+  Cu98  1  0.32959218  0.83422413  0.83547075  1
  Cu+  Cu99  1  0.66638299  0.16611848  0.16359756  1
  Cu+  Cu100  1  0.66649912  0.16733615  0.49541446  1
  Cu+  Cu101  1  0.66436660  0.16748874  0.83148539  1
  Cu+  Cu102  1  0.66056805  0.50486068  0.16422547  1
  Cu+  Cu103  1  0.66806963  0.49672704  0.49974500  1
  Cu+  Cu104  1  0.66981852  0.49985285  0.83107915  1
  Cu+  Cu105  1  0.67031648  0.82918362  0.16989632  1
  Cu+  Cu106  1  0.66728776  0.83359109  0.50098449  1
  Cu+  Cu107  1  0.66568784  0.83135596  0.83322064  1
  Cu+  Cu108  1  0.06795442  0.07334182  0.26049832  1
  Cu+  Cu109  1  0.07430962  0.59434013  0.41769178  1
  Cu+  Cu110  1  0.26546510  0.91645623  0.25782876  1
  Cu+  Cu111  1  0.06738601  0.92610891  0.41434165  1
  Cu+  Cu112  1  0.26765796  0.07234020  0.41032405  1
  Cu+  Cu113  1  0.74108135  0.73896098  0.26209229  1
  Cu+  Cu114  1  0.41230755  0.40815501  0.26599626  1
  Cu+  Cu115  1  0.73353582  0.25867743  0.06764601  1
  Cu+  Cu116  1  0.06757039  0.93106365  0.06692907  1
  Cu+  Cu117  1  0.07454175  0.59443491  0.74074250  1
  Cu+  Cu118  1  0.26022242  0.25805631  0.26551436  1
  Cu+  Cu119  1  0.93215708  0.26260614  0.92699460  1
  Cu+  Cu120  1  0.59663029  0.74094803  0.73880431  1
  Cu+  Cu121  1  0.92080310  0.26276979  0.25448920  1
  Cu+  Cu122  1  0.40659399  0.40308017  0.92049208  1
  Cu+  Cu123  1  0.92541105  0.59445732  0.26154588  1
  Cu+  Cu124  1  0.92350499  0.26021679  0.59479057  1
  Cu+  Cu125  1  0.40792145  0.93079725  0.06946784  1
  Cu+  Cu126  1  0.91757133  0.73802224  0.06505074  1
  Cu+  Cu127  1  0.73442942  0.26479184  0.41138497  1
  Cu+  Cu128  1  0.58393785  0.58853680  0.26424927  1
  Cu+  Cu129  1  0.07575569  0.58604784  0.07144682  1
  Cu+  Cu130  1  0.08258123  0.74420826  0.26278299  1
  Cu+  Cu131  1  0.07861482  0.26207343  0.40850739  1
  Cu+  Cu132  1  0.73613250  0.07542282  0.25865736  1
  Te2-  Te133  1  0.25010234  0.24944320  0.08399499  1
  Te2-  Te134  1  0.25433000  0.25198698  0.41706435  1
  Te2-  Te135  1  0.25107079  0.25007903  0.74678962  1
  Te2-  Te136  1  0.25553197  0.58604554  0.08916934  1
  Te2-  Te137  1  0.25700261  0.58481206  0.41857297  1
  Te2-  Te138  1  0.25414764  0.58536524  0.75077072  1
  Te2-  Te139  1  0.24963344  0.92344944  0.07769535  1
  Te2-  Te140  1  0.26219757  0.91731320  0.41240568  1
  Te2-  Te141  1  0.25007290  0.91900460  0.74773634  1
  Te2-  Te142  1  0.58156392  0.25481428  0.08079208  1
  Te2-  Te143  1  0.58424324  0.25509132  0.41087744  1
  Te2-  Te144  1  0.58391503  0.25341715  0.74670117  1
  Te2-  Te145  1  0.58243362  0.58381105  0.07202914  1
  Te2-  Te146  1  0.58765169  0.58491073  0.41623188  1
  Te2-  Te147  1  0.59011150  0.58587278  0.74490537  1
  Te2-  Te148  1  0.59026151  0.91495382  0.08303454  1
  Te2-  Te149  1  0.58669289  0.91820000  0.41572078  1
  Te2-  Te150  1  0.58465289  0.92049108  0.75054011  1
  Te2-  Te151  1  0.92530664  0.25351951  0.08160218  1
  Te2-  Te152  1  0.92156598  0.25729481  0.40628646  1
  Te2-  Te153  1  0.92119207  0.25409111  0.74671441  1
  Te2-  Te154  1  0.91982136  0.58614586  0.07504375  1
  Te2-  Te155  1  0.92046419  0.58865580  0.41451862  1
  Te2-  Te156  1  0.92045838  0.58548858  0.74569983  1
  Te2-  Te157  1  0.91566183  0.92498581  0.08020492  1
  Te2-  Te158  1  0.91634801  0.91973543  0.41096466  1
  Te2-  Te159  1  0.91622330  0.92043975  0.74694257  1
  Te2-  Te160  1  0.25728585  0.07349099  0.25599668  1
  Te2-  Te161  1  0.24944061  0.07840466  0.58485786  1
  Te2-  Te162  1  0.25140888  0.08042363  0.91928830  1
  Te2-  Te163  1  0.25396538  0.41500200  0.26194987  1
  Te2-  Te164  1  0.25054722  0.41217780  0.58855501  1
  Te2-  Te165  1  0.25283212  0.41303480  0.92273731  1
  Te2-  Te166  1  0.24877300  0.75269411  0.24821576  1
  Te2-  Te167  1  0.25261404  0.74807483  0.58406892  1
  Te2-  Te168  1  0.24766243  0.74992653  0.91980396  1
  Te2-  Te169  1  0.58417335  0.07863652  0.25003312  1
  Te2-  Te170  1  0.58734144  0.08345361  0.58461867  1
  Te2-  Te171  1  0.58551152  0.08236869  0.91891071  1
  Te2-  Te172  1  0.58517273  0.41490658  0.25049803  1
  Te2-  Te173  1  0.58699400  0.41292951  0.58583094  1
  Te2-  Te174  1  0.58702009  0.41533165  0.91552012  1
  Te2-  Te175  1  0.58700086  0.74420255  0.25612910  1
  Te2-  Te176  1  0.58856540  0.74524583  0.58598744  1
  Te2-  Te177  1  0.58429240  0.74973086  0.92270648  1
  Te2-  Te178  1  0.91468275  0.07964394  0.25615249  1
  Te2-  Te179  1  0.91961566  0.08158333  0.58065927  1
  Te2-  Te180  1  0.91552474  0.08229608  0.91871109  1
  Te2-  Te181  1  0.91998099  0.41433514  0.24825816  1
  Te2-  Te182  1  0.92203841  0.41320584  0.58513946  1
  Te2-  Te183  1  0.92478437  0.41565060  0.92144202  1
  Te2-  Te184  1  0.92560822  0.74820100  0.25845990  1
  Te2-  Te185  1  0.91946681  0.74865247  0.58535824  1
  Te2-  Te186  1  0.92007749  0.74581711  0.91517637  1
  Te2-  Te187  1  0.07922095  0.25622683  0.25620796  1
  Te2-  Te188  1  0.08161092  0.25111605  0.58892242  1
  Te2-  Te189  1  0.08335218  0.25381798  0.92315603  1
  Te2-  Te190  1  0.07951417  0.58928900  0.26146851  1
  Te2-  Te191  1  0.08054980  0.58672761  0.58778603  1
  Te2-  Te192  1  0.08232524  0.58554338  0.92186414  1
  Te2-  Te193  1  0.06773907  0.92026579  0.25324284  1
  Te2-  Te194  1  0.08355472  0.91942248  0.58242695  1
  Te2-  Te195  1  0.07493406  0.92347407  0.91480377  1
  Te2-  Te196  1  0.41396833  0.25292244  0.25714771  1
  Te2-  Te197  1  0.41391248  0.25042063  0.58412894  1
  Te2-  Te198  1  0.41127677  0.25126682  0.91899657  1
  Te2-  Te199  1  0.41471663  0.58688457  0.25142786  1
  Te2-  Te200  1  0.41564762  0.58377083  0.58653077  1
  Te2-  Te201  1  0.41627230  0.59095397  0.91481882  1
  Te2-  Te202  1  0.41802245  0.91786553  0.25495945  1
  Te2-  Te203  1  0.41702394  0.91725227  0.58857534  1
  Te2-  Te204  1  0.41093949  0.92149514  0.91948153  1
  Te2-  Te205  1  0.74120061  0.25829037  0.25024484  1
  Te2-  Te206  1  0.74824235  0.25171819  0.58277239  1
  Te2-  Te207  1  0.74268683  0.25664507  0.91639535  1
  Te2-  Te208  1  0.74491062  0.58643121  0.25297559  1
  Te2-  Te209  1  0.75038430  0.58205776  0.58505963  1
  Te2-  Te210  1  0.74911583  0.58463956  0.91736985  1
  Te2-  Te211  1  0.74690457  0.91977716  0.25357629  1
  Te2-  Te212  1  0.74864223  0.92003531  0.58395638  1
  Te2-  Te213  1  0.74676519  0.91836193  0.91785799  1
  Te2-  Te214  1  0.07897246  0.08255656  0.08284456  1
  Te2-  Te215  1  0.07246974  0.07784878  0.41297509  1
  Te2-  Te216  1  0.07773983  0.08148089  0.74941238  1
  Te2-  Te217  1  0.08490235  0.41368492  0.08795971  1
  Te2-  Te218  1  0.07963132  0.41294489  0.41385964  1
  Te2-  Te219  1  0.08376757  0.41163085  0.75030881  1
  Te2-  Te220  1  0.07839452  0.74450156  0.07076173  1
  Te2-  Te221  1  0.07989596  0.74613356  0.41436830  1
  Te2-  Te222  1  0.07868328  0.74897263  0.74432096  1
  Te2-  Te223  1  0.41172635  0.08351504  0.08095542  1
  Te2-  Te224  1  0.41871444  0.07652077  0.41348593  1
  Te2-  Te225  1  0.41434438  0.08127969  0.74780275  1
  Te2-  Te226  1  0.41021715  0.41239374  0.07662465  1
  Te2-  Te227  1  0.41293477  0.41193053  0.41759637  1
  Te2-  Te228  1  0.41501185  0.41599341  0.74565138  1
  Te2-  Te229  1  0.41519153  0.74438092  0.08288106  1
  Te2-  Te230  1  0.41651917  0.74515987  0.41559208  1
  Te2-  Te231  1  0.41182654  0.74963602  0.75013722  1
  Te2-  Te232  1  0.74903241  0.08336813  0.07504474  1
  Te2-  Te233  1  0.74633216  0.07869246  0.41204249  1
  Te2-  Te234  1  0.74817748  0.08493870  0.74576438  1
  Te2-  Te235  1  0.74475127  0.41763762  0.08016224  1
  Te2-  Te236  1  0.74851355  0.41576997  0.41026617  1
  Te2-  Te237  1  0.75150657  0.41236015  0.74881608  1
  Te2-  Te238  1  0.75180072  0.74734628  0.08020707  1
  Te2-  Te239  1  0.74597143  0.74465025  0.41580288  1
  Te2-  Te240  1  0.74919625  0.74626867  0.74533944  1
