# generated using pymatgen
data_Ti27(Cu53Te54)2
_symmetry_space_group_name_H-M   'P 1'
_cell_length_a   17.93413218
_cell_length_b   17.92995868
_cell_length_c   17.93387378
_cell_angle_alpha   90.00280243
_cell_angle_beta   89.91497910
_cell_angle_gamma   90.01788080
_symmetry_Int_Tables_number   1
_chemical_formula_structural   Ti27(Cu53Te54)2
_chemical_formula_sum   'Ti27 Cu106 Te108'
_cell_volume   5766.77840958
_cell_formula_units_Z   1
loop_
 _symmetry_equiv_pos_site_id
 _symmetry_equiv_pos_as_xyz
  1  'x, y, z'
loop_
 _atom_type_symbol
 _atom_type_oxidation_number
  Ti4+  4.0
  Cu+  1.0
  Te2-  -2.0
loop_
 _atom_site_type_symbol
 _atom_site_label
 _atom_site_symmetry_multiplicity
 _atom_site_fract_x
 _atom_site_fract_y
 _atom_site_fract_z
 _atom_site_occupancy
  Ti4+  Ti0  1  0.16938731  0.17202587  0.16383358  1
  Ti4+  Ti1  1  0.16450808  0.16487583  0.49501935  1
  Ti4+  Ti2  1  0.16737630  0.17085954  0.82795416  1
  Ti4+  Ti3  1  0.16911886  0.49985931  0.17003422  1
  Ti4+  Ti4  1  0.16591787  0.49844177  0.49852016  1
  Ti4+  Ti5  1  0.16982597  0.50036499  0.83282448  1
  Ti4+  Ti6  1  0.16806553  0.83296591  0.16620178  1
  Ti4+  Ti7  1  0.16284501  0.83238012  0.50234441  1
  Ti4+  Ti8  1  0.16511566  0.83873939  0.83354469  1
  Ti4+  Ti9  1  0.50102136  0.16631070  0.16894460  1
  Ti4+  Ti10  1  0.50415856  0.16256032  0.50189043  1
  Ti4+  Ti11  1  0.50048225  0.16692659  0.83310810  1
  Ti4+  Ti12  1  0.50031320  0.50051940  0.16740090  1
  Ti4+  Ti13  1  0.49991131  0.49854778  0.50115962  1
  Ti4+  Ti14  1  0.50006415  0.50012534  0.83242494  1
  Ti4+  Ti15  1  0.49918193  0.83269989  0.16798460  1
  Ti4+  Ti16  1  0.49567931  0.83248807  0.50182036  1
  Ti4+  Ti17  1  0.49830219  0.83427453  0.83316152  1
  Ti4+  Ti18  1  0.83151457  0.16067404  0.16430509  1
  Ti4+  Ti19  1  0.83481312  0.16669085  0.50133109  1
  Ti4+  Ti20  1  0.83186066  0.16672282  0.83846895  1
  Ti4+  Ti21  1  0.83354746  0.49561309  0.16730363  1
  Ti4+  Ti22  1  0.83032076  0.50161618  0.50167093  1
  Ti4+  Ti23  1  0.83478015  0.50507590  0.83464640  1
  Ti4+  Ti24  1  0.83477742  0.82997711  0.16519466  1
  Ti4+  Ti25  1  0.83558688  0.83397908  0.50046844  1
  Ti4+  Ti26  1  0.83174267  0.83271204  0.83067964  1
  Cu+  Cu27  1  0.17040360  0.17303423  -0.00670706  1
  Cu+  Cu28  1  0.16959096  0.16958314  0.32876909  1
  Cu+  Cu29  1  0.16371673  0.16786592  0.66055570  1
  Cu+  Cu30  1  0.16922314  0.49988355  0.00230070  1
  Cu+  Cu31  1  0.16293188  0.49863087  0.33315401  1
  Cu+  Cu32  1  0.17063510  0.49775494  0.66619290  1
  Cu+  Cu33  1  0.16541944  0.83732993  0.00158713  1
  Cu+  Cu34  1  0.16295448  0.83093671  0.33331619  1
  Cu+  Cu35  1  0.16841959  0.83685652  0.66660617  1
  Cu+  Cu36  1  0.49769750  0.16663076  0.00279896  1
  Cu+  Cu37  1  0.50408929  0.16170646  0.33655404  1
  Cu+  Cu38  1  0.50652151  0.16799947  0.66461593  1
  Cu+  Cu39  1  0.50006501  0.50179581  -0.00204248  1
  Cu+  Cu40  1  0.49753943  0.50145894  0.33592849  1
  Cu+  Cu41  1  0.50103692  0.49877466  0.66587607  1
  Cu+  Cu42  1  0.49944421  0.83302052  0.00084554  1
  Cu+  Cu43  1  0.49642471  0.83015871  0.33355760  1
  Cu+  Cu44  1  0.49694723  0.83726036  0.66855583  1
  Cu+  Cu45  1  0.82329430  0.15947359  -0.00050910  1
  Cu+  Cu46  1  0.83540111  0.16132829  0.33271445  1
  Cu+  Cu47  1  0.83356196  0.16896811  0.67306914  1
  Cu+  Cu48  1  0.82926577  0.50239406  0.00187421  1
  Cu+  Cu49  1  0.83527519  0.49423196  0.33716896  1
  Cu+  Cu50  1  0.83085969  0.50722305  0.66837462  1
  Cu+  Cu51  1  0.83454032  0.83068746  -0.00236134  1
  Cu+  Cu52  1  0.83365142  0.82906064  0.33019959  1
  Cu+  Cu53  1  0.83914016  0.83158773  0.66617090  1
  Cu+  Cu54  1  0.16540630  0.00032359  0.16117373  1
  Cu+  Cu55  1  0.16079209  -0.00242578  0.49710264  1
  Cu+  Cu56  1  0.16129008  0.00853338  0.83369405  1
  Cu+  Cu57  1  0.17545809  0.33716869  0.17117177  1
  Cu+  Cu58  1  0.16597894  0.33045164  0.49769818  1
  Cu+  Cu59  1  0.17394414  0.33662173  0.82678866  1
  Cu+  Cu60  1  0.16804009  0.66704606  0.16857585  1
  Cu+  Cu61  1  0.16411889  0.66532141  0.50085082  1
  Cu+  Cu62  1  0.16868149  0.66797228  0.83455009  1
  Cu+  Cu63  1  0.49997222  -0.00117997  0.16886666  1
  Cu+  Cu64  1  0.50375828  -0.00369332  0.50479567  1
  Cu+  Cu65  1  0.49570528  0.00054489  0.83038412  1
  Cu+  Cu66  1  0.49906308  0.33283186  0.16831100  1
  Cu+  Cu67  1  0.50564726  0.32982469  0.50300364  1
  Cu+  Cu68  1  0.50252956  0.33375464  0.83204952  1
  Cu+  Cu69  1  0.50059403  0.66885654  0.16738342  1
  Cu+  Cu70  1  0.49363116  0.66515061  0.49938595  1
  Cu+  Cu71  1  0.49801142  0.66793056  0.83293141  1
  Cu+  Cu72  1  0.83362047  -0.00489035  0.16502264  1
  Cu+  Cu73  1  0.83970018  0.00083201  0.50234630  1
  Cu+  Cu74  1  0.83072562  -0.00061080  0.83973553  1
  Cu+  Cu75  1  0.83301261  0.32479410  0.16583814  1
  Cu+  Cu76  1  0.83159989  0.33709825  0.50059811  1
  Cu+  Cu77  1  0.83288026  0.33937335  0.84168138  1
  Cu+  Cu78  1  0.83311451  0.66248044  0.16552512  1
  Cu+  Cu79  1  0.83207929  0.66728888  0.50082969  1
  Cu+  Cu80  1  0.83235406  0.66806540  0.82358158  1
  Cu+  Cu81  1  -0.00434844  0.16903098  0.16528698  1
  Cu+  Cu82  1  -0.00216144  0.16122946  0.49314771  1
  Cu+  Cu83  1  0.00071182  0.16761776  0.83469900  1
  Cu+  Cu84  1  0.00368635  0.49487578  0.17173591  1
  Cu+  Cu85  1  -0.00306860  0.49990446  0.50063740  1
  Cu+  Cu86  1  0.00470002  0.50394967  0.83561799  1
  Cu+  Cu87  1  0.00272435  0.83055580  0.16418855  1
  Cu+  Cu88  1  -0.00006477  0.83876358  0.50191976  1
  Cu+  Cu89  1  -0.00335313  0.83522777  0.83244453  1
  Cu+  Cu90  1  0.33643438  0.17398800  0.16735961  1
  Cu+  Cu91  1  0.33749612  0.16165389  0.49711894  1
  Cu+  Cu92  1  0.33236320  0.17200632  0.82913740  1
  Cu+  Cu93  1  0.33428170  0.49826681  0.16822001  1
  Cu+  Cu94  1  0.33555453  0.50054911  0.49521226  1
  Cu+  Cu95  1  0.33452130  0.49834754  0.82840771  1
  Cu+  Cu96  1  0.33336767  0.83258932  0.16828765  1
  Cu+  Cu97  1  0.32747009  0.83153959  0.50498097  1
  Cu+  Cu98  1  0.33341836  0.83899545  0.83042455  1
  Cu+  Cu99  1  0.66671382  0.16341622  0.16289372  1
  Cu+  Cu100  1  0.66908154  0.16634970  0.50605268  1
  Cu+  Cu101  1  0.66630277  0.16317426  0.83777120  1
  Cu+  Cu102  1  0.66672104  0.50069447  0.16571821  1
  Cu+  Cu103  1  0.66518001  0.50190302  0.50183137  1
  Cu+  Cu104  1  0.66838888  0.50478797  0.83459372  1
  Cu+  Cu105  1  0.66487332  0.83086106  0.16675849  1
  Cu+  Cu106  1  0.66558394  0.83212810  0.50269511  1
  Cu+  Cu107  1  0.66292534  0.83005489  0.83170206  1
  Cu+  Cu108  1  0.93143037  0.73962613  0.73768226  1
  Cu+  Cu109  1  0.41270320  0.26114405  0.07315290  1
  Cu+  Cu110  1  0.07416546  0.92088140  0.40355008  1
  Cu+  Cu111  1  0.26673474  0.26161801  0.26245209  1
  Cu+  Cu112  1  0.07658191  0.40631411  0.26068333  1
  Cu+  Cu113  1  0.92224444  0.07074967  0.40249793  1
  Cu+  Cu114  1  0.59831114  0.26355635  0.59394492  1
  Cu+  Cu115  1  0.07432198  0.92519731  0.07560895  1
  Cu+  Cu116  1  0.40495981  0.59464477  0.40524773  1
  Cu+  Cu117  1  0.92628622  0.93016389  0.59488176  1
  Cu+  Cu118  1  0.73803462  0.59521981  0.07818628  1
  Cu+  Cu119  1  0.73289942  0.06670329  0.92625369  1
  Cu+  Cu120  1  0.59543185  0.91920089  0.59546210  1
  Cu+  Cu121  1  0.91963557  0.25302731  0.25993175  1
  Cu+  Cu122  1  0.73552605  0.59393827  0.73713597  1
  Cu+  Cu123  1  0.25584037  0.92963254  0.58767171  1
  Cu+  Cu124  1  0.73788235  0.41426444  0.92554934  1
  Cu+  Cu125  1  0.26288860  0.41767708  0.07229761  1
  Cu+  Cu126  1  0.92592796  0.40886042  0.41578583  1
  Cu+  Cu127  1  0.26155076  0.26341825  0.91560315  1
  Cu+  Cu128  1  0.26520173  0.40926106  0.73194838  1
  Cu+  Cu129  1  0.07516516  0.08530147  0.92673632  1
  Cu+  Cu130  1  0.40431497  0.93054931  0.74163024  1
  Cu+  Cu131  1  0.92063387  0.92363469  0.92606167  1
  Cu+  Cu132  1  0.73945829  0.25577064  0.07506517  1
  Te2-  Te133  1  0.25713292  0.25859373  0.07509992  1
  Te2-  Te134  1  0.25541964  0.25077355  0.41494582  1
  Te2-  Te135  1  0.25447732  0.25343428  0.73656674  1
  Te2-  Te136  1  0.25423161  0.58616827  0.08384451  1
  Te2-  Te137  1  0.24911224  0.58595123  0.41226679  1
  Te2-  Te138  1  0.25286879  0.58749674  0.74721308  1
  Te2-  Te139  1  0.25497758  0.91881883  0.08150916  1
  Te2-  Te140  1  0.24987723  0.91617441  0.41447606  1
  Te2-  Te141  1  0.24954676  0.92786360  0.74779122  1
  Te2-  Te142  1  0.58573957  0.25354402  0.08060793  1
  Te2-  Te143  1  0.58947935  0.24804893  0.41560949  1
  Te2-  Te144  1  0.59003375  0.25156165  0.75030130  1
  Te2-  Te145  1  0.58420920  0.58693165  0.08043500  1
  Te2-  Te146  1  0.58439524  0.58644424  0.41655709  1
  Te2-  Te147  1  0.58377539  0.58754972  0.74678468  1
  Te2-  Te148  1  0.58445515  0.91786991  0.08227533  1
  Te2-  Te149  1  0.58291495  0.91385091  0.41512026  1
  Te2-  Te150  1  0.58804494  0.92151926  0.74842913  1
  Te2-  Te151  1  0.91462832  0.24657455  0.07400755  1
  Te2-  Te152  1  0.91960716  0.25513412  0.41332175  1
  Te2-  Te153  1  0.91598091  0.25500707  0.75611674  1
  Te2-  Te154  1  0.92228823  0.57880069  0.08501519  1
  Te2-  Te155  1  0.91666815  0.58641767  0.41507429  1
  Te2-  Te156  1  0.92567578  0.58605478  0.74595482  1
  Te2-  Te157  1  0.92132186  0.91916793  0.07862350  1
  Te2-  Te158  1  0.91984758  0.91873794  0.40716654  1
  Te2-  Te159  1  0.91769881  0.92481141  0.74818043  1
  Te2-  Te160  1  0.25151694  0.08269995  0.24552905  1
  Te2-  Te161  1  0.25002890  0.08133090  0.58176331  1
  Te2-  Te162  1  0.25432066  0.08412822  0.91488957  1
  Te2-  Te163  1  0.25881825  0.41579562  0.26102505  1
  Te2-  Te164  1  0.25446953  0.41251781  0.57959873  1
  Te2-  Te165  1  0.25870014  0.41464173  0.92057880  1
  Te2-  Te166  1  0.25131956  0.74856440  0.25391694  1
  Te2-  Te167  1  0.24729238  0.74461984  0.58778601  1
  Te2-  Te168  1  0.25123818  0.75513613  0.91674962  1
  Te2-  Te169  1  0.58736256  0.07989977  0.25112412  1
  Te2-  Te170  1  0.59092626  0.07590417  0.58948601  1
  Te2-  Te171  1  0.58018254  0.07838108  0.92122133  1
  Te2-  Te172  1  0.58420470  0.41659397  0.25266981  1
  Te2-  Te173  1  0.58915980  0.41496131  0.58854351  1
  Te2-  Te174  1  0.58586022  0.41528113  0.91913429  1
  Te2-  Te175  1  0.58487797  0.74736996  0.25405587  1
  Te2-  Te176  1  0.57983932  0.74674091  0.58630997  1
  Te2-  Te177  1  0.58253506  0.74773645  0.91843898  1
  Te2-  Te178  1  0.92161584  0.07466399  0.24858483  1
  Te2-  Te179  1  0.92090757  0.08488986  0.59165347  1
  Te2-  Te180  1  0.92129699  0.08032224  0.92397775  1
  Te2-  Te181  1  0.92000113  0.40680640  0.25499897  1
  Te2-  Te182  1  0.91498616  0.41738495  0.58969552  1
  Te2-  Te183  1  0.92137644  0.42187433  0.92145585  1
  Te2-  Te184  1  0.91983847  0.74475666  0.24884395  1
  Te2-  Te185  1  0.92286737  0.74453161  0.58320177  1
  Te2-  Te186  1  0.91724382  0.74488501  0.91492172  1
  Te2-  Te187  1  0.07872767  0.25356331  0.25170182  1
  Te2-  Te188  1  0.07758444  0.24938761  0.57837994  1
  Te2-  Te189  1  0.08300890  0.25887467  0.91408037  1
  Te2-  Te190  1  0.08127906  0.58706109  0.25265181  1
  Te2-  Te191  1  0.08180534  0.58088492  0.58572159  1
  Te2-  Te192  1  0.08720447  0.58559098  0.92105303  1
  Te2-  Te193  1  0.07983881  0.92038097  0.25036071  1
  Te2-  Te194  1  0.07848502  0.92291698  0.59165576  1
  Te2-  Te195  1  0.07682511  0.92491819  0.92087008  1
  Te2-  Te196  1  0.41913135  0.25267578  0.26027633  1
  Te2-  Te197  1  0.41555364  0.24833243  0.58407833  1
  Te2-  Te198  1  0.41537481  0.25600062  0.91862604  1
  Te2-  Te199  1  0.41350772  0.58680878  0.25120474  1
  Te2-  Te200  1  0.41303069  0.58262088  0.58755623  1
  Te2-  Te201  1  0.41322460  0.58430829  0.91596080  1
  Te2-  Te202  1  0.41364099  0.91831055  0.25343002  1
  Te2-  Te203  1  0.40814472  0.92269382  0.58756385  1
  Te2-  Te204  1  0.41440720  0.91990715  0.92039711  1
  Te2-  Te205  1  0.74675853  0.24544673  0.25336424  1
  Te2-  Te206  1  0.75169678  0.25388267  0.58909452  1
  Te2-  Te207  1  0.74237932  0.25591767  0.92140752  1
  Te2-  Te208  1  0.75090874  0.58013737  0.25456860  1
  Te2-  Te209  1  0.74359568  0.59047578  0.58533866  1
  Te2-  Te210  1  0.74797479  0.59352573  0.92042066  1
  Te2-  Te211  1  0.74920195  0.91443437  0.25006748  1
  Te2-  Te212  1  0.75035958  0.91903711  0.58739377  1
  Te2-  Te213  1  0.74213502  0.91371328  0.92047002  1
  Te2-  Te214  1  0.08067240  0.08676574  0.07837792  1
  Te2-  Te215  1  0.08021438  0.07909270  0.40479961  1
  Te2-  Te216  1  0.07905264  0.08578006  0.74363944  1
  Te2-  Te217  1  0.08467234  0.41201857  0.08341156  1
  Te2-  Te218  1  0.07822560  0.40988244  0.41402283  1
  Te2-  Te219  1  0.08172106  0.41638356  0.74885228  1
  Te2-  Te220  1  0.08450466  0.74519965  0.08003009  1
  Te2-  Te221  1  0.07735605  0.74665600  0.41679373  1
  Te2-  Te222  1  0.08351755  0.75026387  0.74872905  1
  Te2-  Te223  1  0.41369938  0.08122949  0.08536379  1
  Te2-  Te224  1  0.41998314  0.07570056  0.41641218  1
  Te2-  Te225  1  0.41389394  0.08646193  0.74420607  1
  Te2-  Te226  1  0.41544738  0.41393324  0.07806429  1
  Te2-  Te227  1  0.41852018  0.40880355  0.41677825  1
  Te2-  Te228  1  0.41728567  0.41153302  0.74499743  1
  Te2-  Te229  1  0.41383712  0.74778644  0.08181117  1
  Te2-  Te230  1  0.40767449  0.74891504  0.41547163  1
  Te2-  Te231  1  0.41279679  0.74856615  0.74767475  1
  Te2-  Te232  1  0.74297913  0.07034275  0.08136119  1
  Te2-  Te233  1  0.74950136  0.07996974  0.41847371  1
  Te2-  Te234  1  0.74910460  0.08078303  0.75122514  1
  Te2-  Te235  1  0.74487472  0.40943364  0.08161030  1
  Te2-  Te236  1  0.74340125  0.41538459  0.41664354  1
  Te2-  Te237  1  0.74991734  0.41700388  0.74997376  1
  Te2-  Te238  1  0.74722187  0.74699811  0.07946770  1
  Te2-  Te239  1  0.74870307  0.74999081  0.41682294  1
  Te2-  Te240  1  0.74326164  0.75008366  0.74206186  1
