# generated using pymatgen
data_Ti27(Cu53Te54)2
_symmetry_space_group_name_H-M   'P 1'
_cell_length_a   17.86999315
_cell_length_b   17.87388843
_cell_length_c   17.87388787
_cell_angle_alpha   89.99624900
_cell_angle_beta   89.98082786
_cell_angle_gamma   89.95895901
_symmetry_Int_Tables_number   1
_chemical_formula_structural   Ti27(Cu53Te54)2
_chemical_formula_sum   'Ti27 Cu106 Te108'
_cell_volume   5709.02994603
_cell_formula_units_Z   1
loop_
 _symmetry_equiv_pos_site_id
 _symmetry_equiv_pos_as_xyz
  1  'x, y, z'
loop_
 _atom_type_symbol
 _atom_type_oxidation_number
  Ti4+  4.0
  Cu+  1.0
  Te2-  -2.0
loop_
 _atom_site_type_symbol
 _atom_site_label
 _atom_site_symmetry_multiplicity
 _atom_site_fract_x
 _atom_site_fract_y
 _atom_site_fract_z
 _atom_site_occupancy
  Ti4+  Ti0  1  0.16539144  0.17036802  0.16604213  1
  Ti4+  Ti1  1  0.16771561  0.16707026  0.49867020  1
  Ti4+  Ti2  1  0.16860560  0.16527715  0.83301607  1
  Ti4+  Ti3  1  0.16642674  0.49609006  0.16525310  1
  Ti4+  Ti4  1  0.16696630  0.49962077  0.50037961  1
  Ti4+  Ti5  1  0.16561918  0.50007325  0.83155714  1
  Ti4+  Ti6  1  0.17037043  0.83113636  0.16627122  1
  Ti4+  Ti7  1  0.16725902  0.83554025  0.49715843  1
  Ti4+  Ti8  1  0.16755732  0.83340645  0.83407306  1
  Ti4+  Ti9  1  0.50058963  0.16579209  0.16738736  1
  Ti4+  Ti10  1  0.49926952  0.16710798  0.50096871  1
  Ti4+  Ti11  1  0.49643562  0.16689243  0.83378003  1
  Ti4+  Ti12  1  0.50117830  0.50069053  0.16495567  1
  Ti4+  Ti13  1  0.50315085  0.49815695  0.50126266  1
  Ti4+  Ti14  1  0.49930674  0.50132259  0.83378337  1
  Ti4+  Ti15  1  0.49833996  0.83388967  0.16862184  1
  Ti4+  Ti16  1  0.49816661  0.83526471  0.49962625  1
  Ti4+  Ti17  1  0.50000774  0.83486118  0.83708926  1
  Ti4+  Ti18  1  0.83196930  0.16585853  0.16426164  1
  Ti4+  Ti19  1  0.83353681  0.16540719  0.49876004  1
  Ti4+  Ti20  1  0.83305527  0.16587745  0.83136483  1
  Ti4+  Ti21  1  0.83314430  0.49938209  0.16793117  1
  Ti4+  Ti22  1  0.83210481  0.50387934  0.50362746  1
  Ti4+  Ti23  1  0.83296358  0.49828005  0.83085016  1
  Ti4+  Ti24  1  0.83513629  0.83393324  0.16427780  1
  Ti4+  Ti25  1  0.83329413  0.83076467  0.49676516  1
  Ti4+  Ti26  1  0.83429648  0.83336428  0.83315826  1
  Cu+  Cu27  1  0.16826305  0.16744191  -0.00140833  1
  Cu+  Cu28  1  0.16911960  0.17026320  0.33275759  1
  Cu+  Cu29  1  0.16932815  0.16783088  0.66589635  1
  Cu+  Cu30  1  0.16264959  0.49699511  -0.00106585  1
  Cu+  Cu31  1  0.16585512  0.49750713  0.33149585  1
  Cu+  Cu32  1  0.16696451  0.49913115  0.66862595  1
  Cu+  Cu33  1  0.16752629  0.83793778  0.00049395  1
  Cu+  Cu34  1  0.17531725  0.83021904  0.33572669  1
  Cu+  Cu35  1  0.16630889  0.83259016  0.66267106  1
  Cu+  Cu36  1  0.49665130  0.16699017  0.00166933  1
  Cu+  Cu37  1  0.50137128  0.16521986  0.33435159  1
  Cu+  Cu38  1  0.49501551  0.16268722  0.66414179  1
  Cu+  Cu39  1  0.50066817  0.50316284  -0.00097986  1
  Cu+  Cu40  1  0.50205609  0.49666423  0.33211987  1
  Cu+  Cu41  1  0.50636243  0.49838995  0.67001065  1
  Cu+  Cu42  1  0.49725512  0.82483332  0.00153854  1
  Cu+  Cu43  1  0.49609682  0.83948128  0.33394484  1
  Cu+  Cu44  1  0.49818138  0.83821086  0.67345031  1
  Cu+  Cu45  1  0.83164149  0.16522321  -0.00289785  1
  Cu+  Cu46  1  0.83305441  0.16591023  0.33215245  1
  Cu+  Cu47  1  0.83518547  0.16459472  0.66667434  1
  Cu+  Cu48  1  0.83360063  0.49843496  -0.00028069  1
  Cu+  Cu49  1  0.83146175  0.50496524  0.33884988  1
  Cu+  Cu50  1  0.83362053  0.49949112  0.66418499  1
  Cu+  Cu51  1  0.83563461  0.83391078  -0.00302460  1
  Cu+  Cu52  1  0.83363044  0.82913201  0.32805670  1
  Cu+  Cu53  1  0.83373957  0.83176659  0.66689338  1
  Cu+  Cu54  1  0.16449342  0.00031300  0.16160970  1
  Cu+  Cu55  1  0.16264812  0.00236894  0.49868260  1
  Cu+  Cu56  1  0.17017264  -0.00101766  0.83612024  1
  Cu+  Cu57  1  0.16494170  0.33492615  0.17250438  1
  Cu+  Cu58  1  0.16869208  0.33267831  0.50173350  1
  Cu+  Cu59  1  0.16668437  0.33397144  0.83243392  1
  Cu+  Cu60  1  0.16993067  0.66030364  0.16671604  1
  Cu+  Cu61  1  0.16623892  0.66908935  0.49754042  1
  Cu+  Cu62  1  0.16455609  0.66487752  0.83237122  1
  Cu+  Cu63  1  0.50553976  -0.00063395  0.16912608  1
  Cu+  Cu64  1  0.49496274  0.00249871  0.50032069  1
  Cu+  Cu65  1  0.49644802  -0.00002637  0.83180772  1
  Cu+  Cu66  1  0.49852699  0.33354105  0.16378336  1
  Cu+  Cu67  1  0.50063542  0.33147702  0.49829963  1
  Cu+  Cu68  1  0.49996306  0.33565452  0.83253977  1
  Cu+  Cu69  1  0.50048963  0.67007284  0.16327592  1
  Cu+  Cu70  1  0.50512505  0.66281706  0.50355744  1
  Cu+  Cu71  1  0.49689560  0.67052188  0.83963454  1
  Cu+  Cu72  1  0.83308358  0.00176726  0.16219891  1
  Cu+  Cu73  1  0.83553171  -0.00166774  0.49663023  1
  Cu+  Cu74  1  0.83382474  0.00006881  0.83106942  1
  Cu+  Cu75  1  0.83531193  0.33093981  0.16774446  1
  Cu+  Cu76  1  0.83204431  0.33394137  0.50014407  1
  Cu+  Cu77  1  0.83426804  0.32965548  0.83215993  1
  Cu+  Cu78  1  0.83528040  0.66692920  0.16844792  1
  Cu+  Cu79  1  0.82834737  0.66695023  0.50290644  1
  Cu+  Cu80  1  0.83258146  0.66500397  0.83216591  1
  Cu+  Cu81  1  -0.00553794  0.16952884  0.16738320  1
  Cu+  Cu82  1  0.00143478  0.16537488  0.49782128  1
  Cu+  Cu83  1  0.00154188  0.16368962  0.83006641  1
  Cu+  Cu84  1  0.00027881  0.49370132  0.16637053  1
  Cu+  Cu85  1  -0.00078413  0.50383808  0.50165456  1
  Cu+  Cu86  1  0.00016975  0.49774299  0.83146738  1
  Cu+  Cu87  1  0.00532759  0.83564495  0.15942167  1
  Cu+  Cu88  1  0.00098124  0.83450233  0.49661242  1
  Cu+  Cu89  1  -0.00151439  0.83055972  0.83209534  1
  Cu+  Cu90  1  0.33750114  0.17169999  0.16381658  1
  Cu+  Cu91  1  0.33225650  0.16804401  0.50626159  1
  Cu+  Cu92  1  0.32915683  0.16920009  0.83752312  1
  Cu+  Cu93  1  0.33156320  0.50068123  0.16545302  1
  Cu+  Cu94  1  0.33861428  0.49751741  0.50049936  1
  Cu+  Cu95  1  0.33259398  0.50277061  0.83155662  1
  Cu+  Cu96  1  0.33316489  0.83401251  0.17711506  1
  Cu+  Cu97  1  0.33313532  0.83690710  0.49139390  1
  Cu+  Cu98  1  0.33287879  0.83622912  0.83957409  1
  Cu+  Cu99  1  0.66729107  0.16435832  0.16554930  1
  Cu+  Cu100  1  0.66580879  0.16546768  0.49848539  1
  Cu+  Cu101  1  0.66618094  0.16541241  0.83248580  1
  Cu+  Cu102  1  0.66650676  0.50021625  0.16541432  1
  Cu+  Cu103  1  0.66678463  0.50492257  0.50724747  1
  Cu+  Cu104  1  0.66488361  0.49769899  0.82929240  1
  Cu+  Cu105  1  0.66706774  0.83191429  0.16681380  1
  Cu+  Cu106  1  0.66721184  0.82973999  0.50088053  1
  Cu+  Cu107  1  0.66777868  0.83613471  0.83512694  1
  Cu+  Cu108  1  0.25127046  0.26650489  0.92757917  1
  Cu+  Cu109  1  0.40723831  0.93425694  0.40610014  1
  Cu+  Cu110  1  0.07032565  0.41024335  0.26394226  1
  Cu+  Cu111  1  0.74356243  0.40129217  0.59096490  1
  Cu+  Cu112  1  0.74217903  0.73950745  0.25502334  1
  Cu+  Cu113  1  0.07350129  0.93016663  0.06918099  1
  Cu+  Cu114  1  0.41147024  0.26345281  0.07209645  1
  Cu+  Cu115  1  0.58825282  0.59619719  0.60133958  1
  Cu+  Cu116  1  0.59775142  0.74218040  0.07287925  1
  Cu+  Cu117  1  0.40303604  0.07181623  0.59371608  1
  Cu+  Cu118  1  0.40270674  0.92541973  0.74649115  1
  Cu+  Cu119  1  0.24754208  0.93350378  0.26048347  1
  Cu+  Cu120  1  0.26200309  0.73518051  0.41553915  1
  Cu+  Cu121  1  0.25936600  0.26386076  0.59642757  1
  Cu+  Cu122  1  0.25900090  0.58527312  0.26020379  1
  Cu+  Cu123  1  0.26302110  0.92888124  0.93020043  1
  Cu+  Cu124  1  0.73604141  0.59119043  0.40810064  1
  Cu+  Cu125  1  0.41486116  0.73687111  0.26342295  1
  Cu+  Cu126  1  0.93161290  0.59584203  0.59396605  1
  Cu+  Cu127  1  0.40000661  0.73803356  0.92767912  1
  Cu+  Cu128  1  0.59271184  0.40061002  0.74370671  1
  Cu+  Cu129  1  0.91949936  0.25818207  0.26303442  1
  Cu+  Cu130  1  0.73886826  0.74809061  0.59959395  1
  Cu+  Cu131  1  0.59777592  0.92609218  0.26029048  1
  Cu+  Cu132  1  0.26513849  0.25895550  0.26182353  1
  Te2-  Te133  1  0.25241171  0.25829069  0.07969866  1
  Te2-  Te134  1  0.25652492  0.25471486  0.41442891  1
  Te2-  Te135  1  0.25448307  0.25492432  0.74722849  1
  Te2-  Te136  1  0.25076835  0.58176809  0.07643068  1
  Te2-  Te137  1  0.25669784  0.58293287  0.41412414  1
  Te2-  Te138  1  0.25157754  0.58704572  0.74672492  1
  Te2-  Te139  1  0.25896743  0.92035837  0.08231027  1
  Te2-  Te140  1  0.25313198  0.92997292  0.41171856  1
  Te2-  Te141  1  0.25147346  0.91844725  0.74475163  1
  Te2-  Te142  1  0.58615485  0.25091056  0.08122076  1
  Te2-  Te143  1  0.58590439  0.25114998  0.41419557  1
  Te2-  Te144  1  0.58304992  0.24794541  0.74542739  1
  Te2-  Te145  1  0.58767853  0.58708437  0.07961988  1
  Te2-  Te146  1  0.58539753  0.58538219  0.41053468  1
  Te2-  Te147  1  0.58554138  0.59348263  0.75254106  1
  Te2-  Te148  1  0.58407023  0.91579469  0.07853425  1
  Te2-  Te149  1  0.58743618  0.92072709  0.41727611  1
  Te2-  Te150  1  0.58720210  0.92080613  0.75090923  1
  Te2-  Te151  1  0.91689096  0.25188860  0.07661038  1
  Te2-  Te152  1  0.91947315  0.25445752  0.41566714  1
  Te2-  Te153  1  0.92071432  0.25067233  0.74608667  1
  Te2-  Te154  1  0.91919706  0.58286993  0.08294573  1
  Te2-  Te155  1  0.91946129  0.59033311  0.41632554  1
  Te2-  Te156  1  0.91997206  0.58534676  0.74683362  1
  Te2-  Te157  1  0.91944531  0.92111623  0.07756024  1
  Te2-  Te158  1  0.91744462  0.91575666  0.41011967  1
  Te2-  Te159  1  0.91943754  0.91770296  0.74629534  1
  Te2-  Te160  1  0.25315769  0.08426736  0.24835772  1
  Te2-  Te161  1  0.25009098  0.07632189  0.58690384  1
  Te2-  Te162  1  0.25526422  0.07942940  0.92357855  1
  Te2-  Te163  1  0.25789751  0.41241853  0.25493148  1
  Te2-  Te164  1  0.25455935  0.41674644  0.58693190  1
  Te2-  Te165  1  0.25390758  0.41665687  0.91914201  1
  Te2-  Te166  1  0.25707082  0.73889702  0.25645439  1
  Te2-  Te167  1  0.25521441  0.74998293  0.58202853  1
  Te2-  Te168  1  0.24901965  0.74461110  0.92170458  1
  Te2-  Te169  1  0.58912689  0.08146254  0.25537664  1
  Te2-  Te170  1  0.58546918  0.07972320  0.58459954  1
  Te2-  Te171  1  0.58098327  0.08236152  0.91775616  1
  Te2-  Te172  1  0.58563041  0.41312910  0.24867451  1
  Te2-  Te173  1  0.58871705  0.40709906  0.58725899  1
  Te2-  Te174  1  0.58531064  0.41550165  0.91997524  1
  Te2-  Te175  1  0.58467219  0.74709672  0.25792754  1
  Te2-  Te176  1  0.58285875  0.75102406  0.59187422  1
  Te2-  Te177  1  0.59105085  0.74699831  0.91958649  1
  Te2-  Te178  1  0.91782141  0.07872835  0.25100674  1
  Te2-  Te179  1  0.91962191  0.07990019  0.58304693  1
  Te2-  Te180  1  0.91933874  0.08087176  0.91680229  1
  Te2-  Te181  1  0.91664703  0.41444412  0.25986053  1
  Te2-  Te182  1  0.92075186  0.41317438  0.58449404  1
  Te2-  Te183  1  0.91769449  0.41371157  0.91666698  1
  Te2-  Te184  1  0.92565755  0.75034213  0.24671163  1
  Te2-  Te185  1  0.92233629  0.74830612  0.58443186  1
  Te2-  Te186  1  0.91862321  0.74510036  0.91787873  1
  Te2-  Te187  1  0.07612463  0.25332147  0.25607711  1
  Te2-  Te188  1  0.08068489  0.25076021  0.58470908  1
  Te2-  Te189  1  0.08079809  0.25061299  0.91655751  1
  Te2-  Te190  1  0.07899247  0.58364005  0.25079342  1
  Te2-  Te191  1  0.08526209  0.58812730  0.58679938  1
  Te2-  Te192  1  0.07924001  0.58405145  0.91781340  1
  Te2-  Te193  1  0.08534198  0.91594524  0.25368705  1
  Te2-  Te194  1  0.08040050  0.91896084  0.58378121  1
  Te2-  Te195  1  0.07728218  0.91977127  0.91682771  1
  Te2-  Te196  1  0.41747386  0.25464597  0.25661379  1
  Te2-  Te197  1  0.41480767  0.25767673  0.58816979  1
  Te2-  Te198  1  0.41208733  0.25778730  0.91949519  1
  Te2-  Te199  1  0.41553634  0.58524771  0.25451394  1
  Te2-  Te200  1  0.41711209  0.58254609  0.58817060  1
  Te2-  Te201  1  0.41083401  0.58557995  0.92152496  1
  Te2-  Te202  1  0.41027329  0.92886581  0.25384790  1
  Te2-  Te203  1  0.40940937  0.91826524  0.58835148  1
  Te2-  Te204  1  0.41665159  0.92273264  0.92743496  1
  Te2-  Te205  1  0.74583897  0.25141228  0.25153057  1
  Te2-  Te206  1  0.74679426  0.24865476  0.58657038  1
  Te2-  Te207  1  0.74636556  0.25150325  0.91705214  1
  Te2-  Te208  1  0.74395119  0.58685392  0.25276545  1
  Te2-  Te209  1  0.74277470  0.59268189  0.59587613  1
  Te2-  Te210  1  0.74732109  0.58189099  0.91664503  1
  Te2-  Te211  1  0.74946369  0.92150730  0.25104015  1
  Te2-  Te212  1  0.74989301  0.91798004  0.58286323  1
  Te2-  Te213  1  0.74967623  0.92035624  0.91878668  1
  Te2-  Te214  1  0.07853953  0.08574166  0.07983677  1
  Te2-  Te215  1  0.08217524  0.08340136  0.41031648  1
  Te2-  Te216  1  0.08583081  0.07914233  0.74682724  1
  Te2-  Te217  1  0.08056343  0.40939430  0.07917012  1
  Te2-  Te218  1  0.07919073  0.41381654  0.41785046  1
  Te2-  Te219  1  0.08102042  0.41259244  0.74639487  1
  Te2-  Te220  1  0.08708024  0.74399817  0.08053633  1
  Te2-  Te221  1  0.08092651  0.74934339  0.41123905  1
  Te2-  Te222  1  0.08303359  0.74901630  0.74710317  1
  Te2-  Te223  1  0.41570542  0.07735828  0.08372654  1
  Te2-  Te224  1  0.40962158  0.08544215  0.41177845  1
  Te2-  Te225  1  0.40630954  0.08067723  0.74845781  1
  Te2-  Te226  1  0.41346725  0.41763064  0.07849465  1
  Te2-  Te227  1  0.41734244  0.41372416  0.41416961  1
  Te2-  Te228  1  0.41337615  0.41672531  0.74697736  1
  Te2-  Te229  1  0.40543139  0.74730854  0.08359413  1
  Te2-  Te230  1  0.41726162  0.74021527  0.41540108  1
  Te2-  Te231  1  0.41237868  0.74954407  0.75076183  1
  Te2-  Te232  1  0.74597443  0.08040893  0.07782593  1
  Te2-  Te233  1  0.74815583  0.08010707  0.41355570  1
  Te2-  Te234  1  0.74693463  0.08024225  0.74607827  1
  Te2-  Te235  1  0.74946862  0.41352268  0.08285901  1
  Te2-  Te236  1  0.74465452  0.41707857  0.41733438  1
  Te2-  Te237  1  0.74697333  0.40886253  0.74445594  1
  Te2-  Te238  1  0.75047566  0.74627020  0.07787964  1
  Te2-  Te239  1  0.74326653  0.74531167  0.40896621  1
  Te2-  Te240  1  0.74476078  0.74696044  0.75009544  1
