# generated using pymatgen
data_Ti27(Cu53Te54)2
_symmetry_space_group_name_H-M   'P 1'
_cell_length_a   17.89241600
_cell_length_b   17.89946521
_cell_length_c   17.89409130
_cell_angle_alpha   89.97073064
_cell_angle_beta   89.99984011
_cell_angle_gamma   90.05964857
_symmetry_Int_Tables_number   1
_chemical_formula_structural   Ti27(Cu53Te54)2
_chemical_formula_sum   'Ti27 Cu106 Te108'
_cell_volume   5730.84152849
_cell_formula_units_Z   1
loop_
 _symmetry_equiv_pos_site_id
 _symmetry_equiv_pos_as_xyz
  1  'x, y, z'
loop_
 _atom_type_symbol
 _atom_type_oxidation_number
  Ti4+  4.0
  Cu+  1.0
  Te2-  -2.0
loop_
 _atom_site_type_symbol
 _atom_site_label
 _atom_site_symmetry_multiplicity
 _atom_site_fract_x
 _atom_site_fract_y
 _atom_site_fract_z
 _atom_site_occupancy
  Ti4+  Ti0  1  0.17073968  0.16904776  0.16489423  1
  Ti4+  Ti1  1  0.16692062  0.16816714  0.50066123  1
  Ti4+  Ti2  1  0.16485692  0.16374920  0.83428891  1
  Ti4+  Ti3  1  0.16628808  0.49895746  0.16265613  1
  Ti4+  Ti4  1  0.16508780  0.50083465  0.49978427  1
  Ti4+  Ti5  1  0.16662259  0.49852581  0.83202278  1
  Ti4+  Ti6  1  0.16739506  0.83491283  0.16862334  1
  Ti4+  Ti7  1  0.16397674  0.83322359  0.49908791  1
  Ti4+  Ti8  1  0.16759938  0.83279708  0.83266122  1
  Ti4+  Ti9  1  0.49999679  0.16736813  0.17240668  1
  Ti4+  Ti10  1  0.50154642  0.16544839  0.50116691  1
  Ti4+  Ti11  1  0.49902200  0.16357745  0.83366916  1
  Ti4+  Ti12  1  0.50209808  0.49789404  0.16455241  1
  Ti4+  Ti13  1  0.50141470  0.49539100  0.50282418  1
  Ti4+  Ti14  1  0.50081187  0.50327545  0.83272748  1
  Ti4+  Ti15  1  0.49905908  0.83222703  0.16413085  1
  Ti4+  Ti16  1  0.49756508  0.83158588  0.49766909  1
  Ti4+  Ti17  1  0.50027811  0.83447952  0.83696088  1
  Ti4+  Ti18  1  0.83444537  0.16683463  0.16588644  1
  Ti4+  Ti19  1  0.83607073  0.16818904  0.49794961  1
  Ti4+  Ti20  1  0.83400175  0.16590431  0.83363914  1
  Ti4+  Ti21  1  0.83226656  0.50399078  0.16610359  1
  Ti4+  Ti22  1  0.82829724  0.50385454  0.49970188  1
  Ti4+  Ti23  1  0.83290221  0.49718132  0.83219966  1
  Ti4+  Ti24  1  0.83425208  0.83487146  0.16669551  1
  Ti4+  Ti25  1  0.82849457  0.83634644  0.50157640  1
  Ti4+  Ti26  1  0.83647603  0.83200599  0.83483879  1
  Cu+  Cu27  1  0.16687451  0.17188348  -0.00191704  1
  Cu+  Cu28  1  0.17110812  0.16809623  0.33104002  1
  Cu+  Cu29  1  0.16410724  0.16468763  0.66874815  1
  Cu+  Cu30  1  0.16870544  0.49499618  -0.00214762  1
  Cu+  Cu31  1  0.16369655  0.50133065  0.33216579  1
  Cu+  Cu32  1  0.16461217  0.50095661  0.66467280  1
  Cu+  Cu33  1  0.16918509  0.83679142  -0.00060569  1
  Cu+  Cu34  1  0.16722446  0.83147008  0.33570962  1
  Cu+  Cu35  1  0.16380536  0.83320852  0.66384700  1
  Cu+  Cu36  1  0.50155348  0.16174580  0.00379234  1
  Cu+  Cu37  1  0.49620389  0.16903341  0.33973970  1
  Cu+  Cu38  1  0.49864424  0.16496281  0.66641162  1
  Cu+  Cu39  1  0.50021903  0.50590458  -0.00248691  1
  Cu+  Cu40  1  0.50340927  0.49379554  0.33387462  1
  Cu+  Cu41  1  0.50953255  0.49881381  0.66852432  1
  Cu+  Cu42  1  0.50405046  0.83062952  0.00328327  1
  Cu+  Cu43  1  0.49527926  0.82988696  0.32923041  1
  Cu+  Cu44  1  0.49723925  0.83406974  0.66770007  1
  Cu+  Cu45  1  0.83303535  0.16456655  -0.00245749  1
  Cu+  Cu46  1  0.83851645  0.16968316  0.33259446  1
  Cu+  Cu47  1  0.83636126  0.16456666  0.66385900  1
  Cu+  Cu48  1  0.83456388  0.49989512  0.00009279  1
  Cu+  Cu49  1  0.82762058  0.50436510  0.32904012  1
  Cu+  Cu50  1  0.82537632  0.50235174  0.66733021  1
  Cu+  Cu51  1  0.83877435  0.83268956  -0.00032734  1
  Cu+  Cu52  1  0.83104359  0.83354004  0.33440856  1
  Cu+  Cu53  1  0.82927101  0.83876988  0.67126111  1
  Cu+  Cu54  1  0.16705022  0.00312236  0.16851653  1
  Cu+  Cu55  1  0.16340291  -0.00026240  0.50013317  1
  Cu+  Cu56  1  0.17227232  -0.00364323  0.83481434  1
  Cu+  Cu57  1  0.16995797  0.33387372  0.16087459  1
  Cu+  Cu58  1  0.16456161  0.33860117  0.50063846  1
  Cu+  Cu59  1  0.16207268  0.33065248  0.83264943  1
  Cu+  Cu60  1  0.16753591  0.66880820  0.16463353  1
  Cu+  Cu61  1  0.16581955  0.66650512  0.49701985  1
  Cu+  Cu62  1  0.16603508  0.66396789  0.83422939  1
  Cu+  Cu63  1  0.50183037  0.00213563  0.16888963  1
  Cu+  Cu64  1  0.50146732  -0.00400527  0.49999813  1
  Cu+  Cu65  1  0.49750047  0.00021576  0.83598845  1
  Cu+  Cu66  1  0.49745631  0.32941986  0.16616282  1
  Cu+  Cu67  1  0.50399635  0.33070329  0.49627807  1
  Cu+  Cu68  1  0.49932758  0.33514849  0.83501884  1
  Cu+  Cu69  1  0.49972431  0.66269608  0.16088134  1
  Cu+  Cu70  1  0.49740806  0.66256117  0.50112570  1
  Cu+  Cu71  1  0.49991456  0.67236977  0.83552898  1
  Cu+  Cu72  1  0.83415731  -0.00094830  0.16824258  1
  Cu+  Cu73  1  0.83093012  0.00434504  0.50230622  1
  Cu+  Cu74  1  0.83725080  -0.00171987  0.83308891  1
  Cu+  Cu75  1  0.83542119  0.33619013  0.16562211  1
  Cu+  Cu76  1  0.83255799  0.33463458  0.49943946  1
  Cu+  Cu77  1  0.83427132  0.32883467  0.83409700  1
  Cu+  Cu78  1  0.83487583  0.66843874  0.16705622  1
  Cu+  Cu79  1  0.83055202  0.67430688  0.49780407  1
  Cu+  Cu80  1  0.83498183  0.66401834  0.83365840  1
  Cu+  Cu81  1  0.00379426  0.16840957  0.16483866  1
  Cu+  Cu82  1  0.00085646  0.16983088  0.49765484  1
  Cu+  Cu83  1  -0.00018701  0.16466786  0.82935255  1
  Cu+  Cu84  1  -0.00460822  0.49910394  0.16305047  1
  Cu+  Cu85  1  -0.00141627  0.50542478  0.49716839  1
  Cu+  Cu86  1  0.00031925  0.49706743  0.83412527  1
  Cu+  Cu87  1  0.00262498  0.83729505  0.16951776  1
  Cu+  Cu88  1  -0.00519512  0.83283173  0.49939419  1
  Cu+  Cu89  1  0.00197218  0.82956439  0.83348301  1
  Cu+  Cu90  1  0.33445165  0.17546111  0.17203115  1
  Cu+  Cu91  1  0.33478451  0.16652014  0.50130910  1
  Cu+  Cu92  1  0.33007891  0.15921682  0.83310686  1
  Cu+  Cu93  1  0.33699914  0.49947836  0.16212724  1
  Cu+  Cu94  1  0.33245128  0.49996994  0.50203309  1
  Cu+  Cu95  1  0.33455434  0.50220935  0.83118184  1
  Cu+  Cu96  1  0.33041655  0.83000382  0.16452875  1
  Cu+  Cu97  1  0.33046068  0.82957133  0.49605357  1
  Cu+  Cu98  1  0.33343616  0.83906016  0.83840902  1
  Cu+  Cu99  1  0.66495056  0.16278635  0.16906271  1
  Cu+  Cu100  1  0.67142713  0.16274064  0.50090055  1
  Cu+  Cu101  1  0.66661935  0.16538002  0.83526848  1
  Cu+  Cu102  1  0.67129641  0.49847148  0.17147334  1
  Cu+  Cu103  1  0.66454560  0.49562291  0.50723731  1
  Cu+  Cu104  1  0.66698062  0.50124064  0.82690154  1
  Cu+  Cu105  1  0.66720183  0.83159681  0.16523055  1
  Cu+  Cu106  1  0.65980250  0.83858248  0.50264889  1
  Cu+  Cu107  1  0.66960021  0.83422512  0.83636593  1
  Cu+  Cu108  1  0.92155786  0.40784084  0.07073732  1
  Cu+  Cu109  1  0.59072270  0.59660997  0.58984050  1
  Cu+  Cu110  1  0.26303663  0.26204541  0.90946408  1
  Cu+  Cu111  1  0.41531761  0.25262091  0.07117622  1
  Cu+  Cu112  1  0.74278858  0.07626576  0.59441387  1
  Cu+  Cu113  1  0.25206430  0.74129373  0.06839483  1
  Cu+  Cu114  1  0.74697551  0.40293432  0.25663452  1
  Cu+  Cu115  1  0.60033505  0.73430559  0.07738225  1
  Cu+  Cu116  1  0.25335911  0.26723160  0.26347579  1
  Cu+  Cu117  1  0.25600089  0.06921166  0.73611932  1
  Cu+  Cu118  1  0.92322703  0.74380903  0.40515030  1
  Cu+  Cu119  1  0.07191853  0.25761772  0.07400379  1
  Cu+  Cu120  1  0.74627888  0.40298025  0.59474293  1
  Cu+  Cu121  1  0.26052083  0.73560585  0.40766153  1
  Cu+  Cu122  1  0.58296738  0.92705568  0.59662470  1
  Cu+  Cu123  1  0.59448209  0.07356585  0.07539772  1
  Cu+  Cu124  1  0.26323603  0.92751754  0.93242032  1
  Cu+  Cu125  1  0.40319432  0.26200711  0.41638017  1
  Cu+  Cu126  1  0.73988373  0.92969825  0.75283273  1
  Cu+  Cu127  1  0.40630659  0.59382846  0.07000841  1
  Cu+  Cu128  1  0.07235795  0.25900663  0.73708486  1
  Cu+  Cu129  1  0.59472166  0.40404438  0.40534753  1
  Cu+  Cu130  1  0.59260992  0.40000629  0.74741668  1
  Cu+  Cu131  1  0.26487064  0.40925327  0.07057271  1
  Cu+  Cu132  1  0.74267472  0.59799534  0.74330241  1
  Te2-  Te133  1  0.26101158  0.25673314  0.07229205  1
  Te2-  Te134  1  0.25213567  0.25768142  0.41611039  1
  Te2-  Te135  1  0.25281984  0.25119262  0.74834131  1
  Te2-  Te136  1  0.25320122  0.58700932  0.07585938  1
  Te2-  Te137  1  0.25378019  0.58354009  0.41201547  1
  Te2-  Te138  1  0.25051783  0.58460708  0.74702676  1
  Te2-  Te139  1  0.25413540  0.92381142  0.08376414  1
  Te2-  Te140  1  0.25062311  0.92060565  0.41505985  1
  Te2-  Te141  1  0.25438700  0.91634530  0.74256213  1
  Te2-  Te142  1  0.58697148  0.25123803  0.08302924  1
  Te2-  Te143  1  0.59267809  0.24831465  0.41419633  1
  Te2-  Te144  1  0.58499842  0.24849968  0.74856518  1
  Te2-  Te145  1  0.59292724  0.58161755  0.07989451  1
  Te2-  Te146  1  0.58594573  0.58216607  0.41620284  1
  Te2-  Te147  1  0.58696548  0.59534272  0.74718699  1
  Te2-  Te148  1  0.58729951  0.92098813  0.08170726  1
  Te2-  Te149  1  0.58138176  0.91619614  0.40850577  1
  Te2-  Te150  1  0.58552212  0.92184872  0.74991200  1
  Te2-  Te151  1  0.91889900  0.25321649  0.07718466  1
  Te2-  Te152  1  0.92049717  0.25676936  0.41410528  1
  Te2-  Te153  1  0.91875926  0.25214177  0.74456318  1
  Te2-  Te154  1  0.91847730  0.58909365  0.07890200  1
  Te2-  Te155  1  0.91405823  0.58837040  0.41235519  1
  Te2-  Te156  1  0.91920855  0.58171509  0.74707147  1
  Te2-  Te157  1  0.92068190  0.91952071  0.08239534  1
  Te2-  Te158  1  0.91394385  0.92166329  0.41655976  1
  Te2-  Te159  1  0.92337616  0.91738273  0.74863133  1
  Te2-  Te160  1  0.25520882  0.08258179  0.25080991  1
  Te2-  Te161  1  0.25188491  0.08025995  0.58436777  1
  Te2-  Te162  1  0.25249563  0.07910271  0.92540753  1
  Te2-  Te163  1  0.25372425  0.41809570  0.25212990  1
  Te2-  Te164  1  0.25106318  0.41579348  0.58638299  1
  Te2-  Te165  1  0.25744328  0.41217437  0.91604891  1
  Te2-  Te166  1  0.25303416  0.74536077  0.25423141  1
  Te2-  Te167  1  0.25001475  0.74703331  0.58497107  1
  Te2-  Te168  1  0.25373708  0.74478392  0.91750240  1
  Te2-  Te169  1  0.58323060  0.08224265  0.25965819  1
  Te2-  Te170  1  0.58702565  0.07892775  0.58924993  1
  Te2-  Te171  1  0.58629606  0.07880585  0.91983427  1
  Te2-  Te172  1  0.58762208  0.40798623  0.25050320  1
  Te2-  Te173  1  0.58839350  0.40334765  0.59119177  1
  Te2-  Te174  1  0.58672663  0.41807734  0.91811061  1
  Te2-  Te175  1  0.58296820  0.74524264  0.24906867  1
  Te2-  Te176  1  0.58317419  0.74767387  0.58719632  1
  Te2-  Te177  1  0.58948631  0.74756107  0.92064974  1
  Te2-  Te178  1  0.92161814  0.08332950  0.24979551  1
  Te2-  Te179  1  0.92347027  0.08188605  0.58317517  1
  Te2-  Te180  1  0.92014501  0.08065559  0.91764158  1
  Te2-  Te181  1  0.91794129  0.41766863  0.25517052  1
  Te2-  Te182  1  0.91548978  0.42097471  0.58374308  1
  Te2-  Te183  1  0.91921674  0.41110027  0.91778363  1
  Te2-  Te184  1  0.92096149  0.74887037  0.25235299  1
  Te2-  Te185  1  0.91300389  0.75197443  0.58927336  1
  Te2-  Te186  1  0.92103129  0.74446638  0.91868708  1
  Te2-  Te187  1  0.08480691  0.25454614  0.25103594  1
  Te2-  Te188  1  0.08060981  0.25426850  0.58523900  1
  Te2-  Te189  1  0.07490033  0.25218276  0.91891370  1
  Te2-  Te190  1  0.08112675  0.58410142  0.24574957  1
  Te2-  Te191  1  0.08004707  0.58747648  0.58417479  1
  Te2-  Te192  1  0.08190554  0.58195421  0.91911583  1
  Te2-  Te193  1  0.08431342  0.92091585  0.25486332  1
  Te2-  Te194  1  0.07765109  0.91810008  0.58397897  1
  Te2-  Te195  1  0.08074431  0.91793044  0.91765338  1
  Te2-  Te196  1  0.41302370  0.25925270  0.26087503  1
  Te2-  Te197  1  0.41659927  0.25321525  0.58604898  1
  Te2-  Te198  1  0.41488570  0.25146828  0.91870711  1
  Te2-  Te199  1  0.41872368  0.58101736  0.25233240  1
  Te2-  Te200  1  0.41591205  0.58051145  0.58907922  1
  Te2-  Te201  1  0.41248364  0.58993659  0.91678906  1
  Te2-  Te202  1  0.41303622  0.91699772  0.24830498  1
  Te2-  Te203  1  0.41080464  0.91619613  0.58290300  1
  Te2-  Te204  1  0.41697495  0.92083449  0.92601169  1
  Te2-  Te205  1  0.74822828  0.25084188  0.25195846  1
  Te2-  Te206  1  0.74799332  0.25167461  0.58701994  1
  Te2-  Te207  1  0.74740833  0.25048466  0.91895490  1
  Te2-  Te208  1  0.74559142  0.59298649  0.25116220  1
  Te2-  Te209  1  0.74405197  0.59436292  0.58586456  1
  Te2-  Te210  1  0.74809061  0.58250355  0.91807322  1
  Te2-  Te211  1  0.74687737  0.91789566  0.25136679  1
  Te2-  Te212  1  0.74121372  0.92409540  0.59088325  1
  Te2-  Te213  1  0.75172586  0.91924276  0.92155060  1
  Te2-  Te214  1  0.08485757  0.08264214  0.08024496  1
  Te2-  Te215  1  0.08336929  0.08492471  0.41273155  1
  Te2-  Te216  1  0.08156195  0.07437644  0.74933303  1
  Te2-  Te217  1  0.07721085  0.41231744  0.07626313  1
  Te2-  Te218  1  0.07818751  0.41675353  0.41370161  1
  Te2-  Te219  1  0.07929830  0.41381742  0.74503474  1
  Te2-  Te220  1  0.08144705  0.75167414  0.08068102  1
  Te2-  Te221  1  0.07667488  0.74655662  0.41288778  1
  Te2-  Te222  1  0.08334285  0.74620219  0.74786850  1
  Te2-  Te223  1  0.41118716  0.08259257  0.08760225  1
  Te2-  Te224  1  0.41498683  0.07812734  0.41812885  1
  Te2-  Te225  1  0.41343367  0.07768441  0.74630611  1
  Te2-  Te226  1  0.41751711  0.41066839  0.07390886  1
  Te2-  Te227  1  0.41184078  0.41440956  0.41502000  1
  Te2-  Te228  1  0.41616467  0.41691393  0.74727337  1
  Te2-  Te229  1  0.40995147  0.74554718  0.07617401  1
  Te2-  Te230  1  0.41411220  0.74192687  0.41191439  1
  Te2-  Te231  1  0.41310493  0.75224598  0.75183211  1
  Te2-  Te232  1  0.74902585  0.07940868  0.08136599  1
  Te2-  Te233  1  0.75100694  0.08265639  0.40985919  1
  Te2-  Te234  1  0.74609769  0.08047982  0.74753780  1
  Te2-  Te235  1  0.74689755  0.41512897  0.07934734  1
  Te2-  Te236  1  0.74575073  0.41320596  0.41118038  1
  Te2-  Te237  1  0.74599400  0.40543912  0.74679990  1
  Te2-  Te238  1  0.75129471  0.74722350  0.07841267  1
  Te2-  Te239  1  0.74021559  0.75334734  0.41611087  1
  Te2-  Te240  1  0.74683713  0.74752753  0.74873302  1
