# generated using pymatgen
data_Ti27(Cu53Te54)2
_symmetry_space_group_name_H-M   'P 1'
_cell_length_a   17.91167982
_cell_length_b   17.93203861
_cell_length_c   17.91758932
_cell_angle_alpha   90.05366960
_cell_angle_beta   89.99210595
_cell_angle_gamma   90.05618673
_symmetry_Int_Tables_number   1
_chemical_formula_structural   Ti27(Cu53Te54)2
_chemical_formula_sum   'Ti27 Cu106 Te108'
_cell_volume   5754.99773832
_cell_formula_units_Z   1
loop_
 _symmetry_equiv_pos_site_id
 _symmetry_equiv_pos_as_xyz
  1  'x, y, z'
loop_
 _atom_type_symbol
 _atom_type_oxidation_number
  Ti4+  4.0
  Cu+  1.0
  Te2-  -2.0
loop_
 _atom_site_type_symbol
 _atom_site_label
 _atom_site_symmetry_multiplicity
 _atom_site_fract_x
 _atom_site_fract_y
 _atom_site_fract_z
 _atom_site_occupancy
  Ti4+  Ti0  1  0.16558917  0.16479233  0.16712773  1
  Ti4+  Ti1  1  0.16816474  0.16483334  0.50061065  1
  Ti4+  Ti2  1  0.16982565  0.16963491  0.83186999  1
  Ti4+  Ti3  1  0.16580948  0.50173150  0.16622590  1
  Ti4+  Ti4  1  0.16553805  0.50150836  0.49971262  1
  Ti4+  Ti5  1  0.16606572  0.50163959  0.83500551  1
  Ti4+  Ti6  1  0.16611142  0.83450603  0.16607955  1
  Ti4+  Ti7  1  0.16816360  0.83121859  0.49942730  1
  Ti4+  Ti8  1  0.16784479  0.83503312  0.83278893  1
  Ti4+  Ti9  1  0.49929822  0.16589076  0.17053352  1
  Ti4+  Ti10  1  0.49836898  0.17185505  0.50291180  1
  Ti4+  Ti11  1  0.49763197  0.17029420  0.83411320  1
  Ti4+  Ti12  1  0.50136547  0.49521350  0.16619687  1
  Ti4+  Ti13  1  0.50051052  0.50251031  0.49632521  1
  Ti4+  Ti14  1  0.49979429  0.50271269  0.83668351  1
  Ti4+  Ti15  1  0.49953727  0.83239304  0.16502622  1
  Ti4+  Ti16  1  0.50279260  0.83355189  0.50115804  1
  Ti4+  Ti17  1  0.50005202  0.83789102  0.83615426  1
  Ti4+  Ti18  1  0.83430905  0.16318556  0.16672329  1
  Ti4+  Ti19  1  0.83217886  0.15928246  0.50107556  1
  Ti4+  Ti20  1  0.83382258  0.16817582  0.83319336  1
  Ti4+  Ti21  1  0.83453207  0.49947166  0.16390456  1
  Ti4+  Ti22  1  0.83399320  0.49255479  0.50051955  1
  Ti4+  Ti23  1  0.83418697  0.50214249  0.83172597  1
  Ti4+  Ti24  1  0.83292100  0.83598360  0.16385998  1
  Ti4+  Ti25  1  0.83192862  0.82771412  0.49922189  1
  Ti4+  Ti26  1  0.83160956  0.83611101  0.83239224  1
  Cu+  Cu27  1  0.16826571  0.16782388  -0.00187382  1
  Cu+  Cu28  1  0.16287531  0.16254451  0.33213349  1
  Cu+  Cu29  1  0.17391850  0.16922690  0.66522219  1
  Cu+  Cu30  1  0.16262598  0.50453984  0.00297306  1
  Cu+  Cu31  1  0.16522747  0.50172700  0.33318684  1
  Cu+  Cu32  1  0.16603018  0.50257781  0.66808307  1
  Cu+  Cu33  1  0.16886798  0.83937627  -0.00159562  1
  Cu+  Cu34  1  0.16802257  0.83223163  0.33415774  1
  Cu+  Cu35  1  0.16807789  0.83179236  0.66574731  1
  Cu+  Cu36  1  0.49893008  0.16862544  0.00419546  1
  Cu+  Cu37  1  0.49771380  0.16812983  0.33795594  1
  Cu+  Cu38  1  0.49165324  0.17216766  0.66841608  1
  Cu+  Cu39  1  0.49555366  0.49827373  0.00240656  1
  Cu+  Cu40  1  0.50611544  0.49487810  0.33237399  1
  Cu+  Cu41  1  0.50167508  0.50577973  0.66279095  1
  Cu+  Cu42  1  0.49585489  0.83206252  -0.00202557  1
  Cu+  Cu43  1  0.50275778  0.83288455  0.33024870  1
  Cu+  Cu44  1  0.50453528  0.83365341  0.67145438  1
  Cu+  Cu45  1  0.83642121  0.16425316  0.00034138  1
  Cu+  Cu46  1  0.83180470  0.16265395  0.33553507  1
  Cu+  Cu47  1  0.83494637  0.16346303  0.66553491  1
  Cu+  Cu48  1  0.83180459  0.49952801  -0.00364696  1
  Cu+  Cu49  1  0.82983151  0.49382088  0.32801878  1
  Cu+  Cu50  1  0.84277025  0.49491474  0.66870600  1
  Cu+  Cu51  1  0.82973127  0.83871460  -0.00195584  1
  Cu+  Cu52  1  0.83081113  0.83274807  0.33154059  1
  Cu+  Cu53  1  0.83319791  0.83078565  0.66614758  1
  Cu+  Cu54  1  0.16271839  0.00145576  0.16992283  1
  Cu+  Cu55  1  0.16993115  -0.00568008  0.49940723  1
  Cu+  Cu56  1  0.17242810  0.00140486  0.83298112  1
  Cu+  Cu57  1  0.16540388  0.33443495  0.16903553  1
  Cu+  Cu58  1  0.16792522  0.33533535  0.50064350  1
  Cu+  Cu59  1  0.16656609  0.33550861  0.83481837  1
  Cu+  Cu60  1  0.16346433  0.66813905  0.16316342  1
  Cu+  Cu61  1  0.16611553  0.66801465  0.50045646  1
  Cu+  Cu62  1  0.16638988  0.66799119  0.83279246  1
  Cu+  Cu63  1  0.49885792  -0.00080152  0.16992708  1
  Cu+  Cu64  1  0.50192438  0.00371820  0.50666835  1
  Cu+  Cu65  1  0.49991925  0.00391011  0.83551607  1
  Cu+  Cu66  1  0.49745315  0.32623388  0.16626076  1
  Cu+  Cu67  1  0.49842832  0.33834107  0.49409095  1
  Cu+  Cu68  1  0.49654791  0.33866821  0.83629783  1
  Cu+  Cu69  1  0.50158309  0.66155422  0.16408329  1
  Cu+  Cu70  1  0.50531572  0.66867918  0.49781133  1
  Cu+  Cu71  1  0.50107931  0.67246128  0.83600194  1
  Cu+  Cu72  1  0.83400129  0.00030642  0.15841520  1
  Cu+  Cu73  1  0.82954324  -0.00727630  0.49923698  1
  Cu+  Cu74  1  0.83266940  0.00132420  0.83108640  1
  Cu+  Cu75  1  0.83541515  0.33252103  0.16833332  1
  Cu+  Cu76  1  0.83506329  0.32057840  0.50201895  1
  Cu+  Cu77  1  0.83272531  0.33583321  0.83201983  1
  Cu+  Cu78  1  0.83412542  0.66927955  0.16458136  1
  Cu+  Cu79  1  0.83321303  0.65846170  0.50211514  1
  Cu+  Cu80  1  0.83357210  0.67053171  0.83290824  1
  Cu+  Cu81  1  0.00013394  0.15828455  0.16767713  1
  Cu+  Cu82  1  -0.00043326  0.15871479  0.50383793  1
  Cu+  Cu83  1  0.00500907  0.16710630  0.83138540  1
  Cu+  Cu84  1  0.00099725  0.50553051  0.16191016  1
  Cu+  Cu85  1  -0.00075105  0.49817855  0.50444363  1
  Cu+  Cu86  1  0.00000422  0.50180582  0.83042582  1
  Cu+  Cu87  1  -0.00055115  0.83435955  0.16664848  1
  Cu+  Cu88  1  0.00154822  0.82874396  0.50071944  1
  Cu+  Cu89  1  -0.00018107  0.83587652  0.83123004  1
  Cu+  Cu90  1  0.33049228  0.16671888  0.16880973  1
  Cu+  Cu91  1  0.33283103  0.17273803  0.50623465  1
  Cu+  Cu92  1  0.33636729  0.17304342  0.82822769  1
  Cu+  Cu93  1  0.33289520  0.50013701  0.16675852  1
  Cu+  Cu94  1  0.33282283  0.50440337  0.49935673  1
  Cu+  Cu95  1  0.33150869  0.50037407  0.83827353  1
  Cu+  Cu96  1  0.33201824  0.83245938  0.16594062  1
  Cu+  Cu97  1  0.33501034  0.83330082  0.50134258  1
  Cu+  Cu98  1  0.33140414  0.83949722  0.83969156  1
  Cu+  Cu99  1  0.66467811  0.16366598  0.17204969  1
  Cu+  Cu100  1  0.66433194  0.16341348  0.49672985  1
  Cu+  Cu101  1  0.66484654  0.17084712  0.83323796  1
  Cu+  Cu102  1  0.66918664  0.49321619  0.16852191  1
  Cu+  Cu103  1  0.66963480  0.49803055  0.49364185  1
  Cu+  Cu104  1  0.66828342  0.50276043  0.83609801  1
  Cu+  Cu105  1  0.66694674  0.83749436  0.16222329  1
  Cu+  Cu106  1  0.66648726  0.82919746  0.49513214  1
  Cu+  Cu107  1  0.66483420  0.83544257  0.83136172  1
  Cu+  Cu108  1  0.74993615  0.58799397  0.40252289  1
  Cu+  Cu109  1  0.25835858  0.93387455  0.92979870  1
  Cu+  Cu110  1  0.59403785  0.74089622  0.74412102  1
  Cu+  Cu111  1  0.40580261  0.59186761  0.07921996  1
  Cu+  Cu112  1  0.74154785  0.40709168  0.92309377  1
  Cu+  Cu113  1  0.92824459  0.59240834  0.59417491  1
  Cu+  Cu114  1  0.74342983  0.25096270  0.40871473  1
  Cu+  Cu115  1  0.92932480  0.24645595  0.59477485  1
  Cu+  Cu116  1  0.25650988  0.26818959  0.59275254  1
  Cu+  Cu117  1  0.40112044  0.40866948  0.92674273  1
  Cu+  Cu118  1  0.74236667  0.92095092  0.40499050  1
  Cu+  Cu119  1  0.59418413  0.40786892  0.40783480  1
  Cu+  Cu120  1  0.74252712  0.40188148  0.25438968  1
  Cu+  Cu121  1  0.40255054  0.74366690  0.92109409  1
  Cu+  Cu122  1  0.93142748  0.07345249  0.06682091  1
  Cu+  Cu123  1  0.40034716  0.24815050  0.07502100  1
  Cu+  Cu124  1  0.40622256  0.07145800  0.59424617  1
  Cu+  Cu125  1  0.06889150  0.59917590  0.07226172  1
  Cu+  Cu126  1  0.07073699  0.06983335  0.26460629  1
  Cu+  Cu127  1  0.40204679  0.26363092  0.40858445  1
  Cu+  Cu128  1  0.58365391  0.07498494  0.40848055  1
  Cu+  Cu129  1  0.41122405  0.27050388  0.74106342  1
  Cu+  Cu130  1  0.93165545  0.40346736  0.74827726  1
  Cu+  Cu131  1  0.58849003  0.74115370  0.39955312  1
  Cu+  Cu132  1  0.73466742  0.92800316  0.06704309  1
  Te2-  Te133  1  0.24949138  0.25409181  0.08176641  1
  Te2-  Te134  1  0.24900567  0.25196197  0.41119983  1
  Te2-  Te135  1  0.25525245  0.26111464  0.74595331  1
  Te2-  Te136  1  0.25364724  0.58824077  0.08020427  1
  Te2-  Te137  1  0.24995005  0.58697467  0.41453261  1
  Te2-  Te138  1  0.25267278  0.58546528  0.75058649  1
  Te2-  Te139  1  0.25299567  0.92337364  0.08387801  1
  Te2-  Te140  1  0.25539908  0.91599658  0.41377310  1
  Te2-  Te141  1  0.25404681  0.91816784  0.74538155  1
  Te2-  Te142  1  0.58837346  0.24941284  0.08501989  1
  Te2-  Te143  1  0.58814572  0.25527548  0.41191781  1
  Te2-  Te144  1  0.58232450  0.25680699  0.74943301  1
  Te2-  Te145  1  0.58903612  0.57857211  0.08171747  1
  Te2-  Te146  1  0.59034312  0.58799322  0.40833924  1
  Te2-  Te147  1  0.58565186  0.58698605  0.74981814  1
  Te2-  Te148  1  0.58109064  0.92123958  0.07820990  1
  Te2-  Te149  1  0.58624680  0.92244209  0.41256183  1
  Te2-  Te150  1  0.58490928  0.92481561  0.75002229  1
  Te2-  Te151  1  0.92002878  0.24979878  0.08441251  1
  Te2-  Te152  1  0.92183341  0.24379144  0.41492264  1
  Te2-  Te153  1  0.92267225  0.25220528  0.74666485  1
  Te2-  Te154  1  0.91594800  0.58836954  0.07630366  1
  Te2-  Te155  1  0.91708068  0.57734653  0.41215574  1
  Te2-  Te156  1  0.92117641  0.59163954  0.74734863  1
  Te2-  Te157  1  0.92316919  0.91915131  0.07692816  1
  Te2-  Te158  1  0.91877750  0.91335162  0.41594141  1
  Te2-  Te159  1  0.91695736  0.91923605  0.74571557  1
  Te2-  Te160  1  0.25270276  0.08021428  0.25306325  1
  Te2-  Te161  1  0.25358404  0.07690854  0.58575482  1
  Te2-  Te162  1  0.25775898  0.08652834  0.91780089  1
  Te2-  Te163  1  0.25068736  0.41667268  0.25249391  1
  Te2-  Te164  1  0.25366947  0.41933521  0.58699178  1
  Te2-  Te165  1  0.24868213  0.41555020  0.92424132  1
  Te2-  Te166  1  0.24991365  0.74742215  0.24937889  1
  Te2-  Te167  1  0.25404980  0.74665276  0.58549197  1
  Te2-  Te168  1  0.25061388  0.74593672  0.92158842  1
  Te2-  Te169  1  0.58409099  0.07851191  0.25641364  1
  Te2-  Te170  1  0.58397286  0.08858124  0.59206191  1
  Te2-  Te171  1  0.58357019  0.08692960  0.91964570  1
  Te2-  Te172  1  0.58771804  0.40491923  0.25196153  1
  Te2-  Te173  1  0.58498351  0.41687620  0.58281157  1
  Te2-  Te174  1  0.58627859  0.41602181  0.92134971  1
  Te2-  Te175  1  0.58859654  0.74634225  0.24635903  1
  Te2-  Te176  1  0.58816825  0.74733706  0.58799925  1
  Te2-  Te177  1  0.58823736  0.75140046  0.92146554  1
  Te2-  Te178  1  0.91575435  0.07551071  0.25571147  1
  Te2-  Te179  1  0.91628377  0.07175434  0.58620216  1
  Te2-  Te180  1  0.92167245  0.08090027  0.91448942  1
  Te2-  Te181  1  0.92347806  0.41665339  0.24819173  1
  Te2-  Te182  1  0.92238003  0.40370294  0.58606408  1
  Te2-  Te183  1  0.92116377  0.41565424  0.91753720  1
  Te2-  Te184  1  0.91726988  0.74993396  0.25031149  1
  Te2-  Te185  1  0.91881760  0.74446100  0.58587923  1
  Te2-  Te186  1  0.91719165  0.75298237  0.91833637  1
  Te2-  Te187  1  0.07920446  0.25019563  0.25121761  1
  Te2-  Te188  1  0.08203142  0.25094865  0.58591788  1
  Te2-  Te189  1  0.08282208  0.25235438  0.91802229  1
  Te2-  Te190  1  0.08064408  0.58759392  0.25206002  1
  Te2-  Te191  1  0.08087670  0.58763980  0.58722232  1
  Te2-  Te192  1  0.07820828  0.58875649  0.91783341  1
  Te2-  Te193  1  0.07945848  0.91703781  0.25504215  1
  Te2-  Te194  1  0.08197915  0.91627408  0.58493720  1
  Te2-  Te195  1  0.08166157  0.92213580  0.91603491  1
  Te2-  Te196  1  0.41108825  0.25219073  0.25669672  1
  Te2-  Te197  1  0.41234936  0.26616175  0.58797548  1
  Te2-  Te198  1  0.41013268  0.25573736  0.92342696  1
  Te2-  Te199  1  0.41878395  0.58108093  0.25357322  1
  Te2-  Te200  1  0.41705279  0.58943976  0.58128074  1
  Te2-  Te201  1  0.41213146  0.58996907  0.92226059  1
  Te2-  Te202  1  0.41446989  0.91547006  0.25168245  1
  Te2-  Te203  1  0.41676527  0.91682818  0.58888542  1
  Te2-  Te204  1  0.41416403  0.92680042  0.92366447  1
  Te2-  Te205  1  0.74702922  0.25004309  0.25391771  1
  Te2-  Te206  1  0.74437377  0.24564197  0.58657741  1
  Te2-  Te207  1  0.74896602  0.25240917  0.92034300  1
  Te2-  Te208  1  0.74729308  0.58738854  0.24845838  1
  Te2-  Te209  1  0.74887120  0.57555267  0.58836530  1
  Te2-  Te210  1  0.74993387  0.58955117  0.91808426  1
  Te2-  Te211  1  0.74675834  0.92227730  0.25045922  1
  Te2-  Te212  1  0.74572656  0.91224923  0.58526966  1
  Te2-  Te213  1  0.74380644  0.92387170  0.91560939  1
  Te2-  Te214  1  0.08341102  0.07892360  0.07544883  1
  Te2-  Te215  1  0.08155016  0.07600879  0.41796222  1
  Te2-  Te216  1  0.08784044  0.08290850  0.74633193  1
  Te2-  Te217  1  0.08072943  0.41376801  0.08183149  1
  Te2-  Te218  1  0.08074473  0.41523082  0.41572644  1
  Te2-  Te219  1  0.08294043  0.41433608  0.74679313  1
  Te2-  Te220  1  0.07966629  0.75234236  0.07679576  1
  Te2-  Te221  1  0.08172039  0.74647446  0.41328483  1
  Te2-  Te222  1  0.08198872  0.74949000  0.74830900  1
  Te2-  Te223  1  0.41371674  0.08075320  0.08455730  1
  Te2-  Te224  1  0.41238011  0.08229446  0.42009089  1
  Te2-  Te225  1  0.41236586  0.07927795  0.74868752  1
  Te2-  Te226  1  0.41059487  0.40804927  0.08214209  1
  Te2-  Te227  1  0.40903719  0.41818805  0.41048793  1
  Te2-  Te228  1  0.41399482  0.42232674  0.74540857  1
  Te2-  Te229  1  0.41151989  0.74520375  0.08007631  1
  Te2-  Te230  1  0.41750732  0.74960134  0.41467702  1
  Te2-  Te231  1  0.41217682  0.75241028  0.75122887  1
  Te2-  Te232  1  0.74297678  0.08263524  0.07941578  1
  Te2-  Te233  1  0.74371523  0.07389530  0.41124492  1
  Te2-  Te234  1  0.74693217  0.08489426  0.74897468  1
  Te2-  Te235  1  0.74946142  0.41037746  0.07848802  1
  Te2-  Te236  1  0.74785220  0.40314330  0.41106343  1
  Te2-  Te237  1  0.74588534  0.41677111  0.74666451  1
  Te2-  Te238  1  0.74772942  0.74905236  0.07918578  1
  Te2-  Te239  1  0.74690990  0.73982919  0.40994982  1
  Te2-  Te240  1  0.74671461  0.74746133  0.74689022  1
