# generated using pymatgen
data_Ti27(Cu53Te54)2
_symmetry_space_group_name_H-M   'P 1'
_cell_length_a   17.87512261
_cell_length_b   17.87637766
_cell_length_c   17.87594682
_cell_angle_alpha   89.97956973
_cell_angle_beta   89.98386572
_cell_angle_gamma   89.95467852
_symmetry_Int_Tables_number   1
_chemical_formula_structural   Ti27(Cu53Te54)2
_chemical_formula_sum   'Ti27 Cu106 Te108'
_cell_volume   5712.12133137
_cell_formula_units_Z   1
loop_
 _symmetry_equiv_pos_site_id
 _symmetry_equiv_pos_as_xyz
  1  'x, y, z'
loop_
 _atom_type_symbol
 _atom_type_oxidation_number
  Ti4+  4.0
  Cu+  1.0
  Te2-  -2.0
loop_
 _atom_site_type_symbol
 _atom_site_label
 _atom_site_symmetry_multiplicity
 _atom_site_fract_x
 _atom_site_fract_y
 _atom_site_fract_z
 _atom_site_occupancy
  Ti4+  Ti0  1  0.16459450  0.16596112  0.16395903  1
  Ti4+  Ti1  1  0.16847949  0.16818743  0.49800534  1
  Ti4+  Ti2  1  0.16344509  0.16225558  0.83189784  1
  Ti4+  Ti3  1  0.16554870  0.50183559  0.16701543  1
  Ti4+  Ti4  1  0.16638266  0.49916620  0.49685213  1
  Ti4+  Ti5  1  0.16760492  0.49823339  0.83217042  1
  Ti4+  Ti6  1  0.16546769  0.83311629  0.16707941  1
  Ti4+  Ti7  1  0.16435000  0.83382181  0.49878558  1
  Ti4+  Ti8  1  0.16746242  0.83322379  0.83207276  1
  Ti4+  Ti9  1  0.49909407  0.17033027  0.16570595  1
  Ti4+  Ti10  1  0.50099474  0.16311216  0.49852838  1
  Ti4+  Ti11  1  0.49834983  0.16766077  0.83095064  1
  Ti4+  Ti12  1  0.49853188  0.50268212  0.16774824  1
  Ti4+  Ti13  1  0.50146242  0.49751289  0.50125054  1
  Ti4+  Ti14  1  0.50213288  0.50033711  0.83385582  1
  Ti4+  Ti15  1  0.49983320  0.83609160  0.16477872  1
  Ti4+  Ti16  1  0.49910869  0.83009975  0.50101616  1
  Ti4+  Ti17  1  0.50045964  0.83519461  0.83335114  1
  Ti4+  Ti18  1  0.83557242  0.16646861  0.16918077  1
  Ti4+  Ti19  1  0.83334293  0.16794542  0.50132408  1
  Ti4+  Ti20  1  0.83178279  0.16539018  0.83835587  1
  Ti4+  Ti21  1  0.83312152  0.50017314  0.16773034  1
  Ti4+  Ti22  1  0.83327212  0.50068477  0.50092740  1
  Ti4+  Ti23  1  0.83672901  0.49951758  0.83335866  1
  Ti4+  Ti24  1  0.82988431  0.83369884  0.16605806  1
  Ti4+  Ti25  1  0.83111727  0.83428092  0.50154711  1
  Ti4+  Ti26  1  0.83945343  0.83206305  0.83434470  1
  Cu+  Cu27  1  0.16271570  0.16155682  -0.00294118  1
  Cu+  Cu28  1  0.17050518  0.16839898  0.32843801  1
  Cu+  Cu29  1  0.16392116  0.16306137  0.66099187  1
  Cu+  Cu30  1  0.16922446  0.49715705  -0.00005541  1
  Cu+  Cu31  1  0.16190115  0.50453902  0.33143626  1
  Cu+  Cu32  1  0.16740951  0.49798045  0.66671579  1
  Cu+  Cu33  1  0.16875498  0.83274181  -0.00135829  1
  Cu+  Cu34  1  0.16432590  0.83301299  0.33536294  1
  Cu+  Cu35  1  0.16947429  0.83949989  0.66214726  1
  Cu+  Cu36  1  0.49790662  0.17174348  -0.00180250  1
  Cu+  Cu37  1  0.49612717  0.16704389  0.33358158  1
  Cu+  Cu38  1  0.50346845  0.16685675  0.66395637  1
  Cu+  Cu39  1  0.50056743  0.49914176  0.00288648  1
  Cu+  Cu40  1  0.50060350  0.49949327  0.33447615  1
  Cu+  Cu41  1  0.50377253  0.50009389  0.66785615  1
  Cu+  Cu42  1  0.50280026  0.83683575  -0.00081594  1
  Cu+  Cu43  1  0.49635526  0.83164940  0.33312411  1
  Cu+  Cu44  1  0.50181306  0.83335410  0.66700375  1
  Cu+  Cu45  1  0.83603057  0.17027098  0.00336554  1
  Cu+  Cu46  1  0.83360687  0.16753362  0.33682931  1
  Cu+  Cu47  1  0.83075170  0.16447978  0.67051036  1
  Cu+  Cu48  1  0.83284063  0.50104258  -0.00135129  1
  Cu+  Cu49  1  0.83228311  0.50031721  0.33398506  1
  Cu+  Cu50  1  0.83426138  0.49899267  0.66776832  1
  Cu+  Cu51  1  0.83805463  0.82804811  0.00299831  1
  Cu+  Cu52  1  0.82987988  0.83705264  0.33366446  1
  Cu+  Cu53  1  0.83406010  0.83358329  0.67059089  1
  Cu+  Cu54  1  0.16306548  -0.00069293  0.16545638  1
  Cu+  Cu55  1  0.16893396  0.00064433  0.50251651  1
  Cu+  Cu56  1  0.16298026  -0.00376853  0.83715646  1
  Cu+  Cu57  1  0.16578676  0.33281674  0.16813232  1
  Cu+  Cu58  1  0.16574734  0.33705292  0.49920972  1
  Cu+  Cu59  1  0.16753514  0.33098203  0.83022557  1
  Cu+  Cu60  1  0.17055895  0.66498231  0.16872296  1
  Cu+  Cu61  1  0.16179163  0.66582141  0.49332499  1
  Cu+  Cu62  1  0.16637483  0.66489506  0.83226561  1
  Cu+  Cu63  1  0.49932396  0.00335105  0.16504501  1
  Cu+  Cu64  1  0.50044267  -0.00372584  0.50144654  1
  Cu+  Cu65  1  0.49788064  0.00414928  0.83046974  1
  Cu+  Cu66  1  0.50021595  0.34067847  0.16321606  1
  Cu+  Cu67  1  0.50216821  0.33001414  0.50058661  1
  Cu+  Cu68  1  0.50163484  0.33268365  0.83533035  1
  Cu+  Cu69  1  0.49577685  0.67137551  0.16802913  1
  Cu+  Cu70  1  0.50024451  0.66187500  0.50182996  1
  Cu+  Cu71  1  0.50036314  0.66905563  0.83244486  1
  Cu+  Cu72  1  0.83428474  -0.00053173  0.17017941  1
  Cu+  Cu73  1  0.83083903  0.00190176  0.50148627  1
  Cu+  Cu74  1  0.83406300  -0.00021119  0.83041842  1
  Cu+  Cu75  1  0.83410778  0.33190080  0.16665484  1
  Cu+  Cu76  1  0.83373990  0.33368796  0.49924483  1
  Cu+  Cu77  1  0.83445349  0.33264985  0.83972127  1
  Cu+  Cu78  1  0.83012858  0.66606633  0.16395684  1
  Cu+  Cu79  1  0.83010916  0.66846631  0.50083258  1
  Cu+  Cu80  1  0.84155068  0.66486280  0.83205124  1
  Cu+  Cu81  1  0.00168753  0.15984075  0.16752549  1
  Cu+  Cu82  1  0.00092074  0.16700244  0.50033947  1
  Cu+  Cu83  1  -0.00480922  0.16158098  0.83925049  1
  Cu+  Cu84  1  0.00061577  0.49701694  0.16921095  1
  Cu+  Cu85  1  0.00039102  0.50021690  0.49682687  1
  Cu+  Cu86  1  0.00180638  0.49956012  0.83308120  1
  Cu+  Cu87  1  -0.00657594  0.83289638  0.16695809  1
  Cu+  Cu88  1  -0.00378217  0.83297234  0.49911300  1
  Cu+  Cu89  1  0.00509762  0.82520421  0.82911219  1
  Cu+  Cu90  1  0.33015337  0.17170761  0.16418557  1
  Cu+  Cu91  1  0.33776990  0.16699403  0.49039539  1
  Cu+  Cu92  1  0.33277438  0.16397475  0.82789922  1
  Cu+  Cu93  1  0.33074827  0.50696758  0.16941290  1
  Cu+  Cu94  1  0.33438837  0.49758035  0.49884009  1
  Cu+  Cu95  1  0.33489179  0.49920713  0.83397080  1
  Cu+  Cu96  1  0.33731211  0.83090683  0.16725030  1
  Cu+  Cu97  1  0.32885915  0.83209151  0.50005539  1
  Cu+  Cu98  1  0.33336585  0.83798308  0.83415615  1
  Cu+  Cu99  1  0.66915304  0.16857056  0.16741365  1
  Cu+  Cu100  1  0.66754827  0.16747283  0.50418079  1
  Cu+  Cu101  1  0.66280963  0.16960359  0.83782947  1
  Cu+  Cu102  1  0.66653963  0.50171507  0.16538345  1
  Cu+  Cu103  1  0.66689336  0.50125136  0.50337811  1
  Cu+  Cu104  1  0.67214572  0.50004123  0.83237206  1
  Cu+  Cu105  1  0.66503781  0.83551884  0.16384381  1
  Cu+  Cu106  1  0.66526307  0.83277853  0.50352573  1
  Cu+  Cu107  1  0.66980886  0.83557227  0.83400340  1
  Cu+  Cu108  1  0.25798840  0.59505851  0.26348633  1
  Cu+  Cu109  1  0.58889538  0.26069794  0.92884643  1
  Cu+  Cu110  1  0.92316627  0.07845351  0.74035954  1
  Cu+  Cu111  1  0.07121935  0.41442852  0.59639546  1
  Cu+  Cu112  1  0.59321445  0.92529288  0.59161797  1
  Cu+  Cu113  1  0.40820334  0.74328033  0.26306008  1
  Cu+  Cu114  1  0.06649597  0.59540288  0.40427817  1
  Cu+  Cu115  1  0.92831668  0.73513195  0.73517478  1
  Cu+  Cu116  1  0.07244485  0.07404536  0.58600363  1
  Cu+  Cu117  1  0.26012166  0.26167648  0.25439931  1
  Cu+  Cu118  1  0.59677121  0.41307798  0.07564036  1
  Cu+  Cu119  1  0.74039310  0.92611658  0.74578208  1
  Cu+  Cu120  1  0.07931612  0.07171947  0.26250465  1
  Cu+  Cu121  1  0.26338470  0.92454273  0.93140432  1
  Cu+  Cu122  1  0.92877238  0.26306313  0.93053487  1
  Cu+  Cu123  1  0.59433840  0.59287282  0.59611613  1
  Cu+  Cu124  1  0.41382528  0.26281531  0.40674824  1
  Cu+  Cu125  1  0.07707875  0.92236805  0.73847831  1
  Cu+  Cu126  1  0.08389489  0.73421637  0.92950304  1
  Cu+  Cu127  1  0.06716133  0.06838876  0.92830204  1
  Cu+  Cu128  1  0.26325930  0.93029791  0.58949450  1
  Cu+  Cu129  1  0.06985691  0.40315479  0.25677325  1
  Cu+  Cu130  1  0.92574653  0.73458582  0.08078123  1
  Cu+  Cu131  1  0.59557301  0.25976160  0.59184359  1
  Cu+  Cu132  1  0.92171950  0.92395003  0.26243127  1
  Te2-  Te133  1  0.24643436  0.25266618  0.07573791  1
  Te2-  Te134  1  0.25365426  0.25719375  0.41092175  1
  Te2-  Te135  1  0.24798093  0.24680913  0.74506197  1
  Te2-  Te136  1  0.25109295  0.58628720  0.07819709  1
  Te2-  Te137  1  0.25578792  0.58644377  0.41406525  1
  Te2-  Te138  1  0.25240048  0.58408148  0.74725770  1
  Te2-  Te139  1  0.25319810  0.91802708  0.08402817  1
  Te2-  Te140  1  0.25038557  0.91943016  0.41279369  1
  Te2-  Te141  1  0.25422044  0.92404786  0.74587370  1
  Te2-  Te142  1  0.58874902  0.25599047  0.08093139  1
  Te2-  Te143  1  0.58764338  0.24968919  0.41289141  1
  Te2-  Te144  1  0.58802114  0.25432260  0.74584945  1
  Te2-  Te145  1  0.58307032  0.58988756  0.08304520  1
  Te2-  Te146  1  0.58615566  0.58382384  0.41458733  1
  Te2-  Te147  1  0.58914778  0.58724161  0.74972812  1
  Te2-  Te148  1  0.58569160  0.92329886  0.08022561  1
  Te2-  Te149  1  0.58365253  0.91487304  0.41377039  1
  Te2-  Te150  1  0.58722923  0.92320313  0.74701507  1
  Te2-  Te151  1  0.92441781  0.25312126  0.08456703  1
  Te2-  Te152  1  0.92002185  0.25198023  0.41599571  1
  Te2-  Te153  1  0.91791866  0.25024644  0.75129839  1
  Te2-  Te154  1  0.92163042  0.58292802  0.08100292  1
  Te2-  Te155  1  0.91590944  0.58858406  0.41364851  1
  Te2-  Te156  1  0.92455025  0.58311051  0.74404917  1
  Te2-  Te157  1  0.91753025  0.92119079  0.08014235  1
  Te2-  Te158  1  0.91733149  0.92159873  0.41659662  1
  Te2-  Te159  1  0.92499237  0.92113600  0.74556906  1
  Te2-  Te160  1  0.25290995  0.07906174  0.24779894  1
  Te2-  Te161  1  0.25927535  0.08451624  0.58295825  1
  Te2-  Te162  1  0.25427345  0.07928688  0.91748866  1
  Te2-  Te163  1  0.25308563  0.41592405  0.25454905  1
  Te2-  Te164  1  0.25334376  0.41474670  0.58399534  1
  Te2-  Te165  1  0.25224536  0.41168545  0.91680863  1
  Te2-  Te166  1  0.25275312  0.74955901  0.25610282  1
  Te2-  Te167  1  0.24664991  0.74412464  0.58311640  1
  Te2-  Te168  1  0.25429129  0.74624091  0.91643270  1
  Te2-  Te169  1  0.58361606  0.08543524  0.25076755  1
  Te2-  Te170  1  0.58805334  0.07742244  0.58674256  1
  Te2-  Te171  1  0.58204299  0.08149773  0.91968238  1
  Te2-  Te172  1  0.58612382  0.41664164  0.25275347  1
  Te2-  Te173  1  0.58830336  0.41125474  0.58754829  1
  Te2-  Te174  1  0.59093583  0.41465042  0.92096408  1
  Te2-  Te175  1  0.58609236  0.74999213  0.25108866  1
  Te2-  Te176  1  0.58599835  0.74451423  0.58823375  1
  Te2-  Te177  1  0.58708477  0.75075746  0.91713409  1
  Te2-  Te178  1  0.92100033  0.07918716  0.25917144  1
  Te2-  Te179  1  0.91934376  0.07839859  0.58750142  1
  Te2-  Te180  1  0.91463122  0.07380336  0.92590890  1
  Te2-  Te181  1  0.91675948  0.41216154  0.25507608  1
  Te2-  Te182  1  0.91962880  0.41358538  0.58556233  1
  Te2-  Te183  1  0.92279967  0.41562337  0.92262603  1
  Te2-  Te184  1  0.91405807  0.74620150  0.25417984  1
  Te2-  Te185  1  0.91840577  0.74708975  0.58542018  1
  Te2-  Te186  1  0.92626166  0.74256911  0.92284426  1
  Te2-  Te187  1  0.07665017  0.25104539  0.25312197  1
  Te2-  Te188  1  0.08104139  0.25481563  0.58400898  1
  Te2-  Te189  1  0.08107080  0.25263605  0.91754885  1
  Te2-  Te190  1  0.07526072  0.59199409  0.25070940  1
  Te2-  Te191  1  0.08198847  0.58462612  0.58465794  1
  Te2-  Te192  1  0.08182086  0.58276420  0.92120494  1
  Te2-  Te193  1  0.07776373  0.91752020  0.25445991  1
  Te2-  Te194  1  0.07369474  0.92107170  0.58386840  1
  Te2-  Te195  1  0.07510417  0.91557914  0.92190688  1
  Te2-  Te196  1  0.41328744  0.25920765  0.25132493  1
  Te2-  Te197  1  0.41339683  0.24939117  0.58419289  1
  Te2-  Te198  1  0.40926800  0.25213188  0.91490306  1
  Te2-  Te199  1  0.41295450  0.58898962  0.25867323  1
  Te2-  Te200  1  0.41336702  0.58159489  0.58642645  1
  Te2-  Te201  1  0.41723067  0.58507816  0.91870057  1
  Te2-  Te202  1  0.41425813  0.92212488  0.25157897  1
  Te2-  Te203  1  0.41270613  0.91718460  0.58697994  1
  Te2-  Te204  1  0.41624761  0.92313492  0.91980601  1
  Te2-  Te205  1  0.74999552  0.25232419  0.25364218  1
  Te2-  Te206  1  0.75020418  0.25423183  0.58982864  1
  Te2-  Te207  1  0.74575459  0.25356703  0.92384965  1
  Te2-  Te208  1  0.74708145  0.58560076  0.25145861  1
  Te2-  Te209  1  0.74880664  0.58669999  0.58929806  1
  Te2-  Te210  1  0.75159579  0.58784773  0.91661475  1
  Te2-  Te211  1  0.74337807  0.92022505  0.25154672  1
  Te2-  Te212  1  0.74697570  0.92205526  0.59042539  1
  Te2-  Te213  1  0.75420420  0.91656695  0.92117779  1
  Te2-  Te214  1  0.07762949  0.07553435  0.07835688  1
  Te2-  Te215  1  0.08351311  0.08082065  0.41320310  1
  Te2-  Te216  1  0.07657711  0.07678289  0.74230991  1
  Te2-  Te217  1  0.08215510  0.41399536  0.08076147  1
  Te2-  Te218  1  0.07903422  0.41167389  0.40946341  1
  Te2-  Te219  1  0.07956337  0.41127805  0.74792229  1
  Te2-  Te220  1  0.08123844  0.74471901  0.08269713  1
  Te2-  Te221  1  0.07480012  0.74952981  0.41116505  1
  Te2-  Te222  1  0.08613062  0.74449408  0.73865710  1
  Te2-  Te223  1  0.41343765  0.08654588  0.08040354  1
  Te2-  Te224  1  0.41675517  0.07433366  0.41258851  1
  Te2-  Te225  1  0.41503596  0.08222174  0.74207537  1
  Te2-  Te226  1  0.40845867  0.41948904  0.08321741  1
  Te2-  Te227  1  0.41501739  0.41337751  0.41334285  1
  Te2-  Te228  1  0.41780619  0.41458678  0.74876543  1
  Te2-  Te229  1  0.41559930  0.75009170  0.07587141  1
  Te2-  Te230  1  0.41154694  0.74392795  0.41786428  1
  Te2-  Te231  1  0.41351028  0.75105113  0.74883654  1
  Te2-  Te232  1  0.75065159  0.08218724  0.08330631  1
  Te2-  Te233  1  0.74671847  0.08317417  0.41663130  1
  Te2-  Te234  1  0.74141223  0.08203269  0.75086394  1
  Te2-  Te235  1  0.74981863  0.41363391  0.08007826  1
  Te2-  Te236  1  0.74714489  0.41610332  0.41652587  1
  Te2-  Te237  1  0.75205697  0.41167696  0.74962303  1
  Te2-  Te238  1  0.74408944  0.74774341  0.07919394  1
  Te2-  Te239  1  0.74646501  0.75071120  0.41537173  1
  Te2-  Te240  1  0.75077284  0.74622595  0.75207206  1
