# generated using pymatgen
data_Ti27(Cu53Te54)2
_symmetry_space_group_name_H-M   'P 1'
_cell_length_a   17.87456905
_cell_length_b   17.87341768
_cell_length_c   17.87310393
_cell_angle_alpha   90.00756848
_cell_angle_beta   90.01083617
_cell_angle_gamma   90.03391094
_symmetry_Int_Tables_number   1
_chemical_formula_structural   Ti27(Cu53Te54)2
_chemical_formula_sum   'Ti27 Cu106 Te108'
_cell_volume   5710.09162917
_cell_formula_units_Z   1
loop_
 _symmetry_equiv_pos_site_id
 _symmetry_equiv_pos_as_xyz
  1  'x, y, z'
loop_
 _atom_type_symbol
 _atom_type_oxidation_number
  Ti4+  4.0
  Cu+  1.0
  Te2-  -2.0
loop_
 _atom_site_type_symbol
 _atom_site_label
 _atom_site_symmetry_multiplicity
 _atom_site_fract_x
 _atom_site_fract_y
 _atom_site_fract_z
 _atom_site_occupancy
  Ti4+  Ti0  1  0.16509471  0.16740905  0.16496596  1
  Ti4+  Ti1  1  0.16562616  0.16756393  0.49997711  1
  Ti4+  Ti2  1  0.16710097  0.16590718  0.83434486  1
  Ti4+  Ti3  1  0.16920432  0.50449750  0.16695911  1
  Ti4+  Ti4  1  0.16999805  0.50018311  0.50251913  1
  Ti4+  Ti5  1  0.16639644  0.50017343  0.83333263  1
  Ti4+  Ti6  1  0.16658953  0.83079066  0.16315159  1
  Ti4+  Ti7  1  0.16626788  0.83366821  0.50132691  1
  Ti4+  Ti8  1  0.16620397  0.83322463  0.83127552  1
  Ti4+  Ti9  1  0.49879048  0.16425501  0.16774320  1
  Ti4+  Ti10  1  0.49996654  0.16499979  0.50064748  1
  Ti4+  Ti11  1  0.49969520  0.16770177  0.83458895  1
  Ti4+  Ti12  1  0.49910980  0.49883763  0.16644983  1
  Ti4+  Ti13  1  0.50035004  0.50110306  0.50211942  1
  Ti4+  Ti14  1  0.50182148  0.50138998  0.83248276  1
  Ti4+  Ti15  1  0.49791472  0.83389855  0.16730456  1
  Ti4+  Ti16  1  0.49998111  0.82902628  0.49713115  1
  Ti4+  Ti17  1  0.50253760  0.83506704  0.83124621  1
  Ti4+  Ti18  1  0.83169419  0.16975922  0.16829476  1
  Ti4+  Ti19  1  0.83107794  0.16399029  0.49921823  1
  Ti4+  Ti20  1  0.83271786  0.16606541  0.83417030  1
  Ti4+  Ti21  1  0.83273229  0.50425185  0.16798405  1
  Ti4+  Ti22  1  0.83507917  0.49730362  0.50024429  1
  Ti4+  Ti23  1  0.83153841  0.49918907  0.83579135  1
  Ti4+  Ti24  1  0.83524829  0.83410026  0.16622925  1
  Ti4+  Ti25  1  0.83414551  0.83027976  0.49981853  1
  Ti4+  Ti26  1  0.83425359  0.83361210  0.83205931  1
  Cu+  Cu27  1  0.16937317  0.16223474  0.00011616  1
  Cu+  Cu28  1  0.16194048  0.16814243  0.33210969  1
  Cu+  Cu29  1  0.16872946  0.16805664  0.66592131  1
  Cu+  Cu30  1  0.16551663  0.50224439  -0.00185741  1
  Cu+  Cu31  1  0.17169059  0.50043378  0.33424927  1
  Cu+  Cu32  1  0.16625509  0.50037616  0.67069986  1
  Cu+  Cu33  1  0.17135651  0.83121249  -0.00321427  1
  Cu+  Cu34  1  0.16641198  0.83101754  0.33094325  1
  Cu+  Cu35  1  0.15839049  0.83531355  0.66749981  1
  Cu+  Cu36  1  0.49586304  0.16989233  0.00171386  1
  Cu+  Cu37  1  0.50237638  0.16138986  0.33486595  1
  Cu+  Cu38  1  0.50364424  0.16428869  0.67116121  1
  Cu+  Cu39  1  0.49907044  0.50088233  -0.00149262  1
  Cu+  Cu40  1  0.50084278  0.49976120  0.33355102  1
  Cu+  Cu41  1  0.50237250  0.50123692  0.66476604  1
  Cu+  Cu42  1  0.50144410  0.83740021  -0.00157174  1
  Cu+  Cu43  1  0.49414542  0.83652092  0.33363300  1
  Cu+  Cu44  1  0.50446462  0.82783727  0.66626097  1
  Cu+  Cu45  1  0.83430543  0.16641167  0.00121267  1
  Cu+  Cu46  1  0.82610764  0.16984431  0.33475046  1
  Cu+  Cu47  1  0.83408534  0.16720340  0.66451423  1
  Cu+  Cu48  1  0.83253405  0.50096348  0.00058178  1
  Cu+  Cu49  1  0.83273429  0.50395691  0.33386806  1
  Cu+  Cu50  1  0.83379316  0.49501720  0.67089358  1
  Cu+  Cu51  1  0.83412407  0.83169677  -0.00322612  1
  Cu+  Cu52  1  0.83212645  0.83268212  0.33240141  1
  Cu+  Cu53  1  0.83595790  0.83285530  0.66439596  1
  Cu+  Cu54  1  0.16861897  0.00089689  0.16274862  1
  Cu+  Cu55  1  0.16480277  0.00320829  0.49852450  1
  Cu+  Cu56  1  0.16446193  -0.00181964  0.83115938  1
  Cu+  Cu57  1  0.16775106  0.33688336  0.16895063  1
  Cu+  Cu58  1  0.17153643  0.33106616  0.50317218  1
  Cu+  Cu59  1  0.16498827  0.33475328  0.83533192  1
  Cu+  Cu60  1  0.16179407  0.66638649  0.16134642  1
  Cu+  Cu61  1  0.16882691  0.67035017  0.50317403  1
  Cu+  Cu62  1  0.16762105  0.66559123  0.83399352  1
  Cu+  Cu63  1  0.49735626  -0.00299166  0.17058192  1
  Cu+  Cu64  1  0.50194735  -0.00194803  0.49347953  1
  Cu+  Cu65  1  0.50386623  0.00327840  0.83146424  1
  Cu+  Cu66  1  0.49683890  0.33009782  0.16757136  1
  Cu+  Cu67  1  0.49864459  0.33674630  0.50530545  1
  Cu+  Cu68  1  0.49997911  0.33365786  0.83508530  1
  Cu+  Cu69  1  0.49873938  0.66589922  0.16545833  1
  Cu+  Cu70  1  0.49668987  0.66297506  0.50443981  1
  Cu+  Cu71  1  0.50361600  0.67027998  0.82861363  1
  Cu+  Cu72  1  0.83745542  0.00340688  0.16436822  1
  Cu+  Cu73  1  0.83379417  -0.00460097  0.49933375  1
  Cu+  Cu74  1  0.83374649  -0.00110249  0.83313939  1
  Cu+  Cu75  1  0.83333423  0.33782608  0.17034740  1
  Cu+  Cu76  1  0.83206455  0.32905720  0.50258315  1
  Cu+  Cu77  1  0.83277200  0.33288391  0.83528662  1
  Cu+  Cu78  1  0.83316923  0.67327936  0.16831190  1
  Cu+  Cu79  1  0.83389264  0.66199195  0.49648605  1
  Cu+  Cu80  1  0.83063479  0.66562670  0.83740925  1
  Cu+  Cu81  1  -0.00346762  0.16734215  0.16536528  1
  Cu+  Cu82  1  -0.00238601  0.16678525  0.50263818  1
  Cu+  Cu83  1  0.00090555  0.16686701  0.83514241  1
  Cu+  Cu84  1  0.00105896  0.50790754  0.16809203  1
  Cu+  Cu85  1  0.00306148  0.49519665  0.50155005  1
  Cu+  Cu86  1  -0.00288043  0.49806484  0.83460001  1
  Cu+  Cu87  1  0.00092743  0.82951039  0.16469623  1
  Cu+  Cu88  1  -0.00099162  0.82968245  0.50385259  1
  Cu+  Cu89  1  0.00317234  0.83819441  0.82893250  1
  Cu+  Cu90  1  0.33272986  0.16601275  0.16264067  1
  Cu+  Cu91  1  0.32936409  0.17061050  0.50324891  1
  Cu+  Cu92  1  0.33409120  0.16628405  0.83454916  1
  Cu+  Cu93  1  0.33636117  0.50267411  0.16324533  1
  Cu+  Cu94  1  0.33766901  0.49895436  0.50285003  1
  Cu+  Cu95  1  0.33127725  0.50097417  0.83323024  1
  Cu+  Cu96  1  0.33056608  0.82947571  0.16431303  1
  Cu+  Cu97  1  0.33392569  0.83109055  0.49639190  1
  Cu+  Cu98  1  0.33383098  0.83818395  0.83273574  1
  Cu+  Cu99  1  0.66618582  0.16679601  0.17061072  1
  Cu+  Cu100  1  0.66545636  0.16305162  0.49300864  1
  Cu+  Cu101  1  0.66632039  0.16587142  0.83349010  1
  Cu+  Cu102  1  0.66320302  0.49876014  0.16904075  1
  Cu+  Cu103  1  0.66961888  0.50315241  0.49799952  1
  Cu+  Cu104  1  0.66812131  0.49974667  0.83422240  1
  Cu+  Cu105  1  0.66521963  0.83485318  0.16970474  1
  Cu+  Cu106  1  0.66814705  0.83212753  0.49979954  1
  Cu+  Cu107  1  0.66881943  0.83030624  0.83203949  1
  Cu+  Cu108  1  0.59975996  0.73971341  0.73942760  1
  Cu+  Cu109  1  0.40260000  0.93023986  0.40880373  1
  Cu+  Cu110  1  0.26087345  0.73881985  0.06777182  1
  Cu+  Cu111  1  0.25774213  0.74227322  0.40425976  1
  Cu+  Cu112  1  0.06966325  0.73695481  0.59649752  1
  Cu+  Cu113  1  0.73630330  0.26204675  0.40878247  1
  Cu+  Cu114  1  0.59725983  0.07457750  0.74281095  1
  Cu+  Cu115  1  0.60083851  0.58747546  0.59353054  1
  Cu+  Cu116  1  0.92353191  0.74195234  0.06763097  1
  Cu+  Cu117  1  0.26115824  0.25837716  0.59870290  1
  Cu+  Cu118  1  0.73730363  0.73894462  0.92727330  1
  Cu+  Cu119  1  0.07210115  0.93346544  0.73702825  1
  Cu+  Cu120  1  0.92565563  0.07762926  0.07101753  1
  Cu+  Cu121  1  0.40549999  0.58316274  0.40348997  1
  Cu+  Cu122  1  0.59603872  0.06763857  0.40316669  1
  Cu+  Cu123  1  0.73427526  0.74708251  0.26064744  1
  Cu+  Cu124  1  0.74200922  0.59299240  0.40517366  1
  Cu+  Cu125  1  0.40989484  0.40720588  0.59792515  1
  Cu+  Cu126  1  0.40377026  0.26134754  0.07405268  1
  Cu+  Cu127  1  0.06968723  0.58669511  0.06729455  1
  Cu+  Cu128  1  0.40447158  0.74457359  0.59649487  1
  Cu+  Cu129  1  0.92558371  0.25813943  0.59467254  1
  Cu+  Cu130  1  0.41522977  0.59602113  0.06637367  1
  Cu+  Cu131  1  0.07386447  0.73952533  0.26132349  1
  Cu+  Cu132  1  0.26423597  0.07244692  0.07116283  1
  Te2-  Te133  1  0.25011130  0.25643768  0.07915085  1
  Te2-  Te134  1  0.25097009  0.25151079  0.41130886  1
  Te2-  Te135  1  0.25317047  0.25442888  0.75092110  1
  Te2-  Te136  1  0.25706058  0.58820358  0.07565898  1
  Te2-  Te137  1  0.25500874  0.58770420  0.41527304  1
  Te2-  Te138  1  0.25244726  0.58672421  0.74781685  1
  Te2-  Te139  1  0.25420545  0.91873274  0.07783067  1
  Te2-  Te140  1  0.24975761  0.92067712  0.41235538  1
  Te2-  Te141  1  0.25138496  0.91853625  0.74474801  1
  Te2-  Te142  1  0.58568192  0.25037846  0.08367364  1
  Te2-  Te143  1  0.58110743  0.25657084  0.41509270  1
  Te2-  Te144  1  0.58627741  0.25472271  0.74954529  1
  Te2-  Te145  1  0.58553718  0.58473514  0.08139166  1
  Te2-  Te146  1  0.58607014  0.58879033  0.41236642  1
  Te2-  Te147  1  0.59140602  0.58655943  0.74598308  1
  Te2-  Te148  1  0.58470120  0.91918248  0.08399089  1
  Te2-  Te149  1  0.58961020  0.91442667  0.41098351  1
  Te2-  Te150  1  0.58967353  0.91944384  0.74449024  1
  Te2-  Te151  1  0.91634187  0.25674629  0.08244913  1
  Te2-  Te152  1  0.91792932  0.25082133  0.41401078  1
  Te2-  Te153  1  0.91948229  0.25273176  0.74936409  1
  Te2-  Te154  1  0.91755985  0.59024005  0.07811790  1
  Te2-  Te155  1  0.92396823  0.58167614  0.41632531  1
  Te2-  Te156  1  0.91641801  0.58486101  0.75024388  1
  Te2-  Te157  1  0.92159159  0.91913278  0.07856662  1
  Te2-  Te158  1  0.91983962  0.91464495  0.41484545  1
  Te2-  Te159  1  0.91833406  0.92134648  0.74426562  1
  Te2-  Te160  1  0.25000768  0.08313704  0.25176570  1
  Te2-  Te161  1  0.25155075  0.07965114  0.58533270  1
  Te2-  Te162  1  0.25384396  0.07627500  0.91660549  1
  Te2-  Te163  1  0.25559209  0.41790973  0.25031450  1
  Te2-  Te164  1  0.25512833  0.41415405  0.59128274  1
  Te2-  Te165  1  0.25179148  0.41553088  0.91995792  1
  Te2-  Te166  1  0.25286451  0.74246359  0.25071670  1
  Te2-  Te167  1  0.25264853  0.75137966  0.59175259  1
  Te2-  Te168  1  0.25664896  0.74644305  0.91460200  1
  Te2-  Te169  1  0.58713962  0.07638984  0.25198080  1
  Te2-  Te170  1  0.58627817  0.07801454  0.58465515  1
  Te2-  Te171  1  0.58446506  0.08368339  0.92299761  1
  Te2-  Te172  1  0.58247755  0.41230922  0.25300738  1
  Te2-  Te173  1  0.59098783  0.41549905  0.58553630  1
  Te2-  Te174  1  0.58483350  0.41608722  0.91893772  1
  Te2-  Te175  1  0.58105792  0.74733139  0.25445682  1
  Te2-  Te176  1  0.59225414  0.74330734  0.58405983  1
  Te2-  Te177  1  0.58485671  0.74744640  0.92156033  1
  Te2-  Te178  1  0.91633360  0.08509286  0.25626989  1
  Te2-  Te179  1  0.91711836  0.07769369  0.58475071  1
  Te2-  Te180  1  0.92020993  0.07909338  0.91847332  1
  Te2-  Te181  1  0.92005550  0.42090677  0.25236090  1
  Te2-  Te182  1  0.91990176  0.41203697  0.58783885  1
  Te2-  Te183  1  0.91725003  0.41381594  0.92150994  1
  Te2-  Te184  1  0.92146381  0.74754058  0.25653537  1
  Te2-  Te185  1  0.91697537  0.74110830  0.58664783  1
  Te2-  Te186  1  0.92466899  0.74807196  0.91447813  1
  Te2-  Te187  1  0.07924992  0.25380046  0.24876260  1
  Te2-  Te188  1  0.07962831  0.25445667  0.58785165  1
  Te2-  Te189  1  0.08312050  0.25029853  0.92118700  1
  Te2-  Te190  1  0.08279151  0.58723166  0.25848456  1
  Te2-  Te191  1  0.08176855  0.58429846  0.58650271  1
  Te2-  Te192  1  0.07746833  0.58771782  0.91659819  1
  Te2-  Te193  1  0.08315481  0.91862182  0.24839005  1
  Te2-  Te194  1  0.07779883  0.92340447  0.58260416  1
  Te2-  Te195  1  0.08282564  0.91754302  0.92094036  1
  Te2-  Te196  1  0.41314112  0.24717104  0.25510512  1
  Te2-  Te197  1  0.41594884  0.25134266  0.59159257  1
  Te2-  Te198  1  0.41111377  0.25545849  0.91887161  1
  Te2-  Te199  1  0.41328729  0.58702442  0.25289800  1
  Te2-  Te200  1  0.40977322  0.58752874  0.59276465  1
  Te2-  Te201  1  0.41514645  0.58936621  0.91417972  1
  Te2-  Te202  1  0.40679549  0.91835618  0.25153042  1
  Te2-  Te203  1  0.41816110  0.91645087  0.58355936  1
  Te2-  Te204  1  0.41762274  0.92179702  0.91590183  1
  Te2-  Te205  1  0.74353484  0.25794389  0.25290734  1
  Te2-  Te206  1  0.74178291  0.24817922  0.58468737  1
  Te2-  Te207  1  0.74805297  0.24986494  0.91983505  1
  Te2-  Te208  1  0.74281778  0.59023893  0.25235570  1
  Te2-  Te209  1  0.75260699  0.58466464  0.59001561  1
  Te2-  Te210  1  0.74374154  0.58559660  0.92340756  1
  Te2-  Te211  1  0.75081532  0.92191835  0.25030716  1
  Te2-  Te212  1  0.74831922  0.91614036  0.58497334  1
  Te2-  Te213  1  0.74777914  0.91861892  0.91789425  1
  Te2-  Te214  1  0.07806197  0.07958354  0.07974745  1
  Te2-  Te215  1  0.07797198  0.08317557  0.41460122  1
  Te2-  Te216  1  0.08001611  0.08395609  0.74547633  1
  Te2-  Te217  1  0.08171178  0.41862603  0.08415602  1
  Te2-  Te218  1  0.08808345  0.41413452  0.41672635  1
  Te2-  Te219  1  0.07959360  0.41432578  0.74909540  1
  Te2-  Te220  1  0.07847398  0.74625669  0.07132338  1
  Te2-  Te221  1  0.07939951  0.74646317  0.41508484  1
  Te2-  Te222  1  0.07841362  0.74230875  0.74864621  1
  Te2-  Te223  1  0.41548114  0.07533807  0.07931430  1
  Te2-  Te224  1  0.40855921  0.08298691  0.41601759  1
  Te2-  Te225  1  0.41324361  0.08108188  0.74830231  1
  Te2-  Te226  1  0.41337195  0.41333982  0.07854320  1
  Te2-  Te227  1  0.41526324  0.41341458  0.41395319  1
  Te2-  Te228  1  0.41515810  0.41522643  0.74898954  1
  Te2-  Te229  1  0.41461393  0.74842408  0.07521483  1
  Te2-  Te230  1  0.41335995  0.74042745  0.40922268  1
  Te2-  Te231  1  0.41098014  0.74888855  0.74868912  1
  Te2-  Te232  1  0.74630211  0.08267349  0.08276073  1
  Te2-  Te233  1  0.74821359  0.07310256  0.41133191  1
  Te2-  Te234  1  0.74920021  0.07972580  0.74541913  1
  Te2-  Te235  1  0.74807454  0.41741685  0.08415044  1
  Te2-  Te236  1  0.74708122  0.41347568  0.41368855  1
  Te2-  Te237  1  0.74653039  0.41193488  0.75028805  1
  Te2-  Te238  1  0.74422627  0.74929837  0.08046628  1
  Te2-  Te239  1  0.74439695  0.74504434  0.41256497  1
  Te2-  Te240  1  0.75129199  0.74551898  0.74343210  1
