# generated using pymatgen
data_Ti27(Cu53Te54)2
_symmetry_space_group_name_H-M   'P 1'
_cell_length_a   17.90780358
_cell_length_b   17.91840198
_cell_length_c   17.91293107
_cell_angle_alpha   90.03272592
_cell_angle_beta   90.00427784
_cell_angle_gamma   89.97385207
_symmetry_Int_Tables_number   1
_chemical_formula_structural   Ti27(Cu53Te54)2
_chemical_formula_sum   'Ti27 Cu106 Te108'
_cell_volume   5747.88585430
_cell_formula_units_Z   1
loop_
 _symmetry_equiv_pos_site_id
 _symmetry_equiv_pos_as_xyz
  1  'x, y, z'
loop_
 _atom_type_symbol
 _atom_type_oxidation_number
  Ti4+  4.0
  Cu+  1.0
  Te2-  -2.0
loop_
 _atom_site_type_symbol
 _atom_site_label
 _atom_site_symmetry_multiplicity
 _atom_site_fract_x
 _atom_site_fract_y
 _atom_site_fract_z
 _atom_site_occupancy
  Ti4+  Ti0  1  0.16633350  0.17062712  0.16609167  1
  Ti4+  Ti1  1  0.16506730  0.16800598  0.49993702  1
  Ti4+  Ti2  1  0.17003600  0.16376754  0.83547696  1
  Ti4+  Ti3  1  0.16682393  0.50037547  0.16657327  1
  Ti4+  Ti4  1  0.16694907  0.50057186  0.50087436  1
  Ti4+  Ti5  1  0.16848178  0.49947771  0.83391079  1
  Ti4+  Ti6  1  0.16691011  0.83741612  0.16651843  1
  Ti4+  Ti7  1  0.16549668  0.83302708  0.50056830  1
  Ti4+  Ti8  1  0.16724782  0.83153278  0.83562227  1
  Ti4+  Ti9  1  0.50086845  0.16611938  0.16711219  1
  Ti4+  Ti10  1  0.49921020  0.16460993  0.50110902  1
  Ti4+  Ti11  1  0.50353577  0.16201505  0.82658789  1
  Ti4+  Ti12  1  0.49641284  0.50000882  0.16644053  1
  Ti4+  Ti13  1  0.49723206  0.50209711  0.49633534  1
  Ti4+  Ti14  1  0.50185430  0.49694430  0.83211079  1
  Ti4+  Ti15  1  0.49909974  0.83311550  0.16648228  1
  Ti4+  Ti16  1  0.49599411  0.83207195  0.49935332  1
  Ti4+  Ti17  1  0.50467182  0.83225924  0.83376074  1
  Ti4+  Ti18  1  0.83219895  0.16636756  0.16654662  1
  Ti4+  Ti19  1  0.83200838  0.17024563  0.50176309  1
  Ti4+  Ti20  1  0.83573707  0.16721667  0.83008719  1
  Ti4+  Ti21  1  0.83066969  0.49818752  0.16745078  1
  Ti4+  Ti22  1  0.83258391  0.50211536  0.50311480  1
  Ti4+  Ti23  1  0.82942920  0.49971012  0.83666506  1
  Ti4+  Ti24  1  0.83620697  0.83282360  0.16753116  1
  Ti4+  Ti25  1  0.83330775  0.83433331  0.49861584  1
  Ti4+  Ti26  1  0.83217229  0.83263866  0.83181059  1
  Cu+  Cu27  1  0.17258299  0.16338762  0.00291397  1
  Cu+  Cu28  1  0.16183549  0.16803447  0.33081081  1
  Cu+  Cu29  1  0.16441095  0.16614897  0.67060562  1
  Cu+  Cu30  1  0.16860353  0.49799146  -0.00083099  1
  Cu+  Cu31  1  0.16696718  0.49700576  0.33477019  1
  Cu+  Cu32  1  0.16995907  0.50252197  0.66702860  1
  Cu+  Cu33  1  0.17268230  0.83552144  -0.00054909  1
  Cu+  Cu34  1  0.16234754  0.83453612  0.33341206  1
  Cu+  Cu35  1  0.16407580  0.83159747  0.66817000  1
  Cu+  Cu36  1  0.50318920  0.16511540  -0.00230079  1
  Cu+  Cu37  1  0.49955847  0.16476738  0.33380581  1
  Cu+  Cu38  1  0.50486341  0.15921226  0.66147077  1
  Cu+  Cu39  1  0.50102619  0.49790943  -0.00124420  1
  Cu+  Cu40  1  0.49617470  0.50768711  0.33066259  1
  Cu+  Cu41  1  0.49804678  0.49443588  0.66266844  1
  Cu+  Cu42  1  0.50190298  0.83380031  0.00283725  1
  Cu+  Cu43  1  0.49635048  0.83228969  0.33213232  1
  Cu+  Cu44  1  0.49896163  0.83422930  0.66980226  1
  Cu+  Cu45  1  0.83389224  0.16291526  -0.00104066  1
  Cu+  Cu46  1  0.83167839  0.16879299  0.33549228  1
  Cu+  Cu47  1  0.83738065  0.17618475  0.66500245  1
  Cu+  Cu48  1  0.82808686  0.49377118  0.00279626  1
  Cu+  Cu49  1  0.83434097  0.49985896  0.33540721  1
  Cu+  Cu50  1  0.82982050  0.50410767  0.67145561  1
  Cu+  Cu51  1  0.83535217  0.83363189  0.00230224  1
  Cu+  Cu52  1  0.83729475  0.83462986  0.33277781  1
  Cu+  Cu53  1  0.83095788  0.83212967  0.66293488  1
  Cu+  Cu54  1  0.16488930  0.00821985  0.16680374  1
  Cu+  Cu55  1  0.16359121  -0.00118872  0.49844888  1
  Cu+  Cu56  1  0.17062802  -0.00456035  0.84147254  1
  Cu+  Cu57  1  0.16830614  0.33539548  0.16309588  1
  Cu+  Cu58  1  0.16778498  0.33498245  0.49586487  1
  Cu+  Cu59  1  0.16790045  0.33208590  0.83459314  1
  Cu+  Cu60  1  0.16590640  0.66901166  0.16748034  1
  Cu+  Cu61  1  0.16761883  0.66636989  0.50346697  1
  Cu+  Cu62  1  0.16574953  0.66575364  0.83472372  1
  Cu+  Cu63  1  0.49936107  -0.00081235  0.16837241  1
  Cu+  Cu64  1  0.49513110  -0.00220011  0.50162321  1
  Cu+  Cu65  1  0.50492821  -0.00297450  0.82143114  1
  Cu+  Cu66  1  0.49915478  0.33102291  0.16573535  1
  Cu+  Cu67  1  0.49629240  0.33576381  0.50241018  1
  Cu+  Cu68  1  0.50184117  0.32977146  0.82875910  1
  Cu+  Cu69  1  0.49874913  0.66685183  0.16908496  1
  Cu+  Cu70  1  0.49380464  0.66638462  0.49451235  1
  Cu+  Cu71  1  0.50614481  0.66436731  0.83599458  1
  Cu+  Cu72  1  0.83616247  -0.00136009  0.16610310  1
  Cu+  Cu73  1  0.83173191  0.00236988  0.49907347  1
  Cu+  Cu74  1  0.83499956  0.00096609  0.83354106  1
  Cu+  Cu75  1  0.83186702  0.33146060  0.16831151  1
  Cu+  Cu76  1  0.83741592  0.33676720  0.50514377  1
  Cu+  Cu77  1  0.82857366  0.33396309  0.83320903  1
  Cu+  Cu78  1  0.83638534  0.66539885  0.16579924  1
  Cu+  Cu79  1  0.82923693  0.67171599  0.50305165  1
  Cu+  Cu80  1  0.82681747  0.66522922  0.83357753  1
  Cu+  Cu81  1  -0.00143718  0.16969920  0.16929447  1
  Cu+  Cu82  1  -0.00284754  0.17047698  0.50189316  1
  Cu+  Cu83  1  0.00724191  0.16968571  0.82991613  1
  Cu+  Cu84  1  -0.00200211  0.50035758  0.16776152  1
  Cu+  Cu85  1  -0.00089294  0.50099611  0.50332792  1
  Cu+  Cu86  1  -0.00089388  0.49749045  0.83603998  1
  Cu+  Cu87  1  0.00296649  0.83260547  0.17038125  1
  Cu+  Cu88  1  -0.00106834  0.83571481  0.49810078  1
  Cu+  Cu89  1  -0.00171594  0.83184601  0.83165293  1
  Cu+  Cu90  1  0.33642450  0.16909615  0.16511818  1
  Cu+  Cu91  1  0.33181226  0.16570723  0.50204663  1
  Cu+  Cu92  1  0.33537224  0.16288498  0.83190027  1
  Cu+  Cu93  1  0.33055519  0.49602372  0.16241091  1
  Cu+  Cu94  1  0.33141607  0.50104807  0.49891134  1
  Cu+  Cu95  1  0.33594418  0.49829924  0.83057414  1
  Cu+  Cu96  1  0.33256509  0.83317724  0.16282009  1
  Cu+  Cu97  1  0.32866310  0.83209930  0.49921055  1
  Cu+  Cu98  1  0.33609395  0.83459658  0.83661815  1
  Cu+  Cu99  1  0.66560440  0.16488517  0.16613518  1
  Cu+  Cu100  1  0.66433596  0.17134968  0.50343501  1
  Cu+  Cu101  1  0.67059251  0.15968029  0.82494019  1
  Cu+  Cu102  1  0.66200330  0.50042311  0.17048587  1
  Cu+  Cu103  1  0.67181698  0.50651300  0.49188344  1
  Cu+  Cu104  1  0.66447305  0.50155332  0.83826227  1
  Cu+  Cu105  1  0.66748330  0.83370135  0.16763595  1
  Cu+  Cu106  1  0.66266509  0.83159671  0.49950619  1
  Cu+  Cu107  1  0.67167553  0.82901783  0.83970209  1
  Cu+  Cu108  1  0.58838081  0.59267225  0.93001402  1
  Cu+  Cu109  1  0.93055821  0.26649335  0.59054976  1
  Cu+  Cu110  1  0.26707430  0.92448193  0.92716812  1
  Cu+  Cu111  1  0.07628219  0.73738559  0.26179595  1
  Cu+  Cu112  1  0.59257592  0.59664358  0.25792018  1
  Cu+  Cu113  1  0.74133473  0.26086669  0.74113207  1
  Cu+  Cu114  1  0.06848283  0.07895594  0.25996220  1
  Cu+  Cu115  1  0.39918205  0.06882521  0.58543341  1
  Cu+  Cu116  1  0.60223003  0.06569280  0.73237907  1
  Cu+  Cu117  1  0.73574580  0.59251472  0.74388239  1
  Cu+  Cu118  1  0.25888229  0.73957581  0.07516751  1
  Cu+  Cu119  1  0.25957257  0.40447798  0.40523846  1
  Cu+  Cu120  1  0.25842577  0.40660820  0.06803938  1
  Cu+  Cu121  1  0.73869642  0.40160776  0.93272129  1
  Cu+  Cu122  1  0.40376237  0.91998124  0.74173132  1
  Cu+  Cu123  1  0.58909213  0.26582065  0.58750355  1
  Cu+  Cu124  1  0.08345386  0.26325398  0.74153113  1
  Cu+  Cu125  1  0.73321199  0.74677700  0.59074802  1
  Cu+  Cu126  1  0.75688054  0.59993569  0.40254716  1
  Cu+  Cu127  1  0.25852356  0.59651879  0.59685667  1
  Cu+  Cu128  1  0.75107012  0.73974918  0.93426344  1
  Cu+  Cu129  1  0.40108771  0.59606893  0.40178657  1
  Cu+  Cu130  1  0.26545010  0.07710616  0.08099195  1
  Cu+  Cu131  1  0.74397622  0.07305634  0.92731991  1
  Cu+  Cu132  1  0.40434087  0.40712537  0.59256745  1
  Te2-  Te133  1  0.25622835  0.25481006  0.07862116  1
  Te2-  Te134  1  0.25279197  0.24957125  0.41255302  1
  Te2-  Te135  1  0.25435771  0.25023915  0.74895796  1
  Te2-  Te136  1  0.25205946  0.58716004  0.08001912  1
  Te2-  Te137  1  0.24985124  0.58915217  0.41132890  1
  Te2-  Te138  1  0.25512049  0.58754642  0.75016830  1
  Te2-  Te139  1  0.25556436  0.92583249  0.08092413  1
  Te2-  Te140  1  0.24945309  0.91862483  0.41402941  1
  Te2-  Te141  1  0.25142977  0.91820195  0.74690790  1
  Te2-  Te142  1  0.58572185  0.25080430  0.08060579  1
  Te2-  Te143  1  0.58165774  0.25315651  0.41569443  1
  Te2-  Te144  1  0.58835246  0.25353220  0.74145124  1
  Te2-  Te145  1  0.58436634  0.58628509  0.08174941  1
  Te2-  Te146  1  0.58676951  0.59089369  0.41161023  1
  Te2-  Te147  1  0.58380841  0.58354965  0.74228338  1
  Te2-  Te148  1  0.58606478  0.91905847  0.08366193  1
  Te2-  Te149  1  0.58075341  0.91731917  0.41521865  1
  Te2-  Te150  1  0.59601818  0.91239294  0.74548928  1
  Te2-  Te151  1  0.91639166  0.25135667  0.08070110  1
  Te2-  Te152  1  0.91744262  0.25519371  0.41480348  1
  Te2-  Te153  1  0.92479712  0.25928257  0.74830613  1
  Te2-  Te154  1  0.91572588  0.58071483  0.07991138  1
  Te2-  Te155  1  0.91818292  0.58782739  0.41830976  1
  Te2-  Te156  1  0.91790279  0.58494885  0.75343176  1
  Te2-  Te157  1  0.92212878  0.91702264  0.08228473  1
  Te2-  Te158  1  0.91815780  0.92169544  0.41494083  1
  Te2-  Te159  1  0.91668964  0.91672937  0.74623189  1
  Te2-  Te160  1  0.25390198  0.08571118  0.25247338  1
  Te2-  Te161  1  0.24657528  0.08008980  0.58648336  1
  Te2-  Te162  1  0.26002929  0.07810338  0.92258504  1
  Te2-  Te163  1  0.25315251  0.41255360  0.25285692  1
  Te2-  Te164  1  0.25229492  0.41115510  0.58763669  1
  Te2-  Te165  1  0.25623024  0.41229285  0.91672564  1
  Te2-  Te166  1  0.25178056  0.75153670  0.25292809  1
  Te2-  Te167  1  0.25260650  0.74858020  0.58900385  1
  Te2-  Te168  1  0.25595158  0.74391967  0.91931536  1
  Te2-  Te169  1  0.58508789  0.08019617  0.25278528  1
  Te2-  Te170  1  0.59084013  0.07309232  0.58124137  1
  Te2-  Te171  1  0.58729585  0.07747950  0.91504770  1
  Te2-  Te172  1  0.57960047  0.41472834  0.25373051  1
  Te2-  Te173  1  0.59038222  0.41971818  0.57978038  1
  Te2-  Te174  1  0.58504162  0.40764577  0.91940154  1
  Te2-  Te175  1  0.58603590  0.74902135  0.25385637  1
  Te2-  Te176  1  0.57909962  0.74491883  0.58540951  1
  Te2-  Te177  1  0.58903912  0.74643835  0.92531188  1
  Te2-  Te178  1  0.91676944  0.08156620  0.25507301  1
  Te2-  Te179  1  0.91716144  0.08263205  0.58587371  1
  Te2-  Te180  1  0.92342954  0.08404745  0.91448127  1
  Te2-  Te181  1  0.91678975  0.41468243  0.25260825  1
  Te2-  Te182  1  0.91940224  0.41983920  0.59306310  1
  Te2-  Te183  1  0.91586574  0.41227989  0.91955246  1
  Te2-  Te184  1  0.92106451  0.74498148  0.25400962  1
  Te2-  Te185  1  0.92052133  0.74926420  0.58393406  1
  Te2-  Te186  1  0.91658615  0.74615113  0.91685214  1
  Te2-  Te187  1  0.08112035  0.25829927  0.25048587  1
  Te2-  Te188  1  0.08192548  0.25728357  0.58695941  1
  Te2-  Te189  1  0.08633238  0.24940878  0.92272499  1
  Te2-  Te190  1  0.08056500  0.58416572  0.25394029  1
  Te2-  Te191  1  0.08080227  0.58575124  0.58739857  1
  Te2-  Te192  1  0.08225825  0.58263104  0.91938838  1
  Te2-  Te193  1  0.08071232  0.92468856  0.25257936  1
  Te2-  Te194  1  0.08042394  0.91797739  0.58586227  1
  Te2-  Te195  1  0.07866531  0.91492553  0.92010897  1
  Te2-  Te196  1  0.41539843  0.25144075  0.25315616  1
  Te2-  Te197  1  0.41230966  0.25146138  0.58924625  1
  Te2-  Te198  1  0.41948317  0.24699123  0.91322592  1
  Te2-  Te199  1  0.40548793  0.58746142  0.24802780  1
  Te2-  Te200  1  0.41384423  0.58756981  0.58758691  1
  Te2-  Te201  1  0.41605670  0.58308020  0.91694251  1
  Te2-  Te202  1  0.41217933  0.91762949  0.25063089  1
  Te2-  Te203  1  0.40833013  0.91668353  0.58780506  1
  Te2-  Te204  1  0.42181952  0.92195503  0.91945067  1
  Te2-  Te205  1  0.74612664  0.25027183  0.25204259  1
  Te2-  Te206  1  0.74405080  0.26018065  0.58797582  1
  Te2-  Te207  1  0.74504915  0.24826991  0.91863700  1
  Te2-  Te208  1  0.74672441  0.58909945  0.25310986  1
  Te2-  Te209  1  0.74280714  0.58921901  0.58924402  1
  Te2-  Te210  1  0.74369755  0.58751074  0.92795734  1
  Te2-  Te211  1  0.75040451  0.91827234  0.25173814  1
  Te2-  Te212  1  0.74574003  0.91936053  0.58281413  1
  Te2-  Te213  1  0.74966746  0.92065764  0.92116725  1
  Te2-  Te214  1  0.07797099  0.08581091  0.08029236  1
  Te2-  Te215  1  0.07758458  0.08331715  0.41626122  1
  Te2-  Te216  1  0.08566500  0.07474753  0.75255776  1
  Te2-  Te217  1  0.07982092  0.41666822  0.08149245  1
  Te2-  Te218  1  0.07787638  0.41632826  0.41629145  1
  Te2-  Te219  1  0.08199198  0.41596317  0.74716862  1
  Te2-  Te220  1  0.08300217  0.75161636  0.07927457  1
  Te2-  Te221  1  0.07949960  0.74552314  0.41613121  1
  Te2-  Te222  1  0.08137235  0.74660846  0.75023132  1
  Te2-  Te223  1  0.41739955  0.07952673  0.07890270  1
  Te2-  Te224  1  0.41256126  0.08066575  0.41488867  1
  Te2-  Te225  1  0.41077142  0.07716123  0.74184281  1
  Te2-  Te226  1  0.41502041  0.41163605  0.07812957  1
  Te2-  Te227  1  0.41419484  0.41334080  0.40944203  1
  Te2-  Te228  1  0.41426162  0.41032639  0.74674175  1
  Te2-  Te229  1  0.41472943  0.74572770  0.07881349  1
  Te2-  Te230  1  0.40862246  0.74933483  0.41130596  1
  Te2-  Te231  1  0.41754772  0.74512536  0.75266727  1
  Te2-  Te232  1  0.74726565  0.07772012  0.08166878  1
  Te2-  Te233  1  0.74528989  0.08589102  0.41738968  1
  Te2-  Te234  1  0.75580478  0.07805531  0.73828991  1
  Te2-  Te235  1  0.74123825  0.41073714  0.08622668  1
  Te2-  Te236  1  0.75152296  0.41254140  0.41677058  1
  Te2-  Te237  1  0.74214048  0.41519561  0.74645262  1
  Te2-  Te238  1  0.74787735  0.74636699  0.08415655  1
  Te2-  Te239  1  0.74557427  0.75059072  0.40910204  1
  Te2-  Te240  1  0.74287825  0.74636215  0.74367585  1
