# generated using pymatgen
data_Ti27(Cu53Te54)2
_symmetry_space_group_name_H-M   'P 1'
_cell_length_a   17.88310513
_cell_length_b   17.89732099
_cell_length_c   17.88911621
_cell_angle_alpha   89.96055767
_cell_angle_beta   90.02381708
_cell_angle_gamma   90.02696764
_symmetry_Int_Tables_number   1
_chemical_formula_structural   Ti27(Cu53Te54)2
_chemical_formula_sum   'Ti27 Cu106 Te108'
_cell_volume   5725.58219589
_cell_formula_units_Z   1
loop_
 _symmetry_equiv_pos_site_id
 _symmetry_equiv_pos_as_xyz
  1  'x, y, z'
loop_
 _atom_type_symbol
 _atom_type_oxidation_number
  Ti4+  4.0
  Cu+  1.0
  Te2-  -2.0
loop_
 _atom_site_type_symbol
 _atom_site_label
 _atom_site_symmetry_multiplicity
 _atom_site_fract_x
 _atom_site_fract_y
 _atom_site_fract_z
 _atom_site_occupancy
  Ti4+  Ti0  1  0.16497812  0.16510594  0.16610986  1
  Ti4+  Ti1  1  0.16646809  0.16903655  0.49955671  1
  Ti4+  Ti2  1  0.16866403  0.17156057  0.83553618  1
  Ti4+  Ti3  1  0.16692383  0.50185996  0.16469010  1
  Ti4+  Ti4  1  0.16628793  0.49841927  0.49896449  1
  Ti4+  Ti5  1  0.16497579  0.50240047  0.82710829  1
  Ti4+  Ti6  1  0.16299846  0.83291816  0.16730776  1
  Ti4+  Ti7  1  0.16352624  0.83154377  0.50216893  1
  Ti4+  Ti8  1  0.16877974  0.83678264  0.82950021  1
  Ti4+  Ti9  1  0.50029605  0.16311693  0.16471690  1
  Ti4+  Ti10  1  0.49946933  0.16716362  0.49925365  1
  Ti4+  Ti11  1  0.49991771  0.16574200  0.83260528  1
  Ti4+  Ti12  1  0.50025257  0.49814269  0.16792747  1
  Ti4+  Ti13  1  0.50099121  0.50114111  0.49819650  1
  Ti4+  Ti14  1  0.49958373  0.49838175  0.83486643  1
  Ti4+  Ti15  1  0.49965934  0.83180465  0.16699779  1
  Ti4+  Ti16  1  0.49875337  0.83398694  0.49850341  1
  Ti4+  Ti17  1  0.50088369  0.83119974  0.83382854  1
  Ti4+  Ti18  1  0.83417261  0.16723780  0.16787042  1
  Ti4+  Ti19  1  0.83397712  0.16786319  0.50100795  1
  Ti4+  Ti20  1  0.83394989  0.16460199  0.83397545  1
  Ti4+  Ti21  1  0.83357926  0.50307730  0.16867749  1
  Ti4+  Ti22  1  0.83158625  0.49784780  0.49949434  1
  Ti4+  Ti23  1  0.83348926  0.49687946  0.83448807  1
  Ti4+  Ti24  1  0.83620663  0.83233301  0.16999575  1
  Ti4+  Ti25  1  0.83499599  0.83558324  0.50315421  1
  Ti4+  Ti26  1  0.83305990  0.83375547  0.83277468  1
  Cu+  Cu27  1  0.16286870  0.16591217  0.00126330  1
  Cu+  Cu28  1  0.16530771  0.16736229  0.33131902  1
  Cu+  Cu29  1  0.17017918  0.17334638  0.66851138  1
  Cu+  Cu30  1  0.16337004  0.50775561  -0.00249505  1
  Cu+  Cu31  1  0.17057161  0.49491953  0.33458982  1
  Cu+  Cu32  1  0.16945428  0.49628159  0.66067997  1
  Cu+  Cu33  1  0.16922524  0.83679152  -0.00410156  1
  Cu+  Cu34  1  0.15907888  0.82980385  0.33472213  1
  Cu+  Cu35  1  0.16920728  0.83180378  0.66833401  1
  Cu+  Cu36  1  0.49999343  0.16227082  -0.00112788  1
  Cu+  Cu37  1  0.50033849  0.16470138  0.33174962  1
  Cu+  Cu38  1  0.50060395  0.16830596  0.66263501  1
  Cu+  Cu39  1  0.49758788  0.49941212  0.00193852  1
  Cu+  Cu40  1  0.50476923  0.50316977  0.33112321  1
  Cu+  Cu41  1  0.50013109  0.50009374  0.66656491  1
  Cu+  Cu42  1  0.50191306  0.82989450  0.00040528  1
  Cu+  Cu43  1  0.49877420  0.83386100  0.33399552  1
  Cu+  Cu44  1  0.49847881  0.83432941  0.66428505  1
  Cu+  Cu45  1  0.83821262  0.16404914  0.00208632  1
  Cu+  Cu46  1  0.83107605  0.16787339  0.33616411  1
  Cu+  Cu47  1  0.83011141  0.16835224  0.66757480  1
  Cu+  Cu48  1  0.83443935  0.49793982  0.00312164  1
  Cu+  Cu49  1  0.82952661  0.49462371  0.33234379  1
  Cu+  Cu50  1  0.83341488  0.49919239  0.66797691  1
  Cu+  Cu51  1  0.83339000  0.83258476  -0.00132356  1
  Cu+  Cu52  1  0.84068714  0.83519562  0.33720338  1
  Cu+  Cu53  1  0.83424804  0.83659615  0.66780326  1
  Cu+  Cu54  1  0.16513021  -0.00141699  0.16732767  1
  Cu+  Cu55  1  0.16389852  -0.00015266  0.50196527  1
  Cu+  Cu56  1  0.17144479  0.00621588  0.83273312  1
  Cu+  Cu57  1  0.16683808  0.32856479  0.16640758  1
  Cu+  Cu58  1  0.16769607  0.33718415  0.49895785  1
  Cu+  Cu59  1  0.16194217  0.33640455  0.82551003  1
  Cu+  Cu60  1  0.16012381  0.66601621  0.16477576  1
  Cu+  Cu61  1  0.16500494  0.66130575  0.50538352  1
  Cu+  Cu62  1  0.17111796  0.67396896  0.82746769  1
  Cu+  Cu63  1  0.49998599  -0.00265746  0.16669098  1
  Cu+  Cu64  1  0.49964079  0.00181034  0.49906492  1
  Cu+  Cu65  1  0.49877541  -0.00288820  0.83188627  1
  Cu+  Cu66  1  0.50059686  0.32797088  0.16486691  1
  Cu+  Cu67  1  0.50126969  0.33315050  0.49860450  1
  Cu+  Cu68  1  0.49886694  0.33270026  0.83578573  1
  Cu+  Cu69  1  0.50099860  0.66460701  0.16757633  1
  Cu+  Cu70  1  0.49877122  0.67085507  0.49795106  1
  Cu+  Cu71  1  0.50028548  0.66360684  0.83565693  1
  Cu+  Cu72  1  0.83699668  -0.00084518  0.17148630  1
  Cu+  Cu73  1  0.83460763  0.00248097  0.50563276  1
  Cu+  Cu74  1  0.83143825  -0.00235030  0.83439129  1
  Cu+  Cu75  1  0.83108379  0.33897536  0.16985467  1
  Cu+  Cu76  1  0.83331842  0.33253895  0.49532154  1
  Cu+  Cu77  1  0.83188344  0.32756937  0.83388145  1
  Cu+  Cu78  1  0.83604319  0.66976038  0.16582545  1
  Cu+  Cu79  1  0.83440201  0.66552445  0.50221053  1
  Cu+  Cu80  1  0.83185050  0.66562719  0.83345911  1
  Cu+  Cu81  1  -0.00104819  0.16440700  0.16386576  1
  Cu+  Cu82  1  0.00044849  0.16762109  0.50058501  1
  Cu+  Cu83  1  0.00127101  0.17071822  0.84136629  1
  Cu+  Cu84  1  0.00202047  0.50567168  0.16102817  1
  Cu+  Cu85  1  -0.00637648  0.49738915  0.50084085  1
  Cu+  Cu86  1  0.00304635  0.49789772  0.83653373  1
  Cu+  Cu87  1  -0.00025938  0.82920959  0.17226631  1
  Cu+  Cu88  1  -0.00422295  0.83297788  0.50296883  1
  Cu+  Cu89  1  0.00082426  0.83615312  0.83301599  1
  Cu+  Cu90  1  0.33264926  0.16242386  0.16473646  1
  Cu+  Cu91  1  0.33565688  0.16938643  0.49958505  1
  Cu+  Cu92  1  0.33333188  0.16553501  0.83217126  1
  Cu+  Cu93  1  0.33615642  0.50168509  0.16270994  1
  Cu+  Cu94  1  0.33529497  0.50112622  0.49477335  1
  Cu+  Cu95  1  0.33190953  0.49960792  0.82901232  1
  Cu+  Cu96  1  0.33061802  0.83004541  0.16819894  1
  Cu+  Cu97  1  0.33186733  0.83335797  0.49837305  1
  Cu+  Cu98  1  0.33817487  0.83769294  0.82694639  1
  Cu+  Cu99  1  0.66560622  0.16623173  0.16631548  1
  Cu+  Cu100  1  0.66509905  0.16652734  0.50027624  1
  Cu+  Cu101  1  0.66676641  0.16651705  0.83089275  1
  Cu+  Cu102  1  0.66514046  0.50349393  0.17752517  1
  Cu+  Cu103  1  0.66587701  0.50160745  0.49898356  1
  Cu+  Cu104  1  0.66556391  0.49635899  0.83599545  1
  Cu+  Cu105  1  0.66892758  0.83409157  0.16865308  1
  Cu+  Cu106  1  0.66593431  0.83524590  0.49950741  1
  Cu+  Cu107  1  0.66728360  0.83041317  0.83375128  1
  Cu+  Cu108  1  0.92054137  0.59331785  0.59828907  1
  Cu+  Cu109  1  0.41261423  0.59449080  0.07324031  1
  Cu+  Cu110  1  0.92581909  0.93299543  0.59867431  1
  Cu+  Cu111  1  0.92512953  0.40906352  0.07994563  1
  Cu+  Cu112  1  0.92458657  0.40322035  0.40439432  1
  Cu+  Cu113  1  0.07040678  0.25373616  0.73894951  1
  Cu+  Cu114  1  0.92363376  0.74505176  0.06795414  1
  Cu+  Cu115  1  0.73574781  0.25703381  0.73864571  1
  Cu+  Cu116  1  0.26628829  0.59010730  0.58550865  1
  Cu+  Cu117  1  0.41500343  0.92894104  0.73386254  1
  Cu+  Cu118  1  0.92108874  0.25956536  0.92961196  1
  Cu+  Cu119  1  0.26702940  0.74318422  0.74131975  1
  Cu+  Cu120  1  0.92239668  0.06892518  0.07619362  1
  Cu+  Cu121  1  0.73511679  0.40350727  0.26024675  1
  Cu+  Cu122  1  0.92195745  0.73667828  0.41265840  1
  Cu+  Cu123  1  0.26634979  0.40591715  0.40277491  1
  Cu+  Cu124  1  0.07868826  0.07131826  0.92404031  1
  Cu+  Cu125  1  0.26342086  0.40848706  0.73846168  1
  Cu+  Cu126  1  0.08487324  0.41030924  0.92740434  1
  Cu+  Cu127  1  0.06693799  0.40654880  0.58562768  1
  Cu+  Cu128  1  0.25808353  0.07979872  0.73709908  1
  Cu+  Cu129  1  0.07300417  0.59796157  0.06654172  1
  Cu+  Cu130  1  0.92824357  0.93142491  0.26492124  1
  Cu+  Cu131  1  0.07774443  0.73188084  0.26534849  1
  Cu+  Cu132  1  0.59220635  0.60003582  0.26285332  1
  Te2-  Te133  1  0.25167656  0.24917085  0.08048869  1
  Te2-  Te134  1  0.25249469  0.25304365  0.41220416  1
  Te2-  Te135  1  0.25795714  0.25727699  0.74823033  1
  Te2-  Te136  1  0.25232898  0.58912001  0.07929943  1
  Te2-  Te137  1  0.25044927  0.58779391  0.41299630  1
  Te2-  Te138  1  0.25439498  0.58855359  0.74168727  1
  Te2-  Te139  1  0.25071840  0.91704477  0.08356318  1
  Te2-  Te140  1  0.24589902  0.91604534  0.41505221  1
  Te2-  Te141  1  0.25499423  0.92569065  0.74201173  1
  Te2-  Te142  1  0.58574128  0.24899760  0.07831850  1
  Te2-  Te143  1  0.58537585  0.25109498  0.41283751  1
  Te2-  Te144  1  0.58379454  0.25423239  0.74631884  1
  Te2-  Te145  1  0.58778268  0.58318316  0.08188524  1
  Te2-  Te146  1  0.58773673  0.59025728  0.41516718  1
  Te2-  Te147  1  0.58560921  0.58274379  0.75004198  1
  Te2-  Te148  1  0.58598543  0.91606817  0.08241758  1
  Te2-  Te149  1  0.58455627  0.91968469  0.41401666  1
  Te2-  Te150  1  0.58666392  0.91653801  0.74746548  1
  Te2-  Te151  1  0.92080450  0.25750903  0.08269609  1
  Te2-  Te152  1  0.92138879  0.25147854  0.41213810  1
  Te2-  Te153  1  0.92027957  0.25180846  0.74640614  1
  Te2-  Te154  1  0.91980787  0.59102265  0.07600088  1
  Te2-  Te155  1  0.91774585  0.58305366  0.41078466  1
  Te2-  Te156  1  0.91992440  0.58409048  0.75128850  1
  Te2-  Te157  1  0.92141148  0.91639386  0.08072329  1
  Te2-  Te158  1  0.92239836  0.92579330  0.41810320  1
  Te2-  Te159  1  0.92096709  0.92254002  0.74935867  1
  Te2-  Te160  1  0.25001493  0.08031110  0.25167713  1
  Te2-  Te161  1  0.25247116  0.08290179  0.58429814  1
  Te2-  Te162  1  0.25410170  0.08472696  0.92278821  1
  Te2-  Te163  1  0.25397253  0.41335099  0.24692763  1
  Te2-  Te164  1  0.25983062  0.41197308  0.58349027  1
  Te2-  Te165  1  0.24746231  0.41719429  0.91709405  1
  Te2-  Te166  1  0.24708662  0.74571634  0.25263049  1
  Te2-  Te167  1  0.25496451  0.74607437  0.58594264  1
  Te2-  Te168  1  0.25586761  0.75272594  0.91541481  1
  Te2-  Te169  1  0.58611043  0.07880402  0.25125602  1
  Te2-  Te170  1  0.58520860  0.08090742  0.58516556  1
  Te2-  Te171  1  0.58565400  0.07930172  0.91528447  1
  Te2-  Te172  1  0.58376632  0.40752631  0.25440054  1
  Te2-  Te173  1  0.58507146  0.41626282  0.58387951  1
  Te2-  Te174  1  0.58323746  0.41335873  0.92169092  1
  Te2-  Te175  1  0.58743581  0.74926582  0.25474524  1
  Te2-  Te176  1  0.58519605  0.74943476  0.58448556  1
  Te2-  Te177  1  0.58623835  0.74515952  0.91881549  1
  Te2-  Te178  1  0.92063546  0.08455783  0.25784642  1
  Te2-  Te179  1  0.92128834  0.08551388  0.59012689  1
  Te2-  Te180  1  0.92162582  0.07427381  0.92024288  1
  Te2-  Te181  1  0.92514748  0.41656542  0.25129178  1
  Te2-  Te182  1  0.91435331  0.40804690  0.58889910  1
  Te2-  Te183  1  0.92240365  0.41092260  0.92297117  1
  Te2-  Te184  1  0.92263402  0.73998312  0.25912825  1
  Te2-  Te185  1  0.91949294  0.74596814  0.59197338  1
  Te2-  Te186  1  0.92116272  0.74675513  0.91581102  1
  Te2-  Te187  1  0.07874926  0.25100443  0.25064604  1
  Te2-  Te188  1  0.07908855  0.25540906  0.58623845  1
  Te2-  Te189  1  0.08085700  0.25947002  0.92573989  1
  Te2-  Te190  1  0.08086267  0.58082967  0.25726586  1
  Te2-  Te191  1  0.07594329  0.58290132  0.58793980  1
  Te2-  Te192  1  0.08181599  0.59465408  0.91174786  1
  Te2-  Te193  1  0.07947390  0.92156761  0.25489138  1
  Te2-  Te194  1  0.08071722  0.91872664  0.58918550  1
  Te2-  Te195  1  0.08262763  0.92127552  0.91677110  1
  Te2-  Te196  1  0.41397337  0.24822226  0.24973879  1
  Te2-  Te197  1  0.41477075  0.25513593  0.58481757  1
  Te2-  Te198  1  0.41465166  0.24896357  0.91873104  1
  Te2-  Te199  1  0.41303466  0.58504773  0.25357246  1
  Te2-  Te200  1  0.41683262  0.58752389  0.58491463  1
  Te2-  Te201  1  0.41047367  0.58488574  0.91849728  1
  Te2-  Te202  1  0.41325113  0.91633532  0.25093601  1
  Te2-  Te203  1  0.41124966  0.92139729  0.58247582  1
  Te2-  Te204  1  0.41603753  0.91684519  0.92107332  1
  Te2-  Te205  1  0.74633484  0.25163923  0.25333746  1
  Te2-  Te206  1  0.74577513  0.25467028  0.58382748  1
  Te2-  Te207  1  0.74766419  0.24745420  0.92295549  1
  Te2-  Te208  1  0.75098767  0.59220763  0.25611323  1
  Te2-  Te209  1  0.74724815  0.58451090  0.58591307  1
  Te2-  Te210  1  0.74917258  0.58201381  0.91943474  1
  Te2-  Te211  1  0.75074584  0.91733467  0.25565464  1
  Te2-  Te212  1  0.74631517  0.91970743  0.58658617  1
  Te2-  Te213  1  0.74696890  0.91700626  0.91946100  1
  Te2-  Te214  1  0.07778905  0.07539176  0.07920027  1
  Te2-  Te215  1  0.08198012  0.08313424  0.41603114  1
  Te2-  Te216  1  0.08082114  0.08674122  0.74877064  1
  Te2-  Te217  1  0.08139186  0.41104008  0.07973025  1
  Te2-  Te218  1  0.07784077  0.41254093  0.41164909  1
  Te2-  Te219  1  0.07390744  0.41481198  0.73991713  1
  Te2-  Te220  1  0.07858101  0.74960711  0.07242952  1
  Te2-  Te221  1  0.07697467  0.74114069  0.41926268  1
  Te2-  Te222  1  0.07883228  0.75100668  0.74693185  1
  Te2-  Te223  1  0.41463727  0.07714110  0.08016844  1
  Te2-  Te224  1  0.41343681  0.08176815  0.41372435  1
  Te2-  Te225  1  0.41380309  0.08122580  0.74247358  1
  Te2-  Te226  1  0.41496431  0.41057196  0.08213908  1
  Te2-  Te227  1  0.41806695  0.41452690  0.40996167  1
  Te2-  Te228  1  0.41570579  0.41225214  0.74577638  1
  Te2-  Te229  1  0.41272196  0.74632466  0.08080975  1
  Te2-  Te230  1  0.41207237  0.74884826  0.41282082  1
  Te2-  Te231  1  0.41754438  0.74271108  0.74495455  1
  Te2-  Te232  1  0.75046702  0.07964300  0.08394014  1
  Te2-  Te233  1  0.74904833  0.08118061  0.41790927  1
  Te2-  Te234  1  0.74844675  0.07916392  0.74816238  1
  Te2-  Te235  1  0.74329035  0.41965290  0.08505612  1
  Te2-  Te236  1  0.74166124  0.41165149  0.41451372  1
  Te2-  Te237  1  0.74712663  0.41246638  0.74869700  1
  Te2-  Te238  1  0.74835410  0.74905748  0.08278541  1
  Te2-  Te239  1  0.75021037  0.74993559  0.41629313  1
  Te2-  Te240  1  0.74934274  0.74801501  0.74700565  1
