# generated using pymatgen
data_Ti27(Cu53Te54)2
_symmetry_space_group_name_H-M   'P 1'
_cell_length_a   17.86374912
_cell_length_b   17.86455755
_cell_length_c   17.86423642
_cell_angle_alpha   89.99287003
_cell_angle_beta   90.02068886
_cell_angle_gamma   90.01163963
_symmetry_Int_Tables_number   1
_chemical_formula_structural   Ti27(Cu53Te54)2
_chemical_formula_sum   'Ti27 Cu106 Te108'
_cell_volume   5700.97704665
_cell_formula_units_Z   1
loop_
 _symmetry_equiv_pos_site_id
 _symmetry_equiv_pos_as_xyz
  1  'x, y, z'
loop_
 _atom_type_symbol
 _atom_type_oxidation_number
  Ti4+  4.0
  Cu+  1.0
  Te2-  -2.0
loop_
 _atom_site_type_symbol
 _atom_site_label
 _atom_site_symmetry_multiplicity
 _atom_site_fract_x
 _atom_site_fract_y
 _atom_site_fract_z
 _atom_site_occupancy
  Ti4+  Ti0  1  0.16638648  0.16547168  0.16575919  1
  Ti4+  Ti1  1  0.16483645  0.16667917  0.49712085  1
  Ti4+  Ti2  1  0.16614956  0.16751046  0.83317415  1
  Ti4+  Ti3  1  0.16874861  0.50092929  0.16574219  1
  Ti4+  Ti4  1  0.16981406  0.49842674  0.49980219  1
  Ti4+  Ti5  1  0.16641862  0.50319069  0.83238903  1
  Ti4+  Ti6  1  0.16826881  0.83460888  0.16932024  1
  Ti4+  Ti7  1  0.16644461  0.83494522  0.50058900  1
  Ti4+  Ti8  1  0.16552833  0.83308548  0.83452104  1
  Ti4+  Ti9  1  0.49925915  0.16574302  0.16437401  1
  Ti4+  Ti10  1  0.49904707  0.16474305  0.49912754  1
  Ti4+  Ti11  1  0.50138226  0.16694072  0.83163770  1
  Ti4+  Ti12  1  0.49960967  0.50089931  0.16653300  1
  Ti4+  Ti13  1  0.49904772  0.49985411  0.49751547  1
  Ti4+  Ti14  1  0.50153396  0.49869272  0.83281352  1
  Ti4+  Ti15  1  0.49842968  0.83219632  0.16704198  1
  Ti4+  Ti16  1  0.50310105  0.83479954  0.50343366  1
  Ti4+  Ti17  1  0.49975596  0.83278740  0.83537153  1
  Ti4+  Ti18  1  0.83134232  0.16731305  0.16923344  1
  Ti4+  Ti19  1  0.83383752  0.16804619  0.50045483  1
  Ti4+  Ti20  1  0.83377282  0.16852498  0.83479564  1
  Ti4+  Ti21  1  0.83341590  0.49630226  0.16843520  1
  Ti4+  Ti22  1  0.83215284  0.50105338  0.49826285  1
  Ti4+  Ti23  1  0.83019740  0.50125580  0.83271154  1
  Ti4+  Ti24  1  0.83400632  0.83372916  0.16913934  1
  Ti4+  Ti25  1  0.83369621  0.83053004  0.49817326  1
  Ti4+  Ti26  1  0.83326448  0.83592624  0.83293534  1
  Cu+  Cu27  1  0.16409949  0.16446124  -0.00293041  1
  Cu+  Cu28  1  0.16584787  0.15852406  0.33235868  1
  Cu+  Cu29  1  0.16476964  0.16982094  0.66381118  1
  Cu+  Cu30  1  0.16393679  0.50257665  -0.00279372  1
  Cu+  Cu31  1  0.17405735  0.50099066  0.33057933  1
  Cu+  Cu32  1  0.16942796  0.49747506  0.66913938  1
  Cu+  Cu33  1  0.16865222  0.83310940  0.00400430  1
  Cu+  Cu34  1  0.16276771  0.83598948  0.33650796  1
  Cu+  Cu35  1  0.16841745  0.83234485  0.66763606  1
  Cu+  Cu36  1  0.50197954  0.16640871  -0.00322566  1
  Cu+  Cu37  1  0.49987362  0.16675653  0.32925175  1
  Cu+  Cu38  1  0.50015638  0.16470021  0.66550134  1
  Cu+  Cu39  1  0.50345010  0.50288375  0.00049613  1
  Cu+  Cu40  1  0.49766500  0.49971891  0.33132394  1
  Cu+  Cu41  1  0.49911143  0.50042886  0.66205583  1
  Cu+  Cu42  1  0.49613844  0.83516654  0.00171597  1
  Cu+  Cu43  1  0.50235833  0.83413259  0.33685331  1
  Cu+  Cu44  1  0.50122222  0.83206076  0.66969058  1
  Cu+  Cu45  1  0.83515256  0.16752113  0.00516117  1
  Cu+  Cu46  1  0.83649604  0.17201674  0.33203355  1
  Cu+  Cu47  1  0.83155102  0.17017542  0.66927965  1
  Cu+  Cu48  1  0.82883116  0.49814481  -0.00089848  1
  Cu+  Cu49  1  0.83237021  0.49137362  0.33530565  1
  Cu+  Cu50  1  0.83074627  0.50217180  0.66481813  1
  Cu+  Cu51  1  0.83273959  0.83598788  0.00074184  1
  Cu+  Cu52  1  0.82826319  0.82798180  0.33218025  1
  Cu+  Cu53  1  0.83963800  0.83338865  0.66708012  1
  Cu+  Cu54  1  0.16259474  0.00321848  0.17197468  1
  Cu+  Cu55  1  0.16525707  0.00074222  0.49323850  1
  Cu+  Cu56  1  0.16223776  0.00053293  0.83631580  1
  Cu+  Cu57  1  0.16568563  0.33255090  0.16221915  1
  Cu+  Cu58  1  0.17015669  0.33332016  0.49521853  1
  Cu+  Cu59  1  0.16758985  0.33403368  0.83189311  1
  Cu+  Cu60  1  0.17423801  0.66755552  0.16897846  1
  Cu+  Cu61  1  0.16741516  0.66470267  0.50469324  1
  Cu+  Cu62  1  0.16812077  0.66915129  0.83139183  1
  Cu+  Cu63  1  0.49619756  -0.00165970  0.16425896  1
  Cu+  Cu64  1  0.49676777  -0.00107004  0.50155134  1
  Cu+  Cu65  1  0.50049196  0.00137291  0.83432722  1
  Cu+  Cu66  1  0.49804260  0.33280528  0.16283269  1
  Cu+  Cu67  1  0.49605306  0.33018700  0.49955094  1
  Cu+  Cu68  1  0.50211703  0.33179818  0.83153487  1
  Cu+  Cu69  1  0.49962714  0.66549531  0.16589149  1
  Cu+  Cu70  1  0.50784688  0.66519397  0.50347984  1
  Cu+  Cu71  1  0.50276908  0.66417144  0.83676304  1
  Cu+  Cu72  1  0.83352018  -0.00051184  0.16505438  1
  Cu+  Cu73  1  0.83290628  -0.00068592  0.50199671  1
  Cu+  Cu74  1  0.83315228  0.00180315  0.83562657  1
  Cu+  Cu75  1  0.83093382  0.33205845  0.17702113  1
  Cu+  Cu76  1  0.83357288  0.33650314  0.49752464  1
  Cu+  Cu77  1  0.82772655  0.33334725  0.83186565  1
  Cu+  Cu78  1  0.83236640  0.66442036  0.16814887  1
  Cu+  Cu79  1  0.83768771  0.66681914  0.49563017  1
  Cu+  Cu80  1  0.83371879  0.66994486  0.83012461  1
  Cu+  Cu81  1  -0.00096281  0.16614292  0.17004809  1
  Cu+  Cu82  1  -0.00114727  0.16931524  0.50328658  1
  Cu+  Cu83  1  0.00120241  0.16514541  0.83627067  1
  Cu+  Cu84  1  0.00315394  0.50229122  0.16499590  1
  Cu+  Cu85  1  0.00075035  0.49971590  0.49921958  1
  Cu+  Cu86  1  -0.00031841  0.50381632  0.83448428  1
  Cu+  Cu87  1  -0.00028679  0.83435491  0.16785114  1
  Cu+  Cu88  1  -0.00053199  0.83570914  0.50021264  1
  Cu+  Cu89  1  -0.00241507  0.83263498  0.83155245  1
  Cu+  Cu90  1  0.33359396  0.16777535  0.16317178  1
  Cu+  Cu91  1  0.33006131  0.16308258  0.49656784  1
  Cu+  Cu92  1  0.33529409  0.16764382  0.83285616  1
  Cu+  Cu93  1  0.33344529  0.50482896  0.16931982  1
  Cu+  Cu94  1  0.33552142  0.49280451  0.49790557  1
  Cu+  Cu95  1  0.33218470  0.49882106  0.82833507  1
  Cu+  Cu96  1  0.33248670  0.83331909  0.16120953  1
  Cu+  Cu97  1  0.33830610  0.83721688  0.50277822  1
  Cu+  Cu98  1  0.33249228  0.83138912  0.83254100  1
  Cu+  Cu99  1  0.66344333  0.16496021  0.16477749  1
  Cu+  Cu100  1  0.66498953  0.16639871  0.50048332  1
  Cu+  Cu101  1  0.66775736  0.17118288  0.83066165  1
  Cu+  Cu102  1  0.66723610  0.49493979  0.16883170  1
  Cu+  Cu103  1  0.66434977  0.50688480  0.50265340  1
  Cu+  Cu104  1  0.66648812  0.49961167  0.83976935  1
  Cu+  Cu105  1  0.66799729  0.83189331  0.17148661  1
  Cu+  Cu106  1  0.66695025  0.83058945  0.49336274  1
  Cu+  Cu107  1  0.66726199  0.83404998  0.83522362  1
  Cu+  Cu108  1  0.06923716  0.92662926  0.40862710  1
  Cu+  Cu109  1  0.26262062  0.59935177  0.26456853  1
  Cu+  Cu110  1  0.59500543  0.59430656  0.59741132  1
  Cu+  Cu111  1  0.73978246  0.40221774  0.92849333  1
  Cu+  Cu112  1  0.26139860  0.07156835  0.40423792  1
  Cu+  Cu113  1  0.26301850  0.40481060  0.39903149  1
  Cu+  Cu114  1  0.73298945  0.40102356  0.26594951  1
  Cu+  Cu115  1  0.93136777  0.74239372  0.40283874  1
  Cu+  Cu116  1  0.59399093  0.59636362  0.93226067  1
  Cu+  Cu117  1  0.07109531  0.07002394  0.92659045  1
  Cu+  Cu118  1  0.06685969  0.07522375  0.26138868  1
  Cu+  Cu119  1  0.73803976  0.26231119  0.73647415  1
  Cu+  Cu120  1  0.73892957  0.73343774  0.25454749  1
  Cu+  Cu121  1  0.93323846  0.26146623  0.25652361  1
  Cu+  Cu122  1  0.25817518  0.40215287  0.74422286  1
  Cu+  Cu123  1  0.92709728  0.73693501  0.74103828  1
  Cu+  Cu124  1  0.41014418  0.92462619  0.40735664  1
  Cu+  Cu125  1  0.93098192  0.40717349  0.41146040  1
  Cu+  Cu126  1  0.74110726  0.93122133  0.40768545  1
  Cu+  Cu127  1  0.92533231  0.92959094  0.59532238  1
  Cu+  Cu128  1  0.41119493  0.40192003  0.59230182  1
  Cu+  Cu129  1  0.25975614  0.73699836  0.07253033  1
  Cu+  Cu130  1  0.40425465  0.92995426  0.06988629  1
  Cu+  Cu131  1  0.58653512  0.73605774  0.40552324  1
  Cu+  Cu132  1  0.26461077  0.74287343  0.73693892  1
  Te2-  Te133  1  0.24994299  0.24997199  0.07796780  1
  Te2-  Te134  1  0.25294783  0.25062470  0.40819243  1
  Te2-  Te135  1  0.25415458  0.25083732  0.74516590  1
  Te2-  Te136  1  0.25477493  0.58488490  0.07602730  1
  Te2-  Te137  1  0.25669034  0.58835513  0.41755801  1
  Te2-  Te138  1  0.25445922  0.58942850  0.74447432  1
  Te2-  Te139  1  0.24947666  0.92612150  0.08238610  1
  Te2-  Te140  1  0.25636789  0.91842327  0.41180237  1
  Te2-  Te141  1  0.24990760  0.92088831  0.75048086  1
  Te2-  Te142  1  0.58482916  0.25197560  0.07955103  1
  Te2-  Te143  1  0.58324986  0.25101766  0.41427503  1
  Te2-  Te144  1  0.58558059  0.25446866  0.74212109  1
  Te2-  Te145  1  0.59072087  0.58687384  0.08432404  1
  Te2-  Te146  1  0.58650411  0.58404206  0.40790323  1
  Te2-  Te147  1  0.58782658  0.58450000  0.74701466  1
  Te2-  Te148  1  0.58684171  0.91579794  0.08376448  1
  Te2-  Te149  1  0.58742600  0.92460365  0.41437579  1
  Te2-  Te150  1  0.58497836  0.91817384  0.75062643  1
  Te2-  Te151  1  0.91826311  0.25485571  0.08643930  1
  Te2-  Te152  1  0.92289255  0.25499829  0.41412345  1
  Te2-  Te153  1  0.92078516  0.25354580  0.75059943  1
  Te2-  Te154  1  0.91558917  0.58299443  0.08144637  1
  Te2-  Te155  1  0.92101759  0.58447472  0.40987920  1
  Te2-  Te156  1  0.91864197  0.58485942  0.74557409  1
  Te2-  Te157  1  0.91928223  0.91828840  0.08219603  1
  Te2-  Te158  1  0.91683215  0.91954786  0.40939319  1
  Te2-  Te159  1  0.92127225  0.92563698  0.74866997  1
  Te2-  Te160  1  0.25768515  0.07947150  0.25001253  1
  Te2-  Te161  1  0.24780599  0.08019032  0.58434705  1
  Te2-  Te162  1  0.25344321  0.08147304  0.91727349  1
  Te2-  Te163  1  0.25548613  0.40914794  0.24756199  1
  Te2-  Te164  1  0.25467396  0.40934749  0.58833013  1
  Te2-  Te165  1  0.25183323  0.41672605  0.91851435  1
  Te2-  Te166  1  0.25564427  0.75262056  0.25896033  1
  Te2-  Te167  1  0.25557891  0.74891827  0.58386635  1
  Te2-  Te168  1  0.25303219  0.74703094  0.92084810  1
  Te2-  Te169  1  0.58331552  0.07830333  0.24973457  1
  Te2-  Te170  1  0.58474767  0.07962620  0.58429942  1
  Te2-  Te171  1  0.58871914  0.08260206  0.91633452  1
  Te2-  Te172  1  0.58179975  0.41086439  0.25312549  1
  Te2-  Te173  1  0.58517186  0.41254084  0.58227957  1
  Te2-  Te174  1  0.58472904  0.41020486  0.92162620  1
  Te2-  Te175  1  0.58514307  0.74382255  0.25377118  1
  Te2-  Te176  1  0.59149376  0.74952322  0.59096481  1
  Te2-  Te177  1  0.58655588  0.74936091  0.92325039  1
  Te2-  Te178  1  0.91595630  0.07711987  0.25515292  1
  Te2-  Te179  1  0.91823869  0.08334061  0.58879238  1
  Te2-  Te180  1  0.91814542  0.08093570  0.92305471  1
  Te2-  Te181  1  0.92738916  0.41409099  0.25454424  1
  Te2-  Te182  1  0.91740729  0.41654295  0.58573017  1
  Te2-  Te183  1  0.91679173  0.41556995  0.91613700  1
  Te2-  Te184  1  0.92286237  0.74461776  0.25209527  1
  Te2-  Te185  1  0.92294409  0.74403019  0.58519394  1
  Te2-  Te186  1  0.91713676  0.74931152  0.92043057  1
  Te2-  Te187  1  0.08482987  0.25415071  0.25476980  1
  Te2-  Te188  1  0.08240704  0.25622428  0.58246894  1
  Te2-  Te189  1  0.08175643  0.25578160  0.91818828  1
  Te2-  Te190  1  0.08445687  0.58697197  0.25220313  1
  Te2-  Te191  1  0.08299768  0.58108549  0.58657525  1
  Te2-  Te192  1  0.08090307  0.58990955  0.91750800  1
  Te2-  Te193  1  0.07631614  0.92037376  0.25496321  1
  Te2-  Te194  1  0.08233236  0.92167416  0.58785518  1
  Te2-  Te195  1  0.07796511  0.91554718  0.92263794  1
  Te2-  Te196  1  0.41368864  0.25215075  0.24927908  1
  Te2-  Te197  1  0.40990964  0.24748216  0.58557543  1
  Te2-  Te198  1  0.41597460  0.25292921  0.91766327  1
  Te2-  Te199  1  0.41496626  0.58944014  0.25479300  1
  Te2-  Te200  1  0.41263983  0.58731655  0.58150537  1
  Te2-  Te201  1  0.41322313  0.58190240  0.91685231  1
  Te2-  Te202  1  0.41256533  0.91711127  0.25381401  1
  Te2-  Te203  1  0.41663650  0.91900516  0.59174829  1
  Te2-  Te204  1  0.41138729  0.92057666  0.91737307  1
  Te2-  Te205  1  0.73914902  0.24929222  0.25639639  1
  Te2-  Te206  1  0.74712616  0.25501141  0.58297351  1
  Te2-  Te207  1  0.74650429  0.25097001  0.92486910  1
  Te2-  Te208  1  0.74714407  0.58159779  0.25556832  1
  Te2-  Te209  1  0.74963345  0.59147260  0.58547510  1
  Te2-  Te210  1  0.74836310  0.59226248  0.91978716  1
  Te2-  Te211  1  0.74682301  0.92319328  0.25376473  1
  Te2-  Te212  1  0.74701914  0.91402384  0.58511430  1
  Te2-  Te213  1  0.74755020  0.92029190  0.91979245  1
  Te2-  Te214  1  0.07723582  0.08020120  0.08074925  1
  Te2-  Te215  1  0.07050545  0.08006605  0.41372379  1
  Te2-  Te216  1  0.08113479  0.08270337  0.74549629  1
  Te2-  Te217  1  0.08202245  0.41637529  0.07965534  1
  Te2-  Te218  1  0.08394594  0.41545088  0.41051305  1
  Te2-  Te219  1  0.07881717  0.41609153  0.74925541  1
  Te2-  Te220  1  0.08271835  0.74757204  0.08605118  1
  Te2-  Te221  1  0.08261841  0.74375791  0.41644622  1
  Te2-  Te222  1  0.07960879  0.74723377  0.74573513  1
  Te2-  Te223  1  0.41250339  0.08166194  0.07588316  1
  Te2-  Te224  1  0.41400806  0.07864298  0.40900614  1
  Te2-  Te225  1  0.41466386  0.08071810  0.74776252  1
  Te2-  Te226  1  0.41415104  0.41896364  0.08052343  1
  Te2-  Te227  1  0.41540541  0.40974958  0.40809543  1
  Te2-  Te228  1  0.41517770  0.41104738  0.74501496  1
  Te2-  Te229  1  0.41419244  0.74323879  0.07918034  1
  Te2-  Te230  1  0.41743663  0.74607046  0.41930367  1
  Te2-  Te231  1  0.41693230  0.74384027  0.74836682  1
  Te2-  Te232  1  0.74782214  0.08126564  0.08215225  1
  Te2-  Te233  1  0.74893581  0.08408350  0.41333262  1
  Te2-  Te234  1  0.74860361  0.08154006  0.74927221  1
  Te2-  Te235  1  0.74737537  0.40918860  0.08264880  1
  Te2-  Te236  1  0.73895368  0.41388900  0.41810288  1
  Te2-  Te237  1  0.74312444  0.41714275  0.74384814  1
  Te2-  Te238  1  0.74889263  0.74884659  0.08243504  1
  Te2-  Te239  1  0.74399945  0.73857115  0.41153640  1
  Te2-  Te240  1  0.74716546  0.75153457  0.74567352  1
