# generated using pymatgen
data_Ti27(Cu53Te54)2
_symmetry_space_group_name_H-M   'P 1'
_cell_length_a   17.88188231
_cell_length_b   17.87949199
_cell_length_c   17.88599971
_cell_angle_alpha   90.02183757
_cell_angle_beta   89.97730066
_cell_angle_gamma   90.01808066
_symmetry_Int_Tables_number   1
_chemical_formula_structural   Ti27(Cu53Te54)2
_chemical_formula_sum   'Ti27 Cu106 Te108'
_cell_volume   5718.49228137
_cell_formula_units_Z   1
loop_
 _symmetry_equiv_pos_site_id
 _symmetry_equiv_pos_as_xyz
  1  'x, y, z'
loop_
 _atom_type_symbol
 _atom_type_oxidation_number
  Ti4+  4.0
  Cu+  1.0
  Te2-  -2.0
loop_
 _atom_site_type_symbol
 _atom_site_label
 _atom_site_symmetry_multiplicity
 _atom_site_fract_x
 _atom_site_fract_y
 _atom_site_fract_z
 _atom_site_occupancy
  Ti4+  Ti0  1  0.16330817  0.16751134  0.16486212  1
  Ti4+  Ti1  1  0.16653616  0.16895936  0.49769596  1
  Ti4+  Ti2  1  0.16768898  0.17038183  0.83173576  1
  Ti4+  Ti3  1  0.16726722  0.49714526  0.16843010  1
  Ti4+  Ti4  1  0.16802574  0.49959257  0.49771271  1
  Ti4+  Ti5  1  0.16784389  0.49928182  0.83669508  1
  Ti4+  Ti6  1  0.16679070  0.83475484  0.16739178  1
  Ti4+  Ti7  1  0.16606328  0.83278498  0.50406441  1
  Ti4+  Ti8  1  0.16637427  0.83354006  0.83415431  1
  Ti4+  Ti9  1  0.50021408  0.16601705  0.16723813  1
  Ti4+  Ti10  1  0.49845175  0.16733764  0.50065380  1
  Ti4+  Ti11  1  0.50070613  0.16783657  0.83346540  1
  Ti4+  Ti12  1  0.50046093  0.50210326  0.16549846  1
  Ti4+  Ti13  1  0.49982990  0.50080010  0.50082751  1
  Ti4+  Ti14  1  0.50412670  0.49816660  0.83299312  1
  Ti4+  Ti15  1  0.49941225  0.83640548  0.16596900  1
  Ti4+  Ti16  1  0.49850742  0.82963617  0.50206998  1
  Ti4+  Ti17  1  0.50085243  0.83500372  0.83318574  1
  Ti4+  Ti18  1  0.83191149  0.16431988  0.16827276  1
  Ti4+  Ti19  1  0.83456704  0.16655659  0.49763229  1
  Ti4+  Ti20  1  0.83415618  0.16584872  0.83163287  1
  Ti4+  Ti21  1  0.83155910  0.50039990  0.16937185  1
  Ti4+  Ti22  1  0.83369853  0.50080248  0.49886881  1
  Ti4+  Ti23  1  0.83313958  0.49717314  0.83771081  1
  Ti4+  Ti24  1  0.83860302  0.83309807  0.16518132  1
  Ti4+  Ti25  1  0.83066847  0.83326376  0.49730228  1
  Ti4+  Ti26  1  0.82870858  0.83228748  0.83158823  1
  Cu+  Cu27  1  0.16933477  0.17061959  -0.00464356  1
  Cu+  Cu28  1  0.15982170  0.16984806  0.32937145  1
  Cu+  Cu29  1  0.16964248  0.17062128  0.66373474  1
  Cu+  Cu30  1  0.16242037  0.49496025  0.00173456  1
  Cu+  Cu31  1  0.17151879  0.49254569  0.33505800  1
  Cu+  Cu32  1  0.16837647  0.50075041  0.66909872  1
  Cu+  Cu33  1  0.16598996  0.83651152  0.00002775  1
  Cu+  Cu34  1  0.16836625  0.83319642  0.33745246  1
  Cu+  Cu35  1  0.16362346  0.83513011  0.67092116  1
  Cu+  Cu36  1  0.49989787  0.16580430  0.00117902  1
  Cu+  Cu37  1  0.49764271  0.16532332  0.33432608  1
  Cu+  Cu38  1  0.49668134  0.16905066  0.66790925  1
  Cu+  Cu39  1  0.50852727  0.49991914  -0.00017748  1
  Cu+  Cu40  1  0.49781746  0.50607966  0.33171212  1
  Cu+  Cu41  1  0.50480371  0.49350789  0.66626233  1
  Cu+  Cu42  1  0.50044349  0.83510901  0.00005504  1
  Cu+  Cu43  1  0.50137339  0.83645139  0.33247522  1
  Cu+  Cu44  1  0.49907000  0.82782726  0.66749404  1
  Cu+  Cu45  1  0.83604593  0.16276470  -0.00119210  1
  Cu+  Cu46  1  0.82990081  0.16661023  0.33388264  1
  Cu+  Cu47  1  0.83825211  0.16638634  0.66296397  1
  Cu+  Cu48  1  0.83199889  0.49841121  0.00468583  1
  Cu+  Cu49  1  0.83411489  0.50734260  0.33389550  1
  Cu+  Cu50  1  0.83466287  0.49922196  0.67166412  1
  Cu+  Cu51  1  0.83075439  0.83583528  0.00045332  1
  Cu+  Cu52  1  0.83522182  0.82718764  0.32796192  1
  Cu+  Cu53  1  0.82624426  0.83508403  0.66352882  1
  Cu+  Cu54  1  0.15870682  0.00172476  0.16600983  1
  Cu+  Cu55  1  0.16437794  -0.00237310  0.50065129  1
  Cu+  Cu56  1  0.16724663  0.00254858  0.83146826  1
  Cu+  Cu57  1  0.16830440  0.33098800  0.16970201  1
  Cu+  Cu58  1  0.16849253  0.33323308  0.49384665  1
  Cu+  Cu59  1  0.16784897  0.33657212  0.84116845  1
  Cu+  Cu60  1  0.16726121  0.66511610  0.16889823  1
  Cu+  Cu61  1  0.17060499  0.66931772  0.49927396  1
  Cu+  Cu62  1  0.16632082  0.66697499  0.83575985  1
  Cu+  Cu63  1  0.50005939  0.00173712  0.16762647  1
  Cu+  Cu64  1  0.49907366  -0.00057515  0.50262121  1
  Cu+  Cu65  1  0.49936789  0.00285993  0.83388035  1
  Cu+  Cu66  1  0.50146121  0.33584539  0.16523241  1
  Cu+  Cu67  1  0.50198798  0.33452749  0.50080531  1
  Cu+  Cu68  1  0.50087729  0.33213684  0.82709863  1
  Cu+  Cu69  1  0.49826148  0.67157135  0.16491918  1
  Cu+  Cu70  1  0.48915205  0.66457783  0.50372893  1
  Cu+  Cu71  1  0.50784777  0.66762379  0.83509665  1
  Cu+  Cu72  1  0.83470482  -0.00223337  0.16233002  1
  Cu+  Cu73  1  0.83613826  0.00092744  0.49690475  1
  Cu+  Cu74  1  0.82990169  -0.00090856  0.82940505  1
  Cu+  Cu75  1  0.83338906  0.33118604  0.16920179  1
  Cu+  Cu76  1  0.83483200  0.33110576  0.49896935  1
  Cu+  Cu77  1  0.83443800  0.33024559  0.83610111  1
  Cu+  Cu78  1  0.83727254  0.66610629  0.17599272  1
  Cu+  Cu79  1  0.82950412  0.66751543  0.49620306  1
  Cu+  Cu80  1  0.83016247  0.66052301  0.83329247  1
  Cu+  Cu81  1  -0.00268265  0.15915214  0.16842326  1
  Cu+  Cu82  1  -0.00075229  0.17290144  0.49735286  1
  Cu+  Cu83  1  -0.00023117  0.16480855  0.82951669  1
  Cu+  Cu84  1  -0.00166651  0.50096758  0.17083450  1
  Cu+  Cu85  1  0.00179259  0.49998896  0.50273785  1
  Cu+  Cu86  1  0.00243611  0.49368045  0.83988761  1
  Cu+  Cu87  1  0.00637184  0.83757622  0.16150485  1
  Cu+  Cu88  1  -0.00193908  0.83464931  0.50078944  1
  Cu+  Cu89  1  -0.00378196  0.83114667  0.83524525  1
  Cu+  Cu90  1  0.33373926  0.16730384  0.16595479  1
  Cu+  Cu91  1  0.33287145  0.16789877  0.50255733  1
  Cu+  Cu92  1  0.33465056  0.17425605  0.83327546  1
  Cu+  Cu93  1  0.33458481  0.50014872  0.16433779  1
  Cu+  Cu94  1  0.33585843  0.50098432  0.49537797  1
  Cu+  Cu95  1  0.33550974  0.50173732  0.83566978  1
  Cu+  Cu96  1  0.33359659  0.83680532  0.16799310  1
  Cu+  Cu97  1  0.33169476  0.82565666  0.50461048  1
  Cu+  Cu98  1  0.33109312  0.83436708  0.83572136  1
  Cu+  Cu99  1  0.66565335  0.16394396  0.16852846  1
  Cu+  Cu100  1  0.66623346  0.16665423  0.49924322  1
  Cu+  Cu101  1  0.66864974  0.16524870  0.83427936  1
  Cu+  Cu102  1  0.66214203  0.49687231  0.16344767  1
  Cu+  Cu103  1  0.66818906  0.50237823  0.49633984  1
  Cu+  Cu104  1  0.66606954  0.49967239  0.83502197  1
  Cu+  Cu105  1  0.66786592  0.83506649  0.16282894  1
  Cu+  Cu106  1  0.66730320  0.82915383  0.50346932  1
  Cu+  Cu107  1  0.66487563  0.83661729  0.82532695  1
  Cu+  Cu108  1  0.26699019  0.40403901  0.40848929  1
  Cu+  Cu109  1  0.73847946  0.93257964  0.73401826  1
  Cu+  Cu110  1  0.26281746  0.25320559  0.25614376  1
  Cu+  Cu111  1  0.74547261  0.73727034  0.59122256  1
  Cu+  Cu112  1  0.40592102  0.59289009  0.40081506  1
  Cu+  Cu113  1  0.92555346  0.26201774  0.59510571  1
  Cu+  Cu114  1  0.73773953  0.59343433  0.40545318  1
  Cu+  Cu115  1  0.73805643  0.92709913  0.07456105  1
  Cu+  Cu116  1  0.07046926  0.26379737  0.40211224  1
  Cu+  Cu117  1  0.59775386  0.40118280  0.73605792  1
  Cu+  Cu118  1  0.73595384  0.74377727  0.24961373  1
  Cu+  Cu119  1  0.25847734  0.26222282  0.59007269  1
  Cu+  Cu120  1  0.59322797  0.40144918  0.07238027  1
  Cu+  Cu121  1  0.40001758  0.73790007  0.60202867  1
  Cu+  Cu122  1  0.93386252  0.59388754  0.26375443  1
  Cu+  Cu123  1  0.40593201  0.26167204  0.73840968  1
  Cu+  Cu124  1  0.73515709  0.25715658  0.40670862  1
  Cu+  Cu125  1  0.06984514  0.07067881  0.26244071  1
  Cu+  Cu126  1  0.26504495  0.26344849  0.92845426  1
  Cu+  Cu127  1  0.07837248  0.93095355  0.06587059  1
  Cu+  Cu128  1  0.06970553  0.40349969  0.93353075  1
  Cu+  Cu129  1  0.25888308  0.74524952  0.40381617  1
  Cu+  Cu130  1  0.74121604  0.58400867  0.74198749  1
  Cu+  Cu131  1  0.58989308  0.74057086  0.73871238  1
  Cu+  Cu132  1  0.59384158  0.59886642  0.93088555  1
  Te2-  Te133  1  0.25336511  0.25417894  0.08029357  1
  Te2-  Te134  1  0.25797764  0.25136882  0.40806855  1
  Te2-  Te135  1  0.25243525  0.26115711  0.74519612  1
  Te2-  Te136  1  0.24913135  0.58264932  0.08115499  1
  Te2-  Te137  1  0.25377484  0.58869199  0.40967196  1
  Te2-  Te138  1  0.25277870  0.58564143  0.75153311  1
  Te2-  Te139  1  0.25101922  0.92249584  0.08336098  1
  Te2-  Te140  1  0.25453744  0.91787994  0.41944030  1
  Te2-  Te141  1  0.25219731  0.91925583  0.74879876  1
  Te2-  Te142  1  0.58795921  0.25035045  0.08054675  1
  Te2-  Te143  1  0.58356304  0.25333083  0.41271766  1
  Te2-  Te144  1  0.59083615  0.24988082  0.74478055  1
  Te2-  Te145  1  0.58774918  0.59249306  0.08278740  1
  Te2-  Te146  1  0.58308122  0.59032085  0.41517084  1
  Te2-  Te147  1  0.58842528  0.58598907  0.74162172  1
  Te2-  Te148  1  0.58527655  0.92269741  0.07921591  1
  Te2-  Te149  1  0.58454945  0.91593294  0.41951517  1
  Te2-  Te150  1  0.58199053  0.92395989  0.74259625  1
  Te2-  Te151  1  0.91784987  0.24859291  0.08365622  1
  Te2-  Te152  1  0.91880069  0.25508222  0.40734210  1
  Te2-  Te153  1  0.92109374  0.25446828  0.74726584  1
  Te2-  Te154  1  0.91732447  0.58525793  0.08353802  1
  Te2-  Te155  1  0.92381092  0.58890347  0.41757253  1
  Te2-  Te156  1  0.92255071  0.58059956  0.75396749  1
  Te2-  Te157  1  0.92301680  0.92075765  0.07614759  1
  Te2-  Te158  1  0.91714656  0.91592863  0.41176074  1
  Te2-  Te159  1  0.91591796  0.91489377  0.74652490  1
  Te2-  Te160  1  0.24874746  0.08191788  0.25057813  1
  Te2-  Te161  1  0.24999811  0.08093680  0.58315364  1
  Te2-  Te162  1  0.25365970  0.08394811  0.91546479  1
  Te2-  Te163  1  0.25924719  0.41103912  0.25222386  1
  Te2-  Te164  1  0.25425263  0.41595601  0.58525948  1
  Te2-  Te165  1  0.25868568  0.41636876  0.92456546  1
  Te2-  Te166  1  0.25405892  0.74770402  0.25150364  1
  Te2-  Te167  1  0.24896068  0.74486033  0.59489651  1
  Te2-  Te168  1  0.25098909  0.74895711  0.92122530  1
  Te2-  Te169  1  0.58416002  0.08112737  0.25416729  1
  Te2-  Te170  1  0.58328585  0.08376806  0.58632312  1
  Te2-  Te171  1  0.58549651  0.08221077  0.91868828  1
  Te2-  Te172  1  0.58314768  0.41707947  0.25521485  1
  Te2-  Te173  1  0.59129746  0.41297814  0.58192707  1
  Te2-  Te174  1  0.58870405  0.40744851  0.91787568  1
  Te2-  Te175  1  0.58478433  0.74905767  0.25193952  1
  Te2-  Te176  1  0.58693529  0.73940233  0.58592209  1
  Te2-  Te177  1  0.59082215  0.75281167  0.92160104  1
  Te2-  Te178  1  0.91518407  0.07607144  0.25570203  1
  Te2-  Te179  1  0.92272026  0.08049380  0.58141430  1
  Te2-  Te180  1  0.91880755  0.07825803  0.91420930  1
  Te2-  Te181  1  0.91588082  0.41469150  0.25508340  1
  Te2-  Te182  1  0.91896620  0.41607195  0.58689630  1
  Te2-  Te183  1  0.91667024  0.41038625  0.92540449  1
  Te2-  Te184  1  0.93027167  0.74944718  0.25169004  1
  Te2-  Te185  1  0.91499932  0.74852129  0.58423998  1
  Te2-  Te186  1  0.91199458  0.74700394  0.91784591  1
  Te2-  Te187  1  0.07261651  0.25552499  0.24856666  1
  Te2-  Te188  1  0.08145216  0.25705248  0.58551177  1
  Te2-  Te189  1  0.07586130  0.25162789  0.91902893  1
  Te2-  Te190  1  0.08546050  0.58367820  0.25712176  1
  Te2-  Te191  1  0.08574826  0.58512724  0.58441041  1
  Te2-  Te192  1  0.08131670  0.58530745  0.92120619  1
  Te2-  Te193  1  0.08021793  0.91783702  0.25842828  1
  Te2-  Te194  1  0.07897106  0.91860917  0.58734835  1
  Te2-  Te195  1  0.07813564  0.92232160  0.91565455  1
  Te2-  Te196  1  0.41626917  0.25480549  0.25274205  1
  Te2-  Te197  1  0.41271197  0.25867417  0.58616750  1
  Te2-  Te198  1  0.41832915  0.25673673  0.92263988  1
  Te2-  Te199  1  0.41136418  0.59016901  0.24816169  1
  Te2-  Te200  1  0.41152774  0.58015681  0.59297453  1
  Te2-  Te201  1  0.42079896  0.58506361  0.91878932  1
  Te2-  Te202  1  0.41506684  0.92115554  0.25301737  1
  Te2-  Te203  1  0.41423121  0.91525315  0.58666824  1
  Te2-  Te204  1  0.41540499  0.91943027  0.91793878  1
  Te2-  Te205  1  0.74452869  0.25234432  0.25213075  1
  Te2-  Te206  1  0.74809524  0.25162195  0.58523414  1
  Te2-  Te207  1  0.74962023  0.24889999  0.91993710  1
  Te2-  Te208  1  0.73887355  0.58650941  0.25273645  1
  Te2-  Te209  1  0.74635751  0.58438995  0.58839432  1
  Te2-  Te210  1  0.74664691  0.58448144  0.92507783  1
  Te2-  Te211  1  0.75103264  0.91810931  0.25131933  1
  Te2-  Te212  1  0.74467471  0.92475180  0.58112172  1
  Te2-  Te213  1  0.74354728  0.92047583  0.91797208  1
  Te2-  Te214  1  0.07893172  0.08445491  0.07313501  1
  Te2-  Te215  1  0.07915874  0.07967069  0.41542914  1
  Te2-  Te216  1  0.08483005  0.08475849  0.74459322  1
  Te2-  Te217  1  0.07763763  0.41095156  0.08691007  1
  Te2-  Te218  1  0.07688955  0.41519400  0.41248953  1
  Te2-  Te219  1  0.08360327  0.41373734  0.74871574  1
  Te2-  Te220  1  0.08480735  0.74587034  0.08129022  1
  Te2-  Te221  1  0.07975584  0.74814450  0.41716509  1
  Te2-  Te222  1  0.07951912  0.74729770  0.75094264  1
  Te2-  Te223  1  0.41403088  0.08154869  0.08183275  1
  Te2-  Te224  1  0.41345710  0.08107615  0.41741189  1
  Te2-  Te225  1  0.41248062  0.08302942  0.74931567  1
  Te2-  Te226  1  0.41649102  0.41685173  0.07837071  1
  Te2-  Te227  1  0.41853695  0.41232632  0.41141339  1
  Te2-  Te228  1  0.41192717  0.41605402  0.74669480  1
  Te2-  Te229  1  0.41318790  0.75211269  0.08033419  1
  Te2-  Te230  1  0.41304989  0.74679497  0.40816548  1
  Te2-  Te231  1  0.41209265  0.74407384  0.75372509  1
  Te2-  Te232  1  0.74647048  0.08065582  0.07950903  1
  Te2-  Te233  1  0.74656800  0.07943622  0.41456239  1
  Te2-  Te234  1  0.74687823  0.08375716  0.74222692  1
  Te2-  Te235  1  0.74744877  0.41086869  0.08269793  1
  Te2-  Te236  1  0.74897296  0.41438517  0.41206650  1
  Te2-  Te237  1  0.74914543  0.40976718  0.74894625  1
  Te2-  Te238  1  0.75233419  0.74398109  0.08303495  1
  Te2-  Te239  1  0.74244175  0.74673685  0.40766497  1
  Te2-  Te240  1  0.74327863  0.74042897  0.74407970  1
