# generated using pymatgen
data_Ti27(Cu53Te54)2
_symmetry_space_group_name_H-M   'P 1'
_cell_length_a   17.87388247
_cell_length_b   17.87425558
_cell_length_c   17.87695027
_cell_angle_alpha   90.00405539
_cell_angle_beta   89.98681399
_cell_angle_gamma   90.01587547
_symmetry_Int_Tables_number   1
_chemical_formula_structural   Ti27(Cu53Te54)2
_chemical_formula_sum   'Ti27 Cu106 Te108'
_cell_volume   5711.36958385
_cell_formula_units_Z   1
loop_
 _symmetry_equiv_pos_site_id
 _symmetry_equiv_pos_as_xyz
  1  'x, y, z'
loop_
 _atom_type_symbol
 _atom_type_oxidation_number
  Ti4+  4.0
  Cu+  1.0
  Te2-  -2.0
loop_
 _atom_site_type_symbol
 _atom_site_label
 _atom_site_symmetry_multiplicity
 _atom_site_fract_x
 _atom_site_fract_y
 _atom_site_fract_z
 _atom_site_occupancy
  Ti4+  Ti0  1  0.16974812  0.16690565  0.16677178  1
  Ti4+  Ti1  1  0.16696901  0.16658110  0.49533144  1
  Ti4+  Ti2  1  0.16578873  0.16698439  0.83528705  1
  Ti4+  Ti3  1  0.16619104  0.50016799  0.16512580  1
  Ti4+  Ti4  1  0.16905642  0.49687948  0.50337261  1
  Ti4+  Ti5  1  0.16428281  0.50353763  0.83532756  1
  Ti4+  Ti6  1  0.16695181  0.83275012  0.16761738  1
  Ti4+  Ti7  1  0.16595552  0.83231876  0.49712304  1
  Ti4+  Ti8  1  0.16728084  0.83569291  0.83592627  1
  Ti4+  Ti9  1  0.50228611  0.16694117  0.16594838  1
  Ti4+  Ti10  1  0.50220542  0.16749771  0.49950301  1
  Ti4+  Ti11  1  0.49872025  0.16607756  0.83415082  1
  Ti4+  Ti12  1  0.49861612  0.49980115  0.16495235  1
  Ti4+  Ti13  1  0.49688084  0.50240306  0.49965033  1
  Ti4+  Ti14  1  0.49947053  0.49868469  0.83085016  1
  Ti4+  Ti15  1  0.49973471  0.83175987  0.16444794  1
  Ti4+  Ti16  1  0.49976877  0.83430871  0.49625489  1
  Ti4+  Ti17  1  0.50023018  0.83200491  0.83089071  1
  Ti4+  Ti18  1  0.83289543  0.16816143  0.16912628  1
  Ti4+  Ti19  1  0.83506558  0.16252661  0.50351528  1
  Ti4+  Ti20  1  0.83255501  0.16525691  0.83710713  1
  Ti4+  Ti21  1  0.83245648  0.50062988  0.16612044  1
  Ti4+  Ti22  1  0.83502604  0.50012886  0.49901809  1
  Ti4+  Ti23  1  0.83383468  0.49683272  0.83208158  1
  Ti4+  Ti24  1  0.83158255  0.83378420  0.16598454  1
  Ti4+  Ti25  1  0.83013942  0.83652845  0.50083183  1
  Ti4+  Ti26  1  0.83525115  0.83384010  0.83343973  1
  Cu+  Cu27  1  0.16889289  0.16579297  0.00098139  1
  Cu+  Cu28  1  0.16564954  0.16419811  0.32732020  1
  Cu+  Cu29  1  0.16433252  0.17017797  0.66249118  1
  Cu+  Cu30  1  0.15747345  0.50119911  -0.00078536  1
  Cu+  Cu31  1  0.17012073  0.49884827  0.33537914  1
  Cu+  Cu32  1  0.17233125  0.49660926  0.67223574  1
  Cu+  Cu33  1  0.16903855  0.82965237  0.00375575  1
  Cu+  Cu34  1  0.16956015  0.83567742  0.33100943  1
  Cu+  Cu35  1  0.16613966  0.83309402  0.67055310  1
  Cu+  Cu36  1  0.49799336  0.16945769  0.00053703  1
  Cu+  Cu37  1  0.50517501  0.16607257  0.33226044  1
  Cu+  Cu38  1  0.49962376  0.16722537  0.66971095  1
  Cu+  Cu39  1  0.49976093  0.49804804  -0.00318067  1
  Cu+  Cu40  1  0.50151437  0.50345634  0.32956143  1
  Cu+  Cu41  1  0.49153623  0.50238243  0.66696584  1
  Cu+  Cu42  1  0.50018864  0.83053843  -0.00313231  1
  Cu+  Cu43  1  0.49934276  0.83111587  0.33114308  1
  Cu+  Cu44  1  0.50113085  0.83223753  0.65962848  1
  Cu+  Cu45  1  0.83025941  0.16880516  0.00451143  1
  Cu+  Cu46  1  0.83283194  0.16662310  0.33950020  1
  Cu+  Cu47  1  0.83539764  0.16006855  0.67198016  1
  Cu+  Cu48  1  0.83416638  0.50058975  -0.00283658  1
  Cu+  Cu49  1  0.83431928  0.49899562  0.33134457  1
  Cu+  Cu50  1  0.83438239  0.49813484  0.66491481  1
  Cu+  Cu51  1  0.83634066  0.83658789  -0.00029566  1
  Cu+  Cu52  1  0.82895834  0.83351837  0.33323728  1
  Cu+  Cu53  1  0.82852137  0.84167927  0.67036075  1
  Cu+  Cu54  1  0.16927141  -0.00059527  0.17194520  1
  Cu+  Cu55  1  0.16587780  0.00045433  0.49875152  1
  Cu+  Cu56  1  0.16699234  -0.00082441  0.83407885  1
  Cu+  Cu57  1  0.16898471  0.33301899  0.16560567  1
  Cu+  Cu58  1  0.17284293  0.33290976  0.49424855  1
  Cu+  Cu59  1  0.16292444  0.33350435  0.83625361  1
  Cu+  Cu60  1  0.16643978  0.66740959  0.16195727  1
  Cu+  Cu61  1  0.16407337  0.66112244  0.49982887  1
  Cu+  Cu62  1  0.16627456  0.67283045  0.83627255  1
  Cu+  Cu63  1  0.50354056  0.00036909  0.16579028  1
  Cu+  Cu64  1  0.50377290  0.00205350  0.49949826  1
  Cu+  Cu65  1  0.49850326  0.00200164  0.83345985  1
  Cu+  Cu66  1  0.49689748  0.33322126  0.16310277  1
  Cu+  Cu67  1  0.50026090  0.33432450  0.50077151  1
  Cu+  Cu68  1  0.50138921  0.33104916  0.83484551  1
  Cu+  Cu69  1  0.50079958  0.66314374  0.16790122  1
  Cu+  Cu70  1  0.49584981  0.67123351  0.49968511  1
  Cu+  Cu71  1  0.50031593  0.66445309  0.82783160  1
  Cu+  Cu72  1  0.83284334  0.00074713  0.16899822  1
  Cu+  Cu73  1  0.83727578  -0.00313538  0.49968945  1
  Cu+  Cu74  1  0.83651607  0.00001253  0.83519663  1
  Cu+  Cu75  1  0.83246700  0.33461142  0.16504854  1
  Cu+  Cu76  1  0.83188176  0.33206349  0.50118903  1
  Cu+  Cu77  1  0.83092738  0.33175953  0.83301445  1
  Cu+  Cu78  1  0.82862962  0.66920803  0.16556838  1
  Cu+  Cu79  1  0.83457024  0.67019248  0.49839199  1
  Cu+  Cu80  1  0.83661665  0.66393617  0.83246984  1
  Cu+  Cu81  1  0.00226972  0.16618391  0.16908035  1
  Cu+  Cu82  1  0.00376188  0.15765752  0.50176766  1
  Cu+  Cu83  1  -0.00184342  0.16608238  0.83381849  1
  Cu+  Cu84  1  0.00072793  0.50266469  0.16314354  1
  Cu+  Cu85  1  0.00271006  0.50270210  0.50192732  1
  Cu+  Cu86  1  -0.00249360  0.49981166  0.84241130  1
  Cu+  Cu87  1  -0.00295944  0.83414936  0.16880349  1
  Cu+  Cu88  1  -0.00310594  0.82866728  0.49770387  1
  Cu+  Cu89  1  0.00277421  0.83674160  0.84159890  1
  Cu+  Cu90  1  0.33829227  0.16947232  0.16301499  1
  Cu+  Cu91  1  0.33392912  0.16790602  0.49636889  1
  Cu+  Cu92  1  0.33253099  0.16591064  0.83334868  1
  Cu+  Cu93  1  0.33319762  0.49994658  0.16471361  1
  Cu+  Cu94  1  0.33398864  0.49024886  0.50383986  1
  Cu+  Cu95  1  0.33178406  0.50275990  0.82823154  1
  Cu+  Cu96  1  0.33242467  0.83064406  0.16688247  1
  Cu+  Cu97  1  0.33307341  0.83221142  0.49801270  1
  Cu+  Cu98  1  0.33267454  0.83528719  0.83219527  1
  Cu+  Cu99  1  0.66946131  0.17098756  0.16723604  1
  Cu+  Cu100  1  0.66995609  0.16852549  0.50116260  1
  Cu+  Cu101  1  0.66223717  0.16622687  0.83913903  1
  Cu+  Cu102  1  0.66310466  0.50205388  0.16762150  1
  Cu+  Cu103  1  0.66631566  0.50277484  0.49886072  1
  Cu+  Cu104  1  0.66688365  0.49662724  0.82949010  1
  Cu+  Cu105  1  0.66578433  0.83175952  0.16346334  1
  Cu+  Cu106  1  0.66300321  0.84371435  0.49978605  1
  Cu+  Cu107  1  0.66791290  0.82973374  0.82856636  1
  Cu+  Cu108  1  0.07135721  0.07006570  0.25213930  1
  Cu+  Cu109  1  0.92113513  0.59519193  0.92709825  1
  Cu+  Cu110  1  0.93089420  0.91458986  0.59452358  1
  Cu+  Cu111  1  0.58574997  0.93203643  0.59488961  1
  Cu+  Cu112  1  0.59460942  0.59479766  0.26017231  1
  Cu+  Cu113  1  0.40490700  0.26210459  0.06996696  1
  Cu+  Cu114  1  0.07012457  0.40201713  0.92676558  1
  Cu+  Cu115  1  0.07672643  0.58474654  0.40650679  1
  Cu+  Cu116  1  0.92917950  0.07345899  0.74771328  1
  Cu+  Cu117  1  0.73491112  0.92416606  0.39982231  1
  Cu+  Cu118  1  0.92967200  0.93053891  0.93245643  1
  Cu+  Cu119  1  0.25764969  0.40229610  0.75207554  1
  Cu+  Cu120  1  0.41288635  0.40014145  0.59555975  1
  Cu+  Cu121  1  0.07141132  0.59807166  0.07419069  1
  Cu+  Cu122  1  0.26420882  0.40613386  0.40162260  1
  Cu+  Cu123  1  0.74116777  0.26288750  0.41129054  1
  Cu+  Cu124  1  0.91988723  0.74132300  0.40356911  1
  Cu+  Cu125  1  0.08496940  0.07167362  0.59601694  1
  Cu+  Cu126  1  0.26450171  0.73760503  0.07434793  1
  Cu+  Cu127  1  0.40321912  0.59736766  0.74246930  1
  Cu+  Cu128  1  0.26536445  0.92806534  0.25816556  1
  Cu+  Cu129  1  0.73686299  0.93163612  0.75155398  1
  Cu+  Cu130  1  0.74051017  0.26440079  0.07280956  1
  Cu+  Cu131  1  0.92722297  0.07448467  0.40609909  1
  Cu+  Cu132  1  0.40221059  0.74642348  0.58962264  1
  Te2-  Te133  1  0.25286779  0.25446645  0.07847740  1
  Te2-  Te134  1  0.25492316  0.24970641  0.40703373  1
  Te2-  Te135  1  0.25019802  0.25093359  0.74735234  1
  Te2-  Te136  1  0.25318096  0.58323936  0.07613187  1
  Te2-  Te137  1  0.25679897  0.58279241  0.41838235  1
  Te2-  Te138  1  0.24901382  0.59377420  0.74767340  1
  Te2-  Te139  1  0.25228755  0.92041676  0.08249331  1
  Te2-  Te140  1  0.25395548  0.92040335  0.41529059  1
  Te2-  Te141  1  0.25189482  0.92001582  0.74748102  1
  Te2-  Te142  1  0.58778455  0.25537985  0.07920557  1
  Te2-  Te143  1  0.58752759  0.25522807  0.41443056  1
  Te2-  Te144  1  0.58638599  0.25132777  0.74924511  1
  Te2-  Te145  1  0.58370178  0.58476892  0.07701767  1
  Te2-  Te146  1  0.58404226  0.58914386  0.41566231  1
  Te2-  Te147  1  0.58638509  0.58193127  0.74396000  1
  Te2-  Te148  1  0.58417838  0.91638365  0.07897585  1
  Te2-  Te149  1  0.58260776  0.92309075  0.40598761  1
  Te2-  Te150  1  0.58473081  0.92160393  0.74611817  1
  Te2-  Te151  1  0.92130013  0.25076435  0.08382632  1
  Te2-  Te152  1  0.92198128  0.24924919  0.42026865  1
  Te2-  Te153  1  0.91686261  0.25147303  0.74947259  1
  Te2-  Te154  1  0.91762700  0.59086372  0.08020543  1
  Te2-  Te155  1  0.92136432  0.58761500  0.41081673  1
  Te2-  Te156  1  0.92153580  0.58141284  0.74699986  1
  Te2-  Te157  1  0.92012228  0.92234343  0.08408242  1
  Te2-  Te158  1  0.92191127  0.91838685  0.40951692  1
  Te2-  Te159  1  0.92725410  0.92023354  0.74795926  1
  Te2-  Te160  1  0.26110584  0.08308003  0.25217433  1
  Te2-  Te161  1  0.25265693  0.08288865  0.58324315  1
  Te2-  Te162  1  0.25144399  0.08122312  0.91818845  1
  Te2-  Te163  1  0.25382963  0.41387014  0.24965199  1
  Te2-  Te164  1  0.25406519  0.40581977  0.59242879  1
  Te2-  Te165  1  0.25187818  0.41871959  0.91972153  1
  Te2-  Te166  1  0.25108246  0.74340692  0.25274014  1
  Te2-  Te167  1  0.24783664  0.74691644  0.58508563  1
  Te2-  Te168  1  0.25639170  0.74805149  0.91969372  1
  Te2-  Te169  1  0.58958119  0.08171801  0.25025616  1
  Te2-  Te170  1  0.58814977  0.08460525  0.58838282  1
  Te2-  Te171  1  0.58222895  0.08025082  0.92229302  1
  Te2-  Te172  1  0.58324314  0.41205545  0.25034005  1
  Te2-  Te173  1  0.58333631  0.41945599  0.58615627  1
  Te2-  Te174  1  0.58595362  0.41438611  0.91674797  1
  Te2-  Te175  1  0.58722276  0.74745320  0.25165414  1
  Te2-  Te176  1  0.58931117  0.74787525  0.58036425  1
  Te2-  Te177  1  0.58539138  0.74552891  0.91391695  1
  Te2-  Te178  1  0.91886558  0.07876853  0.25490765  1
  Te2-  Te179  1  0.92400433  0.07338274  0.59264661  1
  Te2-  Te180  1  0.91951204  0.08237767  0.92658316  1
  Te2-  Te181  1  0.92009056  0.41611569  0.24879600  1
  Te2-  Te182  1  0.92002098  0.41401176  0.58257409  1
  Te2-  Te183  1  0.91669152  0.40689846  0.92238421  1
  Te2-  Te184  1  0.91691510  0.74668553  0.25213798  1
  Te2-  Te185  1  0.91439240  0.75130025  0.59084467  1
  Te2-  Te186  1  0.91986012  0.74751015  0.92121464  1
  Te2-  Te187  1  0.08292485  0.25500098  0.25064812  1
  Te2-  Te188  1  0.08137872  0.25493790  0.57849721  1
  Te2-  Te189  1  0.07817240  0.24928389  0.92269715  1
  Te2-  Te190  1  0.08287526  0.58620507  0.25301043  1
  Te2-  Te191  1  0.08472306  0.58175532  0.59249064  1
  Te2-  Te192  1  0.07735910  0.59563216  0.92085307  1
  Te2-  Te193  1  0.07708911  0.91757514  0.25464139  1
  Te2-  Te194  1  0.08117088  0.91715044  0.58650609  1
  Te2-  Te195  1  0.08457744  0.92240988  0.92657489  1
  Te2-  Te196  1  0.41745807  0.25158462  0.25383237  1
  Te2-  Te197  1  0.41354335  0.24977282  0.58615135  1
  Te2-  Te198  1  0.41078889  0.25456303  0.91786104  1
  Te2-  Te199  1  0.41083756  0.58533834  0.25085905  1
  Te2-  Te200  1  0.40701305  0.59035808  0.58499415  1
  Te2-  Te201  1  0.41421999  0.58471858  0.91640939  1
  Te2-  Te202  1  0.41617305  0.91941735  0.25116436  1
  Te2-  Te203  1  0.41356727  0.92143278  0.58253776  1
  Te2-  Te204  1  0.41595910  0.91725570  0.91713450  1
  Te2-  Te205  1  0.74903014  0.25470204  0.25723210  1
  Te2-  Te206  1  0.75202991  0.24850472  0.59122029  1
  Te2-  Te207  1  0.74549254  0.25349821  0.91983365  1
  Te2-  Te208  1  0.74783990  0.58680418  0.25349620  1
  Te2-  Te209  1  0.75063930  0.58657211  0.58365204  1
  Te2-  Te210  1  0.74620566  0.58380254  0.91500186  1
  Te2-  Te211  1  0.74366012  0.92001788  0.24952250  1
  Te2-  Te212  1  0.74294194  0.92760591  0.58993272  1
  Te2-  Te213  1  0.74607634  0.91821805  0.91741400  1
  Te2-  Te214  1  0.08375351  0.07958956  0.08290110  1
  Te2-  Te215  1  0.08151187  0.07519403  0.40733701  1
  Te2-  Te216  1  0.08158863  0.07858807  0.74753724  1
  Te2-  Te217  1  0.07923167  0.40981543  0.08203531  1
  Te2-  Te218  1  0.08082548  0.41452955  0.41512923  1
  Te2-  Te219  1  0.07745773  0.41745072  0.75080879  1
  Te2-  Te220  1  0.07480448  0.75000645  0.08119203  1
  Te2-  Te221  1  0.08042844  0.74526427  0.41037472  1
  Te2-  Te222  1  0.07897748  0.75093280  0.75141700  1
  Te2-  Te223  1  0.41703213  0.07939209  0.08102215  1
  Te2-  Te224  1  0.41802049  0.08224097  0.41405904  1
  Te2-  Te225  1  0.41292672  0.08108622  0.74736420  1
  Te2-  Te226  1  0.41125813  0.41534135  0.07639274  1
  Te2-  Te227  1  0.41730468  0.41346726  0.40894399  1
  Te2-  Te228  1  0.41137818  0.40622148  0.74760644  1
  Te2-  Te229  1  0.41582110  0.74367623  0.07938393  1
  Te2-  Te230  1  0.41224063  0.74837165  0.41006847  1
  Te2-  Te231  1  0.41118201  0.74915222  0.74326324  1
  Te2-  Te232  1  0.74778988  0.08054827  0.08456750  1
  Te2-  Te233  1  0.74565316  0.07666769  0.41594950  1
  Te2-  Te234  1  0.74242677  0.08178645  0.75169242  1
  Te2-  Te235  1  0.74507158  0.41792275  0.07940524  1
  Te2-  Te236  1  0.74688657  0.41594938  0.41380462  1
  Te2-  Te237  1  0.74876997  0.41225925  0.74516987  1
  Te2-  Te238  1  0.74822989  0.75054235  0.07713272  1
  Te2-  Te239  1  0.74240874  0.75017952  0.41734750  1
  Te2-  Te240  1  0.75275545  0.74444615  0.74689106  1
