# generated using pymatgen
data_Ti27(Cu53Te54)2
_symmetry_space_group_name_H-M   'P 1'
_cell_length_a   17.92290907
_cell_length_b   17.91868659
_cell_length_c   17.92590717
_cell_angle_alpha   89.89852459
_cell_angle_beta   89.96275989
_cell_angle_gamma   90.00143192
_symmetry_Int_Tables_number   1
_chemical_formula_structural   Ti27(Cu53Te54)2
_chemical_formula_sum   'Ti27 Cu106 Te108'
_cell_volume   5756.98429721
_cell_formula_units_Z   1
loop_
 _symmetry_equiv_pos_site_id
 _symmetry_equiv_pos_as_xyz
  1  'x, y, z'
loop_
 _atom_type_symbol
 _atom_type_oxidation_number
  Ti4+  4.0
  Cu+  1.0
  Te2-  -2.0
loop_
 _atom_site_type_symbol
 _atom_site_label
 _atom_site_symmetry_multiplicity
 _atom_site_fract_x
 _atom_site_fract_y
 _atom_site_fract_z
 _atom_site_occupancy
  Ti4+  Ti0  1  0.16428326  0.16741987  0.16880165  1
  Ti4+  Ti1  1  0.16580209  0.16424377  0.50002873  1
  Ti4+  Ti2  1  0.16674201  0.16895115  0.83627340  1
  Ti4+  Ti3  1  0.17209078  0.50131262  0.16645949  1
  Ti4+  Ti4  1  0.16681802  0.50391913  0.49946115  1
  Ti4+  Ti5  1  0.16561198  0.50031413  0.83142821  1
  Ti4+  Ti6  1  0.16459775  0.82835579  0.16099678  1
  Ti4+  Ti7  1  0.16098960  0.83485472  0.49800897  1
  Ti4+  Ti8  1  0.16986434  0.83403907  0.83610295  1
  Ti4+  Ti9  1  0.50010843  0.16646285  0.16677911  1
  Ti4+  Ti10  1  0.49868231  0.16481648  0.49967524  1
  Ti4+  Ti11  1  0.50091609  0.16836454  0.83207581  1
  Ti4+  Ti12  1  0.50185468  0.49919507  0.16662893  1
  Ti4+  Ti13  1  0.49978707  0.50023230  0.50232588  1
  Ti4+  Ti14  1  0.50215514  0.50204058  0.83018828  1
  Ti4+  Ti15  1  0.50057527  0.83392285  0.16582795  1
  Ti4+  Ti16  1  0.49821513  0.83017669  0.49966968  1
  Ti4+  Ti17  1  0.49622113  0.83549156  0.83147082  1
  Ti4+  Ti18  1  0.83494173  0.16889213  0.17024006  1
  Ti4+  Ti19  1  0.83246073  0.16722402  0.50118350  1
  Ti4+  Ti20  1  0.83670750  0.16586226  0.83609139  1
  Ti4+  Ti21  1  0.83185044  0.50091136  0.16868590  1
  Ti4+  Ti22  1  0.83505172  0.50017611  0.50089282  1
  Ti4+  Ti23  1  0.83500129  0.49906650  0.83498439  1
  Ti4+  Ti24  1  0.83266056  0.83330120  0.16428455  1
  Ti4+  Ti25  1  0.83441114  0.83026851  0.49987334  1
  Ti4+  Ti26  1  0.83358764  0.83375057  0.83334137  1
  Cu+  Cu27  1  0.16491165  0.16902139  0.00362195  1
  Cu+  Cu28  1  0.16525621  0.16540608  0.33380994  1
  Cu+  Cu29  1  0.16496940  0.16535297  0.66853779  1
  Cu+  Cu30  1  0.17037375  0.50404140  -0.00196681  1
  Cu+  Cu31  1  0.16939490  0.50258813  0.33239382  1
  Cu+  Cu32  1  0.16478268  0.49972836  0.66419096  1
  Cu+  Cu33  1  0.17106632  0.82734964  -0.00218123  1
  Cu+  Cu34  1  0.16278786  0.83020431  0.32787463  1
  Cu+  Cu35  1  0.16305389  0.83891345  0.66583994  1
  Cu+  Cu36  1  0.50013756  0.16791413  -0.00028362  1
  Cu+  Cu37  1  0.49823688  0.16439592  0.33279413  1
  Cu+  Cu38  1  0.50230662  0.16841200  0.66487375  1
  Cu+  Cu39  1  0.50274049  0.49865559  -0.00139152  1
  Cu+  Cu40  1  0.50003200  0.49776412  0.33335766  1
  Cu+  Cu41  1  0.50050793  0.50687999  0.66662163  1
  Cu+  Cu42  1  0.49929373  0.83609720  -0.00159759  1
  Cu+  Cu43  1  0.49819957  0.83275027  0.33162904  1
  Cu+  Cu44  1  0.49908324  0.82970220  0.66774654  1
  Cu+  Cu45  1  0.83829387  0.16912514  0.00255361  1
  Cu+  Cu46  1  0.83797888  0.16809179  0.33673869  1
  Cu+  Cu47  1  0.83010805  0.16558175  0.66961803  1
  Cu+  Cu48  1  0.82748540  0.50059581  0.00354708  1
  Cu+  Cu49  1  0.82834541  0.50203268  0.33554561  1
  Cu+  Cu50  1  0.83914860  0.49732875  0.66914679  1
  Cu+  Cu51  1  0.83553667  0.83431533  -0.00291629  1
  Cu+  Cu52  1  0.83362008  0.83023009  0.33066967  1
  Cu+  Cu53  1  0.83441687  0.83684544  0.66576750  1
  Cu+  Cu54  1  0.16175591  -0.00113869  0.16646748  1
  Cu+  Cu55  1  0.16677309  -0.00290740  0.50201057  1
  Cu+  Cu56  1  0.16975032  0.00353350  0.83837818  1
  Cu+  Cu57  1  0.16779821  0.33558866  0.17047665  1
  Cu+  Cu58  1  0.16499513  0.33298551  0.49890674  1
  Cu+  Cu59  1  0.16534351  0.33463100  0.83166409  1
  Cu+  Cu60  1  0.16928229  0.66343849  0.15565726  1
  Cu+  Cu61  1  0.16291575  0.67443462  0.49763519  1
  Cu+  Cu62  1  0.16942108  0.66354483  0.84020871  1
  Cu+  Cu63  1  0.49874582  0.00080322  0.16621043  1
  Cu+  Cu64  1  0.49881594  -0.00118203  0.49911963  1
  Cu+  Cu65  1  0.49818944  0.00400478  0.83159987  1
  Cu+  Cu66  1  0.50118455  0.33160301  0.16752706  1
  Cu+  Cu67  1  0.50222044  0.33059385  0.50407297  1
  Cu+  Cu68  1  0.50193354  0.33490487  0.83052474  1
  Cu+  Cu69  1  0.50320969  0.66792171  0.16889962  1
  Cu+  Cu70  1  0.49731288  0.66313357  0.50039267  1
  Cu+  Cu71  1  0.49760685  0.66975566  0.82387133  1
  Cu+  Cu72  1  0.83450489  0.00281857  0.16550440  1
  Cu+  Cu73  1  0.83515114  0.00144761  0.49793611  1
  Cu+  Cu74  1  0.83639758  -0.00275597  0.83774290  1
  Cu+  Cu75  1  0.83526562  0.33425527  0.17480146  1
  Cu+  Cu76  1  0.83078054  0.33445353  0.50237702  1
  Cu+  Cu77  1  0.84005552  0.33171776  0.83543400  1
  Cu+  Cu78  1  0.82646802  0.66510278  0.16197751  1
  Cu+  Cu79  1  0.83696660  0.66227538  0.49773394  1
  Cu+  Cu80  1  0.83015031  0.66619272  0.83203129  1
  Cu+  Cu81  1  -0.00183847  0.16941035  0.17106925  1
  Cu+  Cu82  1  0.00086097  0.16312719  0.49847953  1
  Cu+  Cu83  1  0.00153465  0.17073871  0.83931571  1
  Cu+  Cu84  1  0.00391498  0.50037582  0.16933970  1
  Cu+  Cu85  1  0.00180251  0.50277617  0.50264353  1
  Cu+  Cu86  1  -0.00349863  0.49272767  0.82974991  1
  Cu+  Cu87  1  -0.00379211  0.82531290  0.15904073  1
  Cu+  Cu88  1  -0.00528432  0.82945003  0.50207140  1
  Cu+  Cu89  1  0.00231049  0.83412865  0.83714636  1
  Cu+  Cu90  1  0.33266492  0.16517898  0.16817472  1
  Cu+  Cu91  1  0.33286687  0.16290984  0.49854768  1
  Cu+  Cu92  1  0.33495286  0.16947533  0.83352338  1
  Cu+  Cu93  1  0.33855671  0.49581314  0.16864260  1
  Cu+  Cu94  1  0.33233730  0.50129239  0.49811636  1
  Cu+  Cu95  1  0.33585557  0.50340823  0.82824924  1
  Cu+  Cu96  1  0.33506572  0.83116181  0.16326331  1
  Cu+  Cu97  1  0.32886286  0.83378327  0.49779385  1
  Cu+  Cu98  1  0.33122672  0.84144807  0.83592355  1
  Cu+  Cu99  1  0.66638269  0.16813381  0.16955282  1
  Cu+  Cu100  1  0.66450125  0.16902538  0.50277734  1
  Cu+  Cu101  1  0.66918394  0.16511696  0.83327977  1
  Cu+  Cu102  1  0.66651595  0.50044773  0.16575608  1
  Cu+  Cu103  1  0.66796832  0.50246625  0.50277163  1
  Cu+  Cu104  1  0.66964669  0.49885863  0.83343681  1
  Cu+  Cu105  1  0.66592163  0.83639123  0.16692575  1
  Cu+  Cu106  1  0.66734790  0.83044612  0.50027357  1
  Cu+  Cu107  1  0.66457419  0.83380904  0.82964671  1
  Cu+  Cu108  1  0.92759678  0.26558402  0.26718863  1
  Cu+  Cu109  1  0.26281590  0.93441364  0.93000218  1
  Cu+  Cu110  1  0.92132172  0.73601890  0.40205581  1
  Cu+  Cu111  1  0.26069356  0.92584732  0.59133260  1
  Cu+  Cu112  1  0.92842991  0.07288394  0.40933552  1
  Cu+  Cu113  1  0.92934134  0.26289342  0.93107678  1
  Cu+  Cu114  1  0.40232422  0.59753592  0.73894093  1
  Cu+  Cu115  1  0.07223123  0.58066835  0.07124088  1
  Cu+  Cu116  1  0.73439821  0.59282428  0.07116804  1
  Cu+  Cu117  1  0.07279484  0.73690888  0.92012154  1
  Cu+  Cu118  1  0.59433518  0.25822549  0.59507370  1
  Cu+  Cu119  1  0.92957772  0.92436137  0.92623122  1
  Cu+  Cu120  1  0.92598529  0.39969519  0.73718627  1
  Cu+  Cu121  1  0.59656087  0.74369835  0.74243358  1
  Cu+  Cu122  1  0.25782162  0.74867773  0.40275281  1
  Cu+  Cu123  1  0.40482811  0.58283004  0.40216163  1
  Cu+  Cu124  1  0.73834194  0.59212610  0.40852795  1
  Cu+  Cu125  1  0.92722234  0.07835319  0.07666361  1
  Cu+  Cu126  1  0.26750173  0.58380809  0.92510795  1
  Cu+  Cu127  1  0.07395733  0.74534319  0.59710566  1
  Cu+  Cu128  1  0.59613021  0.59311230  0.59150421  1
  Cu+  Cu129  1  0.91922309  0.93098612  0.59299940  1
  Cu+  Cu130  1  0.26802347  0.73905777  0.07315184  1
  Cu+  Cu131  1  0.92845654  0.58724738  0.59684856  1
  Cu+  Cu132  1  0.91322268  0.73511940  0.06881272  1
  Te2-  Te133  1  0.25066956  0.25243205  0.08529495  1
  Te2-  Te134  1  0.25052799  0.24964109  0.41560843  1
  Te2-  Te135  1  0.25069231  0.25201860  0.74842386  1
  Te2-  Te136  1  0.26501374  0.58460851  0.07804692  1
  Te2-  Te137  1  0.25186664  0.59169892  0.41219325  1
  Te2-  Te138  1  0.24872151  0.58811995  0.74359559  1
  Te2-  Te139  1  0.25116045  0.91981461  0.08120505  1
  Te2-  Te140  1  0.24761941  0.91770959  0.40894984  1
  Te2-  Te141  1  0.25034689  0.92336256  0.74650604  1
  Te2-  Te142  1  0.58647769  0.25168705  0.08168653  1
  Te2-  Te143  1  0.58368706  0.25107353  0.41324751  1
  Te2-  Te144  1  0.59001879  0.25362306  0.74767282  1
  Te2-  Te145  1  0.58505975  0.58734474  0.07927072  1
  Te2-  Te146  1  0.58578883  0.58633547  0.41319186  1
  Te2-  Te147  1  0.59425690  0.58863294  0.74563056  1
  Te2-  Te148  1  0.58471517  0.92020004  0.08044194  1
  Te2-  Te149  1  0.58371479  0.91485148  0.41613901  1
  Te2-  Te150  1  0.58171257  0.92089614  0.74599469  1
  Te2-  Te151  1  0.92139284  0.25869626  0.08414954  1
  Te2-  Te152  1  0.92100804  0.25684803  0.41925448  1
  Te2-  Te153  1  0.92211233  0.24874449  0.74510829  1
  Te2-  Te154  1  0.92034618  0.58431402  0.07890465  1
  Te2-  Te155  1  0.92350621  0.58273413  0.40960863  1
  Te2-  Te156  1  0.92121993  0.58907176  0.75023876  1
  Te2-  Te157  1  0.92165006  0.92191506  0.07916273  1
  Te2-  Te158  1  0.91920142  0.91710060  0.41081217  1
  Te2-  Te159  1  0.92253504  0.91924809  0.74874428  1
  Te2-  Te160  1  0.24850760  0.07941598  0.25108299  1
  Te2-  Te161  1  0.25227562  0.07960336  0.58777322  1
  Te2-  Te162  1  0.25508121  0.08635342  0.92380025  1
  Te2-  Te163  1  0.25414688  0.41564971  0.25404344  1
  Te2-  Te164  1  0.25044224  0.41616238  0.58246266  1
  Te2-  Te165  1  0.25334160  0.41656668  0.91461605  1
  Te2-  Te166  1  0.25203344  0.74451434  0.24801591  1
  Te2-  Te167  1  0.24834585  0.75048653  0.58724026  1
  Te2-  Te168  1  0.26154025  0.74334664  0.91921554  1
  Te2-  Te169  1  0.58513125  0.08026633  0.25223547  1
  Te2-  Te170  1  0.58492069  0.07825357  0.58476853  1
  Te2-  Te171  1  0.58505764  0.08241020  0.91783875  1
  Te2-  Te172  1  0.58643943  0.41428632  0.25224396  1
  Te2-  Te173  1  0.58677173  0.41541026  0.58889778  1
  Te2-  Te174  1  0.58610085  0.41536016  0.91553349  1
  Te2-  Te175  1  0.58696745  0.75012920  0.25256413  1
  Te2-  Te176  1  0.58730109  0.74499387  0.58647629  1
  Te2-  Te177  1  0.58149168  0.74882369  0.91551232  1
  Te2-  Te178  1  0.92079126  0.07802718  0.25558249  1
  Te2-  Te179  1  0.91893967  0.08284353  0.58950940  1
  Te2-  Te180  1  0.92467958  0.07784731  0.92262596  1
  Te2-  Te181  1  0.92056891  0.42000883  0.25709726  1
  Te2-  Te182  1  0.92251645  0.41097178  0.58442785  1
  Te2-  Te183  1  0.91905411  0.41626645  0.92665332  1
  Te2-  Te184  1  0.91665591  0.74223262  0.24859224  1
  Te2-  Te185  1  0.91843006  0.74240557  0.59272280  1
  Te2-  Te186  1  0.91922378  0.74126916  0.91794377  1
  Te2-  Te187  1  0.08077530  0.25552468  0.25622497  1
  Te2-  Te188  1  0.08094325  0.24949943  0.58428293  1
  Te2-  Te189  1  0.08286438  0.25768995  0.92338493  1
  Te2-  Te190  1  0.08630301  0.58876798  0.25053296  1
  Te2-  Te191  1  0.08130459  0.59099855  0.58873954  1
  Te2-  Te192  1  0.07297334  0.58291725  0.91790147  1
  Te2-  Te193  1  0.07690574  0.91158299  0.24495496  1
  Te2-  Te194  1  0.07328240  0.92179128  0.58576998  1
  Te2-  Te195  1  0.08415523  0.92088647  0.92334639  1
  Te2-  Te196  1  0.41425164  0.25135943  0.25226705  1
  Te2-  Te197  1  0.41142709  0.25015154  0.58458554  1
  Te2-  Te198  1  0.41705153  0.25480075  0.91725769  1
  Te2-  Te199  1  0.41524838  0.58659005  0.25161306  1
  Te2-  Te200  1  0.40884431  0.58743742  0.58693872  1
  Te2-  Te201  1  0.41909690  0.58792081  0.91843893  1
  Te2-  Te202  1  0.41267194  0.91748411  0.24996393  1
  Te2-  Te203  1  0.41405742  0.91660982  0.58488223  1
  Te2-  Te204  1  0.41504672  0.92452793  0.92045026  1
  Te2-  Te205  1  0.74801277  0.25151680  0.25668102  1
  Te2-  Te206  1  0.74787776  0.25344499  0.58882128  1
  Te2-  Te207  1  0.75024539  0.25115039  0.91912591  1
  Te2-  Te208  1  0.74408120  0.58741128  0.25289238  1
  Te2-  Te209  1  0.75117703  0.58624863  0.59079625  1
  Te2-  Te210  1  0.74621620  0.58668247  0.91832026  1
  Te2-  Te211  1  0.75078748  0.91895057  0.25059061  1
  Te2-  Te212  1  0.74829037  0.91878922  0.58250373  1
  Te2-  Te213  1  0.74484659  0.91577386  0.91744106  1
  Te2-  Te214  1  0.07869926  0.08188360  0.08167508  1
  Te2-  Te215  1  0.08195132  0.07607064  0.41300753  1
  Te2-  Te216  1  0.08106929  0.08231872  0.75406425  1
  Te2-  Te217  1  0.08545395  0.41633570  0.08087747  1
  Te2-  Te218  1  0.08255446  0.41926929  0.41510215  1
  Te2-  Te219  1  0.08148871  0.41265152  0.74425599  1
  Te2-  Te220  1  0.07556744  0.74017623  0.07258085  1
  Te2-  Te221  1  0.07439671  0.74770570  0.40867672  1
  Te2-  Te222  1  0.08323405  0.74701223  0.75132054  1
  Te2-  Te223  1  0.41412407  0.08243323  0.08079673  1
  Te2-  Te224  1  0.41399352  0.07880501  0.41384033  1
  Te2-  Te225  1  0.41439316  0.08516364  0.74583450  1
  Te2-  Te226  1  0.41844660  0.41373692  0.08072543  1
  Te2-  Te227  1  0.41637406  0.41256314  0.41770233  1
  Te2-  Te228  1  0.41680887  0.41616191  0.74511120  1
  Te2-  Te229  1  0.41875525  0.74515448  0.07819088  1
  Te2-  Te230  1  0.41241592  0.74553893  0.41174289  1
  Te2-  Te231  1  0.40430700  0.75208306  0.74587224  1
  Te2-  Te232  1  0.74889262  0.08585458  0.08280111  1
  Te2-  Te233  1  0.74662247  0.08411744  0.41622041  1
  Te2-  Te234  1  0.75163239  0.07843402  0.75292390  1
  Te2-  Te235  1  0.74906510  0.41099399  0.08656981  1
  Te2-  Te236  1  0.74627249  0.41471487  0.41749615  1
  Te2-  Te237  1  0.75158343  0.41272983  0.74968761  1
  Te2-  Te238  1  0.74341758  0.75099610  0.07684116  1
  Te2-  Te239  1  0.74651887  0.74537801  0.41309269  1
  Te2-  Te240  1  0.74978276  0.74893335  0.74440355  1
