# generated using pymatgen
data_Ti27(Cu53Te54)2
_symmetry_space_group_name_H-M   'P 1'
_cell_length_a   17.87677383
_cell_length_b   17.87633331
_cell_length_c   17.87674900
_cell_angle_alpha   89.97242827
_cell_angle_beta   89.96202755
_cell_angle_gamma   90.03078965
_symmetry_Int_Tables_number   1
_chemical_formula_structural   Ti27(Cu53Te54)2
_chemical_formula_sum   'Ti27 Cu106 Te108'
_cell_volume   5712.89080744
_cell_formula_units_Z   1
loop_
 _symmetry_equiv_pos_site_id
 _symmetry_equiv_pos_as_xyz
  1  'x, y, z'
loop_
 _atom_type_symbol
 _atom_type_oxidation_number
  Ti4+  4.0
  Cu+  1.0
  Te2-  -2.0
loop_
 _atom_site_type_symbol
 _atom_site_label
 _atom_site_symmetry_multiplicity
 _atom_site_fract_x
 _atom_site_fract_y
 _atom_site_fract_z
 _atom_site_occupancy
  Ti4+  Ti0  1  0.16443973  0.16759650  0.16518064  1
  Ti4+  Ti1  1  0.16743129  0.16607365  0.49977991  1
  Ti4+  Ti2  1  0.16644925  0.16991342  0.83514309  1
  Ti4+  Ti3  1  0.16462570  0.50070166  0.16551080  1
  Ti4+  Ti4  1  0.16443291  0.49660035  0.50242304  1
  Ti4+  Ti5  1  0.16972225  0.49808485  0.83077640  1
  Ti4+  Ti6  1  0.16407806  0.83668205  0.17144418  1
  Ti4+  Ti7  1  0.16626479  0.83051249  0.50052692  1
  Ti4+  Ti8  1  0.16984128  0.83607682  0.83426446  1
  Ti4+  Ti9  1  0.50006629  0.16461561  0.16700229  1
  Ti4+  Ti10  1  0.49940806  0.16507933  0.49976415  1
  Ti4+  Ti11  1  0.49907431  0.16875394  0.83327931  1
  Ti4+  Ti12  1  0.50177284  0.49783982  0.16943643  1
  Ti4+  Ti13  1  0.49917626  0.49823424  0.49931155  1
  Ti4+  Ti14  1  0.50208256  0.50021898  0.83301419  1
  Ti4+  Ti15  1  0.49784834  0.83050159  0.16514313  1
  Ti4+  Ti16  1  0.50405816  0.83154501  0.49992449  1
  Ti4+  Ti17  1  0.49863709  0.83249428  0.83080381  1
  Ti4+  Ti18  1  0.83213789  0.16580801  0.16930767  1
  Ti4+  Ti19  1  0.83308093  0.16894318  0.50103498  1
  Ti4+  Ti20  1  0.83192802  0.16965497  0.83307422  1
  Ti4+  Ti21  1  0.83448322  0.50062683  0.16749373  1
  Ti4+  Ti22  1  0.83552329  0.50056644  0.50125871  1
  Ti4+  Ti23  1  0.83386881  0.49847969  0.83117412  1
  Ti4+  Ti24  1  0.83188990  0.83673629  0.16403752  1
  Ti4+  Ti25  1  0.83602854  0.83310985  0.50098861  1
  Ti4+  Ti26  1  0.83321565  0.83410804  0.83332741  1
  Cu+  Cu27  1  0.16667869  0.17420401  -0.00089979  1
  Cu+  Cu28  1  0.16545612  0.16397932  0.33021231  1
  Cu+  Cu29  1  0.16754844  0.16537735  0.66547600  1
  Cu+  Cu30  1  0.16386982  0.49892843  -0.00442701  1
  Cu+  Cu31  1  0.16142995  0.49894640  0.33301734  1
  Cu+  Cu32  1  0.17635538  0.49595551  0.66536867  1
  Cu+  Cu33  1  0.16694333  0.83753469  0.00381080  1
  Cu+  Cu34  1  0.16113830  0.83586957  0.33952197  1
  Cu+  Cu35  1  0.16843849  0.83179972  0.66702526  1
  Cu+  Cu36  1  0.50266978  0.16761082  0.00011660  1
  Cu+  Cu37  1  0.49666220  0.16672227  0.33565176  1
  Cu+  Cu38  1  0.50006471  0.16539739  0.66352717  1
  Cu+  Cu39  1  0.50013504  0.49997175  0.00554485  1
  Cu+  Cu40  1  0.50032222  0.49700070  0.33342707  1
  Cu+  Cu41  1  0.50253998  0.50214467  0.66386155  1
  Cu+  Cu42  1  0.49462935  0.82814410  -0.00424409  1
  Cu+  Cu43  1  0.50308905  0.83340679  0.33177756  1
  Cu+  Cu44  1  0.50414922  0.83258603  0.66755227  1
  Cu+  Cu45  1  0.83100569  0.16409925  0.00167635  1
  Cu+  Cu46  1  0.83459923  0.17121833  0.33506144  1
  Cu+  Cu47  1  0.82873222  0.17132861  0.66666016  1
  Cu+  Cu48  1  0.83317250  0.49882663  0.00193246  1
  Cu+  Cu49  1  0.83251232  0.49977993  0.33310978  1
  Cu+  Cu50  1  0.83994495  0.49906904  0.66696652  1
  Cu+  Cu51  1  0.82886294  0.83211504  -0.00365735  1
  Cu+  Cu52  1  0.83464342  0.83492918  0.33229458  1
  Cu+  Cu53  1  0.83458462  0.83497522  0.66752375  1
  Cu+  Cu54  1  0.15909732  0.00102888  0.16479449  1
  Cu+  Cu55  1  0.16906479  -0.00131520  0.50114009  1
  Cu+  Cu56  1  0.16995482  0.00582117  0.83325305  1
  Cu+  Cu57  1  0.16419661  0.33466503  0.16504064  1
  Cu+  Cu58  1  0.16413577  0.33044020  0.49826995  1
  Cu+  Cu59  1  0.17004462  0.33575655  0.83880075  1
  Cu+  Cu60  1  0.16810139  0.67087232  0.17001700  1
  Cu+  Cu61  1  0.16140403  0.66005216  0.50102752  1
  Cu+  Cu62  1  0.16907700  0.66920060  0.83112372  1
  Cu+  Cu63  1  0.50070290  -0.00295325  0.16696813  1
  Cu+  Cu64  1  0.50350472  0.00029068  0.49955463  1
  Cu+  Cu65  1  0.49621448  -0.00024643  0.83131018  1
  Cu+  Cu66  1  0.50156195  0.33343441  0.16922841  1
  Cu+  Cu67  1  0.49498437  0.33060583  0.49694713  1
  Cu+  Cu68  1  0.50454965  0.33172405  0.83983976  1
  Cu+  Cu69  1  0.49765843  0.66026869  0.16394606  1
  Cu+  Cu70  1  0.50422540  0.66586116  0.50205007  1
  Cu+  Cu71  1  0.49833178  0.66735883  0.82874973  1
  Cu+  Cu72  1  0.83835757  0.00105175  0.16721491  1
  Cu+  Cu73  1  0.83274157  0.00414349  0.50134392  1
  Cu+  Cu74  1  0.83098690  -0.00012219  0.83384579  1
  Cu+  Cu75  1  0.83432581  0.33257993  0.17217758  1
  Cu+  Cu76  1  0.83328571  0.33473392  0.50020315  1
  Cu+  Cu77  1  0.83161159  0.33310732  0.82565544  1
  Cu+  Cu78  1  0.83147587  0.66807156  0.16425011  1
  Cu+  Cu79  1  0.83862843  0.66801216  0.50386318  1
  Cu+  Cu80  1  0.83337407  0.66683572  0.83530240  1
  Cu+  Cu81  1  -0.00476364  0.16595013  0.16796005  1
  Cu+  Cu82  1  -0.00135807  0.16494875  0.50199811  1
  Cu+  Cu83  1  0.00109726  0.16894462  0.83424302  1
  Cu+  Cu84  1  -0.00221557  0.50080292  0.16405249  1
  Cu+  Cu85  1  0.00004674  0.50552607  0.50199207  1
  Cu+  Cu86  1  0.00052297  0.49371163  0.82954266  1
  Cu+  Cu87  1  -0.00142845  0.84362033  0.16680168  1
  Cu+  Cu88  1  0.00311811  0.83322386  0.49856422  1
  Cu+  Cu89  1  -0.00174378  0.83689382  0.83665645  1
  Cu+  Cu90  1  0.33340575  0.16321946  0.16434012  1
  Cu+  Cu91  1  0.33579092  0.16811694  0.49566557  1
  Cu+  Cu92  1  0.32877070  0.16760322  0.83499429  1
  Cu+  Cu93  1  0.33244851  0.50005432  0.16808449  1
  Cu+  Cu94  1  0.33043764  0.49563870  0.50247062  1
  Cu+  Cu95  1  0.33784698  0.49875624  0.82565229  1
  Cu+  Cu96  1  0.32824215  0.82870513  0.16793919  1
  Cu+  Cu97  1  0.33747181  0.82893560  0.50075773  1
  Cu+  Cu98  1  0.33589498  0.83271723  0.83020124  1
  Cu+  Cu99  1  0.66799709  0.16331080  0.16885812  1
  Cu+  Cu100  1  0.66528551  0.16640508  0.50041183  1
  Cu+  Cu101  1  0.66598877  0.17343326  0.83354102  1
  Cu+  Cu102  1  0.66878270  0.49735277  0.17039301  1
  Cu+  Cu103  1  0.66647987  0.49924195  0.50205735  1
  Cu+  Cu104  1  0.66904883  0.49801805  0.83513240  1
  Cu+  Cu105  1  0.66221074  0.83567117  0.16708293  1
  Cu+  Cu106  1  0.67329564  0.83246726  0.49798155  1
  Cu+  Cu107  1  0.66668039  0.83150908  0.83122043  1
  Cu+  Cu108  1  0.06843558  0.40892117  0.92744616  1
  Cu+  Cu109  1  0.25619216  0.74377802  0.73809159  1
  Cu+  Cu110  1  0.07349400  0.92634061  0.06977788  1
  Cu+  Cu111  1  0.92411720  0.92675749  0.26368251  1
  Cu+  Cu112  1  0.26805518  0.40300929  0.73863208  1
  Cu+  Cu113  1  0.40425866  0.58366941  0.07697797  1
  Cu+  Cu114  1  0.26003394  0.59335276  0.58238698  1
  Cu+  Cu115  1  0.24991989  0.74332286  0.07627273  1
  Cu+  Cu116  1  0.59817635  0.59170055  0.58761654  1
  Cu+  Cu117  1  0.40373013  0.26078637  0.40314274  1
  Cu+  Cu118  1  0.26184958  0.26373959  0.93146496  1
  Cu+  Cu119  1  0.92716815  0.26410370  0.26283402  1
  Cu+  Cu120  1  0.07445115  0.93200463  0.41681410  1
  Cu+  Cu121  1  0.41259910  0.59071072  0.73589190  1
  Cu+  Cu122  1  0.92342053  0.07714567  0.06951223  1
  Cu+  Cu123  1  0.40695569  0.73773655  0.92225727  1
  Cu+  Cu124  1  0.25557550  0.07696882  0.73727807  1
  Cu+  Cu125  1  0.59957109  0.74191166  0.74157010  1
  Cu+  Cu126  1  0.59766822  0.25844790  0.93292043  1
  Cu+  Cu127  1  0.59067490  0.92732709  0.26019258  1
  Cu+  Cu128  1  0.93016541  0.40235719  0.73568538  1
  Cu+  Cu129  1  0.92910322  0.59830274  0.59775736  1
  Cu+  Cu130  1  0.07020523  0.58786404  0.40184728  1
  Cu+  Cu131  1  0.73432773  0.26155844  0.73497706  1
  Cu+  Cu132  1  0.41215069  0.92928995  0.73488075  1
  Te2-  Te133  1  0.25412750  0.25508178  0.08400672  1
  Te2-  Te134  1  0.24970525  0.25233318  0.40991345  1
  Te2-  Te135  1  0.25290707  0.25422019  0.74534273  1
  Te2-  Te136  1  0.25001168  0.58711819  0.07711094  1
  Te2-  Te137  1  0.25090076  0.58163920  0.41514600  1
  Te2-  Te138  1  0.25677855  0.58983584  0.74391695  1
  Te2-  Te139  1  0.25269614  0.92210631  0.08573369  1
  Te2-  Te140  1  0.25505025  0.91541519  0.41747426  1
  Te2-  Te141  1  0.25524909  0.92267598  0.74443067  1
  Te2-  Te142  1  0.58841015  0.25231940  0.08435035  1
  Te2-  Te143  1  0.58547816  0.25164907  0.41430564  1
  Te2-  Te144  1  0.58237329  0.25490616  0.74366354  1
  Te2-  Te145  1  0.59006166  0.58272407  0.08336831  1
  Te2-  Te146  1  0.58580143  0.58319911  0.41411429  1
  Te2-  Te147  1  0.59166404  0.58627492  0.74658744  1
  Te2-  Te148  1  0.58030625  0.91473018  0.07552159  1
  Te2-  Te149  1  0.58962771  0.91832600  0.41499461  1
  Te2-  Te150  1  0.58702250  0.92161979  0.74846802  1
  Te2-  Te151  1  0.91607220  0.25268525  0.08127644  1
  Te2-  Te152  1  0.92219137  0.25516298  0.41680049  1
  Te2-  Te153  1  0.92278241  0.25105318  0.74461448  1
  Te2-  Te154  1  0.91770757  0.58712261  0.07986429  1
  Te2-  Te155  1  0.91795630  0.58751013  0.41124630  1
  Te2-  Te156  1  0.92232416  0.58864929  0.75047995  1
  Te2-  Te157  1  0.91840755  0.92193646  0.07129681  1
  Te2-  Te158  1  0.92027375  0.92385525  0.41592225  1
  Te2-  Te159  1  0.91884666  0.92105660  0.74898910  1
  Te2-  Te160  1  0.24931021  0.07967065  0.24806768  1
  Te2-  Te161  1  0.25621642  0.08046824  0.58298237  1
  Te2-  Te162  1  0.25111289  0.08335095  0.92393028  1
  Te2-  Te163  1  0.24847439  0.41611506  0.25165425  1
  Te2-  Te164  1  0.25435815  0.40451986  0.58393122  1
  Te2-  Te165  1  0.26059744  0.41806357  0.92117671  1
  Te2-  Te166  1  0.24834122  0.75080210  0.26017688  1
  Te2-  Te167  1  0.25481075  0.74394236  0.58516905  1
  Te2-  Te168  1  0.25292821  0.74698753  0.92283647  1
  Te2-  Te169  1  0.58484891  0.08053532  0.25562555  1
  Te2-  Te170  1  0.58703406  0.08012435  0.58616970  1
  Te2-  Te171  1  0.58490353  0.08080539  0.91474299  1
  Te2-  Te172  1  0.58757195  0.41213465  0.25520982  1
  Te2-  Te173  1  0.58273083  0.41061197  0.58366330  1
  Te2-  Te174  1  0.58692222  0.41701549  0.92322545  1
  Te2-  Te175  1  0.58318371  0.74361793  0.24867676  1
  Te2-  Te176  1  0.59326455  0.74638863  0.58717623  1
  Te2-  Te177  1  0.58522404  0.74493895  0.91686421  1
  Te2-  Te178  1  0.91987876  0.08051336  0.25928817  1
  Te2-  Te179  1  0.91614203  0.08378746  0.58923156  1
  Te2-  Te180  1  0.91886595  0.08169131  0.91612402  1
  Te2-  Te181  1  0.92228904  0.41617234  0.25545451  1
  Te2-  Te182  1  0.92367687  0.41124115  0.58354626  1
  Te2-  Te183  1  0.91577271  0.41112661  0.91967999  1
  Te2-  Te184  1  0.91879733  0.75063572  0.24717047  1
  Te2-  Te185  1  0.92390003  0.75098107  0.58917651  1
  Te2-  Te186  1  0.91887336  0.74828741  0.91946429  1
  Te2-  Te187  1  0.08000967  0.25298193  0.25233959  1
  Te2-  Te188  1  0.08116334  0.25001953  0.58579353  1
  Te2-  Te189  1  0.07663387  0.25606503  0.92052527  1
  Te2-  Te190  1  0.07831152  0.58802075  0.24917018  1
  Te2-  Te191  1  0.08167596  0.58350046  0.59572590  1
  Te2-  Te192  1  0.08139171  0.58552561  0.91194624  1
  Te2-  Te193  1  0.07793563  0.92582937  0.26001910  1
  Te2-  Te194  1  0.08312952  0.91769401  0.58764544  1
  Te2-  Te195  1  0.08354848  0.92298049  0.91714365  1
  Te2-  Te196  1  0.41209885  0.25148725  0.25024598  1
  Te2-  Te197  1  0.41301954  0.25116902  0.58675764  1
  Te2-  Te198  1  0.41293535  0.25287896  0.92112438  1
  Te2-  Te199  1  0.41422443  0.58381178  0.25527400  1
  Te2-  Te200  1  0.41129671  0.58815268  0.58466204  1
  Te2-  Te201  1  0.41269109  0.58432825  0.92048568  1
  Te2-  Te202  1  0.41195767  0.91501409  0.25072728  1
  Te2-  Te203  1  0.41699678  0.91800329  0.58390812  1
  Te2-  Te204  1  0.41243524  0.91957554  0.91871395  1
  Te2-  Te205  1  0.74512430  0.25176728  0.25412949  1
  Te2-  Te206  1  0.74389094  0.25634265  0.58329359  1
  Te2-  Te207  1  0.74985019  0.25617641  0.92339471  1
  Te2-  Te208  1  0.74914038  0.58679382  0.25247852  1
  Te2-  Te209  1  0.75032031  0.58588205  0.58847451  1
  Te2-  Te210  1  0.74964496  0.58348428  0.91896087  1
  Te2-  Te211  1  0.74617921  0.92182998  0.25206180  1
  Te2-  Te212  1  0.75006795  0.91919903  0.58505546  1
  Te2-  Te213  1  0.74404256  0.91871192  0.91690210  1
  Te2-  Te214  1  0.07738775  0.08371345  0.07525275  1
  Te2-  Te215  1  0.08000014  0.08199584  0.41478021  1
  Te2-  Te216  1  0.08078787  0.08320410  0.74888068  1
  Te2-  Te217  1  0.07832774  0.41431354  0.07997377  1
  Te2-  Te218  1  0.07708725  0.41331469  0.41635435  1
  Te2-  Te219  1  0.08524537  0.40987617  0.74373146  1
  Te2-  Te220  1  0.07850282  0.75103181  0.08415918  1
  Te2-  Te221  1  0.07910361  0.74263627  0.41469854  1
  Te2-  Te222  1  0.08037072  0.75234152  0.75150129  1
  Te2-  Te223  1  0.41735352  0.07962971  0.07981280  1
  Te2-  Te224  1  0.41456034  0.07638693  0.41439896  1
  Te2-  Te225  1  0.41122228  0.08358035  0.74512558  1
  Te2-  Te226  1  0.41394813  0.41225780  0.08336780  1
  Te2-  Te227  1  0.41025675  0.41530984  0.41254222  1
  Te2-  Te228  1  0.42203907  0.40910197  0.74556427  1
  Te2-  Te229  1  0.40804909  0.74123417  0.07862439  1
  Te2-  Te230  1  0.42000619  0.74625543  0.41438907  1
  Te2-  Te231  1  0.41044027  0.74435777  0.73914405  1
  Te2-  Te232  1  0.74679696  0.07785580  0.08342178  1
  Te2-  Te233  1  0.74855017  0.08406800  0.41425227  1
  Te2-  Te234  1  0.74577917  0.08354798  0.74953739  1
  Te2-  Te235  1  0.74998769  0.41232928  0.08428855  1
  Te2-  Te236  1  0.74803834  0.41631432  0.41618140  1
  Te2-  Te237  1  0.74404276  0.41628460  0.74238853  1
  Te2-  Te238  1  0.74479027  0.75054390  0.08194660  1
  Te2-  Te239  1  0.75353517  0.74602827  0.41396682  1
  Te2-  Te240  1  0.75081659  0.74531504  0.74549844  1
