# generated using pymatgen
data_Ti27(Cu53Te54)2
_symmetry_space_group_name_H-M   'P 1'
_cell_length_a   17.88323284
_cell_length_b   17.88447275
_cell_length_c   17.88922217
_cell_angle_alpha   90.03960691
_cell_angle_beta   89.99439088
_cell_angle_gamma   89.94138752
_symmetry_Int_Tables_number   1
_chemical_formula_structural   Ti27(Cu53Te54)2
_chemical_formula_sum   'Ti27 Cu106 Te108'
_cell_volume   5721.54472653
_cell_formula_units_Z   1
loop_
 _symmetry_equiv_pos_site_id
 _symmetry_equiv_pos_as_xyz
  1  'x, y, z'
loop_
 _atom_type_symbol
 _atom_type_oxidation_number
  Ti4+  4.0
  Cu+  1.0
  Te2-  -2.0
loop_
 _atom_site_type_symbol
 _atom_site_label
 _atom_site_symmetry_multiplicity
 _atom_site_fract_x
 _atom_site_fract_y
 _atom_site_fract_z
 _atom_site_occupancy
  Ti4+  Ti0  1  0.16484691  0.16373155  0.16667853  1
  Ti4+  Ti1  1  0.16474965  0.16653523  0.49851910  1
  Ti4+  Ti2  1  0.16613410  0.16716542  0.83390732  1
  Ti4+  Ti3  1  0.16609856  0.49597765  0.16600600  1
  Ti4+  Ti4  1  0.17029972  0.49900365  0.50043850  1
  Ti4+  Ti5  1  0.16648528  0.49970000  0.83265760  1
  Ti4+  Ti6  1  0.16672561  0.83049470  0.16185670  1
  Ti4+  Ti7  1  0.16980850  0.83276683  0.49943218  1
  Ti4+  Ti8  1  0.16794478  0.83483356  0.83019081  1
  Ti4+  Ti9  1  0.50212897  0.16647953  0.16862201  1
  Ti4+  Ti10  1  0.50058987  0.16950629  0.49948141  1
  Ti4+  Ti11  1  0.49884282  0.16928534  0.83230618  1
  Ti4+  Ti12  1  0.49922611  0.49925616  0.16508903  1
  Ti4+  Ti13  1  0.50075392  0.50078194  0.49939048  1
  Ti4+  Ti14  1  0.50296877  0.49804752  0.83405242  1
  Ti4+  Ti15  1  0.49858848  0.83692939  0.16763975  1
  Ti4+  Ti16  1  0.50024481  0.82903653  0.49667721  1
  Ti4+  Ti17  1  0.50092321  0.83450295  0.83273202  1
  Ti4+  Ti18  1  0.83054588  0.16652670  0.16837772  1
  Ti4+  Ti19  1  0.83074536  0.16703314  0.50205867  1
  Ti4+  Ti20  1  0.83343313  0.16713491  0.83706875  1
  Ti4+  Ti21  1  0.83277037  0.50250197  0.16738467  1
  Ti4+  Ti22  1  0.83718142  0.50150152  0.49631016  1
  Ti4+  Ti23  1  0.83502067  0.49713012  0.83135622  1
  Ti4+  Ti24  1  0.83229274  0.83501118  0.16903937  1
  Ti4+  Ti25  1  0.83420255  0.83342092  0.50400262  1
  Ti4+  Ti26  1  0.83362202  0.83208359  0.83561188  1
  Cu+  Cu27  1  0.16547689  0.16304568  0.00151575  1
  Cu+  Cu28  1  0.16426622  0.16480437  0.33456677  1
  Cu+  Cu29  1  0.16500650  0.16721514  0.66633147  1
  Cu+  Cu30  1  0.16212422  0.49579985  -0.00005874  1
  Cu+  Cu31  1  0.16771328  0.49713569  0.33174659  1
  Cu+  Cu32  1  0.16991026  0.50272828  0.66770774  1
  Cu+  Cu33  1  0.16571949  0.83274310  -0.00811035  1
  Cu+  Cu34  1  0.16876595  0.82919198  0.32991423  1
  Cu+  Cu35  1  0.16845847  0.83497471  0.66656498  1
  Cu+  Cu36  1  0.50217375  0.17415163  0.00022250  1
  Cu+  Cu37  1  0.50390654  0.16790277  0.33123138  1
  Cu+  Cu38  1  0.50074214  0.16722877  0.66585772  1
  Cu+  Cu39  1  0.49785464  0.49637914  -0.00159280  1
  Cu+  Cu40  1  0.50131850  0.50383921  0.32879314  1
  Cu+  Cu41  1  0.50435883  0.49748782  0.66879168  1
  Cu+  Cu42  1  0.49865945  0.83342037  0.00080786  1
  Cu+  Cu43  1  0.49670009  0.83878018  0.33571491  1
  Cu+  Cu44  1  0.50320269  0.83185431  0.66342268  1
  Cu+  Cu45  1  0.83520890  0.16486149  0.00402844  1
  Cu+  Cu46  1  0.82711722  0.16517206  0.33613584  1
  Cu+  Cu47  1  0.83086657  0.16975674  0.67213906  1
  Cu+  Cu48  1  0.83389311  0.50053467  -0.00061377  1
  Cu+  Cu49  1  0.83606264  0.50412782  0.33160288  1
  Cu+  Cu50  1  0.83695512  0.49683179  0.66146662  1
  Cu+  Cu51  1  0.83401785  0.83472706  0.00448215  1
  Cu+  Cu52  1  0.83462497  0.83429446  0.33878594  1
  Cu+  Cu53  1  0.83488427  0.83084242  0.67012052  1
  Cu+  Cu54  1  0.16695094  -0.00361912  0.16326814  1
  Cu+  Cu55  1  0.16514003  0.00307197  0.49840208  1
  Cu+  Cu56  1  0.16986292  0.00060530  0.83197248  1
  Cu+  Cu57  1  0.16543586  0.32918000  0.16677653  1
  Cu+  Cu58  1  0.17008095  0.33044814  0.50232635  1
  Cu+  Cu59  1  0.16230393  0.33438970  0.83432241  1
  Cu+  Cu60  1  0.16479021  0.65947626  0.16110402  1
  Cu+  Cu61  1  0.17300111  0.66743950  0.49841418  1
  Cu+  Cu62  1  0.16578011  0.66790419  0.83202037  1
  Cu+  Cu63  1  0.49809919  0.00437210  0.16910469  1
  Cu+  Cu64  1  0.50471134  -0.00139468  0.49999774  1
  Cu+  Cu65  1  0.49895991  0.00305594  0.83056514  1
  Cu+  Cu66  1  0.49723661  0.33074136  0.16709479  1
  Cu+  Cu67  1  0.49747460  0.33751404  0.50163365  1
  Cu+  Cu68  1  0.50213393  0.33272296  0.84004264  1
  Cu+  Cu69  1  0.50261697  0.66922171  0.16819001  1
  Cu+  Cu70  1  0.49125298  0.66459116  0.49707384  1
  Cu+  Cu71  1  0.50407431  0.66508923  0.83101474  1
  Cu+  Cu72  1  0.82533658  -0.00023203  0.16803368  1
  Cu+  Cu73  1  0.83373209  -0.00162784  0.50590259  1
  Cu+  Cu74  1  0.83455694  0.00034225  0.83751913  1
  Cu+  Cu75  1  0.83409378  0.33728063  0.16539991  1
  Cu+  Cu76  1  0.83089581  0.33669631  0.49944964  1
  Cu+  Cu77  1  0.82805868  0.33193842  0.83416204  1
  Cu+  Cu78  1  0.83373851  0.67017049  0.16713126  1
  Cu+  Cu79  1  0.83804598  0.66771898  0.49954968  1
  Cu+  Cu80  1  0.83691820  0.66262809  0.83043378  1
  Cu+  Cu81  1  -0.00233644  0.16396604  0.16780485  1
  Cu+  Cu82  1  -0.00240753  0.16478190  0.50122615  1
  Cu+  Cu83  1  -0.00099229  0.16612011  0.83504964  1
  Cu+  Cu84  1  0.00019616  0.50039068  0.16607301  1
  Cu+  Cu85  1  0.00391846  0.50256491  0.49676540  1
  Cu+  Cu86  1  0.00125237  0.49594423  0.83299575  1
  Cu+  Cu87  1  -0.00293195  0.82835961  0.16226925  1
  Cu+  Cu88  1  0.00144100  0.83344327  0.50188590  1
  Cu+  Cu89  1  0.00206015  0.83156499  0.83385428  1
  Cu+  Cu90  1  0.33473213  0.16354093  0.16549014  1
  Cu+  Cu91  1  0.32776732  0.17085426  0.50173461  1
  Cu+  Cu92  1  0.33191194  0.16632044  0.83023624  1
  Cu+  Cu93  1  0.33040183  0.49305016  0.16685302  1
  Cu+  Cu94  1  0.33876232  0.50091785  0.50118007  1
  Cu+  Cu95  1  0.33425555  0.50015364  0.83375301  1
  Cu+  Cu96  1  0.32987952  0.83632569  0.16916138  1
  Cu+  Cu97  1  0.33325103  0.82329348  0.49191939  1
  Cu+  Cu98  1  0.33347160  0.83751616  0.83174732  1
  Cu+  Cu99  1  0.66785709  0.16401097  0.17579272  1
  Cu+  Cu100  1  0.66793016  0.17237267  0.49401415  1
  Cu+  Cu101  1  0.66549588  0.17203567  0.83437077  1
  Cu+  Cu102  1  0.66464468  0.50747211  0.16632582  1
  Cu+  Cu103  1  0.66995483  0.50080038  0.49894351  1
  Cu+  Cu104  1  0.67027273  0.49482211  0.83359680  1
  Cu+  Cu105  1  0.66672111  0.84032479  0.16493357  1
  Cu+  Cu106  1  0.66662497  0.83208429  0.50532429  1
  Cu+  Cu107  1  0.66646419  0.83218602  0.83324047  1
  Cu+  Cu108  1  0.73603961  0.25709269  0.74068199  1
  Cu+  Cu109  1  0.24865760  0.92663562  0.26029930  1
  Cu+  Cu110  1  0.40478018  0.93098186  0.42199829  1
  Cu+  Cu111  1  0.40665114  0.74372870  0.59712789  1
  Cu+  Cu112  1  0.74203019  0.41148428  0.58961243  1
  Cu+  Cu113  1  0.92091373  0.73789422  0.07381985  1
  Cu+  Cu114  1  0.59397384  0.92632961  0.59338793  1
  Cu+  Cu115  1  0.59673329  0.25812859  0.93039375  1
  Cu+  Cu116  1  0.25445629  0.73407568  0.39726041  1
  Cu+  Cu117  1  0.73848887  0.92899912  0.07032197  1
  Cu+  Cu118  1  0.40438239  0.40665278  0.26100354  1
  Cu+  Cu119  1  0.74780339  0.26776202  0.40376193  1
  Cu+  Cu120  1  0.40561006  0.08001604  0.26216775  1
  Cu+  Cu121  1  0.07033948  0.40272619  0.92815864  1
  Cu+  Cu122  1  0.74326276  0.41068676  0.93243006  1
  Cu+  Cu123  1  0.40243468  0.41034984  0.92474544  1
  Cu+  Cu124  1  0.40199928  0.25378795  0.07424917  1
  Cu+  Cu125  1  0.40598708  0.58623407  0.39939509  1
  Cu+  Cu126  1  0.59332063  0.26356869  0.25919715  1
  Cu+  Cu127  1  0.74306235  0.06703067  0.26859583  1
  Cu+  Cu128  1  0.25432896  0.25802292  0.59819025  1
  Cu+  Cu129  1  0.40982794  0.41002304  0.59752914  1
  Cu+  Cu130  1  0.26274327  0.92970778  0.92226466  1
  Cu+  Cu131  1  0.59477308  0.60102289  0.26004885  1
  Cu+  Cu132  1  0.07457054  0.73891682  0.92024887  1
  Te2-  Te133  1  0.25063819  0.25038561  0.08027210  1
  Te2-  Te134  1  0.25093160  0.25201274  0.41036044  1
  Te2-  Te135  1  0.25114215  0.25547434  0.74941704  1
  Te2-  Te136  1  0.25214541  0.57899946  0.07838470  1
  Te2-  Te137  1  0.25551590  0.58326397  0.40965675  1
  Te2-  Te138  1  0.25382749  0.58661108  0.75007962  1
  Te2-  Te139  1  0.25264787  0.91748566  0.07548977  1
  Te2-  Te140  1  0.25356572  0.92381086  0.41219871  1
  Te2-  Te141  1  0.25412651  0.92153750  0.74386009  1
  Te2-  Te142  1  0.59216137  0.25387737  0.08537663  1
  Te2-  Te143  1  0.58469226  0.25967216  0.41344015  1
  Te2-  Te144  1  0.58303851  0.25656281  0.74460706  1
  Te2-  Te145  1  0.58108630  0.58617712  0.07723116  1
  Te2-  Te146  1  0.58813940  0.58804318  0.41462746  1
  Te2-  Te147  1  0.58988613  0.58183698  0.74902064  1
  Te2-  Te148  1  0.58153964  0.92349729  0.08020117  1
  Te2-  Te149  1  0.58964322  0.91666966  0.41444373  1
  Te2-  Te150  1  0.58680437  0.92074862  0.74696431  1
  Te2-  Te151  1  0.91774353  0.25168346  0.08450796  1
  Te2-  Te152  1  0.91602791  0.25107500  0.41520991  1
  Te2-  Te153  1  0.91921402  0.25317007  0.75168794  1
  Te2-  Te154  1  0.91977707  0.58549189  0.07984265  1
  Te2-  Te155  1  0.92250441  0.58797744  0.41234275  1
  Te2-  Te156  1  0.92097184  0.58048054  0.74554309  1
  Te2-  Te157  1  0.91825855  0.92354614  0.08464843  1
  Te2-  Te158  1  0.91968296  0.91973820  0.41898005  1
  Te2-  Te159  1  0.91850892  0.91773782  0.75151305  1
  Te2-  Te160  1  0.25219111  0.07882070  0.25471433  1
  Te2-  Te161  1  0.25113145  0.08060015  0.58559867  1
  Te2-  Te162  1  0.25441399  0.08261035  0.91993853  1
  Te2-  Te163  1  0.25057815  0.40781967  0.25383286  1
  Te2-  Te164  1  0.25663175  0.41377786  0.58954988  1
  Te2-  Te165  1  0.25143231  0.41257307  0.91958666  1
  Te2-  Te166  1  0.25208111  0.74004930  0.24555094  1
  Te2-  Te167  1  0.25404950  0.74668085  0.58927376  1
  Te2-  Te168  1  0.25513825  0.74698779  0.91528413  1
  Te2-  Te169  1  0.58775643  0.07541499  0.25769271  1
  Te2-  Te170  1  0.58805325  0.08494751  0.58401768  1
  Te2-  Te171  1  0.58411801  0.08393676  0.91808519  1
  Te2-  Te172  1  0.58777203  0.41524118  0.25138124  1
  Te2-  Te173  1  0.58838801  0.41402121  0.58485014  1
  Te2-  Te174  1  0.59094901  0.41203984  0.92494623  1
  Te2-  Te175  1  0.58659368  0.75442964  0.25363096  1
  Te2-  Te176  1  0.58379850  0.74013808  0.58231970  1
  Te2-  Te177  1  0.58400489  0.74899378  0.91876507  1
  Te2-  Te178  1  0.91443009  0.08031950  0.25378439  1
  Te2-  Te179  1  0.91519799  0.08418955  0.58994303  1
  Te2-  Te180  1  0.91931523  0.08157186  0.92170402  1
  Te2-  Te181  1  0.91851218  0.41672483  0.25126350  1
  Te2-  Te182  1  0.92412181  0.41410522  0.57981318  1
  Te2-  Te183  1  0.91863204  0.41063856  0.92025237  1
  Te2-  Te184  1  0.91833007  0.74921548  0.25570488  1
  Te2-  Te185  1  0.92130080  0.74788646  0.58746558  1
  Te2-  Te186  1  0.91982226  0.74353331  0.92092347  1
  Te2-  Te187  1  0.07987249  0.24865709  0.25182874  1
  Te2-  Te188  1  0.07842610  0.25217301  0.58488333  1
  Te2-  Te189  1  0.07937317  0.25020154  0.92227653  1
  Te2-  Te190  1  0.08230322  0.58299588  0.25177926  1
  Te2-  Te191  1  0.08626450  0.58639539  0.58290566  1
  Te2-  Te192  1  0.07900357  0.58526667  0.91880423  1
  Te2-  Te193  1  0.08059970  0.91339442  0.24871987  1
  Te2-  Te194  1  0.08456038  0.91862255  0.58397885  1
  Te2-  Te195  1  0.08044865  0.92218329  0.91572761  1
  Te2-  Te196  1  0.41012415  0.25193861  0.25629340  1
  Te2-  Te197  1  0.41340315  0.25403322  0.58787916  1
  Te2-  Te198  1  0.40668033  0.25417921  0.91971435  1
  Te2-  Te199  1  0.40957780  0.58755789  0.24629312  1
  Te2-  Te200  1  0.41557706  0.58468670  0.59243830  1
  Te2-  Te201  1  0.41731742  0.58609747  0.91730447  1
  Te2-  Te202  1  0.40936057  0.92453059  0.25593725  1
  Te2-  Te203  1  0.41169932  0.91582581  0.58080699  1
  Te2-  Te204  1  0.41660698  0.92202353  0.91922710  1
  Te2-  Te205  1  0.74671243  0.26068431  0.25362440  1
  Te2-  Te206  1  0.74300325  0.25545030  0.58839210  1
  Te2-  Te207  1  0.74757816  0.25411720  0.92901839  1
  Te2-  Te208  1  0.74815551  0.59085249  0.25372252  1
  Te2-  Te209  1  0.75159714  0.58667270  0.58378237  1
  Te2-  Te210  1  0.74962388  0.58479112  0.91598842  1
  Te2-  Te211  1  0.74499842  0.91689587  0.26045034  1
  Te2-  Te212  1  0.74798803  0.91862685  0.59224094  1
  Te2-  Te213  1  0.74611881  0.91916372  0.91964018  1
  Te2-  Te214  1  0.07917361  0.07868219  0.08234261  1
  Te2-  Te215  1  0.07754567  0.08058480  0.41383220  1
  Te2-  Te216  1  0.08142525  0.08202002  0.74912024  1
  Te2-  Te217  1  0.07725759  0.40936976  0.08245232  1
  Te2-  Te218  1  0.08563944  0.41324705  0.41671246  1
  Te2-  Te219  1  0.08257342  0.41503179  0.74360817  1
  Te2-  Te220  1  0.08048202  0.74319155  0.07565708  1
  Te2-  Te221  1  0.08284077  0.74788129  0.41494995  1
  Te2-  Te222  1  0.08167859  0.74821234  0.74411539  1
  Te2-  Te223  1  0.41818888  0.08266218  0.07661186  1
  Te2-  Te224  1  0.41265201  0.08389162  0.41598328  1
  Te2-  Te225  1  0.41443826  0.08364643  0.74547955  1
  Te2-  Te226  1  0.41103260  0.40996123  0.07806054  1
  Te2-  Te227  1  0.41439463  0.41398981  0.41079355  1
  Te2-  Te228  1  0.41555041  0.41132794  0.74943460  1
  Te2-  Te229  1  0.41414743  0.75032277  0.08472389  1
  Te2-  Te230  1  0.41239944  0.74107725  0.40131068  1
  Te2-  Te231  1  0.41485605  0.74743967  0.74881695  1
  Te2-  Te232  1  0.74262507  0.08336530  0.07937665  1
  Te2-  Te233  1  0.74515523  0.07537564  0.41979040  1
  Te2-  Te234  1  0.74674861  0.08150959  0.75292204  1
  Te2-  Te235  1  0.74476036  0.41670150  0.08375606  1
  Te2-  Te236  1  0.74694990  0.41869451  0.40757913  1
  Te2-  Te237  1  0.74612447  0.41181379  0.74197803  1
  Te2-  Te238  1  0.74488915  0.74889984  0.08266197  1
  Te2-  Te239  1  0.74853522  0.74831192  0.41824881  1
  Te2-  Te240  1  0.74934856  0.74622531  0.75047691  1
