# generated using pymatgen
data_Ti27(Cu53Te54)2
_symmetry_space_group_name_H-M   'P 1'
_cell_length_a   17.93630085
_cell_length_b   17.92910643
_cell_length_c   17.93230393
_cell_angle_alpha   89.95839957
_cell_angle_beta   89.97792150
_cell_angle_gamma   89.99504816
_symmetry_Int_Tables_number   1
_chemical_formula_structural   Ti27(Cu53Te54)2
_chemical_formula_sum   'Ti27 Cu106 Te108'
_cell_volume   5766.70144661
_cell_formula_units_Z   1
loop_
 _symmetry_equiv_pos_site_id
 _symmetry_equiv_pos_as_xyz
  1  'x, y, z'
loop_
 _atom_type_symbol
 _atom_type_oxidation_number
  Ti4+  4.0
  Cu+  1.0
  Te2-  -2.0
loop_
 _atom_site_type_symbol
 _atom_site_label
 _atom_site_symmetry_multiplicity
 _atom_site_fract_x
 _atom_site_fract_y
 _atom_site_fract_z
 _atom_site_occupancy
  Ti4+  Ti0  1  0.16778951  0.16679611  0.16833859  1
  Ti4+  Ti1  1  0.16256731  0.16887839  0.50124677  1
  Ti4+  Ti2  1  0.16878964  0.16862298  0.83283098  1
  Ti4+  Ti3  1  0.16872641  0.50007482  0.16856231  1
  Ti4+  Ti4  1  0.16879151  0.49967961  0.50222617  1
  Ti4+  Ti5  1  0.16606586  0.49986856  0.83556989  1
  Ti4+  Ti6  1  0.16541298  0.83645916  0.16843141  1
  Ti4+  Ti7  1  0.16583291  0.83694814  0.50431738  1
  Ti4+  Ti8  1  0.16962887  0.83421410  0.83343801  1
  Ti4+  Ti9  1  0.50115627  0.16658659  0.16660220  1
  Ti4+  Ti10  1  0.50118165  0.16404527  0.49772854  1
  Ti4+  Ti11  1  0.50100873  0.16596850  0.83098079  1
  Ti4+  Ti12  1  0.49798519  0.50304959  0.17223291  1
  Ti4+  Ti13  1  0.50018713  0.49938870  0.49953587  1
  Ti4+  Ti14  1  0.49801646  0.50281130  0.83844998  1
  Ti4+  Ti15  1  0.50155771  0.83232861  0.16600120  1
  Ti4+  Ti16  1  0.49885902  0.83325643  0.49794863  1
  Ti4+  Ti17  1  0.50238534  0.83322864  0.83107601  1
  Ti4+  Ti18  1  0.83297325  0.16616952  0.16454241  1
  Ti4+  Ti19  1  0.82854851  0.16637113  0.50211707  1
  Ti4+  Ti20  1  0.83425861  0.16296804  0.83141200  1
  Ti4+  Ti21  1  0.83410457  0.49755411  0.16283665  1
  Ti4+  Ti22  1  0.83497073  0.49709897  0.49682729  1
  Ti4+  Ti23  1  0.83214430  0.49912017  0.83122072  1
  Ti4+  Ti24  1  0.83500623  0.82922247  0.16487287  1
  Ti4+  Ti25  1  0.83372115  0.83067809  0.49471025  1
  Ti4+  Ti26  1  0.83595814  0.83102845  0.83132743  1
  Cu+  Cu27  1  0.16830944  0.16726212  0.00074899  1
  Cu+  Cu28  1  0.16659872  0.16430136  0.33573124  1
  Cu+  Cu29  1  0.16993385  0.17217755  0.66528345  1
  Cu+  Cu30  1  0.16666702  0.50002052  0.00162530  1
  Cu+  Cu31  1  0.17019495  0.50114106  0.33519341  1
  Cu+  Cu32  1  0.16697922  0.49836081  0.66986622  1
  Cu+  Cu33  1  0.16919206  0.83487999  0.00035041  1
  Cu+  Cu34  1  0.16346681  0.83882017  0.33872690  1
  Cu+  Cu35  1  0.16274140  0.83965627  0.67200494  1
  Cu+  Cu36  1  0.50007607  0.16728029  -0.00113359  1
  Cu+  Cu37  1  0.50256568  0.16276591  0.33182068  1
  Cu+  Cu38  1  0.50457621  0.16227005  0.66634784  1
  Cu+  Cu39  1  0.49804468  0.50510090  0.00724419  1
  Cu+  Cu40  1  0.49444338  0.49782642  0.33768019  1
  Cu+  Cu41  1  0.49880577  0.50257863  0.67200145  1
  Cu+  Cu42  1  0.50342567  0.83328560  -0.00259727  1
  Cu+  Cu43  1  0.50035437  0.82774815  0.33119753  1
  Cu+  Cu44  1  0.49539493  0.83509778  0.66604912  1
  Cu+  Cu45  1  0.83543922  0.16323334  -0.00169709  1
  Cu+  Cu46  1  0.82861476  0.16566104  0.33233216  1
  Cu+  Cu47  1  0.82977294  0.17123699  0.66946177  1
  Cu+  Cu48  1  0.83326129  0.50078305  -0.00502164  1
  Cu+  Cu49  1  0.83741459  0.49894496  0.32821431  1
  Cu+  Cu50  1  0.82871571  0.49862095  0.66289446  1
  Cu+  Cu51  1  0.83476945  0.82915099  -0.00055506  1
  Cu+  Cu52  1  0.83662733  0.83338885  0.32692842  1
  Cu+  Cu53  1  0.83575361  0.82991237  0.66118919  1
  Cu+  Cu54  1  0.16639911  0.00252152  0.16846150  1
  Cu+  Cu55  1  0.16218483  0.00306965  0.49533877  1
  Cu+  Cu56  1  0.16939077  0.00403121  0.83352643  1
  Cu+  Cu57  1  0.16971874  0.33156288  0.16842037  1
  Cu+  Cu58  1  0.16601004  0.33628530  0.50844608  1
  Cu+  Cu59  1  0.16679329  0.33406334  0.83452276  1
  Cu+  Cu60  1  0.16654970  0.66970496  0.16768954  1
  Cu+  Cu61  1  0.16966547  0.66948373  0.50569751  1
  Cu+  Cu62  1  0.16955627  0.66757431  0.83595788  1
  Cu+  Cu63  1  0.50288799  -0.00228723  0.16467485  1
  Cu+  Cu64  1  0.50210758  0.00097482  0.49330182  1
  Cu+  Cu65  1  0.50146140  -0.00129198  0.82606223  1
  Cu+  Cu66  1  0.50169443  0.33400348  0.17137300  1
  Cu+  Cu67  1  0.50534693  0.33032554  0.49906420  1
  Cu+  Cu68  1  0.50071912  0.33741274  0.83493088  1
  Cu+  Cu69  1  0.49106317  0.67023884  0.17100572  1
  Cu+  Cu70  1  0.49791296  0.66837945  0.49638048  1
  Cu+  Cu71  1  0.49980887  0.66718142  0.83797768  1
  Cu+  Cu72  1  0.83272704  0.00039079  0.16466894  1
  Cu+  Cu73  1  0.83103051  -0.00304218  0.50126890  1
  Cu+  Cu74  1  0.83578815  -0.00266151  0.83363838  1
  Cu+  Cu75  1  0.83139068  0.33179097  0.16175970  1
  Cu+  Cu76  1  0.82979673  0.33347115  0.50528599  1
  Cu+  Cu77  1  0.83008065  0.33075460  0.83050737  1
  Cu+  Cu78  1  0.83770234  0.66200336  0.16644407  1
  Cu+  Cu79  1  0.83502885  0.66351496  0.49244643  1
  Cu+  Cu80  1  0.83626616  0.66424322  0.83251203  1
  Cu+  Cu81  1  0.00088902  0.16758587  0.16641163  1
  Cu+  Cu82  1  -0.00701051  0.16989098  0.50426600  1
  Cu+  Cu83  1  0.00226118  0.16457894  0.83409077  1
  Cu+  Cu84  1  0.00183567  0.50001785  0.16752059  1
  Cu+  Cu85  1  0.00515200  0.49631690  0.50051541  1
  Cu+  Cu86  1  -0.00341064  0.50252610  0.83460015  1
  Cu+  Cu87  1  -0.00009165  0.83386665  0.16835891  1
  Cu+  Cu88  1  -0.00111883  0.83961808  0.49999963  1
  Cu+  Cu89  1  0.00375828  0.83213519  0.83216529  1
  Cu+  Cu90  1  0.33486948  0.16578297  0.16712743  1
  Cu+  Cu91  1  0.32968789  0.16644584  0.49857004  1
  Cu+  Cu92  1  0.33386551  0.16915318  0.83219264  1
  Cu+  Cu93  1  0.33518431  0.50386684  0.17047997  1
  Cu+  Cu94  1  0.33420971  0.50205823  0.49774434  1
  Cu+  Cu95  1  0.33131781  0.50157491  0.83945787  1
  Cu+  Cu96  1  0.33028911  0.83443294  0.16794859  1
  Cu+  Cu97  1  0.33410826  0.83297772  0.50864732  1
  Cu+  Cu98  1  0.33596542  0.83618893  0.83114903  1
  Cu+  Cu99  1  0.66870776  0.16793925  0.16512241  1
  Cu+  Cu100  1  0.66261245  0.16482657  0.49975767  1
  Cu+  Cu101  1  0.66731454  0.16071609  0.82844319  1
  Cu+  Cu102  1  0.66568778  0.49821253  0.16300666  1
  Cu+  Cu103  1  0.66798167  0.49512013  0.49564506  1
  Cu+  Cu104  1  0.66274008  0.49877659  0.83343955  1
  Cu+  Cu105  1  0.66978789  0.82881219  0.16231028  1
  Cu+  Cu106  1  0.66576177  0.82747145  0.49254555  1
  Cu+  Cu107  1  0.67085219  0.83055460  0.83202157  1
  Cu+  Cu108  1  0.59495659  0.07030468  0.39949397  1
  Cu+  Cu109  1  0.40691210  0.92867338  0.73823178  1
  Cu+  Cu110  1  0.58799706  0.40751367  0.07715901  1
  Cu+  Cu111  1  0.07612887  0.41173654  0.60017958  1
  Cu+  Cu112  1  0.07141531  0.93408466  0.75577542  1
  Cu+  Cu113  1  0.25816917  0.07448234  0.40666237  1
  Cu+  Cu114  1  0.93039976  0.58889551  0.25992301  1
  Cu+  Cu115  1  0.92561262  0.93187069  0.24763881  1
  Cu+  Cu116  1  0.40880615  0.73881356  0.59690295  1
  Cu+  Cu117  1  0.40255211  0.59490838  0.41258523  1
  Cu+  Cu118  1  0.40459066  0.40222745  0.25842275  1
  Cu+  Cu119  1  0.59598942  0.73816407  0.40274070  1
  Cu+  Cu120  1  0.07091220  0.93077857  0.40744357  1
  Cu+  Cu121  1  0.40407545  0.59742130  0.07469350  1
  Cu+  Cu122  1  0.39882400  0.74963095  0.25943182  1
  Cu+  Cu123  1  0.58578544  0.41300117  0.74425031  1
  Cu+  Cu124  1  0.92108630  0.92517925  0.59286656  1
  Cu+  Cu125  1  0.92654924  0.59427305  0.92456054  1
  Cu+  Cu126  1  0.59637234  0.06757882  0.73980108  1
  Cu+  Cu127  1  0.92171879  0.25981714  0.59640020  1
  Cu+  Cu128  1  0.26214797  0.26065298  0.59107537  1
  Cu+  Cu129  1  0.73881299  0.25772197  0.74939464  1
  Cu+  Cu130  1  0.59523505  0.40511204  0.40688715  1
  Cu+  Cu131  1  0.73866270  0.41272358  0.59060221  1
  Cu+  Cu132  1  0.58740147  0.25562483  0.59270297  1
  Te2-  Te133  1  0.25376354  0.25089181  0.08269239  1
  Te2-  Te134  1  0.24779345  0.25579265  0.41675820  1
  Te2-  Te135  1  0.25509920  0.25702409  0.74736635  1
  Te2-  Te136  1  0.25169370  0.58804033  0.08227491  1
  Te2-  Te137  1  0.25053508  0.58996109  0.41565735  1
  Te2-  Te138  1  0.25184672  0.58406083  0.75026063  1
  Te2-  Te139  1  0.25135823  0.92083257  0.08366550  1
  Te2-  Te140  1  0.25588157  0.91962019  0.41805960  1
  Te2-  Te141  1  0.25470645  0.92336224  0.74665328  1
  Te2-  Te142  1  0.58576063  0.25286812  0.08060137  1
  Te2-  Te143  1  0.58844836  0.25110201  0.40935505  1
  Te2-  Te144  1  0.58759188  0.25790140  0.74546050  1
  Te2-  Te145  1  0.58267131  0.59142406  0.08791126  1
  Te2-  Te146  1  0.58743546  0.58460712  0.41306729  1
  Te2-  Te147  1  0.58382735  0.58812924  0.75117628  1
  Te2-  Te148  1  0.58760048  0.91586337  0.08054561  1
  Te2-  Te149  1  0.58581869  0.91708378  0.40899721  1
  Te2-  Te150  1  0.59134601  0.91486085  0.74320102  1
  Te2-  Te151  1  0.91885984  0.25046484  0.07912521  1
  Te2-  Te152  1  0.91149180  0.25177627  0.41568075  1
  Te2-  Te153  1  0.92270246  0.25287438  0.74902334  1
  Te2-  Te154  1  0.92178206  0.58324418  0.07711861  1
  Te2-  Te155  1  0.92425839  0.58139890  0.41354427  1
  Te2-  Te156  1  0.91593589  0.58218278  0.74249533  1
  Te2-  Te157  1  0.91895500  0.91706679  0.07967116  1
  Te2-  Te158  1  0.91781377  0.92328923  0.40860849  1
  Te2-  Te159  1  0.92121571  0.91988124  0.74453870  1
  Te2-  Te160  1  0.25463932  0.07973370  0.25396615  1
  Te2-  Te161  1  0.24844427  0.08037714  0.58428730  1
  Te2-  Te162  1  0.25413130  0.08401838  0.91833681  1
  Te2-  Te163  1  0.25381851  0.41378972  0.25480184  1
  Te2-  Te164  1  0.25941591  0.41672287  0.58891647  1
  Te2-  Te165  1  0.25053552  0.41426173  0.92112915  1
  Te2-  Te166  1  0.24758801  0.75036981  0.25751376  1
  Te2-  Te167  1  0.25014995  0.75083280  0.59339242  1
  Te2-  Te168  1  0.25548593  0.75089934  0.91879363  1
  Te2-  Te169  1  0.58917322  0.07884213  0.24867811  1
  Te2-  Te170  1  0.58752540  0.07470988  0.58506653  1
  Te2-  Te171  1  0.58436755  0.08014701  0.91657886  1
  Te2-  Te172  1  0.58794635  0.41605018  0.25633564  1
  Te2-  Te173  1  0.58612682  0.41298402  0.59066472  1
  Te2-  Te174  1  0.58387844  0.41665721  0.92509059  1
  Te2-  Te175  1  0.58960069  0.74399524  0.24983870  1
  Te2-  Te176  1  0.58329854  0.74836184  0.58458734  1
  Te2-  Te177  1  0.58779858  0.74870207  0.91721110  1
  Te2-  Te178  1  0.91908869  0.08310792  0.25317117  1
  Te2-  Te179  1  0.91401180  0.08041868  0.58860102  1
  Te2-  Te180  1  0.92034368  0.07942541  0.91685096  1
  Te2-  Te181  1  0.91906583  0.41032727  0.24712296  1
  Te2-  Te182  1  0.92157047  0.41337260  0.58871635  1
  Te2-  Te183  1  0.91534681  0.41055741  0.91513943  1
  Te2-  Te184  1  0.92275867  0.74300534  0.25258684  1
  Te2-  Te185  1  0.91983801  0.74469590  0.57824362  1
  Te2-  Te186  1  0.92292820  0.74724041  0.91787572  1
  Te2-  Te187  1  0.08257990  0.25139537  0.25394780  1
  Te2-  Te188  1  0.07531868  0.25502134  0.59102591  1
  Te2-  Te189  1  0.08240451  0.25100893  0.91859264  1
  Te2-  Te190  1  0.08367764  0.58649999  0.25411764  1
  Te2-  Te191  1  0.08266313  0.58517051  0.58683508  1
  Te2-  Te192  1  0.08120383  0.58720160  0.92093224  1
  Te2-  Te193  1  0.07860451  0.92479622  0.25478473  1
  Te2-  Te194  1  0.07843864  0.92580250  0.58964239  1
  Te2-  Te195  1  0.08338205  0.92025590  0.91840889  1
  Te2-  Te196  1  0.41494169  0.24966613  0.25489139  1
  Te2-  Te197  1  0.41625104  0.25007842  0.58545065  1
  Te2-  Te198  1  0.41719985  0.25218366  0.91635549  1
  Te2-  Te199  1  0.40878378  0.59102366  0.26093238  1
  Te2-  Te200  1  0.41467315  0.58515159  0.58761841  1
  Te2-  Te201  1  0.41136811  0.58920996  0.92266234  1
  Te2-  Te202  1  0.41657741  0.91833669  0.25172697  1
  Te2-  Te203  1  0.41590008  0.92586744  0.58278487  1
  Te2-  Te204  1  0.41874230  0.91984099  0.91708114  1
  Te2-  Te205  1  0.74801063  0.25295946  0.25002483  1
  Te2-  Te206  1  0.73913491  0.25466844  0.58933271  1
  Te2-  Te207  1  0.74691154  0.24685676  0.91701648  1
  Te2-  Te208  1  0.74769805  0.58183724  0.24880839  1
  Te2-  Te209  1  0.74783527  0.58510929  0.57832092  1
  Te2-  Te210  1  0.74571842  0.58463540  0.91498274  1
  Te2-  Te211  1  0.74756403  0.91577865  0.24805108  1
  Te2-  Te212  1  0.74452991  0.91146535  0.58088731  1
  Te2-  Te213  1  0.75173234  0.91493626  0.91734203  1
  Te2-  Te214  1  0.08265177  0.08274736  0.08194487  1
  Te2-  Te215  1  0.07176764  0.08590257  0.41508597  1
  Te2-  Te216  1  0.08294122  0.08454842  0.74434043  1
  Te2-  Te217  1  0.08422931  0.41435129  0.08469641  1
  Te2-  Te218  1  0.08636323  0.41346605  0.41400746  1
  Te2-  Te219  1  0.07788595  0.41392543  0.75164350  1
  Te2-  Te220  1  0.08268904  0.75153101  0.08238358  1
  Te2-  Te221  1  0.08232670  0.74935753  0.42050800  1
  Te2-  Te222  1  0.08459626  0.74581524  0.74929462  1
  Te2-  Te223  1  0.41726767  0.08117088  0.08184881  1
  Te2-  Te224  1  0.41197052  0.08099554  0.41187311  1
  Te2-  Te225  1  0.41170294  0.08326272  0.74460220  1
  Te2-  Te226  1  0.41398514  0.41474974  0.08598059  1
  Te2-  Te227  1  0.41187326  0.40774949  0.41808540  1
  Te2-  Te228  1  0.41227315  0.41779116  0.75223088  1
  Te2-  Te229  1  0.41175045  0.75155493  0.07762743  1
  Te2-  Te230  1  0.40587034  0.74894005  0.41285507  1
  Te2-  Te231  1  0.41388499  0.74406532  0.74922145  1
  Te2-  Te232  1  0.74772017  0.08051566  0.07945501  1
  Te2-  Te233  1  0.74625350  0.07852668  0.41478311  1
  Te2-  Te234  1  0.75020293  0.07379060  0.74377749  1
  Te2-  Te235  1  0.74701031  0.41355313  0.07558698  1
  Te2-  Te236  1  0.75130675  0.41093627  0.40825185  1
  Te2-  Te237  1  0.74150360  0.41133248  0.74416076  1
  Te2-  Te238  1  0.75169723  0.74223216  0.08012115  1
  Te2-  Te239  1  0.75038991  0.74420143  0.40656632  1
  Te2-  Te240  1  0.75236701  0.74605869  0.74553814  1
