# generated using pymatgen
data_Ti27(Cu53Te54)2
_symmetry_space_group_name_H-M   'P 1'
_cell_length_a   17.87278556
_cell_length_b   17.87808492
_cell_length_c   17.87651289
_cell_angle_alpha   90.07369068
_cell_angle_beta   90.03091238
_cell_angle_gamma   89.97072051
_symmetry_Int_Tables_number   1
_chemical_formula_structural   Ti27(Cu53Te54)2
_chemical_formula_sum   'Ti27 Cu106 Te108'
_cell_volume   5712.09692120
_cell_formula_units_Z   1
loop_
 _symmetry_equiv_pos_site_id
 _symmetry_equiv_pos_as_xyz
  1  'x, y, z'
loop_
 _atom_type_symbol
 _atom_type_oxidation_number
  Ti4+  4.0
  Cu+  1.0
  Te2-  -2.0
loop_
 _atom_site_type_symbol
 _atom_site_label
 _atom_site_symmetry_multiplicity
 _atom_site_fract_x
 _atom_site_fract_y
 _atom_site_fract_z
 _atom_site_occupancy
  Ti4+  Ti0  1  0.16663046  0.16704353  0.17006524  1
  Ti4+  Ti1  1  0.16650398  0.16885624  0.50107364  1
  Ti4+  Ti2  1  0.16253138  0.16367347  0.83509574  1
  Ti4+  Ti3  1  0.16510302  0.50253758  0.16785632  1
  Ti4+  Ti4  1  0.16847872  0.50036780  0.50026965  1
  Ti4+  Ti5  1  0.16729353  0.49928909  0.83053287  1
  Ti4+  Ti6  1  0.17081514  0.83661000  0.16460069  1
  Ti4+  Ti7  1  0.16669587  0.83381422  0.49931642  1
  Ti4+  Ti8  1  0.16780171  0.83606335  0.83468874  1
  Ti4+  Ti9  1  0.50135755  0.16691238  0.16700874  1
  Ti4+  Ti10  1  0.49884252  0.16836548  0.50027498  1
  Ti4+  Ti11  1  0.50081330  0.16573609  0.83253514  1
  Ti4+  Ti12  1  0.50027699  0.50060717  0.16584084  1
  Ti4+  Ti13  1  0.50004866  0.50224839  0.50135894  1
  Ti4+  Ti14  1  0.49937521  0.49739933  0.83415843  1
  Ti4+  Ti15  1  0.50284365  0.83352118  0.16239116  1
  Ti4+  Ti16  1  0.49806761  0.83608049  0.50054071  1
  Ti4+  Ti17  1  0.49895158  0.83078974  0.83331107  1
  Ti4+  Ti18  1  0.83219194  0.16603069  0.16542709  1
  Ti4+  Ti19  1  0.83220614  0.16522880  0.50030584  1
  Ti4+  Ti20  1  0.83516769  0.16719659  0.83587537  1
  Ti4+  Ti21  1  0.83222360  0.49878878  0.16916203  1
  Ti4+  Ti22  1  0.83513567  0.49984011  0.49923342  1
  Ti4+  Ti23  1  0.83632517  0.49681180  0.83332922  1
  Ti4+  Ti24  1  0.83133352  0.83300038  0.16591126  1
  Ti4+  Ti25  1  0.83186948  0.83181044  0.49737216  1
  Ti4+  Ti26  1  0.83372286  0.83181872  0.83084146  1
  Cu+  Cu27  1  0.16602091  0.16224183  0.00561024  1
  Cu+  Cu28  1  0.17122530  0.16812270  0.33795710  1
  Cu+  Cu29  1  0.15947772  0.16466830  0.66602033  1
  Cu+  Cu30  1  0.16927551  0.49993525  -0.00005641  1
  Cu+  Cu31  1  0.16434455  0.50162285  0.33220937  1
  Cu+  Cu32  1  0.16412060  0.50108975  0.66597014  1
  Cu+  Cu33  1  0.17702146  0.83777430  -0.00038416  1
  Cu+  Cu34  1  0.16826533  0.83298468  0.33005926  1
  Cu+  Cu35  1  0.16582634  0.83674034  0.66862447  1
  Cu+  Cu36  1  0.50347078  0.16452835  -0.00056258  1
  Cu+  Cu37  1  0.49955502  0.16971155  0.33431053  1
  Cu+  Cu38  1  0.49919329  0.16641352  0.66539544  1
  Cu+  Cu39  1  0.49827291  0.49857889  0.00081885  1
  Cu+  Cu40  1  0.50123416  0.50405107  0.33122844  1
  Cu+  Cu41  1  0.49785738  0.49894115  0.66846859  1
  Cu+  Cu42  1  0.50296642  0.82429087  -0.00107823  1
  Cu+  Cu43  1  0.50016777  0.83722240  0.33356251  1
  Cu+  Cu44  1  0.49273468  0.83349537  0.66534743  1
  Cu+  Cu45  1  0.83818708  0.17127234  -0.00074029  1
  Cu+  Cu46  1  0.83017681  0.16356146  0.33303956  1
  Cu+  Cu47  1  0.83219813  0.16799990  0.66907621  1
  Cu+  Cu48  1  0.83139088  0.49711189  0.00281196  1
  Cu+  Cu49  1  0.83212108  0.50241282  0.33718342  1
  Cu+  Cu50  1  0.83816022  0.49788380  0.66572044  1
  Cu+  Cu51  1  0.83318480  0.83460284  -0.00249443  1
  Cu+  Cu52  1  0.82956274  0.83086498  0.33015360  1
  Cu+  Cu53  1  0.83172687  0.82847092  0.66227246  1
  Cu+  Cu54  1  0.16983014  -0.00008663  0.16786983  1
  Cu+  Cu55  1  0.16895669  0.00299396  0.50018703  1
  Cu+  Cu56  1  0.16383757  -0.00207920  0.83724104  1
  Cu+  Cu57  1  0.16424957  0.33335309  0.16961144  1
  Cu+  Cu58  1  0.16587114  0.33661975  0.50652483  1
  Cu+  Cu59  1  0.16263801  0.33157169  0.83400814  1
  Cu+  Cu60  1  0.16630465  0.67341327  0.16732442  1
  Cu+  Cu61  1  0.16941867  0.66489660  0.49465425  1
  Cu+  Cu62  1  0.16775764  0.66542078  0.82782430  1
  Cu+  Cu63  1  0.50647617  0.00227067  0.16087844  1
  Cu+  Cu64  1  0.49906539  0.00224461  0.50041304  1
  Cu+  Cu65  1  0.49899165  -0.00135401  0.83078492  1
  Cu+  Cu66  1  0.50020573  0.33416423  0.16694319  1
  Cu+  Cu67  1  0.49785956  0.33540168  0.50137326  1
  Cu+  Cu68  1  0.50140852  0.32992719  0.83376761  1
  Cu+  Cu69  1  0.50500126  0.66599198  0.16112277  1
  Cu+  Cu70  1  0.49783599  0.67221164  0.50179581  1
  Cu+  Cu71  1  0.49659785  0.66291764  0.83662304  1
  Cu+  Cu72  1  0.82751433  0.00307063  0.16738596  1
  Cu+  Cu73  1  0.83338237  -0.00361906  0.49856361  1
  Cu+  Cu74  1  0.83948113  -0.00381107  0.83479415  1
  Cu+  Cu75  1  0.83301958  0.33186248  0.16813247  1
  Cu+  Cu76  1  0.83519441  0.33169507  0.49888110  1
  Cu+  Cu77  1  0.83111530  0.33290402  0.83826993  1
  Cu+  Cu78  1  0.83189230  0.66614565  0.17000036  1
  Cu+  Cu79  1  0.83080416  0.66410590  0.49677698  1
  Cu+  Cu80  1  0.83558710  0.66636478  0.83143950  1
  Cu+  Cu81  1  -0.00149765  0.16774092  0.16853526  1
  Cu+  Cu82  1  -0.00307640  0.16519416  0.50165420  1
  Cu+  Cu83  1  0.00211750  0.16803358  0.83866578  1
  Cu+  Cu84  1  -0.00222228  0.49786496  0.17178189  1
  Cu+  Cu85  1  0.00278651  0.50119688  0.49952623  1
  Cu+  Cu86  1  0.00490490  0.50028122  0.83261896  1
  Cu+  Cu87  1  0.00374356  0.83479216  0.16328558  1
  Cu+  Cu88  1  -0.00474015  0.83253294  0.49655114  1
  Cu+  Cu89  1  -0.00342797  0.83879116  0.83387177  1
  Cu+  Cu90  1  0.33474643  0.16815779  0.16815810  1
  Cu+  Cu91  1  0.32991995  0.16809913  0.49663425  1
  Cu+  Cu92  1  0.33243504  0.16540270  0.83382265  1
  Cu+  Cu93  1  0.33370157  0.50370912  0.16557678  1
  Cu+  Cu94  1  0.33637190  0.49828898  0.50334791  1
  Cu+  Cu95  1  0.33061025  0.49810047  0.83002925  1
  Cu+  Cu96  1  0.33647150  0.83705477  0.16470852  1
  Cu+  Cu97  1  0.33326514  0.83225562  0.50320590  1
  Cu+  Cu98  1  0.33716633  0.83557413  0.83692876  1
  Cu+  Cu99  1  0.66639803  0.16074500  0.16444167  1
  Cu+  Cu100  1  0.66411685  0.16780783  0.50031412  1
  Cu+  Cu101  1  0.66925778  0.16801185  0.82956434  1
  Cu+  Cu102  1  0.66447049  0.49967080  0.16726671  1
  Cu+  Cu103  1  0.66691876  0.50151457  0.49951827  1
  Cu+  Cu104  1  0.66643886  0.49600443  0.83514680  1
  Cu+  Cu105  1  0.66609969  0.82861945  0.16259527  1
  Cu+  Cu106  1  0.66289606  0.83502378  0.49940133  1
  Cu+  Cu107  1  0.66767390  0.83136593  0.82984693  1
  Cu+  Cu108  1  0.92800701  0.26354973  0.92851746  1
  Cu+  Cu109  1  0.59898821  0.73329867  0.06816970  1
  Cu+  Cu110  1  0.07384199  0.25796906  0.74042839  1
  Cu+  Cu111  1  0.06918697  0.07056322  0.58394308  1
  Cu+  Cu112  1  0.40228630  0.73956571  0.59289924  1
  Cu+  Cu113  1  0.40526539  0.73357411  0.92974766  1
  Cu+  Cu114  1  0.41084042  0.40305935  0.59697746  1
  Cu+  Cu115  1  0.26091573  0.07154318  0.40723698  1
  Cu+  Cu116  1  0.07555810  0.59221840  0.40534641  1
  Cu+  Cu117  1  0.40965581  0.93064140  0.73701501  1
  Cu+  Cu118  1  0.07105366  0.40276126  0.26113374  1
  Cu+  Cu119  1  0.07645480  0.07062998  0.93527606  1
  Cu+  Cu120  1  0.73822445  0.26014424  0.73787983  1
  Cu+  Cu121  1  0.92266231  0.92341182  0.93255405  1
  Cu+  Cu122  1  0.07985259  0.41170265  0.93092095  1
  Cu+  Cu123  1  0.73503008  0.59117372  0.40997376  1
  Cu+  Cu124  1  0.26857388  0.93055032  0.92662677  1
  Cu+  Cu125  1  0.73478580  0.73993479  0.25808887  1
  Cu+  Cu126  1  0.59650181  0.07379056  0.06595548  1
  Cu+  Cu127  1  0.06883167  0.92335018  0.73848002  1
  Cu+  Cu128  1  0.07353081  0.74911348  0.25676582  1
  Cu+  Cu129  1  0.07093859  0.41165600  0.59198930  1
  Cu+  Cu130  1  0.73540621  0.40896738  0.93157727  1
  Cu+  Cu131  1  0.07322848  0.59727576  0.73948256  1
  Cu+  Cu132  1  0.73668672  0.07559486  0.26425436  1
  Te2-  Te133  1  0.25044753  0.25182197  0.08374752  1
  Te2-  Te134  1  0.25018961  0.25976394  0.41756100  1
  Te2-  Te135  1  0.24827850  0.24839987  0.74936764  1
  Te2-  Te136  1  0.24937263  0.58786389  0.08206851  1
  Te2-  Te137  1  0.25679285  0.58202955  0.41358072  1
  Te2-  Te138  1  0.25376441  0.58463201  0.74395653  1
  Te2-  Te139  1  0.25923924  0.92582972  0.08131138  1
  Te2-  Te140  1  0.25342182  0.91749572  0.41411841  1
  Te2-  Te141  1  0.25494992  0.92216155  0.74842115  1
  Te2-  Te142  1  0.58694359  0.25256811  0.08204669  1
  Te2-  Te143  1  0.58417848  0.25494599  0.41612158  1
  Te2-  Te144  1  0.58498228  0.25262962  0.74456535  1
  Te2-  Te145  1  0.58956342  0.58285063  0.07572780  1
  Te2-  Te146  1  0.58286500  0.59040472  0.41523517  1
  Te2-  Te147  1  0.58437160  0.58278576  0.75076599  1
  Te2-  Te148  1  0.58975228  0.91778705  0.07448355  1
  Te2-  Te149  1  0.58392782  0.92174491  0.41485285  1
  Te2-  Te150  1  0.58406179  0.91531269  0.74604064  1
  Te2-  Te151  1  0.92198445  0.25560651  0.08373669  1
  Te2-  Te152  1  0.91725431  0.24846490  0.41286783  1
  Te2-  Te153  1  0.92083294  0.25396831  0.74883653  1
  Te2-  Te154  1  0.91708579  0.58342666  0.08416977  1
  Te2-  Te155  1  0.92209617  0.58734512  0.41301471  1
  Te2-  Te156  1  0.92058236  0.58493417  0.74691544  1
  Te2-  Te157  1  0.91790409  0.92142423  0.08408607  1
  Te2-  Te158  1  0.91598771  0.91710234  0.41003647  1
  Te2-  Te159  1  0.91661134  0.91843120  0.73911890  1
  Te2-  Te160  1  0.25502658  0.08106561  0.25361626  1
  Te2-  Te161  1  0.25267208  0.08425742  0.58882340  1
  Te2-  Te162  1  0.25356497  0.08143626  0.92097281  1
  Te2-  Te163  1  0.25229319  0.41786273  0.25156146  1
  Te2-  Te164  1  0.25448248  0.41528095  0.59001256  1
  Te2-  Te165  1  0.25178615  0.41185942  0.91679030  1
  Te2-  Te166  1  0.25787717  0.75088082  0.25019865  1
  Te2-  Te167  1  0.24804255  0.74666255  0.58744432  1
  Te2-  Te168  1  0.25247569  0.74386145  0.91656193  1
  Te2-  Te169  1  0.58481276  0.07932806  0.25722979  1
  Te2-  Te170  1  0.58466448  0.08193613  0.58541546  1
  Te2-  Te171  1  0.58951126  0.07833282  0.91379314  1
  Te2-  Te172  1  0.58477671  0.41504421  0.25285267  1
  Te2-  Te173  1  0.58679794  0.41651404  0.58562377  1
  Te2-  Te174  1  0.58364421  0.41056469  0.92194144  1
  Te2-  Te175  1  0.58314035  0.74711982  0.25433740  1
  Te2-  Te176  1  0.58424686  0.75127371  0.58767935  1
  Te2-  Te177  1  0.59059972  0.74308174  0.91451814  1
  Te2-  Te178  1  0.91794939  0.08054017  0.25156911  1
  Te2-  Te179  1  0.91572829  0.07832078  0.58834457  1
  Te2-  Te180  1  0.92232004  0.07791637  0.92377516  1
  Te2-  Te181  1  0.91567755  0.41194204  0.25765071  1
  Te2-  Te182  1  0.92033673  0.41177845  0.58446989  1
  Te2-  Te183  1  0.92500790  0.41461525  0.92320394  1
  Te2-  Te184  1  0.92068295  0.74879597  0.25072394  1
  Te2-  Te185  1  0.91738163  0.74487071  0.58145930  1
  Te2-  Te186  1  0.92020861  0.74707152  0.91760369  1
  Te2-  Te187  1  0.07933687  0.25022866  0.25763697  1
  Te2-  Te188  1  0.07430984  0.25562884  0.58667100  1
  Te2-  Te189  1  0.08191792  0.25410506  0.92874302  1
  Te2-  Te190  1  0.07720759  0.59243198  0.25247930  1
  Te2-  Te191  1  0.08112894  0.59077469  0.58540112  1
  Te2-  Te192  1  0.08461402  0.58727648  0.91885150  1
  Te2-  Te193  1  0.08252663  0.92061795  0.25159619  1
  Te2-  Te194  1  0.07736595  0.91925208  0.58345440  1
  Te2-  Te195  1  0.07831951  0.91820225  0.92691489  1
  Te2-  Te196  1  0.41558653  0.25352512  0.25206310  1
  Te2-  Te197  1  0.41036226  0.25146763  0.58680498  1
  Te2-  Te198  1  0.41548252  0.24910199  0.91920810  1
  Te2-  Te199  1  0.41663382  0.58959063  0.24937449  1
  Te2-  Te200  1  0.41298472  0.58855646  0.58836470  1
  Te2-  Te201  1  0.40930635  0.58063893  0.92054145  1
  Te2-  Te202  1  0.42000915  0.92179504  0.24744399  1
  Te2-  Te203  1  0.40975718  0.92560440  0.58489687  1
  Te2-  Te204  1  0.42010756  0.92084335  0.92546509  1
  Te2-  Te205  1  0.74523129  0.25035776  0.25082792  1
  Te2-  Te206  1  0.74690679  0.25357919  0.58483306  1
  Te2-  Te207  1  0.74405568  0.25178064  0.92310114  1
  Te2-  Te208  1  0.74285144  0.58589818  0.25473418  1
  Te2-  Te209  1  0.74988618  0.58332412  0.58769301  1
  Te2-  Te210  1  0.75109175  0.58386922  0.91658553  1
  Te2-  Te211  1  0.74260705  0.91860560  0.25097773  1
  Te2-  Te212  1  0.74748787  0.91677227  0.58402275  1
  Te2-  Te213  1  0.74638434  0.91830924  0.91516607  1
  Te2-  Te214  1  0.07849928  0.07827923  0.08704576  1
  Te2-  Te215  1  0.08029052  0.08259964  0.41444184  1
  Te2-  Te216  1  0.07514233  0.07586712  0.74593456  1
  Te2-  Te217  1  0.07961270  0.41498699  0.08273980  1
  Te2-  Te218  1  0.08104802  0.41190551  0.41398168  1
  Te2-  Te219  1  0.07740388  0.41079416  0.74378230  1
  Te2-  Te220  1  0.08570439  0.75238899  0.07536542  1
  Te2-  Te221  1  0.07968593  0.74805860  0.41254168  1
  Te2-  Te222  1  0.07855859  0.75104842  0.74875317  1
  Te2-  Te223  1  0.41446495  0.08258281  0.08118428  1
  Te2-  Te224  1  0.41407333  0.08125360  0.41285772  1
  Te2-  Te225  1  0.41204640  0.08241342  0.74591042  1
  Te2-  Te226  1  0.41333246  0.41436240  0.08243994  1
  Te2-  Te227  1  0.41641975  0.41808501  0.41249046  1
  Te2-  Te228  1  0.41282606  0.40953588  0.74960953  1
  Te2-  Te229  1  0.41155547  0.74501536  0.08154563  1
  Te2-  Te230  1  0.41377943  0.75094726  0.41205665  1
  Te2-  Te231  1  0.41026075  0.74379063  0.74827716  1
  Te2-  Te232  1  0.74984833  0.08056912  0.07208170  1
  Te2-  Te233  1  0.74440233  0.07866178  0.41724245  1
  Te2-  Te234  1  0.75253755  0.07775206  0.75118447  1
  Te2-  Te235  1  0.74533423  0.41145679  0.08457717  1
  Te2-  Te236  1  0.74792518  0.41300853  0.41583258  1
  Te2-  Te237  1  0.74944220  0.41346690  0.74503157  1
  Te2-  Te238  1  0.75114606  0.74433861  0.07543689  1
  Te2-  Te239  1  0.74095791  0.74583978  0.41214495  1
  Te2-  Te240  1  0.74836182  0.74490139  0.74623153  1
