# generated using pymatgen
data_Ti27(Cu53Te54)2
_symmetry_space_group_name_H-M   'P 1'
_cell_length_a   17.90959536
_cell_length_b   17.90535855
_cell_length_c   17.90251110
_cell_angle_alpha   89.99911287
_cell_angle_beta   90.00746449
_cell_angle_gamma   89.93847509
_symmetry_Int_Tables_number   1
_chemical_formula_structural   Ti27(Cu53Te54)2
_chemical_formula_sum   'Ti27 Cu106 Te108'
_cell_volume   5740.93319777
_cell_formula_units_Z   1
loop_
 _symmetry_equiv_pos_site_id
 _symmetry_equiv_pos_as_xyz
  1  'x, y, z'
loop_
 _atom_type_symbol
 _atom_type_oxidation_number
  Ti4+  4.0
  Cu+  1.0
  Te2-  -2.0
loop_
 _atom_site_type_symbol
 _atom_site_label
 _atom_site_symmetry_multiplicity
 _atom_site_fract_x
 _atom_site_fract_y
 _atom_site_fract_z
 _atom_site_occupancy
  Ti4+  Ti0  1  0.16483239  0.16711071  0.16612569  1
  Ti4+  Ti1  1  0.16979912  0.16719685  0.49911257  1
  Ti4+  Ti2  1  0.16717938  0.16976813  0.83294878  1
  Ti4+  Ti3  1  0.16551254  0.49921806  0.16509684  1
  Ti4+  Ti4  1  0.16935911  0.50012593  0.49952813  1
  Ti4+  Ti5  1  0.16645771  0.50080759  0.83516656  1
  Ti4+  Ti6  1  0.16531150  0.83560337  0.16528298  1
  Ti4+  Ti7  1  0.16637875  0.83689216  0.50269566  1
  Ti4+  Ti8  1  0.16734821  0.83342679  0.82930986  1
  Ti4+  Ti9  1  0.49804971  0.16541525  0.17098449  1
  Ti4+  Ti10  1  0.50063891  0.16781366  0.50236234  1
  Ti4+  Ti11  1  0.49850587  0.16729444  0.83565014  1
  Ti4+  Ti12  1  0.49942913  0.49600030  0.16549595  1
  Ti4+  Ti13  1  0.50231833  0.50069651  0.49932168  1
  Ti4+  Ti14  1  0.49726700  0.50022188  0.83343571  1
  Ti4+  Ti15  1  0.50184095  0.83201084  0.16171579  1
  Ti4+  Ti16  1  0.49947215  0.83419453  0.49990102  1
  Ti4+  Ti17  1  0.50166297  0.82526171  0.83181404  1
  Ti4+  Ti18  1  0.83196052  0.16449776  0.16753265  1
  Ti4+  Ti19  1  0.83481202  0.16670045  0.50069913  1
  Ti4+  Ti20  1  0.83287499  0.16952311  0.82870990  1
  Ti4+  Ti21  1  0.83252809  0.49933193  0.17114442  1
  Ti4+  Ti22  1  0.83856732  0.50277596  0.49780001  1
  Ti4+  Ti23  1  0.83413724  0.49901713  0.83154438  1
  Ti4+  Ti24  1  0.83067378  0.82921236  0.16737526  1
  Ti4+  Ti25  1  0.83139340  0.83195843  0.50270998  1
  Ti4+  Ti26  1  0.83408900  0.83421909  0.83573484  1
  Cu+  Cu27  1  0.16753209  0.17016738  -0.00038514  1
  Cu+  Cu28  1  0.16777400  0.16667810  0.33395156  1
  Cu+  Cu29  1  0.16708795  0.16739277  0.66561387  1
  Cu+  Cu30  1  0.16107467  0.49881055  -0.00160758  1
  Cu+  Cu31  1  0.16877220  0.50032840  0.33380723  1
  Cu+  Cu32  1  0.16761764  0.49769960  0.66544885  1
  Cu+  Cu33  1  0.16322205  0.83490677  -0.00131663  1
  Cu+  Cu34  1  0.16454495  0.83746563  0.33220224  1
  Cu+  Cu35  1  0.17578056  0.83721103  0.66491592  1
  Cu+  Cu36  1  0.49761961  0.16499725  0.00580938  1
  Cu+  Cu37  1  0.49963480  0.16739958  0.33745939  1
  Cu+  Cu38  1  0.49674230  0.16968292  0.67147394  1
  Cu+  Cu39  1  0.49461231  0.49912015  0.00050718  1
  Cu+  Cu40  1  0.50163345  0.49910225  0.33125380  1
  Cu+  Cu41  1  0.50156852  0.50219911  0.66519435  1
  Cu+  Cu42  1  0.50649514  0.82334880  -0.00392257  1
  Cu+  Cu43  1  0.50076950  0.83629311  0.33253006  1
  Cu+  Cu44  1  0.50075870  0.83154134  0.66644455  1
  Cu+  Cu45  1  0.83297544  0.16953582  -0.00387961  1
  Cu+  Cu46  1  0.83794945  0.16615634  0.33317426  1
  Cu+  Cu47  1  0.82963753  0.16572442  0.66352621  1
  Cu+  Cu48  1  0.83184497  0.49555200  0.00471641  1
  Cu+  Cu49  1  0.83720764  0.50975536  0.33513133  1
  Cu+  Cu50  1  0.83407174  0.49990143  0.66313201  1
  Cu+  Cu51  1  0.82525129  0.83021088  0.00122895  1
  Cu+  Cu52  1  0.83156442  0.82773022  0.33698600  1
  Cu+  Cu53  1  0.83912191  0.83515395  0.67044348  1
  Cu+  Cu54  1  0.16384935  0.00101982  0.16365286  1
  Cu+  Cu55  1  0.16786402  0.00328809  0.50668605  1
  Cu+  Cu56  1  0.16815540  0.00175903  0.83129760  1
  Cu+  Cu57  1  0.16444799  0.33431859  0.16548903  1
  Cu+  Cu58  1  0.17151310  0.33388233  0.49809366  1
  Cu+  Cu59  1  0.16889039  0.33358383  0.84029387  1
  Cu+  Cu60  1  0.16774760  0.67015935  0.16585979  1
  Cu+  Cu61  1  0.16549111  0.66430108  0.49905494  1
  Cu+  Cu62  1  0.16485429  0.67011542  0.82922490  1
  Cu+  Cu63  1  0.50569377  0.00173364  0.16721305  1
  Cu+  Cu64  1  0.50066766  0.00209689  0.50125629  1
  Cu+  Cu65  1  0.49868406  -0.00559277  0.83311033  1
  Cu+  Cu66  1  0.49671483  0.32974630  0.16917985  1
  Cu+  Cu67  1  0.50417509  0.33545992  0.50059520  1
  Cu+  Cu68  1  0.49445033  0.33374550  0.83198066  1
  Cu+  Cu69  1  0.50036294  0.66031907  0.15900878  1
  Cu+  Cu70  1  0.49809071  0.67012405  0.49735414  1
  Cu+  Cu71  1  0.49405783  0.66430338  0.83562200  1
  Cu+  Cu72  1  0.82879198  -0.00457709  0.16710892  1
  Cu+  Cu73  1  0.83164444  -0.00211683  0.50632056  1
  Cu+  Cu74  1  0.83093673  0.00776350  0.83433207  1
  Cu+  Cu75  1  0.83338491  0.33028479  0.17369074  1
  Cu+  Cu76  1  0.83630971  0.33695610  0.49942034  1
  Cu+  Cu77  1  0.83378676  0.33289475  0.82707345  1
  Cu+  Cu78  1  0.83593136  0.66157735  0.17258945  1
  Cu+  Cu79  1  0.83604117  0.66774593  0.49119775  1
  Cu+  Cu80  1  0.83725035  0.66535367  0.83348101  1
  Cu+  Cu81  1  -0.00267229  0.16710974  0.16843539  1
  Cu+  Cu82  1  0.00609760  0.16523984  0.49992602  1
  Cu+  Cu83  1  -0.00287660  0.17122449  0.82629494  1
  Cu+  Cu84  1  -0.00042985  0.49972021  0.16908155  1
  Cu+  Cu85  1  0.00688044  0.49936924  0.49933167  1
  Cu+  Cu86  1  0.00084007  0.49815471  0.83599593  1
  Cu+  Cu87  1  -0.00047388  0.83349674  0.16653898  1
  Cu+  Cu88  1  -0.00365775  0.83586999  0.50454017  1
  Cu+  Cu89  1  0.00063839  0.82925276  0.83022259  1
  Cu+  Cu90  1  0.33321986  0.16592914  0.16953232  1
  Cu+  Cu91  1  0.33581552  0.16927920  0.49980778  1
  Cu+  Cu92  1  0.33307592  0.17342132  0.83377553  1
  Cu+  Cu93  1  0.33197465  0.49860894  0.16343669  1
  Cu+  Cu94  1  0.33419879  0.50031545  0.49852785  1
  Cu+  Cu95  1  0.33118601  0.49941723  0.83188288  1
  Cu+  Cu96  1  0.32913361  0.83443629  0.16248577  1
  Cu+  Cu97  1  0.33422208  0.83861012  0.50179034  1
  Cu+  Cu98  1  0.33287749  0.82465705  0.82603743  1
  Cu+  Cu99  1  0.66384172  0.16331217  0.16813414  1
  Cu+  Cu100  1  0.66707596  0.16455571  0.50192982  1
  Cu+  Cu101  1  0.66767730  0.16626886  0.83402096  1
  Cu+  Cu102  1  0.66382897  0.49804210  0.17280576  1
  Cu+  Cu103  1  0.67224745  0.50011439  0.49900552  1
  Cu+  Cu104  1  0.66313974  0.50016241  0.83295945  1
  Cu+  Cu105  1  0.66529354  0.83166623  0.16180497  1
  Cu+  Cu106  1  0.66353782  0.83414915  0.50251717  1
  Cu+  Cu107  1  0.66781571  0.83091926  0.83965066  1
  Cu+  Cu108  1  0.58464146  0.59234492  0.25931914  1
  Cu+  Cu109  1  0.74293591  0.08423407  0.92625311  1
  Cu+  Cu110  1  0.58852075  0.92525531  0.91836700  1
  Cu+  Cu111  1  0.59548709  0.73001176  0.07478368  1
  Cu+  Cu112  1  0.59073454  0.92800730  0.26347558  1
  Cu+  Cu113  1  0.74314700  0.92601434  0.07600336  1
  Cu+  Cu114  1  0.74454089  0.73195059  0.92124446  1
  Cu+  Cu115  1  0.93182427  0.74762899  0.40810209  1
  Cu+  Cu116  1  0.73499873  0.07029292  0.58940313  1
  Cu+  Cu117  1  0.92588050  0.73561038  0.74170353  1
  Cu+  Cu118  1  0.59029807  0.08073935  0.07519433  1
  Cu+  Cu119  1  0.26248841  0.26163254  0.93271204  1
  Cu+  Cu120  1  0.74384135  0.40889026  0.59112907  1
  Cu+  Cu121  1  0.07417652  0.74452703  0.92877716  1
  Cu+  Cu122  1  0.93429457  0.59319209  0.25767413  1
  Cu+  Cu123  1  0.40219589  0.74352781  0.92527057  1
  Cu+  Cu124  1  0.26705122  0.93286774  0.59228467  1
  Cu+  Cu125  1  0.73811178  0.59467076  0.41021143  1
  Cu+  Cu126  1  0.26135122  0.73401925  0.73308537  1
  Cu+  Cu127  1  0.92404673  0.92790445  0.59791172  1
  Cu+  Cu128  1  0.40381311  0.26420239  0.73770367  1
  Cu+  Cu129  1  0.40025039  0.58714690  0.07400785  1
  Cu+  Cu130  1  0.06834792  0.40331177  0.92556557  1
  Cu+  Cu131  1  0.07585509  0.07888095  0.59645337  1
  Cu+  Cu132  1  0.92911366  0.25937299  0.26245156  1
  Te2-  Te133  1  0.25374815  0.25386837  0.08392574  1
  Te2-  Te134  1  0.25480489  0.25188960  0.41277921  1
  Te2-  Te135  1  0.25042649  0.25686570  0.74492742  1
  Te2-  Te136  1  0.24817561  0.58679774  0.07808357  1
  Te2-  Te137  1  0.25368426  0.58649586  0.41351314  1
  Te2-  Te138  1  0.25177504  0.58424726  0.74584000  1
  Te2-  Te139  1  0.24915870  0.92038004  0.07763065  1
  Te2-  Te140  1  0.24988555  0.92156219  0.41577607  1
  Te2-  Te141  1  0.25770297  0.92321170  0.74834306  1
  Te2-  Te142  1  0.58463333  0.25159154  0.08393619  1
  Te2-  Te143  1  0.58749334  0.25120661  0.41703878  1
  Te2-  Te144  1  0.58534857  0.25231557  0.75194266  1
  Te2-  Te145  1  0.59060815  0.57847325  0.07592285  1
  Te2-  Te146  1  0.58637776  0.58979455  0.41272516  1
  Te2-  Te147  1  0.58301441  0.58676382  0.74950181  1
  Te2-  Te148  1  0.58869484  0.92218476  0.07263269  1
  Te2-  Te149  1  0.58675563  0.92194141  0.41612921  1
  Te2-  Te150  1  0.58722239  0.91429958  0.74903198  1
  Te2-  Te151  1  0.91522042  0.25142676  0.08171224  1
  Te2-  Te152  1  0.92258533  0.25203709  0.41665104  1
  Te2-  Te153  1  0.91697665  0.25380600  0.73982276  1
  Te2-  Te154  1  0.91745021  0.58293256  0.08225308  1
  Te2-  Te155  1  0.93135576  0.58950537  0.41277312  1
  Te2-  Te156  1  0.92214694  0.58277638  0.74634451  1
  Te2-  Te157  1  0.91465420  0.91465565  0.08130647  1
  Te2-  Te158  1  0.91485027  0.91862345  0.41507800  1
  Te2-  Te159  1  0.91980344  0.92518395  0.75294089  1
  Te2-  Te160  1  0.24941525  0.08022106  0.25072474  1
  Te2-  Te161  1  0.25908085  0.08445309  0.58895713  1
  Te2-  Te162  1  0.25212317  0.08342831  0.91740991  1
  Te2-  Te163  1  0.25127156  0.41525928  0.24975667  1
  Te2-  Te164  1  0.25492837  0.41442740  0.58486956  1
  Te2-  Te165  1  0.25549758  0.41651704  0.92310895  1
  Te2-  Te166  1  0.25117543  0.75148818  0.25195687  1
  Te2-  Te167  1  0.25438735  0.74520143  0.58210273  1
  Te2-  Te168  1  0.25013137  0.74645542  0.92020260  1
  Te2-  Te169  1  0.58735476  0.08089771  0.25985522  1
  Te2-  Te170  1  0.58343151  0.08136364  0.59102096  1
  Te2-  Te171  1  0.58653104  0.07839031  0.92186134  1
  Te2-  Te172  1  0.58366597  0.40900232  0.25295332  1
  Te2-  Te173  1  0.58888438  0.41635104  0.58609509  1
  Te2-  Te174  1  0.58116857  0.41466532  0.91772754  1
  Te2-  Te175  1  0.58432904  0.74593077  0.25123493  1
  Te2-  Te176  1  0.58419019  0.74671557  0.58488517  1
  Te2-  Te177  1  0.59159800  0.73411188  0.91910926  1
  Te2-  Te178  1  0.91691059  0.07570826  0.25014111  1
  Te2-  Te179  1  0.92276055  0.08092005  0.58885694  1
  Te2-  Te180  1  0.92098362  0.08582801  0.91634754  1
  Te2-  Te181  1  0.92007250  0.41407560  0.25756684  1
  Te2-  Te182  1  0.92372352  0.41657216  0.58380041  1
  Te2-  Te183  1  0.91569767  0.41144840  0.91942222  1
  Te2-  Te184  1  0.92189403  0.74663234  0.25462991  1
  Te2-  Te185  1  0.91907031  0.74331154  0.58750577  1
  Te2-  Te186  1  0.91983252  0.74756223  0.92332456  1
  Te2-  Te187  1  0.08110954  0.25344156  0.25411107  1
  Te2-  Te188  1  0.08434358  0.25502325  0.58388404  1
  Te2-  Te189  1  0.07597450  0.25125075  0.91897375  1
  Te2-  Te190  1  0.08483175  0.58787901  0.25291727  1
  Te2-  Te191  1  0.08309756  0.58484800  0.58686448  1
  Te2-  Te192  1  0.07889819  0.58980493  0.91844974  1
  Te2-  Te193  1  0.07906100  0.92076924  0.25004346  1
  Te2-  Te194  1  0.07833349  0.92166484  0.59227523  1
  Te2-  Te195  1  0.08122541  0.91956347  0.91365639  1
  Te2-  Te196  1  0.41296601  0.25044116  0.25607265  1
  Te2-  Te197  1  0.41484992  0.25668572  0.58558809  1
  Te2-  Te198  1  0.41536164  0.25379066  0.92544054  1
  Te2-  Te199  1  0.41331619  0.58439007  0.25068588  1
  Te2-  Te200  1  0.41599943  0.58617830  0.58265157  1
  Te2-  Te201  1  0.40701513  0.58606058  0.92090619  1
  Te2-  Te202  1  0.41590300  0.91698690  0.24535207  1
  Te2-  Te203  1  0.41774935  0.92171172  0.58900750  1
  Te2-  Te204  1  0.41388962  0.90975320  0.91749830  1
  Te2-  Te205  1  0.74513524  0.24719374  0.25441102  1
  Te2-  Te206  1  0.74778861  0.25553521  0.58377890  1
  Te2-  Te207  1  0.74753687  0.25592793  0.91594272  1
  Te2-  Te208  1  0.74191047  0.58872915  0.25589166  1
  Te2-  Te209  1  0.75213905  0.58997518  0.58317562  1
  Te2-  Te210  1  0.74845517  0.58082544  0.91981778  1
  Te2-  Te211  1  0.74537753  0.91485506  0.25562411  1
  Te2-  Te212  1  0.74396514  0.91616547  0.59151407  1
  Te2-  Te213  1  0.74525842  0.92564737  0.92153096  1
  Te2-  Te214  1  0.07963140  0.08461821  0.07989089  1
  Te2-  Te215  1  0.08455569  0.07958874  0.41397738  1
  Te2-  Te216  1  0.08078126  0.08233412  0.74827493  1
  Te2-  Te217  1  0.07667657  0.41324761  0.08109093  1
  Te2-  Te218  1  0.08487716  0.41355887  0.41342320  1
  Te2-  Te219  1  0.08355048  0.41356359  0.74978019  1
  Te2-  Te220  1  0.07814739  0.74683283  0.08080532  1
  Te2-  Te221  1  0.08260718  0.75104589  0.41613601  1
  Te2-  Te222  1  0.08181601  0.74871598  0.73810368  1
  Te2-  Te223  1  0.41228773  0.07878335  0.08451933  1
  Te2-  Te224  1  0.41536581  0.08189607  0.41705787  1
  Te2-  Te225  1  0.41389395  0.07994016  0.75244212  1
  Te2-  Te226  1  0.41320192  0.40958761  0.08089073  1
  Te2-  Te227  1  0.41784871  0.41556703  0.41447829  1
  Te2-  Te228  1  0.41221367  0.41692855  0.74419732  1
  Te2-  Te229  1  0.40957420  0.74560566  0.07855568  1
  Te2-  Te230  1  0.41308464  0.75257174  0.41300577  1
  Te2-  Te231  1  0.41572220  0.74111271  0.74074659  1
  Te2-  Te232  1  0.74399908  0.07842139  0.07764835  1
  Te2-  Te233  1  0.75083620  0.08070733  0.41535751  1
  Te2-  Te234  1  0.74387922  0.08053466  0.74365604  1
  Te2-  Te235  1  0.74739858  0.41189565  0.08844018  1
  Te2-  Te236  1  0.75337557  0.41670988  0.41045422  1
  Te2-  Te237  1  0.74606690  0.41608502  0.74626725  1
  Te2-  Te238  1  0.74746707  0.73633065  0.08195105  1
  Te2-  Te239  1  0.74061319  0.74837545  0.41525817  1
  Te2-  Te240  1  0.74949866  0.74912277  0.74918428  1
