# generated using pymatgen
data_Ti27(Cu53Te54)2
_symmetry_space_group_name_H-M   'P 1'
_cell_length_a   17.92138717
_cell_length_b   17.91485413
_cell_length_c   17.92681446
_cell_angle_alpha   89.99789999
_cell_angle_beta   90.03759324
_cell_angle_gamma   90.08565028
_symmetry_Int_Tables_number   1
_chemical_formula_structural   Ti27(Cu53Te54)2
_chemical_formula_sum   'Ti27 Cu106 Te108'
_cell_volume   5755.55811186
_cell_formula_units_Z   1
loop_
 _symmetry_equiv_pos_site_id
 _symmetry_equiv_pos_as_xyz
  1  'x, y, z'
loop_
 _atom_type_symbol
 _atom_type_oxidation_number
  Ti4+  4.0
  Cu+  1.0
  Te2-  -2.0
loop_
 _atom_site_type_symbol
 _atom_site_label
 _atom_site_symmetry_multiplicity
 _atom_site_fract_x
 _atom_site_fract_y
 _atom_site_fract_z
 _atom_site_occupancy
  Ti4+  Ti0  1  0.16621387  0.16702595  0.16936519  1
  Ti4+  Ti1  1  0.16818849  0.16970170  0.50111546  1
  Ti4+  Ti2  1  0.16651679  0.16518486  0.83279004  1
  Ti4+  Ti3  1  0.16538117  0.49844356  0.16393989  1
  Ti4+  Ti4  1  0.16576772  0.50064388  0.49843817  1
  Ti4+  Ti5  1  0.16436414  0.50077102  0.83103870  1
  Ti4+  Ti6  1  0.16343332  0.83418027  0.17111689  1
  Ti4+  Ti7  1  0.16972932  0.83408864  0.50272663  1
  Ti4+  Ti8  1  0.17088389  0.83302773  0.83749505  1
  Ti4+  Ti9  1  0.50500845  0.16754795  0.16544243  1
  Ti4+  Ti10  1  0.49998044  0.16465458  0.49454000  1
  Ti4+  Ti11  1  0.49957854  0.16615392  0.83252193  1
  Ti4+  Ti12  1  0.50138738  0.50144818  0.16623010  1
  Ti4+  Ti13  1  0.50012536  0.49814543  0.49752870  1
  Ti4+  Ti14  1  0.49679494  0.50150757  0.83472263  1
  Ti4+  Ti15  1  0.50102123  0.83447072  0.16920561  1
  Ti4+  Ti16  1  0.50266746  0.83585102  0.50149487  1
  Ti4+  Ti17  1  0.49857223  0.83339615  0.83345677  1
  Ti4+  Ti18  1  0.83716486  0.16855166  0.16645497  1
  Ti4+  Ti19  1  0.83333175  0.16916110  0.50256929  1
  Ti4+  Ti20  1  0.83383336  0.16114131  0.83485894  1
  Ti4+  Ti21  1  0.83209626  0.50420503  0.16695470  1
  Ti4+  Ti22  1  0.83162702  0.49634805  0.49890141  1
  Ti4+  Ti23  1  0.82861287  0.49891493  0.83159945  1
  Ti4+  Ti24  1  0.83255792  0.83315633  0.16643383  1
  Ti4+  Ti25  1  0.83354201  0.83297314  0.50173095  1
  Ti4+  Ti26  1  0.83630653  0.83440476  0.83141966  1
  Cu+  Cu27  1  0.16698119  0.16663458  -0.00096499  1
  Cu+  Cu28  1  0.16273900  0.16680658  0.33707212  1
  Cu+  Cu29  1  0.16912582  0.16753729  0.66821915  1
  Cu+  Cu30  1  0.16542080  0.50290413  -0.00514844  1
  Cu+  Cu31  1  0.16937354  0.49758202  0.33036385  1
  Cu+  Cu32  1  0.16203884  0.49891403  0.66344716  1
  Cu+  Cu33  1  0.17022689  0.82890158  0.01041832  1
  Cu+  Cu34  1  0.16406194  0.83394234  0.33429670  1
  Cu+  Cu35  1  0.17448152  0.83608877  0.66832954  1
  Cu+  Cu36  1  0.50265803  0.16671039  -0.00081792  1
  Cu+  Cu37  1  0.49843252  0.16089869  0.32562814  1
  Cu+  Cu38  1  0.49900202  0.16718532  0.66234009  1
  Cu+  Cu39  1  0.49730828  0.50163301  0.00015931  1
  Cu+  Cu40  1  0.50498402  0.50089413  0.33140634  1
  Cu+  Cu41  1  0.49817098  0.49924073  0.66877078  1
  Cu+  Cu42  1  0.49673896  0.83262617  -0.00084014  1
  Cu+  Cu43  1  0.50535638  0.83909088  0.33407840  1
  Cu+  Cu44  1  0.50086414  0.83267601  0.66834838  1
  Cu+  Cu45  1  0.83668846  0.16502156  0.00088110  1
  Cu+  Cu46  1  0.83732922  0.17327199  0.33255492  1
  Cu+  Cu47  1  0.82967126  0.16124351  0.66894611  1
  Cu+  Cu48  1  0.82938391  0.50321717  -0.00077301  1
  Cu+  Cu49  1  0.83404838  0.50143404  0.33367764  1
  Cu+  Cu50  1  0.82903718  0.49625243  0.66488208  1
  Cu+  Cu51  1  0.83702217  0.83464162  -0.00272046  1
  Cu+  Cu52  1  0.83341363  0.83153421  0.33624888  1
  Cu+  Cu53  1  0.83495357  0.83234744  0.66577755  1
  Cu+  Cu54  1  0.16133096  0.00171880  0.17585890  1
  Cu+  Cu55  1  0.17476222  -0.00098284  0.50677053  1
  Cu+  Cu56  1  0.16236265  -0.00228269  0.83449361  1
  Cu+  Cu57  1  0.16281316  0.32980967  0.16146506  1
  Cu+  Cu58  1  0.16409449  0.33843482  0.49861814  1
  Cu+  Cu59  1  0.16403421  0.33252255  0.83111047  1
  Cu+  Cu60  1  0.16605285  0.66686803  0.16663132  1
  Cu+  Cu61  1  0.16686117  0.66650465  0.49965026  1
  Cu+  Cu62  1  0.17275883  0.66590216  0.83611746  1
  Cu+  Cu63  1  0.50669539  -0.00039039  0.17043439  1
  Cu+  Cu64  1  0.49679356  -0.00274118  0.49323321  1
  Cu+  Cu65  1  0.49687145  -0.00020723  0.83222955  1
  Cu+  Cu66  1  0.50417338  0.33304986  0.16273326  1
  Cu+  Cu67  1  0.50164025  0.33161305  0.49228248  1
  Cu+  Cu68  1  0.49813454  0.33367307  0.83484040  1
  Cu+  Cu69  1  0.50121646  0.66605436  0.17249575  1
  Cu+  Cu70  1  0.49880008  0.66886717  0.50195398  1
  Cu+  Cu71  1  0.49775933  0.66807402  0.83475666  1
  Cu+  Cu72  1  0.83518354  0.00147210  0.16760977  1
  Cu+  Cu73  1  0.83265555  0.00129679  0.50419237  1
  Cu+  Cu74  1  0.84365032  -0.00226974  0.83346941  1
  Cu+  Cu75  1  0.83870208  0.34097534  0.16283875  1
  Cu+  Cu76  1  0.82548554  0.33334400  0.50183039  1
  Cu+  Cu77  1  0.82978495  0.32737800  0.83458831  1
  Cu+  Cu78  1  0.82801763  0.66785210  0.16267681  1
  Cu+  Cu79  1  0.83302961  0.66453100  0.50190942  1
  Cu+  Cu80  1  0.83212207  0.66742163  0.83092525  1
  Cu+  Cu81  1  0.00297367  0.16764189  0.16881189  1
  Cu+  Cu82  1  0.00404525  0.17348072  0.49921191  1
  Cu+  Cu83  1  -0.00051518  0.15983779  0.83170492  1
  Cu+  Cu84  1  -0.00127568  0.49903262  0.16247694  1
  Cu+  Cu85  1  -0.00086908  0.49729232  0.50357060  1
  Cu+  Cu86  1  -0.00387195  0.50107298  0.83033478  1
  Cu+  Cu87  1  -0.00261019  0.83294858  0.17027804  1
  Cu+  Cu88  1  -0.00181539  0.83339273  0.50176636  1
  Cu+  Cu89  1  0.00344191  0.83862973  0.83654768  1
  Cu+  Cu90  1  0.33693077  0.16803979  0.16757034  1
  Cu+  Cu91  1  0.33237266  0.16428794  0.49264899  1
  Cu+  Cu92  1  0.33338101  0.16528044  0.83318638  1
  Cu+  Cu93  1  0.33602497  0.49845319  0.16547036  1
  Cu+  Cu94  1  0.33221503  0.49875604  0.49485006  1
  Cu+  Cu95  1  0.33083380  0.50387298  0.83557109  1
  Cu+  Cu96  1  0.32992842  0.83257972  0.16865894  1
  Cu+  Cu97  1  0.33455116  0.83920468  0.50621146  1
  Cu+  Cu98  1  0.33400675  0.82762728  0.83363602  1
  Cu+  Cu99  1  0.67166001  0.16985163  0.16397653  1
  Cu+  Cu100  1  0.66899466  0.16600911  0.49952037  1
  Cu+  Cu101  1  0.66651311  0.16454305  0.83240908  1
  Cu+  Cu102  1  0.66688871  0.51115301  0.16772536  1
  Cu+  Cu103  1  0.66352747  0.49335664  0.49546413  1
  Cu+  Cu104  1  0.65982942  0.49779350  0.83123847  1
  Cu+  Cu105  1  0.66617234  0.83642114  0.16793261  1
  Cu+  Cu106  1  0.66846708  0.83183221  0.50227316  1
  Cu+  Cu107  1  0.66666452  0.83373670  0.83300897  1
  Cu+  Cu108  1  0.92381509  0.41635664  0.06747728  1
  Cu+  Cu109  1  0.92832907  0.07442741  0.73612879  1
  Cu+  Cu110  1  0.07024247  0.07265075  0.26543538  1
  Cu+  Cu111  1  0.40643297  0.07028799  0.24492924  1
  Cu+  Cu112  1  0.25953865  0.41038580  0.40203928  1
  Cu+  Cu113  1  0.58148080  0.40478489  0.74239805  1
  Cu+  Cu114  1  0.73902815  0.25268313  0.40175762  1
  Cu+  Cu115  1  0.07186561  0.40800504  0.59551229  1
  Cu+  Cu116  1  0.26149308  0.58989815  0.92771493  1
  Cu+  Cu117  1  0.26144637  0.73737720  0.73944595  1
  Cu+  Cu118  1  0.59084244  0.40509141  0.39988857  1
  Cu+  Cu119  1  0.26677617  0.93297899  0.60009465  1
  Cu+  Cu120  1  0.59940018  0.92981473  0.26215918  1
  Cu+  Cu121  1  0.25007460  0.07181892  0.40636674  1
  Cu+  Cu122  1  0.73345583  0.41325451  0.59312257  1
  Cu+  Cu123  1  0.93167953  0.92478777  0.93286872  1
  Cu+  Cu124  1  0.07817208  0.91976388  0.73936917  1
  Cu+  Cu125  1  0.59513434  0.59543396  0.26418369  1
  Cu+  Cu126  1  0.73957835  0.25331877  0.74621258  1
  Cu+  Cu127  1  0.07448214  0.26561269  0.40827712  1
  Cu+  Cu128  1  0.73693258  0.06946526  0.59197791  1
  Cu+  Cu129  1  0.26269462  0.73723479  0.08562222  1
  Cu+  Cu130  1  0.40360664  0.91312487  0.40349536  1
  Cu+  Cu131  1  0.07399488  0.25089402  0.06750500  1
  Cu+  Cu132  1  0.73702203  0.59646572  0.06797002  1
  Te2-  Te133  1  0.25390089  0.24932875  0.08225889  1
  Te2-  Te134  1  0.25296240  0.25619239  0.41229179  1
  Te2-  Te135  1  0.25235617  0.25192508  0.75019764  1
  Te2-  Te136  1  0.25438820  0.58494667  0.08060997  1
  Te2-  Te137  1  0.25107076  0.58681484  0.41223922  1
  Te2-  Te138  1  0.25147357  0.58387064  0.74176944  1
  Te2-  Te139  1  0.24871219  0.92382384  0.08883513  1
  Te2-  Te140  1  0.25344428  0.91961020  0.40984341  1
  Te2-  Te141  1  0.25774602  0.92298387  0.75310169  1
  Te2-  Te142  1  0.58900839  0.25202418  0.07833761  1
  Te2-  Te143  1  0.58705902  0.24922444  0.40636592  1
  Te2-  Te144  1  0.58557827  0.25262081  0.74350892  1
  Te2-  Te145  1  0.58307780  0.59089773  0.07722183  1
  Te2-  Te146  1  0.58654434  0.58948977  0.41705216  1
  Te2-  Te147  1  0.58212866  0.58781733  0.74830634  1
  Te2-  Te148  1  0.58368173  0.91725733  0.07960929  1
  Te2-  Te149  1  0.59353011  0.92169798  0.41640356  1
  Te2-  Te150  1  0.58437108  0.91888854  0.74926415  1
  Te2-  Te151  1  0.92224010  0.25515637  0.07790620  1
  Te2-  Te152  1  0.91953902  0.25814116  0.41674936  1
  Te2-  Te153  1  0.91837357  0.24900189  0.74876097  1
  Te2-  Te154  1  0.91849553  0.58859027  0.07929648  1
  Te2-  Te155  1  0.91876850  0.58324355  0.41793191  1
  Te2-  Te156  1  0.91265299  0.58284823  0.74531353  1
  Te2-  Te157  1  0.92066287  0.91987782  0.08376837  1
  Te2-  Te158  1  0.91724112  0.92000746  0.41706308  1
  Te2-  Te159  1  0.92460798  0.91946243  0.74006163  1
  Te2-  Te160  1  0.25472735  0.08026718  0.25550624  1
  Te2-  Te161  1  0.25784765  0.08567295  0.58962041  1
  Te2-  Te162  1  0.25033228  0.08016390  0.91819447  1
  Te2-  Te163  1  0.25207434  0.41102257  0.24619016  1
  Te2-  Te164  1  0.25273914  0.41575813  0.58504052  1
  Te2-  Te165  1  0.24919532  0.41373888  0.91624433  1
  Te2-  Te166  1  0.24986226  0.74721971  0.25568384  1
  Te2-  Te167  1  0.25568840  0.74494768  0.58511863  1
  Te2-  Te168  1  0.25657130  0.74599047  0.92720382  1
  Te2-  Te169  1  0.59553684  0.08292495  0.25230781  1
  Te2-  Te170  1  0.58343217  0.07951743  0.58172607  1
  Te2-  Te171  1  0.58440925  0.08021277  0.91658038  1
  Te2-  Te172  1  0.59069110  0.41351530  0.24788779  1
  Te2-  Te173  1  0.58221402  0.40848070  0.58749858  1
  Te2-  Te174  1  0.58226211  0.41543562  0.92130301  1
  Te2-  Te175  1  0.58810409  0.74899296  0.25538041  1
  Te2-  Te176  1  0.58517729  0.74820413  0.58653978  1
  Te2-  Te177  1  0.58450713  0.74918611  0.91872509  1
  Te2-  Te178  1  0.91938914  0.08230809  0.25532122  1
  Te2-  Te179  1  0.92424720  0.08363323  0.58375232  1
  Te2-  Te180  1  0.92353626  0.07885896  0.92470635  1
  Te2-  Te181  1  0.91951594  0.41890742  0.25316306  1
  Te2-  Te182  1  0.91746344  0.40996746  0.58747363  1
  Te2-  Te183  1  0.91525364  0.41398065  0.91564324  1
  Te2-  Te184  1  0.91477331  0.74611837  0.25150002  1
  Te2-  Te185  1  0.91872603  0.74625133  0.58605068  1
  Te2-  Te186  1  0.92078646  0.74684698  0.91554871  1
  Te2-  Te187  1  0.07996419  0.25584074  0.25577671  1
  Te2-  Te188  1  0.08272047  0.25403632  0.59036035  1
  Te2-  Te189  1  0.07787350  0.25070327  0.91521614  1
  Te2-  Te190  1  0.08182114  0.58244713  0.24976261  1
  Te2-  Te191  1  0.07997705  0.58742933  0.58374448  1
  Te2-  Te192  1  0.07759710  0.58684646  0.91483622  1
  Te2-  Te193  1  0.07483577  0.91853772  0.25875962  1
  Te2-  Te194  1  0.08161880  0.91920257  0.58619256  1
  Te2-  Te195  1  0.08638116  0.91712345  0.92845538  1
  Te2-  Te196  1  0.41905121  0.25524635  0.24996831  1
  Te2-  Te197  1  0.41531542  0.25052724  0.57717115  1
  Te2-  Te198  1  0.41512391  0.25003364  0.91873250  1
  Te2-  Te199  1  0.41371016  0.58342204  0.25347473  1
  Te2-  Te200  1  0.41457936  0.58191825  0.58222701  1
  Te2-  Te201  1  0.41325988  0.58932068  0.92190056  1
  Te2-  Te202  1  0.40928484  0.91993639  0.25295491  1
  Te2-  Te203  1  0.41856084  0.92339015  0.59107919  1
  Te2-  Te204  1  0.41199471  0.91788251  0.91812522  1
  Te2-  Te205  1  0.75167822  0.25800445  0.24769637  1
  Te2-  Te206  1  0.74271694  0.25327074  0.59126581  1
  Te2-  Te207  1  0.74758900  0.24646220  0.92145754  1
  Te2-  Te208  1  0.74906161  0.59122681  0.25848704  1
  Te2-  Te209  1  0.74393170  0.58138291  0.58256907  1
  Te2-  Te210  1  0.74343194  0.58662945  0.91431666  1
  Te2-  Te211  1  0.75082405  0.92008559  0.25440833  1
  Te2-  Te212  1  0.74648536  0.91824916  0.58923833  1
  Te2-  Te213  1  0.75045939  0.91981807  0.91587970  1
  Te2-  Te214  1  0.08214512  0.08102401  0.08228671  1
  Te2-  Te215  1  0.08077426  0.07649338  0.42080630  1
  Te2-  Te216  1  0.08176241  0.07750053  0.74251152  1
  Te2-  Te217  1  0.07992764  0.41368464  0.07400395  1
  Te2-  Te218  1  0.07636647  0.41730281  0.40945032  1
  Te2-  Te219  1  0.07690375  0.41314634  0.74765346  1
  Te2-  Te220  1  0.07710553  0.74786062  0.08579934  1
  Te2-  Te221  1  0.08216239  0.75039507  0.41836714  1
  Te2-  Te222  1  0.08529612  0.74941109  0.75115132  1
  Te2-  Te223  1  0.41870218  0.07996855  0.08220745  1
  Te2-  Te224  1  0.41164774  0.07705353  0.40716585  1
  Te2-  Te225  1  0.41484682  0.08294488  0.74591750  1
  Te2-  Te226  1  0.41672078  0.41424494  0.08128307  1
  Te2-  Te227  1  0.41488271  0.41378377  0.40859109  1
  Te2-  Te228  1  0.40975962  0.41548821  0.75045316  1
  Te2-  Te229  1  0.41577054  0.74708016  0.08504846  1
  Te2-  Te230  1  0.41545896  0.75231358  0.41571182  1
  Te2-  Te231  1  0.41432831  0.74480576  0.74500858  1
  Te2-  Te232  1  0.75202298  0.08235357  0.08268107  1
  Te2-  Te233  1  0.75230688  0.08347565  0.41260153  1
  Te2-  Te234  1  0.74562122  0.07225977  0.75026022  1
  Te2-  Te235  1  0.74375139  0.41845150  0.08293351  1
  Te2-  Te236  1  0.74593325  0.41044931  0.40633238  1
  Te2-  Te237  1  0.74115680  0.40889050  0.74641538  1
  Te2-  Te238  1  0.74518136  0.75243346  0.07681032  1
  Te2-  Te239  1  0.74852649  0.74652636  0.41743741  1
  Te2-  Te240  1  0.74840812  0.75031867  0.74751138  1
