# generated using pymatgen
data_Ti27(Cu53Te54)2
_symmetry_space_group_name_H-M   'P 1'
_cell_length_a   17.90430266
_cell_length_b   17.90526238
_cell_length_c   17.90521985
_cell_angle_alpha   90.03971088
_cell_angle_beta   89.98868655
_cell_angle_gamma   90.07742026
_symmetry_Int_Tables_number   1
_chemical_formula_structural   Ti27(Cu53Te54)2
_chemical_formula_sum   'Ti27 Cu106 Te108'
_cell_volume   5740.07079912
_cell_formula_units_Z   1
loop_
 _symmetry_equiv_pos_site_id
 _symmetry_equiv_pos_as_xyz
  1  'x, y, z'
loop_
 _atom_type_symbol
 _atom_type_oxidation_number
  Ti4+  4.0
  Cu+  1.0
  Te2-  -2.0
loop_
 _atom_site_type_symbol
 _atom_site_label
 _atom_site_symmetry_multiplicity
 _atom_site_fract_x
 _atom_site_fract_y
 _atom_site_fract_z
 _atom_site_occupancy
  Ti4+  Ti0  1  0.16719703  0.16475690  0.17007252  1
  Ti4+  Ti1  1  0.16573311  0.16358479  0.50046324  1
  Ti4+  Ti2  1  0.16777204  0.16177477  0.83510679  1
  Ti4+  Ti3  1  0.16567707  0.49881990  0.16753014  1
  Ti4+  Ti4  1  0.16649201  0.49848792  0.50257448  1
  Ti4+  Ti5  1  0.16614240  0.50045134  0.83511933  1
  Ti4+  Ti6  1  0.16749573  0.82926722  0.17017375  1
  Ti4+  Ti7  1  0.16387884  0.82793655  0.50374240  1
  Ti4+  Ti8  1  0.16688637  0.83554655  0.83636739  1
  Ti4+  Ti9  1  0.50085410  0.17147056  0.16707708  1
  Ti4+  Ti10  1  0.49872467  0.16786247  0.49894121  1
  Ti4+  Ti11  1  0.49885775  0.16604227  0.83193826  1
  Ti4+  Ti12  1  0.50161565  0.50286185  0.16351041  1
  Ti4+  Ti13  1  0.50061113  0.49912874  0.49832803  1
  Ti4+  Ti14  1  0.49839609  0.50035203  0.82948329  1
  Ti4+  Ti15  1  0.49911982  0.83831104  0.16898955  1
  Ti4+  Ti16  1  0.49848056  0.83248306  0.49790717  1
  Ti4+  Ti17  1  0.50103461  0.83324446  0.83516822  1
  Ti4+  Ti18  1  0.83607985  0.16787168  0.16409500  1
  Ti4+  Ti19  1  0.83695077  0.16922590  0.50026253  1
  Ti4+  Ti20  1  0.83034838  0.16576477  0.83281404  1
  Ti4+  Ti21  1  0.83550962  0.50056392  0.16558649  1
  Ti4+  Ti22  1  0.83482687  0.49958045  0.50045973  1
  Ti4+  Ti23  1  0.83422740  0.50192481  0.83394242  1
  Ti4+  Ti24  1  0.83558479  0.83480902  0.16569519  1
  Ti4+  Ti25  1  0.83123217  0.83883958  0.49918255  1
  Ti4+  Ti26  1  0.83111061  0.83079088  0.82738359  1
  Cu+  Cu27  1  0.16660442  0.16314481  0.00276404  1
  Cu+  Cu28  1  0.16514422  0.16753118  0.33642032  1
  Cu+  Cu29  1  0.16801076  0.15886817  0.66803448  1
  Cu+  Cu30  1  0.16630790  0.50231128  0.00049938  1
  Cu+  Cu31  1  0.16807554  0.49661178  0.33369164  1
  Cu+  Cu32  1  0.16476459  0.50109672  0.67104617  1
  Cu+  Cu33  1  0.16975675  0.83885670  0.00108167  1
  Cu+  Cu34  1  0.16318230  0.82156113  0.33908572  1
  Cu+  Cu35  1  0.16620223  0.83130981  0.66861952  1
  Cu+  Cu36  1  0.49914958  0.16987935  -0.00201670  1
  Cu+  Cu37  1  0.49821780  0.16905753  0.33244809  1
  Cu+  Cu38  1  0.49934557  0.16616788  0.66622573  1
  Cu+  Cu39  1  0.50078797  0.50257352  -0.00563053  1
  Cu+  Cu40  1  0.50206706  0.50038722  0.33253985  1
  Cu+  Cu41  1  0.49587309  0.49456359  0.65995370  1
  Cu+  Cu42  1  0.50375952  0.83532074  0.00676440  1
  Cu+  Cu43  1  0.49610542  0.83342011  0.33237227  1
  Cu+  Cu44  1  0.49769852  0.83050734  0.66424715  1
  Cu+  Cu45  1  0.82735923  0.16947627  0.00079894  1
  Cu+  Cu46  1  0.84082394  0.16899564  0.33123289  1
  Cu+  Cu47  1  0.83453346  0.16178404  0.66707637  1
  Cu+  Cu48  1  0.83686593  0.50008384  0.00293940  1
  Cu+  Cu49  1  0.83625727  0.49890060  0.33398455  1
  Cu+  Cu50  1  0.83378485  0.50047066  0.66540694  1
  Cu+  Cu51  1  0.83521672  0.83273867  -0.00788846  1
  Cu+  Cu52  1  0.83390514  0.83693849  0.33191402  1
  Cu+  Cu53  1  0.82602916  0.84090659  0.66511231  1
  Cu+  Cu54  1  0.16881344  -0.00356013  0.17012493  1
  Cu+  Cu55  1  0.16278676  -0.00753826  0.50081715  1
  Cu+  Cu56  1  0.17457250  -0.00147620  0.83684381  1
  Cu+  Cu57  1  0.16693378  0.33069826  0.16778007  1
  Cu+  Cu58  1  0.16463865  0.33022362  0.50339821  1
  Cu+  Cu59  1  0.16776360  0.33249752  0.83775481  1
  Cu+  Cu60  1  0.16002299  0.66404382  0.17145118  1
  Cu+  Cu61  1  0.16887834  0.66430610  0.50048455  1
  Cu+  Cu62  1  0.16371565  0.66866802  0.83433810  1
  Cu+  Cu63  1  0.49757457  0.00781933  0.17238745  1
  Cu+  Cu64  1  0.49787207  -0.00342159  0.49828061  1
  Cu+  Cu65  1  0.50001575  0.00140806  0.83543579  1
  Cu+  Cu66  1  0.50129473  0.33752853  0.16417496  1
  Cu+  Cu67  1  0.49689389  0.33373575  0.50124530  1
  Cu+  Cu68  1  0.49665731  0.33143213  0.82938790  1
  Cu+  Cu69  1  0.50187807  0.67097302  0.16536368  1
  Cu+  Cu70  1  0.50200229  0.66245881  0.49844589  1
  Cu+  Cu71  1  0.50444092  0.66750477  0.83172645  1
  Cu+  Cu72  1  0.83805640  0.00110541  0.16484376  1
  Cu+  Cu73  1  0.83394528  0.00882746  0.50140816  1
  Cu+  Cu74  1  0.83291657  -0.00062961  0.82554862  1
  Cu+  Cu75  1  0.83679368  0.33332673  0.16091706  1
  Cu+  Cu76  1  0.83508644  0.33566238  0.50298816  1
  Cu+  Cu77  1  0.83405759  0.33466058  0.83572219  1
  Cu+  Cu78  1  0.83386023  0.66767328  0.16670852  1
  Cu+  Cu79  1  0.83391670  0.67046969  0.49931851  1
  Cu+  Cu80  1  0.82688403  0.66253525  0.82578977  1
  Cu+  Cu81  1  0.00471498  0.16980419  0.16470373  1
  Cu+  Cu82  1  0.00235369  0.16794137  0.49460889  1
  Cu+  Cu83  1  -0.00290686  0.16112630  0.83326895  1
  Cu+  Cu84  1  0.00000229  0.49920015  0.16152014  1
  Cu+  Cu85  1  -0.00226026  0.50037132  0.50186551  1
  Cu+  Cu86  1  0.00378297  0.50242772  0.83192537  1
  Cu+  Cu87  1  0.00373352  0.82957746  0.16685582  1
  Cu+  Cu88  1  -0.00106922  0.83754274  0.50015752  1
  Cu+  Cu89  1  -0.00453208  0.83555270  0.83874241  1
  Cu+  Cu90  1  0.33438843  0.16626624  0.17261475  1
  Cu+  Cu91  1  0.33068147  0.16456274  0.50121242  1
  Cu+  Cu92  1  0.33283706  0.16154015  0.83046148  1
  Cu+  Cu93  1  0.33261065  0.49999715  0.16506264  1
  Cu+  Cu94  1  0.33510701  0.49530928  0.50259287  1
  Cu+  Cu95  1  0.33094532  0.50053266  0.83274331  1
  Cu+  Cu96  1  0.33707808  0.82946880  0.17605113  1
  Cu+  Cu97  1  0.32998158  0.82710221  0.50079063  1
  Cu+  Cu98  1  0.33368173  0.83630914  0.83996484  1
  Cu+  Cu99  1  0.66979585  0.17202916  0.16462371  1
  Cu+  Cu100  1  0.66606312  0.16989307  0.49994756  1
  Cu+  Cu101  1  0.66104338  0.16845617  0.83395279  1
  Cu+  Cu102  1  0.67069021  0.50412667  0.16476906  1
  Cu+  Cu103  1  0.66752671  0.49878717  0.49785018  1
  Cu+  Cu104  1  0.66434265  0.50393062  0.83390275  1
  Cu+  Cu105  1  0.66598256  0.83884998  0.16569081  1
  Cu+  Cu106  1  0.66522668  0.83715159  0.49737397  1
  Cu+  Cu107  1  0.66419941  0.82812932  0.82505616  1
  Cu+  Cu108  1  0.06881369  0.73381504  0.26564777  1
  Cu+  Cu109  1  0.91647803  0.92934184  0.92215073  1
  Cu+  Cu110  1  0.92899775  0.07303299  0.73862743  1
  Cu+  Cu111  1  0.07622065  0.59359779  0.07274005  1
  Cu+  Cu112  1  0.07679416  0.92471400  0.07705959  1
  Cu+  Cu113  1  0.59469990  0.74738662  0.08106273  1
  Cu+  Cu114  1  0.07630454  0.92029813  0.40757494  1
  Cu+  Cu115  1  0.92493402  0.07664653  0.40135346  1
  Cu+  Cu116  1  0.08385865  0.25837780  0.07052010  1
  Cu+  Cu117  1  0.92893542  0.40523420  0.07068098  1
  Cu+  Cu118  1  0.73525359  0.08314483  0.59096205  1
  Cu+  Cu119  1  0.26482100  0.07076967  0.73580276  1
  Cu+  Cu120  1  0.73600416  0.26197311  0.07209022  1
  Cu+  Cu121  1  0.41571872  0.73552755  0.26055426  1
  Cu+  Cu122  1  0.59102928  0.59358475  0.92347441  1
  Cu+  Cu123  1  0.40242798  0.40096421  0.59144986  1
  Cu+  Cu124  1  0.73578632  0.57956767  0.73231756  1
  Cu+  Cu125  1  0.26711689  0.92735969  0.93404691  1
  Cu+  Cu126  1  0.07618355  0.26394113  0.40787072  1
  Cu+  Cu127  1  0.58575236  0.73847703  0.73156497  1
  Cu+  Cu128  1  0.74516608  0.59709081  0.07738462  1
  Cu+  Cu129  1  0.07654885  0.59903170  0.73849336  1
  Cu+  Cu130  1  0.73207867  0.92882277  0.74387832  1
  Cu+  Cu131  1  0.26130723  0.73314365  0.41197270  1
  Cu+  Cu132  1  0.40496172  0.07864224  0.26363440  1
  Te2-  Te133  1  0.25345846  0.24884727  0.08388873  1
  Te2-  Te134  1  0.25167368  0.25135127  0.41699432  1
  Te2-  Te135  1  0.24946044  0.24958846  0.74932055  1
  Te2-  Te136  1  0.24985921  0.58711497  0.08407968  1
  Te2-  Te137  1  0.25442565  0.58019291  0.41506732  1
  Te2-  Te138  1  0.25090090  0.58805148  0.74972334  1
  Te2-  Te139  1  0.25856458  0.91672827  0.08854529  1
  Te2-  Te140  1  0.24978896  0.91316192  0.41503482  1
  Te2-  Te141  1  0.25514942  0.91635170  0.74614544  1
  Te2-  Te142  1  0.58506198  0.25650260  0.07766436  1
  Te2-  Te143  1  0.58329349  0.25345678  0.41555907  1
  Te2-  Te144  1  0.58364079  0.25232676  0.74562134  1
  Te2-  Te145  1  0.58963254  0.59127994  0.07648997  1
  Te2-  Te146  1  0.58785199  0.58444278  0.41269600  1
  Te2-  Te147  1  0.58415709  0.58482287  0.73752339  1
  Te2-  Te148  1  0.58381778  0.92788364  0.08546474  1
  Te2-  Te149  1  0.58254168  0.91839751  0.41153342  1
  Te2-  Te150  1  0.58126416  0.92111889  0.74485973  1
  Te2-  Te151  1  0.92492122  0.25207914  0.07407259  1
  Te2-  Te152  1  0.92125816  0.25896307  0.41355181  1
  Te2-  Te153  1  0.91718528  0.25128126  0.74953666  1
  Te2-  Te154  1  0.92203473  0.59152161  0.07891169  1
  Te2-  Te155  1  0.91877670  0.58666229  0.41563647  1
  Te2-  Te156  1  0.92135705  0.58611786  0.74564171  1
  Te2-  Te157  1  0.92200169  0.91940370  0.07751037  1
  Te2-  Te158  1  0.91924608  0.92386555  0.41155357  1
  Te2-  Te159  1  0.92226929  0.91776016  0.74263323  1
  Te2-  Te160  1  0.25111102  0.07933321  0.25790542  1
  Te2-  Te161  1  0.25192263  0.07377295  0.58308732  1
  Te2-  Te162  1  0.25637736  0.08045046  0.92557099  1
  Te2-  Te163  1  0.25252925  0.41349708  0.25046568  1
  Te2-  Te164  1  0.24898049  0.41244635  0.58968774  1
  Te2-  Te165  1  0.25237031  0.41606626  0.92110628  1
  Te2-  Te166  1  0.25402279  0.73966520  0.25603369  1
  Te2-  Te167  1  0.25116776  0.74393470  0.59031736  1
  Te2-  Te168  1  0.25067555  0.74784534  0.92038377  1
  Te2-  Te169  1  0.58932325  0.08822777  0.25217788  1
  Te2-  Te170  1  0.58263291  0.07969162  0.58381856  1
  Te2-  Te171  1  0.58418604  0.08236674  0.92020995  1
  Te2-  Te172  1  0.58768152  0.41867245  0.24822017  1
  Te2-  Te173  1  0.58774394  0.41295502  0.58314165  1
  Te2-  Te174  1  0.58300446  0.41327923  0.91382623  1
  Te2-  Te175  1  0.58776326  0.75121021  0.25317861  1
  Te2-  Te176  1  0.58672661  0.74685915  0.58093577  1
  Te2-  Te177  1  0.58976521  0.74841053  0.92318693  1
  Te2-  Te178  1  0.92477359  0.08147281  0.24851758  1
  Te2-  Te179  1  0.92663703  0.08197771  0.58618776  1
  Te2-  Te180  1  0.91410058  0.08067494  0.92213508  1
  Te2-  Te181  1  0.92020456  0.41431465  0.25035113  1
  Te2-  Te182  1  0.91970277  0.41502521  0.58848984  1
  Te2-  Te183  1  0.92209790  0.41588837  0.91745272  1
  Te2-  Te184  1  0.91772176  0.74802834  0.25308930  1
  Te2-  Te185  1  0.91471589  0.75478866  0.58564326  1
  Te2-  Te186  1  0.91420793  0.74168423  0.91275163  1
  Te2-  Te187  1  0.08049430  0.25368286  0.25539890  1
  Te2-  Te188  1  0.08197595  0.24654791  0.58948788  1
  Te2-  Te189  1  0.07990015  0.24838359  0.91802515  1
  Te2-  Te190  1  0.07642634  0.58040517  0.25773760  1
  Te2-  Te191  1  0.08027267  0.58585953  0.58582307  1
  Te2-  Te192  1  0.07889948  0.58870213  0.92155566  1
  Te2-  Te193  1  0.08142965  0.91670011  0.25577231  1
  Te2-  Te194  1  0.07995351  0.91630017  0.59072802  1
  Te2-  Te195  1  0.07805007  0.92393781  0.92129183  1
  Te2-  Te196  1  0.41553624  0.25849349  0.25184233  1
  Te2-  Te197  1  0.41079795  0.24978366  0.58715229  1
  Te2-  Te198  1  0.41173159  0.25094009  0.91532514  1
  Te2-  Te199  1  0.41537733  0.58477285  0.25101266  1
  Te2-  Te200  1  0.41399296  0.58658861  0.58401174  1
  Te2-  Te201  1  0.41394034  0.58764191  0.91450645  1
  Te2-  Te202  1  0.41176645  0.92440996  0.25686919  1
  Te2-  Te203  1  0.41184994  0.91516424  0.58326526  1
  Te2-  Te204  1  0.41898226  0.91999392  0.92402874  1
  Te2-  Te205  1  0.75393286  0.25394674  0.25164281  1
  Te2-  Te206  1  0.75043975  0.25234148  0.58711242  1
  Te2-  Te207  1  0.74444265  0.25454979  0.91686749  1
  Te2-  Te208  1  0.75117938  0.58566253  0.25362067  1
  Te2-  Te209  1  0.74660935  0.58747503  0.58228258  1
  Te2-  Te210  1  0.74715790  0.58853576  0.92287326  1
  Te2-  Te211  1  0.75070283  0.92127422  0.24892172  1
  Te2-  Te212  1  0.74194547  0.92679211  0.58381879  1
  Te2-  Te213  1  0.74489607  0.91679081  0.91282117  1
  Te2-  Te214  1  0.08182451  0.07630928  0.08317986  1
  Te2-  Te215  1  0.08018920  0.07491576  0.41109154  1
  Te2-  Te216  1  0.08145952  0.07418703  0.74995302  1
  Te2-  Te217  1  0.08192683  0.41010249  0.07678720  1
  Te2-  Te218  1  0.07994550  0.41517959  0.41625002  1
  Te2-  Te219  1  0.08233455  0.41111325  0.75071102  1
  Te2-  Te220  1  0.08302970  0.74709393  0.07708700  1
  Te2-  Te221  1  0.07249247  0.73951180  0.41982597  1
  Te2-  Te222  1  0.07760225  0.75185859  0.75074524  1
  Te2-  Te223  1  0.41491087  0.08572489  0.08141660  1
  Te2-  Te224  1  0.41248665  0.08047462  0.41512230  1
  Te2-  Te225  1  0.41552531  0.07655521  0.74449985  1
  Te2-  Te226  1  0.41632770  0.41878047  0.07830536  1
  Te2-  Te227  1  0.41494555  0.41395383  0.41133786  1
  Te2-  Te228  1  0.41014986  0.41348102  0.74635309  1
  Te2-  Te229  1  0.41303810  0.75021003  0.08154868  1
  Te2-  Te230  1  0.41331680  0.74112735  0.41316280  1
  Te2-  Te231  1  0.41280483  0.74949129  0.75163463  1
  Te2-  Te232  1  0.74867231  0.08005403  0.08270646  1
  Te2-  Te233  1  0.74946978  0.08727398  0.41149787  1
  Te2-  Te234  1  0.73897583  0.08153199  0.74639447  1
  Te2-  Te235  1  0.74614412  0.41411954  0.07821191  1
  Te2-  Te236  1  0.75034807  0.41360260  0.41462083  1
  Te2-  Te237  1  0.74810430  0.41586407  0.74998478  1
  Te2-  Te238  1  0.74840903  0.75087490  0.07728987  1
  Te2-  Te239  1  0.74896895  0.75255087  0.41396994  1
  Te2-  Te240  1  0.74387322  0.74257896  0.73780289  1
