# generated using pymatgen
data_Ti27(Cu53Te54)2
_symmetry_space_group_name_H-M   'P 1'
_cell_length_a   17.93285570
_cell_length_b   17.92899424
_cell_length_c   17.92920984
_cell_angle_alpha   90.04873257
_cell_angle_beta   90.02134929
_cell_angle_gamma   90.00874437
_symmetry_Int_Tables_number   1
_chemical_formula_structural   Ti27(Cu53Te54)2
_chemical_formula_sum   'Ti27 Cu106 Te108'
_cell_volume   5764.56233245
_cell_formula_units_Z   1
loop_
 _symmetry_equiv_pos_site_id
 _symmetry_equiv_pos_as_xyz
  1  'x, y, z'
loop_
 _atom_type_symbol
 _atom_type_oxidation_number
  Ti4+  4.0
  Cu+  1.0
  Te2-  -2.0
loop_
 _atom_site_type_symbol
 _atom_site_label
 _atom_site_symmetry_multiplicity
 _atom_site_fract_x
 _atom_site_fract_y
 _atom_site_fract_z
 _atom_site_occupancy
  Ti4+  Ti0  1  0.16538819  0.16497848  0.16949703  1
  Ti4+  Ti1  1  0.16804222  0.17027386  0.49610457  1
  Ti4+  Ti2  1  0.16833100  0.16814997  0.83592354  1
  Ti4+  Ti3  1  0.16438863  0.49859639  0.16473384  1
  Ti4+  Ti4  1  0.16645076  0.49713527  0.50064209  1
  Ti4+  Ti5  1  0.16388784  0.50152522  0.83442171  1
  Ti4+  Ti6  1  0.16194254  0.83130158  0.16695978  1
  Ti4+  Ti7  1  0.16921921  0.83709768  0.49737904  1
  Ti4+  Ti8  1  0.16893530  0.83434643  0.83563187  1
  Ti4+  Ti9  1  0.50189695  0.16754736  0.16726153  1
  Ti4+  Ti10  1  0.49597071  0.16747961  0.50231828  1
  Ti4+  Ti11  1  0.50396332  0.16733454  0.83442548  1
  Ti4+  Ti12  1  0.50200662  0.50191055  0.16594882  1
  Ti4+  Ti13  1  0.49712096  0.49901059  0.50267299  1
  Ti4+  Ti14  1  0.50093340  0.50213472  0.83213172  1
  Ti4+  Ti15  1  0.49781275  0.83225590  0.16497454  1
  Ti4+  Ti16  1  0.50290971  0.83027331  0.50015521  1
  Ti4+  Ti17  1  0.49760272  0.83236050  0.82772426  1
  Ti4+  Ti18  1  0.83311754  0.16186905  0.16972110  1
  Ti4+  Ti19  1  0.83279056  0.16558401  0.50142132  1
  Ti4+  Ti20  1  0.83599799  0.16651165  0.83538067  1
  Ti4+  Ti21  1  0.83332421  0.49929333  0.16599593  1
  Ti4+  Ti22  1  0.83365197  0.49925368  0.49979423  1
  Ti4+  Ti23  1  0.83174002  0.49896498  0.83347269  1
  Ti4+  Ti24  1  0.83015344  0.83460864  0.16508911  1
  Ti4+  Ti25  1  0.83590485  0.83353449  0.50017369  1
  Ti4+  Ti26  1  0.83300334  0.83591404  0.83193610  1
  Cu+  Cu27  1  0.16824747  0.16837167  0.00251507  1
  Cu+  Cu28  1  0.16540145  0.15958259  0.33262047  1
  Cu+  Cu29  1  0.16687840  0.17047361  0.66856257  1
  Cu+  Cu30  1  0.15847948  0.50043514  -0.00276561  1
  Cu+  Cu31  1  0.16589274  0.49509653  0.33123425  1
  Cu+  Cu32  1  0.16228469  0.50114526  0.66818527  1
  Cu+  Cu33  1  0.16863855  0.82958382  0.00390495  1
  Cu+  Cu34  1  0.16897692  0.83658838  0.32963009  1
  Cu+  Cu35  1  0.16987032  0.83667477  0.66827424  1
  Cu+  Cu36  1  0.50427979  0.16678742  0.00077560  1
  Cu+  Cu37  1  0.49933662  0.16983661  0.33371357  1
  Cu+  Cu38  1  0.50108355  0.16510104  0.66929892  1
  Cu+  Cu39  1  0.50220911  0.50252467  0.00044484  1
  Cu+  Cu40  1  0.50142735  0.50354359  0.33057579  1
  Cu+  Cu41  1  0.49616098  0.49847276  0.66957894  1
  Cu+  Cu42  1  0.49619492  0.83254715  -0.00419631  1
  Cu+  Cu43  1  0.50076035  0.83287952  0.33405174  1
  Cu+  Cu44  1  0.49992194  0.82202028  0.66282509  1
  Cu+  Cu45  1  0.83424726  0.16139909  0.00410961  1
  Cu+  Cu46  1  0.82952673  0.16175482  0.33643345  1
  Cu+  Cu47  1  0.83566968  0.16928896  0.66718798  1
  Cu+  Cu48  1  0.82912178  0.50158421  0.00087009  1
  Cu+  Cu49  1  0.83458615  0.49843761  0.33421454  1
  Cu+  Cu50  1  0.83470555  0.49954094  0.66479027  1
  Cu+  Cu51  1  0.83112788  0.83469443  -0.00250682  1
  Cu+  Cu52  1  0.83246749  0.83417500  0.33373233  1
  Cu+  Cu53  1  0.83883927  0.83704174  0.66472633  1
  Cu+  Cu54  1  0.16118775  -0.00079192  0.17477408  1
  Cu+  Cu55  1  0.17054012  0.00446859  0.49499548  1
  Cu+  Cu56  1  0.16976961  0.00163063  0.83706341  1
  Cu+  Cu57  1  0.16166946  0.33287642  0.17122959  1
  Cu+  Cu58  1  0.17614376  0.33426661  0.49669231  1
  Cu+  Cu59  1  0.16460338  0.33565957  0.83674029  1
  Cu+  Cu60  1  0.16139294  0.66295670  0.15978955  1
  Cu+  Cu61  1  0.16652847  0.66554992  0.49866478  1
  Cu+  Cu62  1  0.16634301  0.67015587  0.83408574  1
  Cu+  Cu63  1  0.49822791  0.00164269  0.16554559  1
  Cu+  Cu64  1  0.49995764  -0.00357544  0.49995283  1
  Cu+  Cu65  1  0.50551685  -0.00206952  0.83169683  1
  Cu+  Cu66  1  0.50486866  0.33782307  0.16670829  1
  Cu+  Cu67  1  0.49189554  0.33411580  0.50432853  1
  Cu+  Cu68  1  0.50613817  0.33491639  0.83283217  1
  Cu+  Cu69  1  0.50095306  0.66734667  0.16725567  1
  Cu+  Cu70  1  0.49852045  0.66634503  0.50529421  1
  Cu+  Cu71  1  0.49622371  0.66691279  0.82438650  1
  Cu+  Cu72  1  0.83306908  0.00083572  0.16761275  1
  Cu+  Cu73  1  0.83853467  -0.00127480  0.50340426  1
  Cu+  Cu74  1  0.83143474  0.00235472  0.83569517  1
  Cu+  Cu75  1  0.83407328  0.32923117  0.16577088  1
  Cu+  Cu76  1  0.83158371  0.33432244  0.49978593  1
  Cu+  Cu77  1  0.83242728  0.33036702  0.83164573  1
  Cu+  Cu78  1  0.82932567  0.66663074  0.16301109  1
  Cu+  Cu79  1  0.83618806  0.66660998  0.50000120  1
  Cu+  Cu80  1  0.83345026  0.66803687  0.83348154  1
  Cu+  Cu81  1  0.00044608  0.15705210  0.17122667  1
  Cu+  Cu82  1  -0.00159569  0.17063236  0.49871196  1
  Cu+  Cu83  1  0.00307124  0.16671533  0.83407903  1
  Cu+  Cu84  1  0.00076602  0.49906893  0.16523923  1
  Cu+  Cu85  1  -0.00157530  0.49826691  0.50003228  1
  Cu+  Cu86  1  -0.00272559  0.49823164  0.83696997  1
  Cu+  Cu87  1  -0.00569843  0.83318233  0.16557238  1
  Cu+  Cu88  1  0.00232305  0.83794156  0.50160460  1
  Cu+  Cu89  1  0.00246932  0.83652292  0.83466258  1
  Cu+  Cu90  1  0.33573845  0.16912872  0.16612943  1
  Cu+  Cu91  1  0.33232990  0.17633508  0.49572801  1
  Cu+  Cu92  1  0.33624898  0.16873927  0.83652100  1
  Cu+  Cu93  1  0.33668583  0.50182901  0.16387654  1
  Cu+  Cu94  1  0.33212053  0.49235773  0.50257415  1
  Cu+  Cu95  1  0.32969415  0.50608587  0.83268707  1
  Cu+  Cu96  1  0.32785538  0.82845407  0.16628991  1
  Cu+  Cu97  1  0.33664548  0.83503872  0.49475126  1
  Cu+  Cu98  1  0.33392731  0.83119080  0.83600823  1
  Cu+  Cu99  1  0.66817353  0.16585632  0.16990356  1
  Cu+  Cu100  1  0.66348878  0.16536786  0.50264414  1
  Cu+  Cu101  1  0.67287897  0.16706263  0.83426671  1
  Cu+  Cu102  1  0.66861429  0.50338289  0.16437245  1
  Cu+  Cu103  1  0.66791621  0.50118457  0.50136182  1
  Cu+  Cu104  1  0.66547101  0.49793195  0.83094591  1
  Cu+  Cu105  1  0.66410682  0.83467693  0.16483294  1
  Cu+  Cu106  1  0.67077128  0.83246604  0.49998451  1
  Cu+  Cu107  1  0.66296990  0.83568782  0.82817764  1
  Cu+  Cu108  1  0.41323957  0.26347976  0.40166197  1
  Cu+  Cu109  1  0.59305106  0.40661092  0.73959822  1
  Cu+  Cu110  1  0.59802216  0.74106135  0.73736973  1
  Cu+  Cu111  1  0.06974925  0.40792265  0.26208064  1
  Cu+  Cu112  1  0.41738987  0.92498013  0.40471157  1
  Cu+  Cu113  1  0.40527122  0.40556791  0.59966456  1
  Cu+  Cu114  1  0.93315158  0.92912484  0.59502302  1
  Cu+  Cu115  1  0.26084411  0.92655255  0.24898518  1
  Cu+  Cu116  1  0.39888634  0.59070382  0.74100830  1
  Cu+  Cu117  1  0.06714493  0.40302006  0.92193118  1
  Cu+  Cu118  1  0.26257368  0.41537115  0.39849484  1
  Cu+  Cu119  1  0.92982512  0.07151326  0.07331011  1
  Cu+  Cu120  1  0.06992413  0.06670225  0.26519268  1
  Cu+  Cu121  1  0.74247738  0.07487403  0.92782757  1
  Cu+  Cu122  1  0.25660393  0.73472875  0.07757812  1
  Cu+  Cu123  1  0.74125241  0.25697243  0.07760026  1
  Cu+  Cu124  1  0.26314730  0.07799801  0.40834500  1
  Cu+  Cu125  1  0.41011512  0.73850069  0.92418403  1
  Cu+  Cu126  1  0.58887749  0.92125258  0.92580629  1
  Cu+  Cu127  1  0.74535893  0.25612671  0.73679424  1
  Cu+  Cu128  1  0.40102166  0.74265861  0.58555204  1
  Cu+  Cu129  1  0.25453633  0.25829411  0.59975007  1
  Cu+  Cu130  1  0.73607173  0.07194331  0.26678558  1
  Cu+  Cu131  1  0.06983668  0.59328255  0.06986656  1
  Cu+  Cu132  1  0.73818880  0.59676331  0.07156035  1
  Te2-  Te133  1  0.24911594  0.25285458  0.08664846  1
  Te2-  Te134  1  0.25417338  0.25633556  0.40148768  1
  Te2-  Te135  1  0.25408674  0.25623412  0.75291581  1
  Te2-  Te136  1  0.25262810  0.58162055  0.07679047  1
  Te2-  Te137  1  0.25223946  0.58120919  0.41534424  1
  Te2-  Te138  1  0.24674259  0.58914709  0.74543486  1
  Te2-  Te139  1  0.24819680  0.92167596  0.08535229  1
  Te2-  Te140  1  0.25795342  0.92279952  0.40813838  1
  Te2-  Te141  1  0.25475348  0.91966408  0.75172036  1
  Te2-  Te142  1  0.58799771  0.25323970  0.08201666  1
  Te2-  Te143  1  0.58257157  0.25406960  0.41993441  1
  Te2-  Te144  1  0.59043988  0.25222086  0.74507531  1
  Te2-  Te145  1  0.58635316  0.58989760  0.07898955  1
  Te2-  Te146  1  0.58213291  0.58440705  0.41927988  1
  Te2-  Te147  1  0.58869357  0.58624824  0.74341875  1
  Te2-  Te148  1  0.58220941  0.91872143  0.07965864  1
  Te2-  Te149  1  0.58801784  0.91723937  0.41510916  1
  Te2-  Te150  1  0.58193097  0.91683541  0.73837345  1
  Te2-  Te151  1  0.92245529  0.24583131  0.08513162  1
  Te2-  Te152  1  0.91405127  0.25130638  0.41380259  1
  Te2-  Te153  1  0.92237799  0.25170149  0.74961366  1
  Te2-  Te154  1  0.91856597  0.58587286  0.07966696  1
  Te2-  Te155  1  0.91969575  0.58406718  0.41436683  1
  Te2-  Te156  1  0.91754225  0.58342106  0.75000360  1
  Te2-  Te157  1  0.91724629  0.91938575  0.07847360  1
  Te2-  Te158  1  0.91990490  0.91911072  0.41271387  1
  Te2-  Te159  1  0.92099307  0.92339269  0.75056744  1
  Te2-  Te160  1  0.25944288  0.08009516  0.25283339  1
  Te2-  Te161  1  0.25396959  0.08622189  0.58329404  1
  Te2-  Te162  1  0.25399308  0.08460771  0.92148154  1
  Te2-  Te163  1  0.25631876  0.41385096  0.24677336  1
  Te2-  Te164  1  0.25181084  0.41253917  0.59532345  1
  Te2-  Te165  1  0.25258215  0.41929449  0.91948914  1
  Te2-  Te166  1  0.24615930  0.74108956  0.25054070  1
  Te2-  Te167  1  0.25087379  0.74943097  0.58291107  1
  Te2-  Te168  1  0.25477829  0.74350564  0.92237847  1
  Te2-  Te169  1  0.58374254  0.08005327  0.25543561  1
  Te2-  Te170  1  0.58153882  0.08018335  0.58500770  1
  Te2-  Te171  1  0.58963295  0.07951690  0.92080715  1
  Te2-  Te172  1  0.58883176  0.41892632  0.25195663  1
  Te2-  Te173  1  0.58566799  0.41367594  0.58592536  1
  Te2-  Te174  1  0.58587873  0.41760435  0.92015643  1
  Te2-  Te175  1  0.58443579  0.75024628  0.25093643  1
  Te2-  Te176  1  0.59341718  0.74298105  0.58341143  1
  Te2-  Te177  1  0.58333710  0.74579762  0.91387060  1
  Te2-  Te178  1  0.91783403  0.07539092  0.25985179  1
  Te2-  Te179  1  0.92273141  0.08435807  0.58821761  1
  Te2-  Te180  1  0.92383244  0.07873047  0.91930095  1
  Te2-  Te181  1  0.91825512  0.41175679  0.25164820  1
  Te2-  Te182  1  0.91868450  0.41262244  0.58510809  1
  Te2-  Te183  1  0.91382203  0.41207161  0.92159003  1
  Te2-  Te184  1  0.91341616  0.74781026  0.24943411  1
  Te2-  Te185  1  0.92250728  0.74801281  0.58502035  1
  Te2-  Te186  1  0.91781277  0.75146467  0.91680180  1
  Te2-  Te187  1  0.07766838  0.24947541  0.25588310  1
  Te2-  Te188  1  0.08350549  0.25532539  0.58169540  1
  Te2-  Te189  1  0.08000613  0.25153809  0.92293031  1
  Te2-  Te190  1  0.08149451  0.58425821  0.25344891  1
  Te2-  Te191  1  0.08095970  0.58423523  0.58277755  1
  Te2-  Te192  1  0.07648169  0.59163297  0.91671682  1
  Te2-  Te193  1  0.07278157  0.91513957  0.25543056  1
  Te2-  Te194  1  0.08782084  0.92421901  0.58525186  1
  Te2-  Te195  1  0.08536431  0.91834897  0.92233767  1
  Te2-  Te196  1  0.41588154  0.25665209  0.24936092  1
  Te2-  Te197  1  0.41064192  0.25218739  0.59512609  1
  Te2-  Te198  1  0.42112267  0.25378457  0.91870227  1
  Te2-  Te199  1  0.41469578  0.58693605  0.25055212  1
  Te2-  Te200  1  0.40799995  0.58608056  0.58750514  1
  Te2-  Te201  1  0.41473514  0.58668318  0.92032855  1
  Te2-  Te202  1  0.41278742  0.91922352  0.25115010  1
  Te2-  Te203  1  0.41627202  0.91550457  0.58735006  1
  Te2-  Te204  1  0.41477734  0.92150986  0.91502344  1
  Te2-  Te205  1  0.74941306  0.25132356  0.25515869  1
  Te2-  Te206  1  0.74596394  0.25285784  0.58441103  1
  Te2-  Te207  1  0.74984990  0.25299659  0.92404486  1
  Te2-  Te208  1  0.75035629  0.58424625  0.25304788  1
  Te2-  Te209  1  0.74994341  0.58609644  0.58557512  1
  Te2-  Te210  1  0.74501401  0.58671509  0.91610524  1
  Te2-  Te211  1  0.74501530  0.91899906  0.25285408  1
  Te2-  Te212  1  0.74870182  0.91906555  0.58554866  1
  Te2-  Te213  1  0.74322711  0.91967290  0.91926204  1
  Te2-  Te214  1  0.08391868  0.07771282  0.07958090  1
  Te2-  Te215  1  0.07639193  0.08088386  0.41644070  1
  Te2-  Te216  1  0.08549021  0.08239591  0.74926791  1
  Te2-  Te217  1  0.07811595  0.40971043  0.07907036  1
  Te2-  Te218  1  0.07913819  0.41028449  0.41622724  1
  Te2-  Te219  1  0.07882626  0.41501575  0.74920036  1
  Te2-  Te220  1  0.07336504  0.74829854  0.07854393  1
  Te2-  Te221  1  0.08425893  0.75217852  0.41498780  1
  Te2-  Te222  1  0.08303863  0.75214050  0.74826396  1
  Te2-  Te223  1  0.41592153  0.08453036  0.08078239  1
  Te2-  Te224  1  0.41417566  0.07911690  0.41220139  1
  Te2-  Te225  1  0.41732716  0.08200497  0.75241988  1
  Te2-  Te226  1  0.41765738  0.41574816  0.07985863  1
  Te2-  Te227  1  0.41442641  0.41512655  0.40758257  1
  Te2-  Te228  1  0.41013608  0.41198403  0.75282097  1
  Te2-  Te229  1  0.41225095  0.74413691  0.07961300  1
  Te2-  Te230  1  0.41637380  0.74392347  0.41343211  1
  Te2-  Te231  1  0.40378344  0.74499238  0.74135134  1
  Te2-  Te232  1  0.74281574  0.07615692  0.08205753  1
  Te2-  Te233  1  0.74518632  0.07672703  0.42033883  1
  Te2-  Te234  1  0.75049351  0.08193426  0.74593247  1
  Te2-  Te235  1  0.74703836  0.41173438  0.08127555  1
  Te2-  Te236  1  0.74640179  0.41506752  0.41450470  1
  Te2-  Te237  1  0.74743386  0.41235378  0.74360267  1
  Te2-  Te238  1  0.74426951  0.75024253  0.07735576  1
  Te2-  Te239  1  0.75050883  0.74727433  0.41502904  1
  Te2-  Te240  1  0.75082895  0.74946810  0.74488661  1
