# generated using pymatgen
data_Ti27(Cu53Te54)2
_symmetry_space_group_name_H-M   'P 1'
_cell_length_a   17.91790469
_cell_length_b   17.92776890
_cell_length_c   17.92733608
_cell_angle_alpha   90.07642470
_cell_angle_beta   90.03415576
_cell_angle_gamma   90.04302696
_symmetry_Int_Tables_number   1
_chemical_formula_structural   Ti27(Cu53Te54)2
_chemical_formula_sum   'Ti27 Cu106 Te108'
_cell_volume   5758.75551806
_cell_formula_units_Z   1
loop_
 _symmetry_equiv_pos_site_id
 _symmetry_equiv_pos_as_xyz
  1  'x, y, z'
loop_
 _atom_type_symbol
 _atom_type_oxidation_number
  Ti4+  4.0
  Cu+  1.0
  Te2-  -2.0
loop_
 _atom_site_type_symbol
 _atom_site_label
 _atom_site_symmetry_multiplicity
 _atom_site_fract_x
 _atom_site_fract_y
 _atom_site_fract_z
 _atom_site_occupancy
  Ti4+  Ti0  1  0.16448631  0.16944439  0.16857422  1
  Ti4+  Ti1  1  0.16513681  0.16808734  0.50003010  1
  Ti4+  Ti2  1  0.16287427  0.16684355  0.83318702  1
  Ti4+  Ti3  1  0.16984523  0.49637629  0.16538873  1
  Ti4+  Ti4  1  0.16934522  0.50027216  0.49921698  1
  Ti4+  Ti5  1  0.16649781  0.49958741  0.83154573  1
  Ti4+  Ti6  1  0.16732515  0.83185834  0.16521991  1
  Ti4+  Ti7  1  0.16749018  0.83528431  0.49812883  1
  Ti4+  Ti8  1  0.16896403  0.83454273  0.83000590  1
  Ti4+  Ti9  1  0.49757117  0.16404123  0.16708116  1
  Ti4+  Ti10  1  0.50067884  0.17148553  0.50000788  1
  Ti4+  Ti11  1  0.49883849  0.16837393  0.83384975  1
  Ti4+  Ti12  1  0.50110112  0.49941096  0.16009154  1
  Ti4+  Ti13  1  0.49834477  0.50279270  0.49806623  1
  Ti4+  Ti14  1  0.50336442  0.50056790  0.82927006  1
  Ti4+  Ti15  1  0.50005484  0.83155532  0.16550069  1
  Ti4+  Ti16  1  0.49887837  0.83433672  0.50064418  1
  Ti4+  Ti17  1  0.50006624  0.83404122  0.83291606  1
  Ti4+  Ti18  1  0.82982596  0.16940998  0.16998911  1
  Ti4+  Ti19  1  0.82756579  0.16453549  0.50012024  1
  Ti4+  Ti20  1  0.83092981  0.16483364  0.83665756  1
  Ti4+  Ti21  1  0.83566843  0.49995645  0.16994166  1
  Ti4+  Ti22  1  0.83374148  0.49942889  0.50154654  1
  Ti4+  Ti23  1  0.83538261  0.49920783  0.83362798  1
  Ti4+  Ti24  1  0.83502578  0.83493307  0.17057057  1
  Ti4+  Ti25  1  0.83489502  0.82915578  0.50369591  1
  Ti4+  Ti26  1  0.83883519  0.83123585  0.83549437  1
  Cu+  Cu27  1  0.16357277  0.16722676  0.00031438  1
  Cu+  Cu28  1  0.16491094  0.16755566  0.33477545  1
  Cu+  Cu29  1  0.16401489  0.16765943  0.66617230  1
  Cu+  Cu30  1  0.16645911  0.49651541  -0.00246534  1
  Cu+  Cu31  1  0.17358127  0.49534750  0.33410229  1
  Cu+  Cu32  1  0.16464172  0.50001987  0.66393368  1
  Cu+  Cu33  1  0.16736200  0.83169468  -0.00385454  1
  Cu+  Cu34  1  0.16981624  0.83220601  0.33216941  1
  Cu+  Cu35  1  0.16865021  0.83733872  0.66212842  1
  Cu+  Cu36  1  0.49508267  0.16659268  0.00108807  1
  Cu+  Cu37  1  0.50690210  0.16821123  0.33348978  1
  Cu+  Cu38  1  0.50082413  0.17083927  0.66701481  1
  Cu+  Cu39  1  0.50630128  0.50009184  -0.00790078  1
  Cu+  Cu40  1  0.49885365  0.50196017  0.32780600  1
  Cu+  Cu41  1  0.49493988  0.50370806  0.66547118  1
  Cu+  Cu42  1  0.49850486  0.83372800  0.00017623  1
  Cu+  Cu43  1  0.50205075  0.83195229  0.32979012  1
  Cu+  Cu44  1  0.49847964  0.83808723  0.66743905  1
  Cu+  Cu45  1  0.82956542  0.16645165  0.00308982  1
  Cu+  Cu46  1  0.82424757  0.16747807  0.33289758  1
  Cu+  Cu47  1  0.82786886  0.16323374  0.67134095  1
  Cu+  Cu48  1  0.83579382  0.50045989  0.00230286  1
  Cu+  Cu49  1  0.83205691  0.50349900  0.33755373  1
  Cu+  Cu50  1  0.83605183  0.49888498  0.66660605  1
  Cu+  Cu51  1  0.84086933  0.83282417  0.00588901  1
  Cu+  Cu52  1  0.83237184  0.83425356  0.33759033  1
  Cu+  Cu53  1  0.84011803  0.82663868  0.67024186  1
  Cu+  Cu54  1  0.16561040  0.00152684  0.16680407  1
  Cu+  Cu55  1  0.16580147  0.00186753  0.49917821  1
  Cu+  Cu56  1  0.16604279  0.00112499  0.83182678  1
  Cu+  Cu57  1  0.16345489  0.33481334  0.16945548  1
  Cu+  Cu58  1  0.16712407  0.33363598  0.50124264  1
  Cu+  Cu59  1  0.16246277  0.33212871  0.83417977  1
  Cu+  Cu60  1  0.16993000  0.66148683  0.16398658  1
  Cu+  Cu61  1  0.17182575  0.67011240  0.49536918  1
  Cu+  Cu62  1  0.16767867  0.66869828  0.83367741  1
  Cu+  Cu63  1  0.49470977  -0.00724829  0.16193765  1
  Cu+  Cu64  1  0.50149568  0.00352212  0.50165284  1
  Cu+  Cu65  1  0.49855431  0.00177255  0.83072049  1
  Cu+  Cu66  1  0.49619753  0.33017728  0.16380040  1
  Cu+  Cu67  1  0.49723203  0.33890464  0.50321474  1
  Cu+  Cu68  1  0.49902224  0.33562199  0.83702295  1
  Cu+  Cu69  1  0.50366686  0.66715104  0.16095800  1
  Cu+  Cu70  1  0.49905930  0.66916934  0.49987146  1
  Cu+  Cu71  1  0.50332927  0.66477318  0.83092071  1
  Cu+  Cu72  1  0.83059777  0.00258269  0.17200796  1
  Cu+  Cu73  1  0.82895086  -0.00745487  0.50232807  1
  Cu+  Cu74  1  0.83815597  -0.00063381  0.83485574  1
  Cu+  Cu75  1  0.83839730  0.33313090  0.17207683  1
  Cu+  Cu76  1  0.82920008  0.33273601  0.50179528  1
  Cu+  Cu77  1  0.82954350  0.33077962  0.83446175  1
  Cu+  Cu78  1  0.83694709  0.66819311  0.16981793  1
  Cu+  Cu79  1  0.83278535  0.66289217  0.50049905  1
  Cu+  Cu80  1  0.84019412  0.66640968  0.83197396  1
  Cu+  Cu81  1  -0.00276956  0.17122002  0.16931510  1
  Cu+  Cu82  1  -0.00232218  0.16502820  0.50127809  1
  Cu+  Cu83  1  -0.00504174  0.16306017  0.83285875  1
  Cu+  Cu84  1  0.00310407  0.49803316  0.17013003  1
  Cu+  Cu85  1  0.00223833  0.49821506  0.50465674  1
  Cu+  Cu86  1  0.00104124  0.49691763  0.83646405  1
  Cu+  Cu87  1  -0.00109896  0.83173044  0.16614005  1
  Cu+  Cu88  1  0.00242552  0.83109465  0.50282411  1
  Cu+  Cu89  1  0.00415536  0.82689764  0.83189563  1
  Cu+  Cu90  1  0.33068690  0.16797455  0.16461927  1
  Cu+  Cu91  1  0.33350567  0.16973767  0.50198622  1
  Cu+  Cu92  1  0.32814103  0.16670872  0.83309655  1
  Cu+  Cu93  1  0.33735985  0.49559578  0.16330963  1
  Cu+  Cu94  1  0.33281983  0.49615134  0.49962825  1
  Cu+  Cu95  1  0.33410640  0.50131364  0.82701918  1
  Cu+  Cu96  1  0.33321196  0.83296242  0.16395368  1
  Cu+  Cu97  1  0.33177541  0.83434927  0.49577265  1
  Cu+  Cu98  1  0.33532007  0.83850243  0.82785633  1
  Cu+  Cu99  1  0.66279489  0.16595111  0.17505073  1
  Cu+  Cu100  1  0.66366654  0.16789185  0.49327655  1
  Cu+  Cu101  1  0.66598130  0.16855565  0.83382959  1
  Cu+  Cu102  1  0.66974024  0.50059096  0.16313440  1
  Cu+  Cu103  1  0.66555819  0.50666966  0.49830204  1
  Cu+  Cu104  1  0.66867922  0.50425683  0.83232512  1
  Cu+  Cu105  1  0.66556401  0.83293687  0.16795562  1
  Cu+  Cu106  1  0.66727182  0.83243310  0.50353184  1
  Cu+  Cu107  1  0.67005778  0.83384938  0.83645335  1
  Cu+  Cu108  1  0.93224481  0.73452073  0.73712594  1
  Cu+  Cu109  1  0.40109709  0.91944684  0.07014991  1
  Cu+  Cu110  1  0.58379011  0.07021738  0.40627357  1
  Cu+  Cu111  1  0.73572692  0.07002487  0.25432479  1
  Cu+  Cu112  1  0.92653900  0.25408011  0.26499554  1
  Cu+  Cu113  1  0.40606638  0.59643403  0.73952934  1
  Cu+  Cu114  1  0.40785772  0.40872750  0.59387913  1
  Cu+  Cu115  1  0.26196332  0.74226901  0.40176368  1
  Cu+  Cu116  1  0.41319441  0.40651758  0.25571336  1
  Cu+  Cu117  1  0.59918328  0.59724837  0.92201600  1
  Cu+  Cu118  1  0.07191504  0.40282252  0.92697291  1
  Cu+  Cu119  1  0.07937447  0.73979398  0.92614758  1
  Cu+  Cu120  1  0.40105213  0.25627817  0.07240938  1
  Cu+  Cu121  1  0.58742889  0.26376994  0.25623417  1
  Cu+  Cu122  1  0.73737210  0.59356326  0.40652241  1
  Cu+  Cu123  1  0.07409480  0.41375419  0.26316665  1
  Cu+  Cu124  1  0.40604854  0.41663030  0.92116160  1
  Cu+  Cu125  1  0.73849442  0.25992283  0.74333752  1
  Cu+  Cu126  1  0.92422194  0.07295019  0.73900955  1
  Cu+  Cu127  1  0.92660067  0.73702755  0.08025457  1
  Cu+  Cu128  1  0.74135067  0.26328476  0.40797572  1
  Cu+  Cu129  1  0.40748112  0.93336370  0.73667475  1
  Cu+  Cu130  1  0.07182139  0.40516681  0.59306477  1
  Cu+  Cu131  1  0.25954572  0.40172921  0.40907875  1
  Cu+  Cu132  1  0.73880585  0.91778487  0.41082627  1
  Te2-  Te133  1  0.24811864  0.25531048  0.08014725  1
  Te2-  Te134  1  0.25344248  0.25167540  0.41351658  1
  Te2-  Te135  1  0.24799597  0.25245322  0.74842123  1
  Te2-  Te136  1  0.25416023  0.58011073  0.07859909  1
  Te2-  Te137  1  0.25702686  0.58565356  0.41232513  1
  Te2-  Te138  1  0.24996489  0.58729425  0.74468425  1
  Te2-  Te139  1  0.24892493  0.91979687  0.07881012  1
  Te2-  Te140  1  0.25180831  0.92270972  0.41251622  1
  Te2-  Te141  1  0.25241279  0.92369987  0.74373789  1
  Te2-  Te142  1  0.58574776  0.24781490  0.08202817  1
  Te2-  Te143  1  0.58556754  0.26372692  0.41357512  1
  Te2-  Te144  1  0.58408384  0.25575916  0.74923240  1
  Te2-  Te145  1  0.58944346  0.58551597  0.07701739  1
  Te2-  Te146  1  0.58202526  0.58929552  0.41051214  1
  Te2-  Te147  1  0.58867422  0.58631094  0.74225177  1
  Te2-  Te148  1  0.58765239  0.91713342  0.08008345  1
  Te2-  Te149  1  0.58612886  0.91834190  0.41289176  1
  Te2-  Te150  1  0.58781789  0.91856205  0.75041109  1
  Te2-  Te151  1  0.91580966  0.25198187  0.08108951  1
  Te2-  Te152  1  0.91592905  0.25095770  0.41706165  1
  Te2-  Te153  1  0.91587613  0.25123329  0.74852296  1
  Te2-  Te154  1  0.92300483  0.58367551  0.08419749  1
  Te2-  Te155  1  0.92285669  0.58340268  0.41834250  1
  Te2-  Te156  1  0.92385849  0.58198741  0.74718567  1
  Te2-  Te157  1  0.91851590  0.92508452  0.08793179  1
  Te2-  Te158  1  0.92013310  0.91619143  0.41906698  1
  Te2-  Te159  1  0.92383743  0.91763380  0.74854952  1
  Te2-  Te160  1  0.25011034  0.08387372  0.25161968  1
  Te2-  Te161  1  0.25071703  0.08391722  0.58466593  1
  Te2-  Te162  1  0.24824977  0.08235477  0.91912394  1
  Te2-  Te163  1  0.25922465  0.40853621  0.25173070  1
  Te2-  Te164  1  0.25373836  0.41265789  0.58920518  1
  Te2-  Te165  1  0.25353407  0.41332824  0.91535538  1
  Te2-  Te166  1  0.25418281  0.74515503  0.24834983  1
  Te2-  Te167  1  0.25407522  0.75027143  0.58493663  1
  Te2-  Te168  1  0.25706459  0.75052487  0.91463459  1
  Te2-  Te169  1  0.58186159  0.07067225  0.25251378  1
  Te2-  Te170  1  0.58612380  0.08644818  0.58625139  1
  Te2-  Te171  1  0.58242324  0.08349117  0.91850640  1
  Te2-  Te172  1  0.58669960  0.41610656  0.24849838  1
  Te2-  Te173  1  0.58565580  0.42128535  0.58458324  1
  Te2-  Te174  1  0.59168261  0.41382022  0.91451156  1
  Te2-  Te175  1  0.58639246  0.74551391  0.25071578  1
  Te2-  Te176  1  0.58233470  0.75027476  0.58658394  1
  Te2-  Te177  1  0.58622055  0.74917615  0.91960664  1
  Te2-  Te178  1  0.91756736  0.08464941  0.25632147  1
  Te2-  Te179  1  0.91401093  0.07897651  0.58476925  1
  Te2-  Te180  1  0.91723488  0.08167144  0.92492382  1
  Te2-  Te181  1  0.92045424  0.41462997  0.26084217  1
  Te2-  Te182  1  0.91796147  0.41029367  0.58694334  1
  Te2-  Te183  1  0.91727889  0.41125025  0.92060797  1
  Te2-  Te184  1  0.91967036  0.75016069  0.25776223  1
  Te2-  Te185  1  0.92319042  0.74123951  0.58484363  1
  Te2-  Te186  1  0.92454864  0.74320905  0.92450503  1
  Te2-  Te187  1  0.07868692  0.25643754  0.25853909  1
  Te2-  Te188  1  0.07757824  0.25281484  0.58610835  1
  Te2-  Te189  1  0.07496072  0.25046935  0.91969083  1
  Te2-  Te190  1  0.08758336  0.58254267  0.25391780  1
  Te2-  Te191  1  0.08545781  0.58958704  0.58186233  1
  Te2-  Te192  1  0.08221147  0.58567821  0.91910682  1
  Te2-  Te193  1  0.08303390  0.91609758  0.25054340  1
  Te2-  Te194  1  0.08126034  0.92068516  0.58395025  1
  Te2-  Te195  1  0.08185819  0.91811773  0.91583119  1
  Te2-  Te196  1  0.41202376  0.24970958  0.25626911  1
  Te2-  Te197  1  0.41316069  0.25453844  0.58775109  1
  Te2-  Te198  1  0.40904020  0.25385410  0.91911261  1
  Te2-  Te199  1  0.41647210  0.58686092  0.24404760  1
  Te2-  Te200  1  0.41027887  0.58963312  0.58226645  1
  Te2-  Te201  1  0.41434420  0.58529062  0.91636975  1
  Te2-  Te202  1  0.41316150  0.91594856  0.25316466  1
  Te2-  Te203  1  0.41248706  0.92270813  0.58262246  1
  Te2-  Te204  1  0.41385853  0.92111562  0.91841915  1
  Te2-  Te205  1  0.74117528  0.26129067  0.25520645  1
  Te2-  Te206  1  0.74324016  0.25060194  0.58743614  1
  Te2-  Te207  1  0.74547735  0.25183094  0.92280821  1
  Te2-  Te208  1  0.74766427  0.58738458  0.25192165  1
  Te2-  Te209  1  0.74915251  0.58438912  0.58892467  1
  Te2-  Te210  1  0.75317401  0.58780398  0.91968669  1
  Te2-  Te211  1  0.74303236  0.91852408  0.25650412  1
  Te2-  Te212  1  0.75036829  0.91168275  0.59318805  1
  Te2-  Te213  1  0.75520260  0.91616014  0.92126458  1
  Te2-  Te214  1  0.07824934  0.08471364  0.08511776  1
  Te2-  Te215  1  0.07963981  0.08269585  0.41507594  1
  Te2-  Te216  1  0.07879709  0.07989947  0.74558329  1
  Te2-  Te217  1  0.07951734  0.41240900  0.07943399  1
  Te2-  Te218  1  0.08025023  0.41343215  0.41463540  1
  Te2-  Te219  1  0.07955932  0.41343741  0.74574135  1
  Te2-  Te220  1  0.08150336  0.74284990  0.08000658  1
  Te2-  Te221  1  0.08134704  0.74868528  0.41299668  1
  Te2-  Te222  1  0.08562666  0.74632317  0.74068302  1
  Te2-  Te223  1  0.41041401  0.07865308  0.08029633  1
  Te2-  Te224  1  0.41567678  0.08541662  0.41491063  1
  Te2-  Te225  1  0.41259155  0.08556472  0.74576822  1
  Te2-  Te226  1  0.41441967  0.41214019  0.07228375  1
  Te2-  Te227  1  0.41413532  0.41297321  0.40893182  1
  Te2-  Te228  1  0.41386634  0.41049318  0.74564447  1
  Te2-  Te229  1  0.41383883  0.74595234  0.07879668  1
  Te2-  Te230  1  0.41573370  0.74870699  0.41179973  1
  Te2-  Te231  1  0.41501644  0.74735857  0.74622709  1
  Te2-  Te232  1  0.74378979  0.08233883  0.08530764  1
  Te2-  Te233  1  0.74188614  0.07338060  0.41244658  1
  Te2-  Te234  1  0.74460085  0.07587799  0.75305638  1
  Te2-  Te235  1  0.75383220  0.41368694  0.08434533  1
  Te2-  Te236  1  0.74480407  0.41577357  0.41474121  1
  Te2-  Te237  1  0.74782164  0.41598031  0.74710163  1
  Te2-  Te238  1  0.75030863  0.74936721  0.08434084  1
  Te2-  Te239  1  0.74636483  0.74514246  0.41576972  1
  Te2-  Te240  1  0.74983276  0.74706631  0.75181781  1
