# generated using pymatgen
data_Ti27(Cu53Te54)2
_symmetry_space_group_name_H-M   'P 1'
_cell_length_a   17.93311309
_cell_length_b   17.93721153
_cell_length_c   17.93486318
_cell_angle_alpha   90.04994410
_cell_angle_beta   90.00387168
_cell_angle_gamma   89.96767489
_symmetry_Int_Tables_number   1
_chemical_formula_structural   Ti27(Cu53Te54)2
_chemical_formula_sum   'Ti27 Cu106 Te108'
_cell_volume   5769.10508908
_cell_formula_units_Z   1
loop_
 _symmetry_equiv_pos_site_id
 _symmetry_equiv_pos_as_xyz
  1  'x, y, z'
loop_
 _atom_type_symbol
 _atom_type_oxidation_number
  Ti4+  4.0
  Cu+  1.0
  Te2-  -2.0
loop_
 _atom_site_type_symbol
 _atom_site_label
 _atom_site_symmetry_multiplicity
 _atom_site_fract_x
 _atom_site_fract_y
 _atom_site_fract_z
 _atom_site_occupancy
  Ti4+  Ti0  1  0.17223927  0.16384174  0.16726368  1
  Ti4+  Ti1  1  0.16511385  0.16694184  0.49947156  1
  Ti4+  Ti2  1  0.16438216  0.16483963  0.83694352  1
  Ti4+  Ti3  1  0.16668993  0.50061973  0.16621738  1
  Ti4+  Ti4  1  0.16404393  0.50002108  0.50074844  1
  Ti4+  Ti5  1  0.16579898  0.50036423  0.83173933  1
  Ti4+  Ti6  1  0.16894190  0.83341591  0.16738417  1
  Ti4+  Ti7  1  0.16657427  0.83543641  0.50119049  1
  Ti4+  Ti8  1  0.16175925  0.83299377  0.83262070  1
  Ti4+  Ti9  1  0.50136600  0.16668589  0.16241893  1
  Ti4+  Ti10  1  0.50204480  0.16461068  0.50181391  1
  Ti4+  Ti11  1  0.49926770  0.17097336  0.83243169  1
  Ti4+  Ti12  1  0.49958242  0.50067504  0.16611708  1
  Ti4+  Ti13  1  0.50163768  0.49817479  0.50310316  1
  Ti4+  Ti14  1  0.49810665  0.50570870  0.83441740  1
  Ti4+  Ti15  1  0.50099379  0.82753443  0.17153747  1
  Ti4+  Ti16  1  0.49980589  0.83294249  0.49875360  1
  Ti4+  Ti17  1  0.49746130  0.83798616  0.83291213  1
  Ti4+  Ti18  1  0.83535030  0.16774008  0.16502683  1
  Ti4+  Ti19  1  0.83264033  0.16597455  0.49825173  1
  Ti4+  Ti20  1  0.83409889  0.16680058  0.83516399  1
  Ti4+  Ti21  1  0.83295030  0.50186916  0.16548425  1
  Ti4+  Ti22  1  0.83123504  0.49696350  0.49560162  1
  Ti4+  Ti23  1  0.83070084  0.50118246  0.83225910  1
  Ti4+  Ti24  1  0.83233424  0.83404472  0.16499399  1
  Ti4+  Ti25  1  0.83491672  0.83373092  0.49798186  1
  Ti4+  Ti26  1  0.83245925  0.83543077  0.83077488  1
  Cu+  Cu27  1  0.16185985  0.16535653  0.00394254  1
  Cu+  Cu28  1  0.17586244  0.16094008  0.33720608  1
  Cu+  Cu29  1  0.16424974  0.16703317  0.66578983  1
  Cu+  Cu30  1  0.16680424  0.50050599  -0.00320825  1
  Cu+  Cu31  1  0.16551370  0.50076736  0.33394730  1
  Cu+  Cu32  1  0.16401087  0.49903872  0.66641365  1
  Cu+  Cu33  1  0.16860505  0.83433517  -0.00171602  1
  Cu+  Cu34  1  0.16720402  0.83991406  0.33432486  1
  Cu+  Cu35  1  0.16217563  0.83080141  0.66881169  1
  Cu+  Cu36  1  0.49510018  0.16998870  -0.00400053  1
  Cu+  Cu37  1  0.50184396  0.16698007  0.33233834  1
  Cu+  Cu38  1  0.50480259  0.16387069  0.66925593  1
  Cu+  Cu39  1  0.49499833  0.50618099  -0.00023828  1
  Cu+  Cu40  1  0.50409949  0.49776169  0.33715357  1
  Cu+  Cu41  1  0.50300592  0.50198179  0.66930270  1
  Cu+  Cu42  1  0.49779984  0.83552931  0.00378833  1
  Cu+  Cu43  1  0.49711475  0.82375769  0.33410840  1
  Cu+  Cu44  1  0.50013525  0.83727403  0.66402300  1
  Cu+  Cu45  1  0.83495706  0.16846736  0.00059493  1
  Cu+  Cu46  1  0.83446575  0.16701897  0.33114466  1
  Cu+  Cu47  1  0.83670754  0.16759214  0.66747752  1
  Cu+  Cu48  1  0.83023457  0.50565931  -0.00037004  1
  Cu+  Cu49  1  0.82983858  0.49234985  0.32861784  1
  Cu+  Cu50  1  0.82985864  0.49818475  0.66401454  1
  Cu+  Cu51  1  0.83465235  0.83464897  -0.00367543  1
  Cu+  Cu52  1  0.83072944  0.83587077  0.33422708  1
  Cu+  Cu53  1  0.83445789  0.83113174  0.66595015  1
  Cu+  Cu54  1  0.17651487  -0.00449879  0.17217833  1
  Cu+  Cu55  1  0.16465696  0.00181905  0.49481690  1
  Cu+  Cu56  1  0.15746737  0.00044855  0.83922936  1
  Cu+  Cu57  1  0.16796014  0.33288916  0.16486587  1
  Cu+  Cu58  1  0.16394360  0.33341624  0.50071086  1
  Cu+  Cu59  1  0.16644912  0.33451427  0.83382838  1
  Cu+  Cu60  1  0.16656658  0.66765840  0.16676422  1
  Cu+  Cu61  1  0.16407092  0.66807581  0.50334991  1
  Cu+  Cu62  1  0.16618496  0.66518693  0.82865955  1
  Cu+  Cu63  1  0.50082981  -0.00156944  0.16612092  1
  Cu+  Cu64  1  0.50502936  -0.00492368  0.50246468  1
  Cu+  Cu65  1  0.49906976  0.00586897  0.83155068  1
  Cu+  Cu66  1  0.50017514  0.33194170  0.15987241  1
  Cu+  Cu67  1  0.50106426  0.33004576  0.50272175  1
  Cu+  Cu68  1  0.50229545  0.34016189  0.83298394  1
  Cu+  Cu69  1  0.49850024  0.66102619  0.17367975  1
  Cu+  Cu70  1  0.50135681  0.66484728  0.50091240  1
  Cu+  Cu71  1  0.49696936  0.67202379  0.83562936  1
  Cu+  Cu72  1  0.83581039  0.00229331  0.16495468  1
  Cu+  Cu73  1  0.83137513  -0.00002361  0.49497219  1
  Cu+  Cu74  1  0.83392055  -0.00008751  0.83330637  1
  Cu+  Cu75  1  0.83409413  0.33449289  0.16641753  1
  Cu+  Cu76  1  0.82948063  0.33080688  0.49746641  1
  Cu+  Cu77  1  0.83393590  0.33294531  0.83480764  1
  Cu+  Cu78  1  0.82893890  0.66801349  0.16361897  1
  Cu+  Cu79  1  0.84033921  0.66128596  0.49849877  1
  Cu+  Cu80  1  0.83198638  0.66989648  0.82961864  1
  Cu+  Cu81  1  0.00404578  0.16869529  0.16536679  1
  Cu+  Cu82  1  -0.00222832  0.16653117  0.49963944  1
  Cu+  Cu83  1  -0.00051486  0.16421075  0.84055005  1
  Cu+  Cu84  1  0.00050140  0.50252047  0.16472091  1
  Cu+  Cu85  1  -0.00372033  0.50125131  0.49807327  1
  Cu+  Cu86  1  -0.00093899  0.49999881  0.83169674  1
  Cu+  Cu87  1  -0.00186080  0.83287732  0.16407598  1
  Cu+  Cu88  1  0.00484941  0.83340382  0.49992711  1
  Cu+  Cu89  1  -0.00260423  0.83743677  0.82804910  1
  Cu+  Cu90  1  0.34107768  0.16487629  0.16533426  1
  Cu+  Cu91  1  0.33385824  0.16653670  0.50172232  1
  Cu+  Cu92  1  0.33210236  0.16771299  0.83664232  1
  Cu+  Cu93  1  0.33103245  0.50158983  0.16442356  1
  Cu+  Cu94  1  0.33306274  0.49974643  0.50086764  1
  Cu+  Cu95  1  0.33161750  0.50343512  0.83447179  1
  Cu+  Cu96  1  0.33616120  0.83021931  0.17163722  1
  Cu+  Cu97  1  0.33473323  0.83159650  0.50068493  1
  Cu+  Cu98  1  0.32751702  0.83494493  0.83209536  1
  Cu+  Cu99  1  0.66672611  0.16790876  0.16222127  1
  Cu+  Cu100  1  0.66682303  0.16528238  0.49995967  1
  Cu+  Cu101  1  0.66783740  0.16975707  0.83201915  1
  Cu+  Cu102  1  0.66684500  0.50328046  0.16719699  1
  Cu+  Cu103  1  0.67044812  0.49278732  0.50162778  1
  Cu+  Cu104  1  0.66293159  0.50221201  0.83129411  1
  Cu+  Cu105  1  0.67035114  0.82550553  0.17345420  1
  Cu+  Cu106  1  0.66816067  0.83682625  0.49614072  1
  Cu+  Cu107  1  0.66690764  0.83604568  0.83301448  1
  Cu+  Cu108  1  0.73775484  0.92982235  0.40405564  1
  Cu+  Cu109  1  0.40920223  0.26252899  0.06922349  1
  Cu+  Cu110  1  0.59044117  0.41176017  0.74208197  1
  Cu+  Cu111  1  0.25945030  0.73686377  0.74245591  1
  Cu+  Cu112  1  0.59374049  0.58545889  0.26752531  1
  Cu+  Cu113  1  0.07267954  0.26376681  0.07800304  1
  Cu+  Cu114  1  0.75080979  0.73881958  0.26450018  1
  Cu+  Cu115  1  0.40092986  0.59069218  0.07174035  1
  Cu+  Cu116  1  0.73992888  0.59617576  0.06877637  1
  Cu+  Cu117  1  0.42067466  0.07408272  0.26287851  1
  Cu+  Cu118  1  0.07413646  0.73955710  0.59316705  1
  Cu+  Cu119  1  0.06683965  0.07192779  0.93450848  1
  Cu+  Cu120  1  0.74585573  0.40066292  0.59392234  1
  Cu+  Cu121  1  0.73769990  0.40199348  0.25109230  1
  Cu+  Cu122  1  0.25414941  0.92699343  0.92131662  1
  Cu+  Cu123  1  0.41034305  0.92217258  0.08164159  1
  Cu+  Cu124  1  0.40403290  0.73261477  0.26506601  1
  Cu+  Cu125  1  0.26590546  0.07318247  0.41952437  1
  Cu+  Cu126  1  0.07059569  0.92938687  0.73976042  1
  Cu+  Cu127  1  0.07332210  0.92940197  0.40375572  1
  Cu+  Cu128  1  0.59818344  0.91934169  0.59409916  1
  Cu+  Cu129  1  0.26401887  0.91878027  0.26399714  1
  Cu+  Cu130  1  0.92351542  0.58397663  0.59457021  1
  Cu+  Cu131  1  0.59865975  0.07643698  0.74564670  1
  Cu+  Cu132  1  0.40773209  0.07730821  0.92105465  1
  Te2-  Te133  1  0.25584795  0.24995943  0.08028918  1
  Te2-  Te134  1  0.25290688  0.25406545  0.41738864  1
  Te2-  Te135  1  0.24851512  0.24889674  0.75065487  1
  Te2-  Te136  1  0.24977916  0.58836505  0.07836149  1
  Te2-  Te137  1  0.24946862  0.58617220  0.41788781  1
  Te2-  Te138  1  0.25320072  0.58447961  0.74318205  1
  Te2-  Te139  1  0.25749334  0.91814090  0.07869631  1
  Te2-  Te140  1  0.25956935  0.92042333  0.41562004  1
  Te2-  Te141  1  0.24543922  0.92315572  0.74829439  1
  Te2-  Te142  1  0.58631306  0.25134999  0.07569607  1
  Te2-  Te143  1  0.58506907  0.24984018  0.41568198  1
  Te2-  Te144  1  0.58705176  0.25640471  0.74710656  1
  Te2-  Te145  1  0.58505718  0.58839410  0.07980655  1
  Te2-  Te146  1  0.59044213  0.58382334  0.41945092  1
  Te2-  Te147  1  0.58326579  0.59281724  0.74975782  1
  Te2-  Te148  1  0.58815439  0.91265435  0.08809875  1
  Te2-  Te149  1  0.58349974  0.91741280  0.40677646  1
  Te2-  Te150  1  0.58701552  0.92243394  0.74779120  1
  Te2-  Te151  1  0.92024272  0.25551818  0.07991194  1
  Te2-  Te152  1  0.91740102  0.25181647  0.41405621  1
  Te2-  Te153  1  0.92122491  0.25074757  0.75199030  1
  Te2-  Te154  1  0.91843953  0.58833254  0.08135242  1
  Te2-  Te155  1  0.91629099  0.58008223  0.40640674  1
  Te2-  Te156  1  0.91693203  0.58542151  0.74633994  1
  Te2-  Te157  1  0.91783009  0.91860112  0.08015610  1
  Te2-  Te158  1  0.92165500  0.91864109  0.41290606  1
  Te2-  Te159  1  0.91689971  0.92303566  0.74225786  1
  Te2-  Te160  1  0.26324918  0.07725523  0.25572652  1
  Te2-  Te161  1  0.24955546  0.08022499  0.58575695  1
  Te2-  Te162  1  0.25259259  0.07978964  0.92438586  1
  Te2-  Te163  1  0.25143616  0.41583779  0.25102304  1
  Te2-  Te164  1  0.24984186  0.41488134  0.58471708  1
  Te2-  Te165  1  0.25205383  0.41569230  0.91711076  1
  Te2-  Te166  1  0.25076715  0.74573493  0.25671622  1
  Te2-  Te167  1  0.25332946  0.74849221  0.58698880  1
  Te2-  Te168  1  0.24952774  0.74595649  0.91689757  1
  Te2-  Te169  1  0.58703759  0.08158643  0.24865181  1
  Te2-  Te170  1  0.59105270  0.07767098  0.58762508  1
  Te2-  Te171  1  0.58537866  0.08526574  0.91865087  1
  Te2-  Te172  1  0.58423091  0.41052524  0.24986579  1
  Te2-  Te173  1  0.58781476  0.40970733  0.58889264  1
  Te2-  Te174  1  0.58322269  0.42116293  0.92234198  1
  Te2-  Te175  1  0.58940572  0.74083568  0.25870303  1
  Te2-  Te176  1  0.58693338  0.74978956  0.58384072  1
  Te2-  Te177  1  0.58227732  0.75455595  0.91817190  1
  Te2-  Te178  1  0.92103062  0.08348247  0.24982499  1
  Te2-  Te179  1  0.91654464  0.07993973  0.58268652  1
  Te2-  Te180  1  0.91671464  0.07794052  0.92328715  1
  Te2-  Te181  1  0.92136284  0.41577410  0.24787805  1
  Te2-  Te182  1  0.91680185  0.41163377  0.58299055  1
  Te2-  Te183  1  0.91496610  0.41940207  0.91873734  1
  Te2-  Te184  1  0.91648969  0.74857925  0.25096444  1
  Te2-  Te185  1  0.92091152  0.74691919  0.58517421  1
  Te2-  Te186  1  0.91902089  0.74984164  0.91424056  1
  Te2-  Te187  1  0.08950214  0.24765016  0.25453076  1
  Te2-  Te188  1  0.07906094  0.25121627  0.58482661  1
  Te2-  Te189  1  0.08075080  0.25514003  0.92138593  1
  Te2-  Te190  1  0.08178008  0.58608984  0.25093821  1
  Te2-  Te191  1  0.07649636  0.58611053  0.58884756  1
  Te2-  Te192  1  0.08073645  0.58645705  0.91612322  1
  Te2-  Te193  1  0.07837298  0.91983867  0.24930325  1
  Te2-  Te194  1  0.08096041  0.92399754  0.58626764  1
  Te2-  Te195  1  0.07386183  0.91632331  0.92479036  1
  Te2-  Te196  1  0.41798801  0.25371606  0.25082194  1
  Te2-  Te197  1  0.41721233  0.24731545  0.58747553  1
  Te2-  Te198  1  0.41188194  0.26104908  0.91569576  1
  Te2-  Te199  1  0.41096908  0.57972916  0.25867976  1
  Te2-  Te200  1  0.41666185  0.58373634  0.58636804  1
  Te2-  Te201  1  0.40916050  0.59244942  0.91855921  1
  Te2-  Te202  1  0.41622055  0.91985562  0.25885813  1
  Te2-  Te203  1  0.41246626  0.91912253  0.58369382  1
  Te2-  Te204  1  0.41040428  0.92272281  0.92110162  1
  Te2-  Te205  1  0.74627668  0.25092797  0.25070757  1
  Te2-  Te206  1  0.74669905  0.24926922  0.58758199  1
  Te2-  Te207  1  0.74848892  0.25224358  0.91939952  1
  Te2-  Te208  1  0.74642668  0.58824086  0.25812947  1
  Te2-  Te209  1  0.74774255  0.58644745  0.58201312  1
  Te2-  Te210  1  0.74452270  0.58964333  0.91478196  1
  Te2-  Te211  1  0.74706500  0.92348399  0.25036446  1
  Te2-  Te212  1  0.75086207  0.91940371  0.58634065  1
  Te2-  Te213  1  0.74795780  0.92014215  0.91781284  1
  Te2-  Te214  1  0.08456105  0.07363006  0.08749482  1
  Te2-  Te215  1  0.07683218  0.08290962  0.41027181  1
  Te2-  Te216  1  0.07784939  0.08297539  0.74700360  1
  Te2-  Te217  1  0.08087859  0.41613793  0.07903848  1
  Te2-  Te218  1  0.07962129  0.41538386  0.41512059  1
  Te2-  Te219  1  0.08019621  0.41363334  0.74818465  1
  Te2-  Te220  1  0.08361202  0.75016588  0.08113445  1
  Te2-  Te221  1  0.08483497  0.74928583  0.41193519  1
  Te2-  Te222  1  0.07434399  0.74386381  0.74778414  1
  Te2-  Te223  1  0.41320979  0.07585640  0.07542928  1
  Te2-  Te224  1  0.41744136  0.07656485  0.41546602  1
  Te2-  Te225  1  0.41115009  0.08478928  0.74768348  1
  Te2-  Te226  1  0.41233059  0.41598318  0.07903430  1
  Te2-  Te227  1  0.41728308  0.41379099  0.41779091  1
  Te2-  Te228  1  0.41337840  0.41900902  0.74897797  1
  Te2-  Te229  1  0.41463535  0.74353948  0.08286967  1
  Te2-  Te230  1  0.41130582  0.74177078  0.41776396  1
  Te2-  Te231  1  0.41417210  0.75232659  0.74628594  1
  Te2-  Te232  1  0.74971034  0.08249660  0.08046685  1
  Te2-  Te233  1  0.74552017  0.08234263  0.40992186  1
  Te2-  Te234  1  0.75007031  0.08130020  0.74674936  1
  Te2-  Te235  1  0.74677515  0.41586146  0.08064878  1
  Te2-  Te236  1  0.74402004  0.40860918  0.40928507  1
  Te2-  Te237  1  0.74558644  0.41136650  0.74773509  1
  Te2-  Te238  1  0.74603405  0.75014049  0.07464316  1
  Te2-  Te239  1  0.74926293  0.74337052  0.41747890  1
  Te2-  Te240  1  0.74564128  0.75051417  0.74614860  1
