# generated using pymatgen
data_Ti27(Cu53Te54)2
_symmetry_space_group_name_H-M   'P 1'
_cell_length_a   17.86567278
_cell_length_b   17.86502385
_cell_length_c   17.86234900
_cell_angle_alpha   89.98460046
_cell_angle_beta   89.97153885
_cell_angle_gamma   89.99865548
_symmetry_Int_Tables_number   1
_chemical_formula_structural   Ti27(Cu53Te54)2
_chemical_formula_sum   'Ti27 Cu106 Te108'
_cell_volume   5701.13699017
_cell_formula_units_Z   1
loop_
 _symmetry_equiv_pos_site_id
 _symmetry_equiv_pos_as_xyz
  1  'x, y, z'
loop_
 _atom_type_symbol
 _atom_type_oxidation_number
  Ti4+  4.0
  Cu+  1.0
  Te2-  -2.0
loop_
 _atom_site_type_symbol
 _atom_site_label
 _atom_site_symmetry_multiplicity
 _atom_site_fract_x
 _atom_site_fract_y
 _atom_site_fract_z
 _atom_site_occupancy
  Ti4+  Ti0  1  0.16623094  0.16797947  0.16731582  1
  Ti4+  Ti1  1  0.16508984  0.16477945  0.50402153  1
  Ti4+  Ti2  1  0.16697709  0.16635211  0.83685841  1
  Ti4+  Ti3  1  0.16733690  0.50167410  0.16752755  1
  Ti4+  Ti4  1  0.16756534  0.49844276  0.49820039  1
  Ti4+  Ti5  1  0.16877254  0.49940378  0.83209242  1
  Ti4+  Ti6  1  0.16785920  0.83589508  0.16728477  1
  Ti4+  Ti7  1  0.16799660  0.83592787  0.49810068  1
  Ti4+  Ti8  1  0.16449131  0.82897704  0.83379086  1
  Ti4+  Ti9  1  0.50152396  0.16575000  0.16641771  1
  Ti4+  Ti10  1  0.49804579  0.16575159  0.50168144  1
  Ti4+  Ti11  1  0.50065185  0.16733128  0.83052682  1
  Ti4+  Ti12  1  0.49888057  0.49637468  0.16553202  1
  Ti4+  Ti13  1  0.50111474  0.50046565  0.50079422  1
  Ti4+  Ti14  1  0.49907871  0.50004046  0.83139535  1
  Ti4+  Ti15  1  0.50088027  0.83376106  0.16613021  1
  Ti4+  Ti16  1  0.49860852  0.83412249  0.49944066  1
  Ti4+  Ti17  1  0.49796643  0.83172357  0.83276556  1
  Ti4+  Ti18  1  0.83389073  0.16443251  0.16620349  1
  Ti4+  Ti19  1  0.83392237  0.16867968  0.50199709  1
  Ti4+  Ti20  1  0.83324381  0.16515850  0.83220114  1
  Ti4+  Ti21  1  0.83088349  0.50090907  0.16821462  1
  Ti4+  Ti22  1  0.83409049  0.50330894  0.50213584  1
  Ti4+  Ti23  1  0.83600713  0.49975724  0.83336437  1
  Ti4+  Ti24  1  0.83193766  0.83242803  0.16820898  1
  Ti4+  Ti25  1  0.83451668  0.83565834  0.50071558  1
  Ti4+  Ti26  1  0.83196381  0.83267731  0.83232018  1
  Cu+  Cu27  1  0.16864283  0.16503390  0.00338120  1
  Cu+  Cu28  1  0.16169364  0.16503877  0.33392665  1
  Cu+  Cu29  1  0.16509469  0.16659816  0.67262624  1
  Cu+  Cu30  1  0.17061690  0.50017247  0.00131201  1
  Cu+  Cu31  1  0.16733602  0.50047459  0.33201441  1
  Cu+  Cu32  1  0.16475994  0.49785013  0.66404424  1
  Cu+  Cu33  1  0.16861524  0.83683591  -0.00232311  1
  Cu+  Cu34  1  0.16965073  0.82974062  0.33580825  1
  Cu+  Cu35  1  0.16585176  0.83170767  0.66494598  1
  Cu+  Cu36  1  0.50050169  0.16631165  -0.00239476  1
  Cu+  Cu37  1  0.50182662  0.16838544  0.33296905  1
  Cu+  Cu38  1  0.49978263  0.16741387  0.66386444  1
  Cu+  Cu39  1  0.49993822  0.49606659  -0.00059889  1
  Cu+  Cu40  1  0.50380586  0.49970099  0.33160032  1
  Cu+  Cu41  1  0.49420238  0.49953522  0.66550937  1
  Cu+  Cu42  1  0.49939000  0.82917496  -0.00117244  1
  Cu+  Cu43  1  0.50157781  0.83909721  0.33202233  1
  Cu+  Cu44  1  0.49936769  0.83236059  0.66689345  1
  Cu+  Cu45  1  0.83704753  0.16784113  -0.00248938  1
  Cu+  Cu46  1  0.83181124  0.16585905  0.33496389  1
  Cu+  Cu47  1  0.82892647  0.16358699  0.66533562  1
  Cu+  Cu48  1  0.83271695  0.49736042  0.00089879  1
  Cu+  Cu49  1  0.83590841  0.50584756  0.33389579  1
  Cu+  Cu50  1  0.82823819  0.50341834  0.67001441  1
  Cu+  Cu51  1  0.82520762  0.83294836  0.00163415  1
  Cu+  Cu52  1  0.83725089  0.83486644  0.33297949  1
  Cu+  Cu53  1  0.83908737  0.83382117  0.66557404  1
  Cu+  Cu54  1  0.16613264  0.00391175  0.16619332  1
  Cu+  Cu55  1  0.17157623  0.00330311  0.49867641  1
  Cu+  Cu56  1  0.16499602  -0.00306707  0.83798570  1
  Cu+  Cu57  1  0.16731860  0.33621304  0.16716261  1
  Cu+  Cu58  1  0.16297879  0.32903321  0.49978475  1
  Cu+  Cu59  1  0.16791419  0.33461107  0.83579773  1
  Cu+  Cu60  1  0.16476125  0.66999185  0.16504643  1
  Cu+  Cu61  1  0.16842481  0.66799259  0.49623333  1
  Cu+  Cu62  1  0.16695223  0.66058038  0.83216278  1
  Cu+  Cu63  1  0.50547914  -0.00027826  0.16964672  1
  Cu+  Cu64  1  0.49001487  -0.00197508  0.49935419  1
  Cu+  Cu65  1  0.49920078  -0.00074501  0.83305664  1
  Cu+  Cu66  1  0.49833258  0.33060870  0.16297428  1
  Cu+  Cu67  1  0.50102591  0.33503636  0.50655977  1
  Cu+  Cu68  1  0.50119717  0.33364061  0.83073410  1
  Cu+  Cu69  1  0.50006641  0.66546103  0.16701086  1
  Cu+  Cu70  1  0.50084114  0.66937924  0.49988191  1
  Cu+  Cu71  1  0.49590551  0.66637035  0.82915602  1
  Cu+  Cu72  1  0.83265117  -0.00322552  0.16469748  1
  Cu+  Cu73  1  0.83517169  0.00185137  0.50656530  1
  Cu+  Cu74  1  0.83108539  -0.00022799  0.83192896  1
  Cu+  Cu75  1  0.83040803  0.33253596  0.16630450  1
  Cu+  Cu76  1  0.83861263  0.33853771  0.49964530  1
  Cu+  Cu77  1  0.83920114  0.33009361  0.83706222  1
  Cu+  Cu78  1  0.83520600  0.66599302  0.17077390  1
  Cu+  Cu79  1  0.82853566  0.66740732  0.49854184  1
  Cu+  Cu80  1  0.83395021  0.66803856  0.82891613  1
  Cu+  Cu81  1  0.00095860  0.16443048  0.17074552  1
  Cu+  Cu82  1  0.00245941  0.17376478  0.49827011  1
  Cu+  Cu83  1  -0.00067890  0.16877648  0.83718376  1
  Cu+  Cu84  1  0.00133513  0.50346281  0.16879312  1
  Cu+  Cu85  1  -0.00268789  0.49503988  0.49921272  1
  Cu+  Cu86  1  0.00413736  0.49898461  0.83188360  1
  Cu+  Cu87  1  0.00055239  0.83541032  0.16908912  1
  Cu+  Cu88  1  0.00005528  0.83955147  0.50441648  1
  Cu+  Cu89  1  -0.00350543  0.82498006  0.83003671  1
  Cu+  Cu90  1  0.33542915  0.16706566  0.16357104  1
  Cu+  Cu91  1  0.33176877  0.15701886  0.50441081  1
  Cu+  Cu92  1  0.33497031  0.16756438  0.83332812  1
  Cu+  Cu93  1  0.33441035  0.49780948  0.16456089  1
  Cu+  Cu94  1  0.33531264  0.49609204  0.50246736  1
  Cu+  Cu95  1  0.33350620  0.50584205  0.83098021  1
  Cu+  Cu96  1  0.33379633  0.83244642  0.16616549  1
  Cu+  Cu97  1  0.33321613  0.83436550  0.49177424  1
  Cu+  Cu98  1  0.33090825  0.83131074  0.83654177  1
  Cu+  Cu99  1  0.66802052  0.16464408  0.16373569  1
  Cu+  Cu100  1  0.66670865  0.16749749  0.50711005  1
  Cu+  Cu101  1  0.66619439  0.16731130  0.82934126  1
  Cu+  Cu102  1  0.66220779  0.49825660  0.16933901  1
  Cu+  Cu103  1  0.66949817  0.50447545  0.49827877  1
  Cu+  Cu104  1  0.66807941  0.50063211  0.83140570  1
  Cu+  Cu105  1  0.66684492  0.83808325  0.16642873  1
  Cu+  Cu106  1  0.66583962  0.83290746  0.50028174  1
  Cu+  Cu107  1  0.66295681  0.83147373  0.83337362  1
  Cu+  Cu108  1  0.74111318  0.59562641  0.40532485  1
  Cu+  Cu109  1  0.07339031  0.07269831  0.26234078  1
  Cu+  Cu110  1  0.40366568  0.06742688  0.59885537  1
  Cu+  Cu111  1  0.58768135  0.59473611  0.25663821  1
  Cu+  Cu112  1  0.73742611  0.92834107  0.07050535  1
  Cu+  Cu113  1  0.40299864  0.40437831  0.59551488  1
  Cu+  Cu114  1  0.92281949  0.40999831  0.40265550  1
  Cu+  Cu115  1  0.59690137  0.26471395  0.59182671  1
  Cu+  Cu116  1  0.93068286  0.25963764  0.92960353  1
  Cu+  Cu117  1  0.26467048  0.07821412  0.07320867  1
  Cu+  Cu118  1  0.92491954  0.73816827  0.73515115  1
  Cu+  Cu119  1  0.73616681  0.06932087  0.59276671  1
  Cu+  Cu120  1  0.93234841  0.59330662  0.26061981  1
  Cu+  Cu121  1  0.07549985  0.58782087  0.73515922  1
  Cu+  Cu122  1  0.26111342  0.92669013  0.92142100  1
  Cu+  Cu123  1  0.07736919  0.26044141  0.40417260  1
  Cu+  Cu124  1  0.26368306  0.73400417  0.40672758  1
  Cu+  Cu125  1  0.73596928  0.59704335  0.74580533  1
  Cu+  Cu126  1  0.93067447  0.93339608  0.59744893  1
  Cu+  Cu127  1  0.40590500  0.92575720  0.39993009  1
  Cu+  Cu128  1  0.25934985  0.08141187  0.40298043  1
  Cu+  Cu129  1  0.92849439  0.92697659  0.25708934  1
  Cu+  Cu130  1  0.59562626  0.93111285  0.26470694  1
  Cu+  Cu131  1  0.26301345  0.58853576  0.93185533  1
  Cu+  Cu132  1  0.40449625  0.59763605  0.73547011  1
  Te2-  Te133  1  0.25222308  0.25468532  0.08193765  1
  Te2-  Te134  1  0.25327647  0.24750444  0.41626595  1
  Te2-  Te135  1  0.25130005  0.25201903  0.75104916  1
  Te2-  Te136  1  0.25482223  0.58907491  0.08372045  1
  Te2-  Te137  1  0.25626942  0.58210089  0.41367096  1
  Te2-  Te138  1  0.25238253  0.58686172  0.73939613  1
  Te2-  Te139  1  0.25544526  0.92190312  0.08048669  1
  Te2-  Te140  1  0.25331831  0.92521768  0.40779972  1
  Te2-  Te141  1  0.24954256  0.91615067  0.74921796  1
  Te2-  Te142  1  0.58613343  0.25012063  0.07962482  1
  Te2-  Te143  1  0.58537045  0.25199736  0.41888795  1
  Te2-  Te144  1  0.58696258  0.25454568  0.74383934  1
  Te2-  Te145  1  0.58465370  0.58351887  0.07953981  1
  Te2-  Te146  1  0.58629476  0.59020381  0.41324939  1
  Te2-  Te147  1  0.58450729  0.58609925  0.74402917  1
  Te2-  Te148  1  0.58445983  0.91975730  0.07565474  1
  Te2-  Te149  1  0.58772208  0.92357489  0.41765832  1
  Te2-  Te150  1  0.58348864  0.91760808  0.74789794  1
  Te2-  Te151  1  0.92121751  0.25273125  0.08410294  1
  Te2-  Te152  1  0.91938047  0.25463425  0.41036099  1
  Te2-  Te153  1  0.91860366  0.24931999  0.74465110  1
  Te2-  Te154  1  0.91671973  0.58484711  0.08135401  1
  Te2-  Te155  1  0.92344202  0.59110951  0.41630118  1
  Te2-  Te156  1  0.92348581  0.58571917  0.74409061  1
  Te2-  Te157  1  0.91853496  0.91560223  0.07906426  1
  Te2-  Te158  1  0.91975947  0.92349305  0.41481079  1
  Te2-  Te159  1  0.92150879  0.92154382  0.74917588  1
  Te2-  Te160  1  0.25506745  0.08190906  0.25251196  1
  Te2-  Te161  1  0.24961469  0.07793324  0.59562325  1
  Te2-  Te162  1  0.25695452  0.07933855  0.92085681  1
  Te2-  Te163  1  0.25321662  0.41550401  0.25223854  1
  Te2-  Te164  1  0.24936988  0.40976174  0.58501027  1
  Te2-  Te165  1  0.25646626  0.41531387  0.91820004  1
  Te2-  Te166  1  0.25352593  0.74661768  0.25113406  1
  Te2-  Te167  1  0.25409644  0.74988072  0.58255009  1
  Te2-  Te168  1  0.25112296  0.74237656  0.92067927  1
  Te2-  Te169  1  0.59035463  0.08295008  0.25543784  1
  Te2-  Te170  1  0.58253891  0.07429510  0.58587729  1
  Te2-  Te171  1  0.58555453  0.08188279  0.91574935  1
  Te2-  Te172  1  0.58352624  0.40802217  0.25155823  1
  Te2-  Te173  1  0.59122533  0.41914041  0.58832744  1
  Te2-  Te174  1  0.58645726  0.41537338  0.91542607  1
  Te2-  Te175  1  0.58742849  0.74925930  0.25357815  1
  Te2-  Te176  1  0.58474160  0.74917484  0.58536580  1
  Te2-  Te177  1  0.58299638  0.74391350  0.91637354  1
  Te2-  Te178  1  0.91818326  0.07820071  0.25654301  1
  Te2-  Te179  1  0.92558300  0.08610080  0.58715142  1
  Te2-  Te180  1  0.91846256  0.07761169  0.91769735  1
  Te2-  Te181  1  0.91901918  0.41278945  0.25147282  1
  Te2-  Te182  1  0.91711979  0.41784800  0.59228586  1
  Te2-  Te183  1  0.92369334  0.41532171  0.92132858  1
  Te2-  Te184  1  0.92243743  0.74675472  0.25509005  1
  Te2-  Te185  1  0.92059895  0.74371215  0.58206338  1
  Te2-  Te186  1  0.91306297  0.74767322  0.92206602  1
  Te2-  Te187  1  0.07922225  0.25726838  0.25231029  1
  Te2-  Te188  1  0.08107237  0.25182844  0.59165977  1
  Te2-  Te189  1  0.08370172  0.25408219  0.92406525  1
  Te2-  Te190  1  0.08329882  0.59035245  0.25518156  1
  Te2-  Te191  1  0.08033206  0.58576048  0.58007169  1
  Te2-  Te192  1  0.08139742  0.58334481  0.92121148  1
  Te2-  Te193  1  0.08261439  0.92032347  0.25756455  1
  Te2-  Te194  1  0.08465666  0.92433645  0.58760314  1
  Te2-  Te195  1  0.07492557  0.91309293  0.91640979  1
  Te2-  Te196  1  0.41492592  0.25092787  0.25107091  1
  Te2-  Te197  1  0.40801385  0.25182007  0.58615991  1
  Te2-  Te198  1  0.41653517  0.25280510  0.91715951  1
  Te2-  Te199  1  0.41376709  0.58343072  0.25227378  1
  Te2-  Te200  1  0.41254629  0.59025595  0.58298024  1
  Te2-  Te201  1  0.41623002  0.58647860  0.92207158  1
  Te2-  Te202  1  0.41123371  0.92195960  0.24906207  1
  Te2-  Te203  1  0.40862222  0.91496419  0.58894799  1
  Te2-  Te204  1  0.41436573  0.91890317  0.92110422  1
  Te2-  Te205  1  0.74775993  0.24906843  0.25124573  1
  Te2-  Te206  1  0.75095794  0.25978752  0.58670819  1
  Te2-  Te207  1  0.74667846  0.25083879  0.91772022  1
  Te2-  Te208  1  0.74230467  0.58916413  0.25390723  1
  Te2-  Te209  1  0.74457457  0.59005783  0.58916645  1
  Te2-  Te210  1  0.75032019  0.58602562  0.91786722  1
  Te2-  Te211  1  0.74715585  0.92136456  0.25729410  1
  Te2-  Te212  1  0.74546225  0.91683250  0.58899613  1
  Te2-  Te213  1  0.74361140  0.91952958  0.91628684  1
  Te2-  Te214  1  0.07837033  0.08166000  0.08057443  1
  Te2-  Te215  1  0.07584671  0.07739176  0.41720131  1
  Te2-  Te216  1  0.08060761  0.08043419  0.75387189  1
  Te2-  Te217  1  0.08150424  0.41758845  0.08184422  1
  Te2-  Te218  1  0.08030816  0.41309876  0.41036631  1
  Te2-  Te219  1  0.08240589  0.41107867  0.74725119  1
  Te2-  Te220  1  0.08172798  0.75342865  0.08086942  1
  Te2-  Te221  1  0.07761089  0.75132908  0.41687167  1
  Te2-  Te222  1  0.08059205  0.74211908  0.74225147  1
  Te2-  Te223  1  0.41810932  0.07750289  0.07966936  1
  Te2-  Te224  1  0.41290110  0.08117767  0.40721881  1
  Te2-  Te225  1  0.41297204  0.07956389  0.74768726  1
  Te2-  Te226  1  0.41310027  0.41171848  0.07851947  1
  Te2-  Te227  1  0.41898929  0.41395215  0.41432875  1
  Te2-  Te228  1  0.41018084  0.41156028  0.74818182  1
  Te2-  Te229  1  0.41509365  0.74653421  0.08260993  1
  Te2-  Te230  1  0.41703489  0.74575659  0.40883401  1
  Te2-  Te231  1  0.40874076  0.74926433  0.74484032  1
  Te2-  Te232  1  0.74931132  0.08097236  0.07698876  1
  Te2-  Te233  1  0.74752412  0.08190949  0.41953490  1
  Te2-  Te234  1  0.74399480  0.07782068  0.74629578  1
  Te2-  Te235  1  0.74554609  0.41538587  0.08291733  1
  Te2-  Te236  1  0.74966251  0.41647536  0.41373322  1
  Te2-  Te237  1  0.75131853  0.41037656  0.75160803  1
  Te2-  Te238  1  0.74567244  0.74425238  0.08560909  1
  Te2-  Te239  1  0.74697638  0.75184767  0.41193491  1
  Te2-  Te240  1  0.74434486  0.74988703  0.74338828  1
