# generated using pymatgen
data_Ti27(Cu53Te54)2
_symmetry_space_group_name_H-M   'P 1'
_cell_length_a   17.88631058
_cell_length_b   17.89015445
_cell_length_c   17.89088569
_cell_angle_alpha   89.99702915
_cell_angle_beta   90.05145865
_cell_angle_gamma   89.99106530
_symmetry_Int_Tables_number   1
_chemical_formula_structural   Ti27(Cu53Te54)2
_chemical_formula_sum   'Ti27 Cu106 Te108'
_cell_volume   5724.88170701
_cell_formula_units_Z   1
loop_
 _symmetry_equiv_pos_site_id
 _symmetry_equiv_pos_as_xyz
  1  'x, y, z'
loop_
 _atom_type_symbol
 _atom_type_oxidation_number
  Ti4+  4.0
  Cu+  1.0
  Te2-  -2.0
loop_
 _atom_site_type_symbol
 _atom_site_label
 _atom_site_symmetry_multiplicity
 _atom_site_fract_x
 _atom_site_fract_y
 _atom_site_fract_z
 _atom_site_occupancy
  Ti4+  Ti0  1  0.16712802  0.16786809  0.16889538  1
  Ti4+  Ti1  1  0.16513896  0.16760610  0.50375437  1
  Ti4+  Ti2  1  0.16849977  0.16702712  0.83695823  1
  Ti4+  Ti3  1  0.16316292  0.50135157  0.16696105  1
  Ti4+  Ti4  1  0.16468950  0.49965221  0.49951577  1
  Ti4+  Ti5  1  0.16641110  0.50130736  0.83192745  1
  Ti4+  Ti6  1  0.16616300  0.82969567  0.17061096  1
  Ti4+  Ti7  1  0.16831215  0.83221431  0.49848299  1
  Ti4+  Ti8  1  0.16722551  0.83388103  0.83384812  1
  Ti4+  Ti9  1  0.50208480  0.16625958  0.16648796  1
  Ti4+  Ti10  1  0.50035390  0.16247484  0.49925070  1
  Ti4+  Ti11  1  0.50093988  0.16753036  0.83138821  1
  Ti4+  Ti12  1  0.50047587  0.49788396  0.16626920  1
  Ti4+  Ti13  1  0.50095605  0.49865475  0.49726088  1
  Ti4+  Ti14  1  0.49979801  0.49895300  0.83570526  1
  Ti4+  Ti15  1  0.49834274  0.83666770  0.16623113  1
  Ti4+  Ti16  1  0.50196277  0.82869519  0.49788409  1
  Ti4+  Ti17  1  0.50014471  0.83180916  0.83496889  1
  Ti4+  Ti18  1  0.83625852  0.16771645  0.16701734  1
  Ti4+  Ti19  1  0.83187057  0.16497969  0.49835165  1
  Ti4+  Ti20  1  0.83285278  0.17039416  0.83297016  1
  Ti4+  Ti21  1  0.83389836  0.50452182  0.16570102  1
  Ti4+  Ti22  1  0.83000946  0.50048496  0.49998655  1
  Ti4+  Ti23  1  0.83395907  0.49847572  0.83241205  1
  Ti4+  Ti24  1  0.83299873  0.83291983  0.16631312  1
  Ti4+  Ti25  1  0.83124160  0.83891875  0.50066682  1
  Ti4+  Ti26  1  0.83427048  0.83607894  0.83143227  1
  Cu+  Cu27  1  0.16867958  0.16678915  0.00327587  1
  Cu+  Cu28  1  0.16350658  0.16944525  0.33640486  1
  Cu+  Cu29  1  0.16689260  0.16815815  0.67125276  1
  Cu+  Cu30  1  0.16168968  0.50474398  -0.00166156  1
  Cu+  Cu31  1  0.16456780  0.49808153  0.33356298  1
  Cu+  Cu32  1  0.16589315  0.50165453  0.66328024  1
  Cu+  Cu33  1  0.16759475  0.83444055  0.00028558  1
  Cu+  Cu34  1  0.16589047  0.82347287  0.33451817  1
  Cu+  Cu35  1  0.17118409  0.83230761  0.66885802  1
  Cu+  Cu36  1  0.50191605  0.16598981  -0.00320138  1
  Cu+  Cu37  1  0.50405758  0.16276057  0.33465953  1
  Cu+  Cu38  1  0.49648876  0.16535506  0.66609400  1
  Cu+  Cu39  1  0.49785756  0.49880069  0.00193849  1
  Cu+  Cu40  1  0.50018208  0.49709085  0.33181652  1
  Cu+  Cu41  1  0.50055395  0.49706590  0.66779183  1
  Cu+  Cu42  1  0.50258882  0.83360551  0.00215583  1
  Cu+  Cu43  1  0.49089610  0.83344122  0.33185626  1
  Cu+  Cu44  1  0.50119055  0.83194650  0.66738281  1
  Cu+  Cu45  1  0.83432276  0.17010093  0.00019690  1
  Cu+  Cu46  1  0.83083825  0.16207081  0.32892385  1
  Cu+  Cu47  1  0.82938861  0.17044945  0.66710097  1
  Cu+  Cu48  1  0.83935657  0.49891165  0.00128267  1
  Cu+  Cu49  1  0.82638017  0.50341834  0.33294400  1
  Cu+  Cu50  1  0.83627029  0.49595120  0.66942578  1
  Cu+  Cu51  1  0.83191555  0.83299952  -0.00301865  1
  Cu+  Cu52  1  0.83503284  0.84203523  0.33139999  1
  Cu+  Cu53  1  0.83529572  0.83782577  0.66426781  1
  Cu+  Cu54  1  0.16795296  -0.00051218  0.16951812  1
  Cu+  Cu55  1  0.17044513  0.00359676  0.50014868  1
  Cu+  Cu56  1  0.16805759  -0.00045107  0.83584916  1
  Cu+  Cu57  1  0.16606209  0.33397781  0.16775666  1
  Cu+  Cu58  1  0.16153661  0.33264045  0.50047077  1
  Cu+  Cu59  1  0.16778813  0.33285678  0.83636296  1
  Cu+  Cu60  1  0.15754843  0.66501480  0.16892054  1
  Cu+  Cu61  1  0.16823724  0.66579744  0.49829327  1
  Cu+  Cu62  1  0.16861620  0.66966397  0.83002014  1
  Cu+  Cu63  1  0.49912787  0.00072388  0.16542475  1
  Cu+  Cu64  1  0.50419865  -0.00521518  0.49478515  1
  Cu+  Cu65  1  0.49867653  0.00178655  0.83621426  1
  Cu+  Cu66  1  0.50108397  0.33149684  0.16520622  1
  Cu+  Cu67  1  0.50030305  0.33157709  0.49913571  1
  Cu+  Cu68  1  0.50445774  0.33315311  0.83475611  1
  Cu+  Cu69  1  0.50005685  0.66496255  0.16634090  1
  Cu+  Cu70  1  0.50615831  0.65761734  0.50428410  1
  Cu+  Cu71  1  0.49847526  0.66414355  0.83489547  1
  Cu+  Cu72  1  0.83792512  -0.00224369  0.16831400  1
  Cu+  Cu73  1  0.83310434  0.00340834  0.50768423  1
  Cu+  Cu74  1  0.83508889  0.00273014  0.83139976  1
  Cu+  Cu75  1  0.83629017  0.33833604  0.16775446  1
  Cu+  Cu76  1  0.83272806  0.33221036  0.49720991  1
  Cu+  Cu77  1  0.83270187  0.33374200  0.82577902  1
  Cu+  Cu78  1  0.83358790  0.66930000  0.16531801  1
  Cu+  Cu79  1  0.82498635  0.66898608  0.49648410  1
  Cu+  Cu80  1  0.83249615  0.66710722  0.83405903  1
  Cu+  Cu81  1  0.00327061  0.16787809  0.16616241  1
  Cu+  Cu82  1  0.00201853  0.17251899  0.49819800  1
  Cu+  Cu83  1  0.00300675  0.16823490  0.83648130  1
  Cu+  Cu84  1  -0.00079575  0.50487970  0.15899229  1
  Cu+  Cu85  1  -0.00237077  0.50180594  0.50147427  1
  Cu+  Cu86  1  -0.00122354  0.49700376  0.83007156  1
  Cu+  Cu87  1  -0.00094559  0.83135925  0.17375066  1
  Cu+  Cu88  1  -0.00228813  0.84040952  0.50133846  1
  Cu+  Cu89  1  0.00213525  0.83656582  0.83126532  1
  Cu+  Cu90  1  0.33427504  0.16928764  0.16871182  1
  Cu+  Cu91  1  0.32903118  0.16248695  0.50033763  1
  Cu+  Cu92  1  0.33453236  0.16352149  0.83605759  1
  Cu+  Cu93  1  0.32996084  0.49965288  0.16409941  1
  Cu+  Cu94  1  0.33438862  0.49656459  0.49858615  1
  Cu+  Cu95  1  0.33410721  0.50058914  0.83417922  1
  Cu+  Cu96  1  0.33600776  0.83011613  0.17298010  1
  Cu+  Cu97  1  0.33490645  0.82979787  0.49075348  1
  Cu+  Cu98  1  0.33153005  0.83129833  0.83274543  1
  Cu+  Cu99  1  0.67153691  0.16574433  0.16643325  1
  Cu+  Cu100  1  0.66524573  0.15643600  0.49899192  1
  Cu+  Cu101  1  0.66604633  0.17809667  0.83087203  1
  Cu+  Cu102  1  0.66832673  0.49896978  0.17041763  1
  Cu+  Cu103  1  0.66632174  0.50654381  0.49656761  1
  Cu+  Cu104  1  0.66626685  0.49921706  0.83669319  1
  Cu+  Cu105  1  0.66014085  0.83238997  0.15969478  1
  Cu+  Cu106  1  0.66556087  0.83312806  0.50645616  1
  Cu+  Cu107  1  0.67044975  0.83196778  0.83644339  1
  Cu+  Cu108  1  0.74698378  0.74032234  0.59567477  1
  Cu+  Cu109  1  0.74122413  0.06768937  0.24945370  1
  Cu+  Cu110  1  0.59458263  0.06801802  0.40368243  1
  Cu+  Cu111  1  0.25308002  0.07966348  0.40484289  1
  Cu+  Cu112  1  0.41248380  0.73303722  0.25716607  1
  Cu+  Cu113  1  0.07186822  0.26307324  0.40539846  1
  Cu+  Cu114  1  0.06670844  0.73479820  0.26548574  1
  Cu+  Cu115  1  0.74146035  0.40619742  0.25987735  1
  Cu+  Cu116  1  0.26204848  0.73860692  0.74049522  1
  Cu+  Cu117  1  0.40665527  0.92635344  0.40736427  1
  Cu+  Cu118  1  0.58484522  0.92440352  0.59764857  1
  Cu+  Cu119  1  0.07357522  0.59873249  0.06517866  1
  Cu+  Cu120  1  0.73714285  0.60116902  0.40139504  1
  Cu+  Cu121  1  0.59496396  0.57960142  0.60096064  1
  Cu+  Cu122  1  0.58459451  0.73530001  0.07426633  1
  Cu+  Cu123  1  0.93288966  0.93196039  0.59541046  1
  Cu+  Cu124  1  0.93137900  0.92953887  0.25848391  1
  Cu+  Cu125  1  0.25999086  0.73205390  0.40674350  1
  Cu+  Cu126  1  0.74505286  0.73655316  0.92633336  1
  Cu+  Cu127  1  0.59334934  0.26122128  0.92979968  1
  Cu+  Cu128  1  0.92826072  0.40509223  0.07548392  1
  Cu+  Cu129  1  0.93210217  0.40449103  0.73581728  1
  Cu+  Cu130  1  0.73582382  0.26430174  0.73323482  1
  Cu+  Cu131  1  0.40664811  0.07303223  0.92741873  1
  Cu+  Cu132  1  0.73923006  0.07971172  0.59950268  1
  Te2-  Te133  1  0.25263974  0.25353443  0.08388804  1
  Te2-  Te134  1  0.25199061  0.25417120  0.41699001  1
  Te2-  Te135  1  0.25429178  0.25187866  0.75171291  1
  Te2-  Te136  1  0.24802884  0.58781435  0.08207096  1
  Te2-  Te137  1  0.25349817  0.58149514  0.41210614  1
  Te2-  Te138  1  0.25398857  0.58462625  0.74511832  1
  Te2-  Te139  1  0.25255191  0.91473492  0.08668284  1
  Te2-  Te140  1  0.25150358  0.92020303  0.40892440  1
  Te2-  Te141  1  0.25382676  0.92114373  0.74902777  1
  Te2-  Te142  1  0.58930100  0.25144345  0.08178266  1
  Te2-  Te143  1  0.58707443  0.24894108  0.41666484  1
  Te2-  Te144  1  0.58268222  0.25605312  0.73942908  1
  Te2-  Te145  1  0.58755824  0.58272461  0.08057878  1
  Te2-  Te146  1  0.58545035  0.58710810  0.40636856  1
  Te2-  Te147  1  0.58733856  0.58571763  0.75120036  1
  Te2-  Te148  1  0.58411554  0.92429318  0.07906943  1
  Te2-  Te149  1  0.58940295  0.91232940  0.40787505  1
  Te2-  Te150  1  0.58653018  0.91884072  0.75230422  1
  Te2-  Te151  1  0.92202137  0.25349182  0.08087529  1
  Te2-  Te152  1  0.91549924  0.25131650  0.41027109  1
  Te2-  Te153  1  0.92349607  0.25117012  0.74572371  1
  Te2-  Te154  1  0.91893244  0.59392027  0.07671002  1
  Te2-  Te155  1  0.91499968  0.58665720  0.41583585  1
  Te2-  Te156  1  0.91805892  0.58690544  0.74811837  1
  Te2-  Te157  1  0.92021487  0.91500548  0.08035455  1
  Te2-  Te158  1  0.91866412  0.92650969  0.41493950  1
  Te2-  Te159  1  0.92197911  0.92328578  0.74608187  1
  Te2-  Te160  1  0.25372263  0.08196101  0.25372098  1
  Te2-  Te161  1  0.25144016  0.08160897  0.59138287  1
  Te2-  Te162  1  0.25293835  0.07858575  0.92365210  1
  Te2-  Te163  1  0.25005995  0.41583477  0.25138463  1
  Te2-  Te164  1  0.25032752  0.41387617  0.58347094  1
  Te2-  Te165  1  0.24992996  0.41878850  0.92007212  1
  Te2-  Te166  1  0.25481495  0.73887030  0.25346084  1
  Te2-  Te167  1  0.25575656  0.74696658  0.58402479  1
  Te2-  Te168  1  0.25194968  0.74718681  0.92122896  1
  Te2-  Te169  1  0.58847235  0.07664393  0.25128249  1
  Te2-  Te170  1  0.58420947  0.07586477  0.59183927  1
  Te2-  Te171  1  0.59086529  0.08303461  0.91552083  1
  Te2-  Te172  1  0.58615549  0.41115863  0.25281016  1
  Te2-  Te173  1  0.58750983  0.41390420  0.58294445  1
  Te2-  Te174  1  0.58720335  0.41449747  0.92326160  1
  Te2-  Te175  1  0.58380373  0.74990037  0.25320207  1
  Te2-  Te176  1  0.58759916  0.74181635  0.58968700  1
  Te2-  Te177  1  0.58699779  0.74398561  0.92010044  1
  Te2-  Te178  1  0.92534225  0.08171832  0.25310620  1
  Te2-  Te179  1  0.92276695  0.08710569  0.58780715  1
  Te2-  Te180  1  0.91777455  0.08434738  0.91830348  1
  Te2-  Te181  1  0.92039549  0.42204631  0.25356322  1
  Te2-  Te182  1  0.91812214  0.41203100  0.58320373  1
  Te2-  Te183  1  0.92029509  0.41094366  0.91782073  1
  Te2-  Te184  1  0.91493768  0.74531275  0.25744921  1
  Te2-  Te185  1  0.91659078  0.74835608  0.58163721  1
  Te2-  Te186  1  0.92082750  0.75019864  0.91589520  1
  Te2-  Te187  1  0.07917115  0.25535400  0.25294866  1
  Te2-  Te188  1  0.08020397  0.25316465  0.59099284  1
  Te2-  Te189  1  0.08325157  0.25265228  0.92249126  1
  Te2-  Te190  1  0.07482078  0.58331037  0.25763043  1
  Te2-  Te191  1  0.08054186  0.58748648  0.58403501  1
  Te2-  Te192  1  0.07750194  0.58927419  0.91245617  1
  Te2-  Te193  1  0.08367601  0.91918189  0.25746201  1
  Te2-  Te194  1  0.08679994  0.92020254  0.58650165  1
  Te2-  Te195  1  0.08156253  0.91951877  0.92013981  1
  Te2-  Te196  1  0.41924430  0.25016829  0.25386137  1
  Te2-  Te197  1  0.41367241  0.24877276  0.58192467  1
  Te2-  Te198  1  0.41526751  0.25373048  0.91792108  1
  Te2-  Te199  1  0.41257801  0.58173447  0.25168786  1
  Te2-  Te200  1  0.41355781  0.58140730  0.58554808  1
  Te2-  Te201  1  0.41404534  0.58470630  0.92084242  1
  Te2-  Te202  1  0.41062783  0.92578093  0.25241048  1
  Te2-  Te203  1  0.41482574  0.91430020  0.58185394  1
  Te2-  Te204  1  0.41371825  0.91607349  0.92040156  1
  Te2-  Te205  1  0.74858081  0.25491892  0.25249657  1
  Te2-  Te206  1  0.74321783  0.25301643  0.58044905  1
  Te2-  Te207  1  0.74981918  0.25809904  0.92151866  1
  Te2-  Te208  1  0.74475444  0.59304364  0.25006460  1
  Te2-  Te209  1  0.74761540  0.58574038  0.59257411  1
  Te2-  Te210  1  0.74896306  0.58293918  0.92164691  1
  Te2-  Te211  1  0.74158127  0.91667121  0.24868153  1
  Te2-  Te212  1  0.74217980  0.92470654  0.59141579  1
  Te2-  Te213  1  0.74966551  0.92301965  0.91755854  1
  Te2-  Te214  1  0.08339615  0.08038605  0.08356820  1
  Te2-  Te215  1  0.07908304  0.07992855  0.41637473  1
  Te2-  Te216  1  0.08287803  0.08159303  0.75171587  1
  Te2-  Te217  1  0.08084654  0.41220280  0.07840442  1
  Te2-  Te218  1  0.07608562  0.41540191  0.41384936  1
  Te2-  Te219  1  0.08430231  0.41243607  0.74543359  1
  Te2-  Te220  1  0.07821747  0.75076059  0.07952022  1
  Te2-  Te221  1  0.07444848  0.74660914  0.41893557  1
  Te2-  Te222  1  0.08013213  0.74960587  0.74595552  1
  Te2-  Te223  1  0.41350534  0.08247838  0.08110578  1
  Te2-  Te224  1  0.41105019  0.07814855  0.41102714  1
  Te2-  Te225  1  0.41397763  0.07967873  0.74725064  1
  Te2-  Te226  1  0.41355372  0.41302782  0.08247792  1
  Te2-  Te227  1  0.41536930  0.41172514  0.41289828  1
  Te2-  Te228  1  0.41564562  0.41353229  0.75022127  1
  Te2-  Te229  1  0.41343721  0.74812429  0.08008395  1
  Te2-  Te230  1  0.41674092  0.73563201  0.41376542  1
  Te2-  Te231  1  0.41598209  0.74585468  0.74738776  1
  Te2-  Te232  1  0.75281792  0.08039437  0.08046783  1
  Te2-  Te233  1  0.74837412  0.07383912  0.41007856  1
  Te2-  Te234  1  0.74440506  0.08222293  0.75049931  1
  Te2-  Te235  1  0.74840804  0.41677010  0.08037909  1
  Te2-  Te236  1  0.74399422  0.41253007  0.41489881  1
  Te2-  Te237  1  0.74216482  0.41580593  0.74588089  1
  Te2-  Te238  1  0.74542969  0.74617295  0.07887053  1
  Te2-  Te239  1  0.74482128  0.75577074  0.41008616  1
  Te2-  Te240  1  0.74808321  0.74797124  0.74580607  1
