# generated using pymatgen
data_Ti27(Cu53Te54)2
_symmetry_space_group_name_H-M   'P 1'
_cell_length_a   17.86643299
_cell_length_b   17.87062756
_cell_length_c   17.86851641
_cell_angle_alpha   90.03657852
_cell_angle_beta   90.01057104
_cell_angle_gamma   89.99909782
_symmetry_Int_Tables_number   1
_chemical_formula_structural   Ti27(Cu53Te54)2
_chemical_formula_sum   'Ti27 Cu106 Te108'
_cell_volume   5705.13674224
_cell_formula_units_Z   1
loop_
 _symmetry_equiv_pos_site_id
 _symmetry_equiv_pos_as_xyz
  1  'x, y, z'
loop_
 _atom_type_symbol
 _atom_type_oxidation_number
  Ti4+  4.0
  Cu+  1.0
  Te2-  -2.0
loop_
 _atom_site_type_symbol
 _atom_site_label
 _atom_site_symmetry_multiplicity
 _atom_site_fract_x
 _atom_site_fract_y
 _atom_site_fract_z
 _atom_site_occupancy
  Ti4+  Ti0  1  0.16965361  0.16541108  0.16705856  1
  Ti4+  Ti1  1  0.16725757  0.16594373  0.49967758  1
  Ti4+  Ti2  1  0.16536713  0.16686253  0.83652081  1
  Ti4+  Ti3  1  0.16588892  0.49719895  0.16522258  1
  Ti4+  Ti4  1  0.16722708  0.50142870  0.49934391  1
  Ti4+  Ti5  1  0.16912515  0.49704465  0.82937030  1
  Ti4+  Ti6  1  0.16527825  0.83537988  0.16621898  1
  Ti4+  Ti7  1  0.16679629  0.83058964  0.49948749  1
  Ti4+  Ti8  1  0.16772288  0.83201419  0.83358408  1
  Ti4+  Ti9  1  0.50121864  0.16826799  0.16701697  1
  Ti4+  Ti10  1  0.50077702  0.16441112  0.50184266  1
  Ti4+  Ti11  1  0.49667660  0.16986977  0.83211391  1
  Ti4+  Ti12  1  0.49884883  0.49939166  0.16630479  1
  Ti4+  Ti13  1  0.49977247  0.50038958  0.50089396  1
  Ti4+  Ti14  1  0.50186121  0.50331753  0.83756046  1
  Ti4+  Ti15  1  0.50134663  0.83501251  0.16476106  1
  Ti4+  Ti16  1  0.50012952  0.83253724  0.49658739  1
  Ti4+  Ti17  1  0.50237538  0.83527369  0.83697418  1
  Ti4+  Ti18  1  0.83353824  0.16435234  0.16652554  1
  Ti4+  Ti19  1  0.83046819  0.16835068  0.49946955  1
  Ti4+  Ti20  1  0.83335589  0.16718099  0.83098675  1
  Ti4+  Ti21  1  0.83328016  0.49885151  0.16665268  1
  Ti4+  Ti22  1  0.83346239  0.50256257  0.49987434  1
  Ti4+  Ti23  1  0.83254038  0.50097322  0.83109553  1
  Ti4+  Ti24  1  0.83356182  0.83166789  0.16815448  1
  Ti4+  Ti25  1  0.83365324  0.83468539  0.50188207  1
  Ti4+  Ti26  1  0.83185506  0.83280334  0.83337269  1
  Cu+  Cu27  1  0.16414550  0.17201046  0.00514587  1
  Cu+  Cu28  1  0.16966453  0.16558477  0.33223527  1
  Cu+  Cu29  1  0.16820431  0.16642237  0.66615981  1
  Cu+  Cu30  1  0.16789814  0.49506075  -0.00233099  1
  Cu+  Cu31  1  0.16600095  0.49739785  0.33315970  1
  Cu+  Cu32  1  0.16941628  0.50630800  0.66407041  1
  Cu+  Cu33  1  0.16735836  0.83666461  0.00141048  1
  Cu+  Cu34  1  0.16383915  0.83063007  0.33165701  1
  Cu+  Cu35  1  0.16579425  0.83097607  0.66651337  1
  Cu+  Cu36  1  0.49735647  0.17156728  -0.00067843  1
  Cu+  Cu37  1  0.50156411  0.16490888  0.33589206  1
  Cu+  Cu38  1  0.50287994  0.16505688  0.66821492  1
  Cu+  Cu39  1  0.49832845  0.49693977  0.00066117  1
  Cu+  Cu40  1  0.49605333  0.50059173  0.33388525  1
  Cu+  Cu41  1  0.50093382  0.50005466  0.67027935  1
  Cu+  Cu42  1  0.49879648  0.83470693  0.00044447  1
  Cu+  Cu43  1  0.50232041  0.83172044  0.32847909  1
  Cu+  Cu44  1  0.50471597  0.83571639  0.66384738  1
  Cu+  Cu45  1  0.83582855  0.16327612  -0.00248647  1
  Cu+  Cu46  1  0.83575162  0.16826695  0.33222900  1
  Cu+  Cu47  1  0.82712824  0.16791578  0.66521807  1
  Cu+  Cu48  1  0.83641883  0.49653577  0.00202266  1
  Cu+  Cu49  1  0.83370249  0.50156775  0.33159641  1
  Cu+  Cu50  1  0.82967729  0.50227886  0.66403107  1
  Cu+  Cu51  1  0.82820107  0.83233894  0.00123471  1
  Cu+  Cu52  1  0.83578542  0.83483444  0.33833028  1
  Cu+  Cu53  1  0.83586921  0.83622833  0.66691533  1
  Cu+  Cu54  1  0.16545050  0.00228001  0.17077348  1
  Cu+  Cu55  1  0.16522777  -0.00377569  0.49796240  1
  Cu+  Cu56  1  0.17177915  -0.00102814  0.83390576  1
  Cu+  Cu57  1  0.16939041  0.32918652  0.16566161  1
  Cu+  Cu58  1  0.16795952  0.33576454  0.50020316  1
  Cu+  Cu59  1  0.15821899  0.33252441  0.83336223  1
  Cu+  Cu60  1  0.16442549  0.66752237  0.16421316  1
  Cu+  Cu61  1  0.17142105  0.66403595  0.50322237  1
  Cu+  Cu62  1  0.17067089  0.66290866  0.83063314  1
  Cu+  Cu63  1  0.50126875  0.00134111  0.16620795  1
  Cu+  Cu64  1  0.50020008  -0.00244076  0.49963168  1
  Cu+  Cu65  1  0.49641624  0.00440493  0.83286879  1
  Cu+  Cu66  1  0.49950496  0.33442404  0.16607414  1
  Cu+  Cu67  1  0.50180069  0.33064465  0.50188747  1
  Cu+  Cu68  1  0.50274891  0.33578979  0.84320407  1
  Cu+  Cu69  1  0.50127866  0.66685208  0.16456212  1
  Cu+  Cu70  1  0.49744805  0.66493710  0.49551024  1
  Cu+  Cu71  1  0.50227607  0.67312014  0.83558284  1
  Cu+  Cu72  1  0.83349947  -0.00324193  0.16351358  1
  Cu+  Cu73  1  0.82678566  0.00034729  0.49960115  1
  Cu+  Cu74  1  0.83494778  -0.00075327  0.83438215  1
  Cu+  Cu75  1  0.83383402  0.33333780  0.16770061  1
  Cu+  Cu76  1  0.83233995  0.33768044  0.50215372  1
  Cu+  Cu77  1  0.83190682  0.33021528  0.82732252  1
  Cu+  Cu78  1  0.83521400  0.66235743  0.16886456  1
  Cu+  Cu79  1  0.83754270  0.66926572  0.50039716  1
  Cu+  Cu80  1  0.82739087  0.66643504  0.83321588  1
  Cu+  Cu81  1  -0.00044831  0.16212705  0.16696855  1
  Cu+  Cu82  1  -0.00336783  0.16804567  0.49912119  1
  Cu+  Cu83  1  0.00119126  0.16962615  0.83019346  1
  Cu+  Cu84  1  -0.00286632  0.49857201  0.16601838  1
  Cu+  Cu85  1  0.00032270  0.50085372  0.49934506  1
  Cu+  Cu86  1  0.00089469  0.49602072  0.82624984  1
  Cu+  Cu87  1  0.00198950  0.83026458  0.17101276  1
  Cu+  Cu88  1  -0.00055378  0.83041102  0.49842651  1
  Cu+  Cu89  1  -0.00096467  0.83127302  0.83467470  1
  Cu+  Cu90  1  0.33473077  0.16982745  0.17040801  1
  Cu+  Cu91  1  0.33567389  0.16518628  0.50139474  1
  Cu+  Cu92  1  0.32839725  0.15977939  0.83427868  1
  Cu+  Cu93  1  0.33213412  0.49904181  0.16530107  1
  Cu+  Cu94  1  0.33517351  0.50614069  0.49907004  1
  Cu+  Cu95  1  0.33469261  0.50121167  0.84123174  1
  Cu+  Cu96  1  0.33206044  0.83719273  0.16529426  1
  Cu+  Cu97  1  0.33366900  0.83012011  0.49761140  1
  Cu+  Cu98  1  0.33610108  0.83410510  0.83668677  1
  Cu+  Cu99  1  0.66732054  0.16518846  0.16439483  1
  Cu+  Cu100  1  0.66644037  0.16120382  0.50399939  1
  Cu+  Cu101  1  0.66400762  0.17331610  0.82930611  1
  Cu+  Cu102  1  0.66573688  0.49791907  0.16637294  1
  Cu+  Cu103  1  0.66579617  0.49910361  0.50221031  1
  Cu+  Cu104  1  0.66920352  0.50661194  0.82970550  1
  Cu+  Cu105  1  0.66741699  0.83770819  0.16290135  1
  Cu+  Cu106  1  0.66741991  0.83748647  0.49734588  1
  Cu+  Cu107  1  0.66691426  0.82693411  0.83527684  1
  Cu+  Cu108  1  0.40575008  0.40563660  0.92911269  1
  Cu+  Cu109  1  0.73779159  0.40939632  0.59072108  1
  Cu+  Cu110  1  0.92595706  0.73923023  0.40925136  1
  Cu+  Cu111  1  0.26707516  0.59505574  0.59418807  1
  Cu+  Cu112  1  0.74171204  0.06896370  0.59538958  1
  Cu+  Cu113  1  0.25323653  0.07020463  0.73529525  1
  Cu+  Cu114  1  0.59250497  0.07321861  0.74626421  1
  Cu+  Cu115  1  0.40493672  0.59411228  0.40123989  1
  Cu+  Cu116  1  0.40453906  0.07658066  0.93127424  1
  Cu+  Cu117  1  0.40608282  0.74398798  0.92961956  1
  Cu+  Cu118  1  0.06855828  0.41323337  0.92588708  1
  Cu+  Cu119  1  0.07235629  0.07602647  0.26251672  1
  Cu+  Cu120  1  0.73488194  0.26038735  0.73730713  1
  Cu+  Cu121  1  0.58952618  0.74280833  0.73317549  1
  Cu+  Cu122  1  0.06848905  0.25820438  0.08412410  1
  Cu+  Cu123  1  0.73796954  0.92872360  0.40513297  1
  Cu+  Cu124  1  0.07363744  0.59407986  0.73899277  1
  Cu+  Cu125  1  0.07507375  0.25531056  0.73466254  1
  Cu+  Cu126  1  0.73928481  0.92832727  0.06959650  1
  Cu+  Cu127  1  0.59627921  0.25952235  0.93019563  1
  Cu+  Cu128  1  0.26353803  0.25964812  0.26330584  1
  Cu+  Cu129  1  0.74159606  0.59684182  0.73409793  1
  Cu+  Cu130  1  0.74317557  0.73400080  0.93395154  1
  Cu+  Cu131  1  0.25440427  0.59199829  0.92954591  1
  Cu+  Cu132  1  0.07750612  0.73394960  0.25863469  1
  Te2-  Te133  1  0.25762038  0.25243314  0.07993080  1
  Te2-  Te134  1  0.25437259  0.25269970  0.41659681  1
  Te2-  Te135  1  0.25152147  0.25324356  0.75147156  1
  Te2-  Te136  1  0.25052464  0.58538490  0.08087199  1
  Te2-  Te137  1  0.25157679  0.58740635  0.40824510  1
  Te2-  Te138  1  0.26139485  0.58519562  0.74719796  1
  Te2-  Te139  1  0.25061021  0.92326684  0.08253210  1
  Te2-  Te140  1  0.25087589  0.91493194  0.41305920  1
  Te2-  Te141  1  0.25527587  0.91557237  0.74636406  1
  Te2-  Te142  1  0.58750025  0.25489193  0.08112027  1
  Te2-  Te143  1  0.58744898  0.24915141  0.41732888  1
  Te2-  Te144  1  0.58105012  0.26138167  0.74472439  1
  Te2-  Te145  1  0.58468641  0.58309705  0.08022629  1
  Te2-  Te146  1  0.58694412  0.58330288  0.41418104  1
  Te2-  Te147  1  0.58561159  0.59045966  0.74549743  1
  Te2-  Te148  1  0.58531711  0.92351394  0.07704052  1
  Te2-  Te149  1  0.58443729  0.92059135  0.40973152  1
  Te2-  Te150  1  0.58821004  0.92094387  0.75007248  1
  Te2-  Te151  1  0.91760168  0.25156951  0.08029435  1
  Te2-  Te152  1  0.91599725  0.25539785  0.41619732  1
  Te2-  Te153  1  0.91993339  0.25207937  0.74173174  1
  Te2-  Te154  1  0.91995358  0.58505774  0.08020785  1
  Te2-  Te155  1  0.92112012  0.58568250  0.41206065  1
  Te2-  Te156  1  0.91843850  0.58772728  0.74624883  1
  Te2-  Te157  1  0.92039131  0.91298571  0.08121427  1
  Te2-  Te158  1  0.92006506  0.92352922  0.41818431  1
  Te2-  Te159  1  0.91989654  0.91827479  0.74985183  1
  Te2-  Te160  1  0.25705610  0.07911144  0.25364933  1
  Te2-  Te161  1  0.25224688  0.07779942  0.58348695  1
  Te2-  Te162  1  0.24883318  0.08040994  0.92809517  1
  Te2-  Te163  1  0.25251650  0.41344851  0.25243148  1
  Te2-  Te164  1  0.25467062  0.41739571  0.58447132  1
  Te2-  Te165  1  0.25270377  0.40711278  0.91823145  1
  Te2-  Te166  1  0.25251476  0.74832517  0.24934778  1
  Te2-  Te167  1  0.25567201  0.74783611  0.58811475  1
  Te2-  Te168  1  0.25295367  0.74623975  0.92299596  1
  Te2-  Te169  1  0.58590468  0.08251187  0.25116805  1
  Te2-  Te170  1  0.58653685  0.07365346  0.58983737  1
  Te2-  Te171  1  0.58601876  0.08545585  0.91740107  1
  Te2-  Te172  1  0.58273904  0.41539846  0.25343040  1
  Te2-  Te173  1  0.58414693  0.41322028  0.58941379  1
  Te2-  Te174  1  0.59383680  0.41923679  0.92089556  1
  Te2-  Te175  1  0.58837503  0.74867528  0.24734690  1
  Te2-  Te176  1  0.58796264  0.74611636  0.58007068  1
  Te2-  Te177  1  0.58813580  0.74650674  0.92689039  1
  Te2-  Te178  1  0.91789923  0.07703280  0.25339533  1
  Te2-  Te179  1  0.91496698  0.08176777  0.58476500  1
  Te2-  Te180  1  0.92133966  0.08236229  0.91451624  1
  Te2-  Te181  1  0.91897024  0.41347744  0.25352224  1
  Te2-  Te182  1  0.91984609  0.41784508  0.58653914  1
  Te2-  Te183  1  0.91688220  0.41149896  0.91506800  1
  Te2-  Te184  1  0.91989935  0.74403063  0.25596033  1
  Te2-  Te185  1  0.92011390  0.74884289  0.58920511  1
  Te2-  Te186  1  0.91565368  0.74664363  0.91939008  1
  Te2-  Te187  1  0.07994853  0.25152357  0.25266427  1
  Te2-  Te188  1  0.08101768  0.25270854  0.58363770  1
  Te2-  Te189  1  0.07496361  0.25407276  0.92415361  1
  Te2-  Te190  1  0.08050560  0.58192333  0.25153150  1
  Te2-  Te191  1  0.07718608  0.58842612  0.58494199  1
  Te2-  Te192  1  0.08097063  0.58213596  0.91604514  1
  Te2-  Te193  1  0.07836737  0.92130063  0.25557700  1
  Te2-  Te194  1  0.08060812  0.91548337  0.58422546  1
  Te2-  Te195  1  0.08277779  0.91825130  0.91612059  1
  Te2-  Te196  1  0.41804401  0.25435408  0.25651778  1
  Te2-  Te197  1  0.41593419  0.25044975  0.58773913  1
  Te2-  Te198  1  0.40637181  0.25338249  0.91886595  1
  Te2-  Te199  1  0.41172136  0.58791754  0.24921359  1
  Te2-  Te200  1  0.41769644  0.58870765  0.59106433  1
  Te2-  Te201  1  0.41504000  0.59167498  0.92396102  1
  Te2-  Te202  1  0.41590093  0.91939490  0.25080286  1
  Te2-  Te203  1  0.41488960  0.91583923  0.58360287  1
  Te2-  Te204  1  0.41366438  0.92361482  0.92179520  1
  Te2-  Te205  1  0.74828098  0.25015416  0.25021993  1
  Te2-  Te206  1  0.74144031  0.25689014  0.58550304  1
  Te2-  Te207  1  0.74932505  0.25296681  0.92085052  1
  Te2-  Te208  1  0.74598214  0.58419835  0.25181241  1
  Te2-  Te209  1  0.74556925  0.59285767  0.58256152  1
  Te2-  Te210  1  0.74811400  0.58230015  0.92462990  1
  Te2-  Te211  1  0.74861287  0.91902837  0.25409199  1
  Te2-  Te212  1  0.74417465  0.91791464  0.59132057  1
  Te2-  Te213  1  0.74447793  0.92206110  0.91722213  1
  Te2-  Te214  1  0.08187163  0.07891125  0.07974051  1
  Te2-  Te215  1  0.07959848  0.08129661  0.41511717  1
  Te2-  Te216  1  0.08284748  0.07910816  0.74895562  1
  Te2-  Te217  1  0.07761272  0.41123414  0.07980015  1
  Te2-  Te218  1  0.08082050  0.41466583  0.41540914  1
  Te2-  Te219  1  0.08237189  0.41261428  0.73765084  1
  Te2-  Te220  1  0.08022373  0.74948312  0.07828248  1
  Te2-  Te221  1  0.08098156  0.74052507  0.41372084  1
  Te2-  Te222  1  0.08046871  0.74598353  0.74880550  1
  Te2-  Te223  1  0.41322818  0.08273828  0.08272499  1
  Te2-  Te224  1  0.41544169  0.07972986  0.41549210  1
  Te2-  Te225  1  0.41035700  0.08083536  0.74336667  1
  Te2-  Te226  1  0.41084989  0.41141156  0.08079986  1
  Te2-  Te227  1  0.41406163  0.41292651  0.41826222  1
  Te2-  Te228  1  0.41710698  0.41602163  0.75416553  1
  Te2-  Te229  1  0.41178666  0.74802216  0.08202070  1
  Te2-  Te230  1  0.41381052  0.74803673  0.40849707  1
  Te2-  Te231  1  0.41739161  0.75202586  0.74710098  1
  Te2-  Te232  1  0.74752806  0.08025249  0.07771051  1
  Te2-  Te233  1  0.74543039  0.08301286  0.40885832  1
  Te2-  Te234  1  0.74514805  0.07639621  0.74860832  1
  Te2-  Te235  1  0.74802965  0.41246862  0.08114657  1
  Te2-  Te236  1  0.74815585  0.41719158  0.41361154  1
  Te2-  Te237  1  0.74335758  0.41353571  0.74535779  1
  Te2-  Te238  1  0.74660903  0.74240446  0.08544249  1
  Te2-  Te239  1  0.74775369  0.74725852  0.41544999  1
  Te2-  Te240  1  0.74586560  0.74849434  0.73978182  1
