# generated using pymatgen
data_Ti27(Cu53Te54)2
_symmetry_space_group_name_H-M   'P 1'
_cell_length_a   17.91721699
_cell_length_b   17.92350594
_cell_length_c   17.91819914
_cell_angle_alpha   89.87129915
_cell_angle_beta   90.05719102
_cell_angle_gamma   90.01132539
_symmetry_Int_Tables_number   1
_chemical_formula_structural   Ti27(Cu53Te54)2
_chemical_formula_sum   'Ti27 Cu106 Te108'
_cell_volume   5754.22124293
_cell_formula_units_Z   1
loop_
 _symmetry_equiv_pos_site_id
 _symmetry_equiv_pos_as_xyz
  1  'x, y, z'
loop_
 _atom_type_symbol
 _atom_type_oxidation_number
  Ti4+  4.0
  Cu+  1.0
  Te2-  -2.0
loop_
 _atom_site_type_symbol
 _atom_site_label
 _atom_site_symmetry_multiplicity
 _atom_site_fract_x
 _atom_site_fract_y
 _atom_site_fract_z
 _atom_site_occupancy
  Ti4+  Ti0  1  0.16207660  0.16755095  0.16730485  1
  Ti4+  Ti1  1  0.16495355  0.16598606  0.49991081  1
  Ti4+  Ti2  1  0.16724190  0.16825280  0.82718693  1
  Ti4+  Ti3  1  0.16646719  0.50286899  0.16819523  1
  Ti4+  Ti4  1  0.16707346  0.50467517  0.49851015  1
  Ti4+  Ti5  1  0.16779006  0.50269714  0.83015885  1
  Ti4+  Ti6  1  0.16941706  0.83448215  0.16942976  1
  Ti4+  Ti7  1  0.16447686  0.83509800  0.50156070  1
  Ti4+  Ti8  1  0.16840248  0.83358484  0.83370041  1
  Ti4+  Ti9  1  0.49767311  0.16830142  0.16400880  1
  Ti4+  Ti10  1  0.49809791  0.16986400  0.49984952  1
  Ti4+  Ti11  1  0.49798113  0.16279790  0.83419140  1
  Ti4+  Ti12  1  0.49947315  0.50049945  0.16817017  1
  Ti4+  Ti13  1  0.50235528  0.49884045  0.49892188  1
  Ti4+  Ti14  1  0.50218486  0.49802784  0.83552202  1
  Ti4+  Ti15  1  0.50034711  0.83323748  0.16574726  1
  Ti4+  Ti16  1  0.50113249  0.83374170  0.50200272  1
  Ti4+  Ti17  1  0.49969793  0.83130453  0.83723904  1
  Ti4+  Ti18  1  0.83616962  0.16435609  0.16455286  1
  Ti4+  Ti19  1  0.83138008  0.16780143  0.50087688  1
  Ti4+  Ti20  1  0.83198506  0.16344779  0.83239708  1
  Ti4+  Ti21  1  0.83218902  0.49958852  0.16649117  1
  Ti4+  Ti22  1  0.83152243  0.50182026  0.49912986  1
  Ti4+  Ti23  1  0.83700206  0.49629238  0.83442411  1
  Ti4+  Ti24  1  0.83495422  0.83260313  0.16425390  1
  Ti4+  Ti25  1  0.83058611  0.83101854  0.50012968  1
  Ti4+  Ti26  1  0.83465799  0.83159242  0.83191455  1
  Cu+  Cu27  1  0.16462158  0.16921814  -0.00206450  1
  Cu+  Cu28  1  0.15886448  0.16349746  0.33363745  1
  Cu+  Cu29  1  0.17316212  0.16749176  0.66402367  1
  Cu+  Cu30  1  0.16602275  0.50240821  -0.00239183  1
  Cu+  Cu31  1  0.16849977  0.50698069  0.33277883  1
  Cu+  Cu32  1  0.16884547  0.50563930  0.66533448  1
  Cu+  Cu33  1  0.17088450  0.83443364  0.00084164  1
  Cu+  Cu34  1  0.16941033  0.83271018  0.33929954  1
  Cu+  Cu35  1  0.16527320  0.83502056  0.66598078  1
  Cu+  Cu36  1  0.50274277  0.16439531  -0.00106814  1
  Cu+  Cu37  1  0.49638578  0.16867445  0.33156355  1
  Cu+  Cu38  1  0.49384586  0.16811318  0.66759013  1
  Cu+  Cu39  1  0.50104212  0.49727130  0.00216441  1
  Cu+  Cu40  1  0.50000929  0.49402312  0.33322734  1
  Cu+  Cu41  1  0.50319193  0.50115192  0.66841358  1
  Cu+  Cu42  1  0.49933495  0.83250916  0.00379950  1
  Cu+  Cu43  1  0.50361714  0.83470550  0.33499955  1
  Cu+  Cu44  1  0.49863794  0.83267384  0.67001138  1
  Cu+  Cu45  1  0.83868309  0.16410545  -0.00148661  1
  Cu+  Cu46  1  0.83448477  0.16843909  0.33467996  1
  Cu+  Cu47  1  0.83067110  0.16292853  0.66796391  1
  Cu+  Cu48  1  0.83659178  0.49379812  0.00285581  1
  Cu+  Cu49  1  0.83314947  0.50616473  0.32978202  1
  Cu+  Cu50  1  0.83364969  0.49947509  0.66544798  1
  Cu+  Cu51  1  0.83540077  0.83275413  -0.00337062  1
  Cu+  Cu52  1  0.83132125  0.83330723  0.33165911  1
  Cu+  Cu53  1  0.82864737  0.83038135  0.66616546  1
  Cu+  Cu54  1  0.16129730  0.00324058  0.17281296  1
  Cu+  Cu55  1  0.16234783  -0.00237878  0.50149422  1
  Cu+  Cu56  1  0.16888809  0.00094667  0.82877637  1
  Cu+  Cu57  1  0.16287991  0.33317259  0.16643977  1
  Cu+  Cu58  1  0.16531612  0.33634099  0.49843637  1
  Cu+  Cu59  1  0.16483026  0.33826406  0.82927484  1
  Cu+  Cu60  1  0.17354467  0.66743225  0.16955916  1
  Cu+  Cu61  1  0.16703420  0.67233700  0.49720307  1
  Cu+  Cu62  1  0.16839344  0.66658393  0.83188083  1
  Cu+  Cu63  1  0.49753159  0.00184517  0.16143587  1
  Cu+  Cu64  1  0.49813287  0.00205885  0.50142372  1
  Cu+  Cu65  1  0.49792333  -0.00505385  0.83603771  1
  Cu+  Cu66  1  0.49565578  0.33715257  0.16618147  1
  Cu+  Cu67  1  0.50337248  0.33466091  0.49614176  1
  Cu+  Cu68  1  0.49886785  0.33009855  0.83719941  1
  Cu+  Cu69  1  0.50306153  0.66863258  0.16664333  1
  Cu+  Cu70  1  0.50448738  0.66644896  0.49709492  1
  Cu+  Cu71  1  0.50087896  0.66412317  0.83689818  1
  Cu+  Cu72  1  0.83731375  -0.00265667  0.16152619  1
  Cu+  Cu73  1  0.82933295  -0.00143406  0.49894282  1
  Cu+  Cu74  1  0.83396044  -0.00164773  0.82768982  1
  Cu+  Cu75  1  0.83708353  0.33105953  0.16718693  1
  Cu+  Cu76  1  0.82847275  0.33598801  0.50200872  1
  Cu+  Cu77  1  0.83518453  0.32820602  0.83666535  1
  Cu+  Cu78  1  0.83232163  0.66602328  0.16787041  1
  Cu+  Cu79  1  0.82878973  0.66691391  0.50668947  1
  Cu+  Cu80  1  0.83654259  0.66382192  0.83394117  1
  Cu+  Cu81  1  -0.00172899  0.16173466  0.17006621  1
  Cu+  Cu82  1  -0.00118783  0.16767075  0.50149580  1
  Cu+  Cu83  1  -0.00252373  0.16433013  0.82788270  1
  Cu+  Cu84  1  -0.00301809  0.50283498  0.16746015  1
  Cu+  Cu85  1  -0.00041860  0.50763911  0.49888618  1
  Cu+  Cu86  1  0.00607850  0.49539930  0.83475849  1
  Cu+  Cu87  1  0.00370657  0.83306271  0.16789806  1
  Cu+  Cu88  1  -0.00202044  0.83479498  0.50047020  1
  Cu+  Cu89  1  0.00242172  0.83510954  0.83342134  1
  Cu+  Cu90  1  0.32741839  0.17057420  0.16483849  1
  Cu+  Cu91  1  0.32984115  0.17148472  0.50211515  1
  Cu+  Cu92  1  0.33313344  0.16566143  0.82356669  1
  Cu+  Cu93  1  0.33364313  0.50235727  0.17508116  1
  Cu+  Cu94  1  0.33684822  0.50390244  0.49951145  1
  Cu+  Cu95  1  0.33345462  0.50080995  0.83272468  1
  Cu+  Cu96  1  0.33372392  0.83518134  0.16264163  1
  Cu+  Cu97  1  0.33436034  0.83544920  0.50232233  1
  Cu+  Cu98  1  0.33448500  0.83202646  0.83542919  1
  Cu+  Cu99  1  0.66566585  0.16383175  0.16172954  1
  Cu+  Cu100  1  0.66543578  0.16894120  0.50001573  1
  Cu+  Cu101  1  0.66469946  0.16385389  0.83820206  1
  Cu+  Cu102  1  0.66660623  0.49785154  0.16352693  1
  Cu+  Cu103  1  0.66715578  0.49344029  0.49808444  1
  Cu+  Cu104  1  0.67015108  0.49832923  0.83509844  1
  Cu+  Cu105  1  0.66931813  0.83108060  0.16352684  1
  Cu+  Cu106  1  0.66509528  0.82815354  0.49975614  1
  Cu+  Cu107  1  0.66750559  0.83191351  0.83570753  1
  Cu+  Cu108  1  0.59446428  0.74033074  0.40614347  1
  Cu+  Cu109  1  0.92401077  0.07028872  0.73470961  1
  Cu+  Cu110  1  0.59302333  0.25766435  0.92289398  1
  Cu+  Cu111  1  0.40315967  0.40391916  0.26126932  1
  Cu+  Cu112  1  0.25638115  0.26816320  0.58677688  1
  Cu+  Cu113  1  0.26559375  0.59560953  0.26147616  1
  Cu+  Cu114  1  0.92945493  0.25167077  0.92142438  1
  Cu+  Cu115  1  0.92835001  0.40749255  0.08082780  1
  Cu+  Cu116  1  0.74132635  0.40515037  0.59717373  1
  Cu+  Cu117  1  0.73478405  0.74203820  0.59835715  1
  Cu+  Cu118  1  0.25750919  0.73939246  0.06967064  1
  Cu+  Cu119  1  0.26266797  0.06804546  0.73634684  1
  Cu+  Cu120  1  0.07016697  0.06805890  0.26719284  1
  Cu+  Cu121  1  0.40407159  0.93137750  0.07398060  1
  Cu+  Cu122  1  0.26376723  0.74565920  0.41534440  1
  Cu+  Cu123  1  0.59739714  0.40253525  0.40515270  1
  Cu+  Cu124  1  0.59733892  0.73994009  0.07266785  1
  Cu+  Cu125  1  0.92395398  0.25881674  0.26566888  1
  Cu+  Cu126  1  0.08526418  0.40656397  0.92851803  1
  Cu+  Cu127  1  0.41206429  0.26411681  0.74099014  1
  Cu+  Cu128  1  0.92839733  0.59254301  0.59701983  1
  Cu+  Cu129  1  0.59098501  0.40807854  0.07472835  1
  Cu+  Cu130  1  0.59456282  0.07216551  0.07386461  1
  Cu+  Cu131  1  0.92461106  0.59792315  0.25752091  1
  Cu+  Cu132  1  0.92961588  0.06756159  0.07124971  1
  Te2-  Te133  1  0.24657559  0.25400956  0.08032303  1
  Te2-  Te134  1  0.24705040  0.25107880  0.41129564  1
  Te2-  Te135  1  0.25358860  0.26091174  0.74389021  1
  Te2-  Te136  1  0.25451899  0.58361176  0.07976261  1
  Te2-  Te137  1  0.25744307  0.59092976  0.41369766  1
  Te2-  Te138  1  0.25544594  0.58797267  0.74683414  1
  Te2-  Te139  1  0.24938731  0.92643832  0.08386381  1
  Te2-  Te140  1  0.25256757  0.92192371  0.41733475  1
  Te2-  Te141  1  0.25564676  0.91641166  0.74587920  1
  Te2-  Te142  1  0.58638570  0.25613984  0.07929506  1
  Te2-  Te143  1  0.58641017  0.25092476  0.41049919  1
  Te2-  Te144  1  0.58484831  0.24913417  0.74929292  1
  Te2-  Te145  1  0.58664324  0.58630930  0.08010600  1
  Te2-  Te146  1  0.58847055  0.58341268  0.41104543  1
  Te2-  Te147  1  0.58746707  0.58383133  0.75223234  1
  Te2-  Te148  1  0.58875911  0.91936182  0.08007163  1
  Te2-  Te149  1  0.58571448  0.92159402  0.41774589  1
  Te2-  Te150  1  0.58471724  0.91608945  0.75117815  1
  Te2-  Te151  1  0.92509769  0.25240509  0.07817647  1
  Te2-  Te152  1  0.91838718  0.25625284  0.41843909  1
  Te2-  Te153  1  0.91593142  0.25138159  0.74490743  1
  Te2-  Te154  1  0.91700936  0.58702100  0.07984753  1
  Te2-  Te155  1  0.91600673  0.59156303  0.41352154  1
  Te2-  Te156  1  0.92220277  0.58210434  0.74970501  1
  Te2-  Te157  1  0.92422752  0.91489747  0.07743165  1
  Te2-  Te158  1  0.91461409  0.91737380  0.41505166  1
  Te2-  Te159  1  0.92000547  0.91596526  0.74300925  1
  Te2-  Te160  1  0.25084150  0.08478584  0.25288635  1
  Te2-  Te161  1  0.25334533  0.07662976  0.58299883  1
  Te2-  Te162  1  0.25038592  0.08565048  0.91547113  1
  Te2-  Te163  1  0.24794164  0.41258042  0.25471273  1
  Te2-  Te164  1  0.25349692  0.42027167  0.58387818  1
  Te2-  Te165  1  0.25214087  0.41515245  0.91775039  1
  Te2-  Te166  1  0.25882077  0.74985293  0.25734873  1
  Te2-  Te167  1  0.25202968  0.74942886  0.58700021  1
  Te2-  Te168  1  0.25421273  0.74531150  0.91862371  1
  Te2-  Te169  1  0.58160455  0.08283142  0.24989246  1
  Te2-  Te170  1  0.58224710  0.08557873  0.58601881  1
  Te2-  Te171  1  0.58537872  0.07387162  0.91993091  1
  Te2-  Te172  1  0.58880873  0.41138886  0.25152864  1
  Te2-  Te173  1  0.58587244  0.41192982  0.58885728  1
  Te2-  Te174  1  0.59028773  0.41081836  0.92141637  1
  Te2-  Te175  1  0.58843764  0.74840271  0.25289271  1
  Te2-  Te176  1  0.58340995  0.74503660  0.59085244  1
  Te2-  Te177  1  0.58723701  0.74556586  0.92172984  1
  Te2-  Te178  1  0.91685637  0.07552232  0.25641850  1
  Te2-  Te179  1  0.91723573  0.07890604  0.58380532  1
  Te2-  Te180  1  0.92155811  0.07524806  0.91688953  1
  Te2-  Te181  1  0.91974080  0.41407778  0.25585725  1
  Te2-  Te182  1  0.92055599  0.41654374  0.58204471  1
  Te2-  Te183  1  0.92511815  0.40835795  0.92237152  1
  Te2-  Te184  1  0.92026993  0.74891864  0.25288551  1
  Te2-  Te185  1  0.91998826  0.74738838  0.58781922  1
  Te2-  Te186  1  0.92143450  0.74775386  0.91685788  1
  Te2-  Te187  1  0.07683104  0.25509917  0.25394645  1
  Te2-  Te188  1  0.08144892  0.25244312  0.58575446  1
  Te2-  Te189  1  0.08024820  0.25325648  0.91590443  1
  Te2-  Te190  1  0.07932761  0.58934157  0.25167888  1
  Te2-  Te191  1  0.08355284  0.59140441  0.58462891  1
  Te2-  Te192  1  0.08148651  0.58838272  0.91689659  1
  Te2-  Te193  1  0.08103106  0.91565897  0.25763745  1
  Te2-  Te194  1  0.07749222  0.91877573  0.58746520  1
  Te2-  Te195  1  0.08539371  0.92022046  0.91811556  1
  Te2-  Te196  1  0.41066601  0.25236967  0.25049432  1
  Te2-  Te197  1  0.41240076  0.25992937  0.58566860  1
  Te2-  Te198  1  0.41035812  0.24691925  0.91937762  1
  Te2-  Te199  1  0.41923827  0.59034142  0.25682794  1
  Te2-  Te200  1  0.41998090  0.58616823  0.58448817  1
  Te2-  Te201  1  0.41628522  0.58131123  0.92041122  1
  Te2-  Te202  1  0.41643813  0.91867574  0.25183032  1
  Te2-  Te203  1  0.41598601  0.91861247  0.58708484  1
  Te2-  Te204  1  0.41181420  0.91772497  0.92232332  1
  Te2-  Te205  1  0.74750492  0.24854982  0.24793810  1
  Te2-  Te206  1  0.74540891  0.25152872  0.58882389  1
  Te2-  Te207  1  0.74745559  0.25026659  0.92249970  1
  Te2-  Te208  1  0.74294794  0.58552187  0.24903266  1
  Te2-  Te209  1  0.74091961  0.58319651  0.58750956  1
  Te2-  Te210  1  0.75363400  0.58070053  0.92040900  1
  Te2-  Te211  1  0.74958810  0.91850184  0.24713310  1
  Te2-  Te212  1  0.74450968  0.91724447  0.58439542  1
  Te2-  Te213  1  0.75080932  0.91849472  0.91646505  1
  Te2-  Te214  1  0.08074208  0.08005133  0.07726899  1
  Te2-  Te215  1  0.07554008  0.07822584  0.41813378  1
  Te2-  Te216  1  0.08112682  0.08171226  0.74256099  1
  Te2-  Te217  1  0.08009619  0.41508525  0.08122236  1
  Te2-  Te218  1  0.08134800  0.42091136  0.41410568  1
  Te2-  Te219  1  0.08293167  0.41766880  0.74061383  1
  Te2-  Te220  1  0.08594366  0.74803946  0.08390805  1
  Te2-  Te221  1  0.07731027  0.75022507  0.41464236  1
  Te2-  Te222  1  0.08293244  0.74920472  0.74873903  1
  Te2-  Te223  1  0.40803645  0.08559295  0.07861681  1
  Te2-  Te224  1  0.41252036  0.08513045  0.41673815  1
  Te2-  Te225  1  0.41554481  0.07354302  0.74557835  1
  Te2-  Te226  1  0.40889247  0.41862167  0.08267619  1
  Te2-  Te227  1  0.41049694  0.41297055  0.41536515  1
  Te2-  Te228  1  0.41574811  0.41537029  0.74825412  1
  Te2-  Te229  1  0.41248183  0.74377557  0.08114670  1
  Te2-  Te230  1  0.41603105  0.74833710  0.41401119  1
  Te2-  Te231  1  0.41573294  0.74597668  0.75162333  1
  Te2-  Te232  1  0.74936051  0.07874286  0.07722593  1
  Te2-  Te233  1  0.74708682  0.08409225  0.41479321  1
  Te2-  Te234  1  0.74220541  0.07986283  0.74887920  1
  Te2-  Te235  1  0.74738617  0.40902883  0.08070725  1
  Te2-  Te236  1  0.75028194  0.41446558  0.40732327  1
  Te2-  Te237  1  0.75022054  0.41095534  0.75061908  1
  Te2-  Te238  1  0.75090462  0.74544386  0.07745653  1
  Te2-  Te239  1  0.74756224  0.74408925  0.41072150  1
  Te2-  Te240  1  0.74620059  0.74297453  0.75092491  1
