# generated using pymatgen
data_Ti27(Cu53Te54)2
_symmetry_space_group_name_H-M   'P 1'
_cell_length_a   17.87265920
_cell_length_b   17.87076333
_cell_length_c   17.87105414
_cell_angle_alpha   89.99874158
_cell_angle_beta   89.97871206
_cell_angle_gamma   90.01332982
_symmetry_Int_Tables_number   1
_chemical_formula_structural   Ti27(Cu53Te54)2
_chemical_formula_sum   'Ti27 Cu106 Te108'
_cell_volume   5707.97952070
_cell_formula_units_Z   1
loop_
 _symmetry_equiv_pos_site_id
 _symmetry_equiv_pos_as_xyz
  1  'x, y, z'
loop_
 _atom_type_symbol
 _atom_type_oxidation_number
  Ti4+  4.0
  Cu+  1.0
  Te2-  -2.0
loop_
 _atom_site_type_symbol
 _atom_site_label
 _atom_site_symmetry_multiplicity
 _atom_site_fract_x
 _atom_site_fract_y
 _atom_site_fract_z
 _atom_site_occupancy
  Ti4+  Ti0  1  0.16680372  0.16683530  0.16687469  1
  Ti4+  Ti1  1  0.16669252  0.16732510  0.50014614  1
  Ti4+  Ti2  1  0.16493912  0.16842227  0.83312884  1
  Ti4+  Ti3  1  0.16775290  0.49858616  0.16462893  1
  Ti4+  Ti4  1  0.16798401  0.50040117  0.49700834  1
  Ti4+  Ti5  1  0.16618731  0.49968015  0.83467959  1
  Ti4+  Ti6  1  0.16844287  0.83321768  0.16604159  1
  Ti4+  Ti7  1  0.16688067  0.83466928  0.49977785  1
  Ti4+  Ti8  1  0.16606090  0.83141993  0.83378258  1
  Ti4+  Ti9  1  0.49976952  0.16780620  0.16725035  1
  Ti4+  Ti10  1  0.50075942  0.16563694  0.50131827  1
  Ti4+  Ti11  1  0.50211315  0.16561172  0.83438607  1
  Ti4+  Ti12  1  0.50138032  0.50004700  0.16840840  1
  Ti4+  Ti13  1  0.49886773  0.50105701  0.50572317  1
  Ti4+  Ti14  1  0.50103678  0.49730822  0.83089911  1
  Ti4+  Ti15  1  0.50107212  0.83136497  0.16391711  1
  Ti4+  Ti16  1  0.50118626  0.83298943  0.50004821  1
  Ti4+  Ti17  1  0.49624854  0.83426991  0.83604051  1
  Ti4+  Ti18  1  0.83433302  0.16742978  0.16725474  1
  Ti4+  Ti19  1  0.83318271  0.16564663  0.50212349  1
  Ti4+  Ti20  1  0.83243771  0.16690401  0.83430546  1
  Ti4+  Ti21  1  0.83463140  0.49968133  0.16583827  1
  Ti4+  Ti22  1  0.83099969  0.49807648  0.49858740  1
  Ti4+  Ti23  1  0.83217990  0.50444860  0.83720813  1
  Ti4+  Ti24  1  0.83373302  0.83512406  0.16583821  1
  Ti4+  Ti25  1  0.83706826  0.83118768  0.49820024  1
  Ti4+  Ti26  1  0.83369919  0.82973763  0.82717438  1
  Cu+  Cu27  1  0.16379078  0.17002362  0.00158596  1
  Cu+  Cu28  1  0.16725618  0.16583959  0.33405476  1
  Cu+  Cu29  1  0.16508914  0.16687023  0.66294547  1
  Cu+  Cu30  1  0.16655229  0.49868539  -0.00093450  1
  Cu+  Cu31  1  0.17025976  0.50061711  0.32961086  1
  Cu+  Cu32  1  0.16643415  0.49684079  0.66430371  1
  Cu+  Cu33  1  0.17202929  0.83091552  -0.00059359  1
  Cu+  Cu34  1  0.16770797  0.83377064  0.33438114  1
  Cu+  Cu35  1  0.16608303  0.83481569  0.66803512  1
  Cu+  Cu36  1  0.50235845  0.16602688  0.00102557  1
  Cu+  Cu37  1  0.49770713  0.16605239  0.33202952  1
  Cu+  Cu38  1  0.50309674  0.16907162  0.66646224  1
  Cu+  Cu39  1  0.50429322  0.49758181  -0.00123821  1
  Cu+  Cu40  1  0.50073966  0.50026614  0.33839106  1
  Cu+  Cu41  1  0.49477426  0.50359490  0.67103682  1
  Cu+  Cu42  1  0.49535139  0.84239130  0.00237134  1
  Cu+  Cu43  1  0.50322403  0.83311478  0.33007043  1
  Cu+  Cu44  1  0.49599368  0.82785968  0.66638752  1
  Cu+  Cu45  1  0.83431428  0.16646543  0.00068433  1
  Cu+  Cu46  1  0.83391917  0.16575994  0.33464255  1
  Cu+  Cu47  1  0.83451871  0.16477632  0.67193023  1
  Cu+  Cu48  1  0.82930398  0.50666382  0.00094660  1
  Cu+  Cu49  1  0.83084733  0.49645016  0.33190822  1
  Cu+  Cu50  1  0.83182826  0.50076090  0.66499776  1
  Cu+  Cu51  1  0.83243967  0.83449588  -0.00161338  1
  Cu+  Cu52  1  0.83259451  0.83618308  0.33258266  1
  Cu+  Cu53  1  0.84198140  0.82535119  0.66113884  1
  Cu+  Cu54  1  0.16508822  0.00317683  0.16914266  1
  Cu+  Cu55  1  0.16767746  0.00208297  0.49956592  1
  Cu+  Cu56  1  0.16305733  -0.00065290  0.83538620  1
  Cu+  Cu57  1  0.16300503  0.33065061  0.16288054  1
  Cu+  Cu58  1  0.16592835  0.33311767  0.49792019  1
  Cu+  Cu59  1  0.16850731  0.33700826  0.83190769  1
  Cu+  Cu60  1  0.17149941  0.66740650  0.16343459  1
  Cu+  Cu61  1  0.16624012  0.66710247  0.49885940  1
  Cu+  Cu62  1  0.16400287  0.66539335  0.83376171  1
  Cu+  Cu63  1  0.49900546  0.00132879  0.16462937  1
  Cu+  Cu64  1  0.50171286  -0.00010299  0.49897101  1
  Cu+  Cu65  1  0.50278858  -0.00018708  0.83798744  1
  Cu+  Cu66  1  0.49979710  0.33312245  0.16716883  1
  Cu+  Cu67  1  0.50812190  0.33092932  0.50850012  1
  Cu+  Cu68  1  0.49658826  0.32758349  0.82899975  1
  Cu+  Cu69  1  0.50125010  0.66714039  0.16680778  1
  Cu+  Cu70  1  0.49206674  0.66909763  0.50613226  1
  Cu+  Cu71  1  0.50075443  0.66800734  0.83100480  1
  Cu+  Cu72  1  0.83674237  0.00182533  0.16614042  1
  Cu+  Cu73  1  0.83372841  -0.00339912  0.50023281  1
  Cu+  Cu74  1  0.83557106  0.00238367  0.82845211  1
  Cu+  Cu75  1  0.83437302  0.33364960  0.16910133  1
  Cu+  Cu76  1  0.83242440  0.33222085  0.50041637  1
  Cu+  Cu77  1  0.83144985  0.33510584  0.83840122  1
  Cu+  Cu78  1  0.83350437  0.67022668  0.16450751  1
  Cu+  Cu79  1  0.83181160  0.66454203  0.50007570  1
  Cu+  Cu80  1  0.83705549  0.66417404  0.82776827  1
  Cu+  Cu81  1  0.00142322  0.16910488  0.16558031  1
  Cu+  Cu82  1  0.00231320  0.16721754  0.50045269  1
  Cu+  Cu83  1  -0.00256269  0.16783987  0.83387570  1
  Cu+  Cu84  1  0.00151540  0.49885693  0.16555286  1
  Cu+  Cu85  1  -0.00064393  0.49899394  0.49763540  1
  Cu+  Cu86  1  -0.00011375  0.50392451  0.83812996  1
  Cu+  Cu87  1  -0.00003387  0.83487839  0.16671985  1
  Cu+  Cu88  1  0.00204510  0.83587764  0.50118179  1
  Cu+  Cu89  1  0.00095852  0.82777538  0.82942163  1
  Cu+  Cu90  1  0.33226359  0.16716232  0.16895795  1
  Cu+  Cu91  1  0.33175023  0.16498177  0.49827497  1
  Cu+  Cu92  1  0.33621156  0.16702151  0.83221191  1
  Cu+  Cu93  1  0.33215309  0.50107776  0.17126417  1
  Cu+  Cu94  1  0.33727347  0.50418397  0.49736926  1
  Cu+  Cu95  1  0.32962112  0.49397235  0.82690341  1
  Cu+  Cu96  1  0.33473445  0.82866157  0.15758920  1
  Cu+  Cu97  1  0.33219171  0.83273115  0.50067074  1
  Cu+  Cu98  1  0.32645143  0.83844641  0.84033543  1
  Cu+  Cu99  1  0.66553359  0.16655407  0.16629049  1
  Cu+  Cu100  1  0.66666085  0.16817090  0.50453583  1
  Cu+  Cu101  1  0.66878630  0.16518646  0.83545964  1
  Cu+  Cu102  1  0.67215394  0.49823108  0.16723817  1
  Cu+  Cu103  1  0.65878558  0.49464663  0.49734558  1
  Cu+  Cu104  1  0.66683929  0.50334587  0.84140305  1
  Cu+  Cu105  1  0.66680579  0.83322441  0.16848547  1
  Cu+  Cu106  1  0.67204098  0.83449882  0.49670390  1
  Cu+  Cu107  1  0.66136060  0.83156064  0.83302791  1
  Cu+  Cu108  1  0.39943659  0.59691716  0.75366805  1
  Cu+  Cu109  1  0.25375242  0.40494532  0.73264756  1
  Cu+  Cu110  1  0.59749332  0.92732209  0.92830404  1
  Cu+  Cu111  1  0.93019365  0.59416515  0.93204666  1
  Cu+  Cu112  1  0.26242480  0.73381359  0.06844337  1
  Cu+  Cu113  1  0.07048644  0.25955004  0.07087696  1
  Cu+  Cu114  1  0.74247055  0.92810186  0.40371633  1
  Cu+  Cu115  1  0.58914761  0.74445633  0.73943995  1
  Cu+  Cu116  1  0.40431411  0.24936658  0.73512414  1
  Cu+  Cu117  1  0.24866028  0.93405973  0.92854323  1
  Cu+  Cu118  1  0.73856017  0.40397080  0.92629378  1
  Cu+  Cu119  1  0.92992835  0.92869668  0.58780314  1
  Cu+  Cu120  1  0.41387963  0.59682639  0.40656172  1
  Cu+  Cu121  1  0.58285468  0.40149233  0.40687516  1
  Cu+  Cu122  1  0.74030218  0.58451246  0.73670056  1
  Cu+  Cu123  1  0.40352442  0.93350677  0.08129740  1
  Cu+  Cu124  1  0.39858832  0.74512833  0.59431447  1
  Cu+  Cu125  1  0.74515439  0.40238802  0.26150472  1
  Cu+  Cu126  1  0.25521518  0.59702781  0.25907104  1
  Cu+  Cu127  1  0.73952799  0.59933517  0.08123525  1
  Cu+  Cu128  1  0.60016832  0.25916573  0.59922527  1
  Cu+  Cu129  1  0.93286593  0.73377227  0.73462481  1
  Cu+  Cu130  1  0.93011801  0.07788354  0.74272795  1
  Cu+  Cu131  1  0.74140718  0.74067164  0.58531337  1
  Cu+  Cu132  1  0.58515621  0.59600425  0.92771478  1
  Te2-  Te133  1  0.25427091  0.25240679  0.08102580  1
  Te2-  Te134  1  0.25256723  0.25224956  0.41362513  1
  Te2-  Te135  1  0.25183236  0.25231750  0.74362914  1
  Te2-  Te136  1  0.25669017  0.58257727  0.07637922  1
  Te2-  Te137  1  0.25548333  0.59038757  0.41173517  1
  Te2-  Te138  1  0.24870689  0.58773507  0.74524411  1
  Te2-  Te139  1  0.25204504  0.92645832  0.08033162  1
  Te2-  Te140  1  0.25328144  0.91936070  0.41517392  1
  Te2-  Te141  1  0.25013146  0.92031160  0.74826154  1
  Te2-  Te142  1  0.58574187  0.25330419  0.08159245  1
  Te2-  Te143  1  0.58722933  0.24951609  0.41180804  1
  Te2-  Te144  1  0.59204714  0.25286696  0.75017077  1
  Te2-  Te145  1  0.58780275  0.58667666  0.08123979  1
  Te2-  Te146  1  0.58194514  0.59121723  0.41965408  1
  Te2-  Te147  1  0.58901438  0.58677667  0.74444727  1
  Te2-  Te148  1  0.59030944  0.92130452  0.08171588  1
  Te2-  Te149  1  0.58636049  0.91901405  0.41314670  1
  Te2-  Te150  1  0.58034662  0.91710730  0.74586518  1
  Te2-  Te151  1  0.91816688  0.25507065  0.07962353  1
  Te2-  Te152  1  0.91790373  0.25072571  0.41676110  1
  Te2-  Te153  1  0.91657282  0.25727896  0.75049726  1
  Te2-  Te154  1  0.92297483  0.58858726  0.08276584  1
  Te2-  Te155  1  0.91518502  0.58269459  0.41283258  1
  Te2-  Te156  1  0.92372472  0.58224027  0.74224795  1
  Te2-  Te157  1  0.91932580  0.91897006  0.07919326  1
  Te2-  Te158  1  0.92214124  0.91948550  0.41242236  1
  Te2-  Te159  1  0.92293356  0.91897496  0.74465862  1
  Te2-  Te160  1  0.25260444  0.08105305  0.25349968  1
  Te2-  Te161  1  0.25295542  0.08108792  0.58615962  1
  Te2-  Te162  1  0.25145125  0.08585143  0.91951731  1
  Te2-  Te163  1  0.25062611  0.40926233  0.24903476  1
  Te2-  Te164  1  0.25533626  0.41379293  0.58055980  1
  Te2-  Te165  1  0.25357525  0.41481604  0.92060083  1
  Te2-  Te166  1  0.25660939  0.74995021  0.25388963  1
  Te2-  Te167  1  0.24933660  0.74656463  0.58777724  1
  Te2-  Te168  1  0.25435861  0.74041044  0.91730692  1
  Te2-  Te169  1  0.58422349  0.08054479  0.25180079  1
  Te2-  Te170  1  0.58549434  0.07901281  0.58703778  1
  Te2-  Te171  1  0.58945497  0.08107949  0.92265714  1
  Te2-  Te172  1  0.58746799  0.41319661  0.25372570  1
  Te2-  Te173  1  0.58689985  0.41678207  0.59700641  1
  Te2-  Te174  1  0.58380189  0.40723478  0.91708919  1
  Te2-  Te175  1  0.58697503  0.74654173  0.25117041  1
  Te2-  Te176  1  0.58912937  0.74482779  0.58539774  1
  Te2-  Te177  1  0.58162572  0.74875747  0.92505901  1
  Te2-  Te178  1  0.92098628  0.08317239  0.25208794  1
  Te2-  Te179  1  0.92250199  0.08047601  0.58761663  1
  Te2-  Te180  1  0.91841047  0.08000006  0.91990490  1
  Te2-  Te181  1  0.92142699  0.41517498  0.25236683  1
  Te2-  Te182  1  0.91715207  0.41501509  0.58476612  1
  Te2-  Te183  1  0.91786161  0.41790726  0.92243896  1
  Te2-  Te184  1  0.91807491  0.74970431  0.25196228  1
  Te2-  Te185  1  0.92721517  0.73874669  0.58056276  1
  Te2-  Te186  1  0.91778499  0.74785507  0.91890063  1
  Te2-  Te187  1  0.08171056  0.25200500  0.25452645  1
  Te2-  Te188  1  0.08044013  0.25468836  0.58530981  1
  Te2-  Te189  1  0.07906618  0.25632973  0.91589135  1
  Te2-  Te190  1  0.08304304  0.58687901  0.24868597  1
  Te2-  Te191  1  0.08177621  0.58342987  0.58357272  1
  Te2-  Te192  1  0.08256707  0.58840897  0.92326651  1
  Te2-  Te193  1  0.08294310  0.91778606  0.25189722  1
  Te2-  Te194  1  0.08330071  0.92235459  0.58759649  1
  Te2-  Te195  1  0.07844371  0.91397833  0.92018377  1
  Te2-  Te196  1  0.41376016  0.25345563  0.25267735  1
  Te2-  Te197  1  0.41113397  0.25266713  0.58396308  1
  Te2-  Te198  1  0.41610284  0.25064593  0.92122162  1
  Te2-  Te199  1  0.41534395  0.58781704  0.25434690  1
  Te2-  Te200  1  0.40731495  0.58881456  0.59388991  1
  Te2-  Te201  1  0.41361817  0.58126041  0.91536901  1
  Te2-  Te202  1  0.41378778  0.91547902  0.24874357  1
  Te2-  Te203  1  0.41580097  0.91866953  0.58512610  1
  Te2-  Te204  1  0.40833249  0.92626793  0.92105088  1
  Te2-  Te205  1  0.74611557  0.25058458  0.25432323  1
  Te2-  Te206  1  0.75109899  0.25307751  0.59053018  1
  Te2-  Te207  1  0.74568209  0.25113434  0.92311320  1
  Te2-  Te208  1  0.74992710  0.58783918  0.25171340  1
  Te2-  Te209  1  0.74075707  0.58389349  0.58335196  1
  Te2-  Te210  1  0.74343418  0.59784021  0.92317252  1
  Te2-  Te211  1  0.74715699  0.92300539  0.25032107  1
  Te2-  Te212  1  0.75063404  0.91518565  0.58996688  1
  Te2-  Te213  1  0.75027670  0.91792865  0.91281073  1
  Te2-  Te214  1  0.08018492  0.08029656  0.08070539  1
  Te2-  Te215  1  0.08107584  0.08117086  0.41439794  1
  Te2-  Te216  1  0.08180374  0.08100293  0.74725590  1
  Te2-  Te217  1  0.07910378  0.41441832  0.07753302  1
  Te2-  Te218  1  0.08322538  0.41675705  0.41135927  1
  Te2-  Te219  1  0.07743573  0.41696705  0.74959979  1
  Te2-  Te220  1  0.08216740  0.74886226  0.08122572  1
  Te2-  Te221  1  0.08102047  0.74909907  0.41443057  1
  Te2-  Te222  1  0.08347183  0.74356414  0.74365762  1
  Te2-  Te223  1  0.41162433  0.08439587  0.07937157  1
  Te2-  Te224  1  0.41538349  0.08050754  0.41511550  1
  Te2-  Te225  1  0.41841744  0.07932128  0.74754206  1
  Te2-  Te226  1  0.41604991  0.41815732  0.08321093  1
  Te2-  Te227  1  0.41855824  0.40927791  0.41990353  1
  Te2-  Te228  1  0.41250466  0.40813142  0.74306000  1
  Te2-  Te229  1  0.41760466  0.74117584  0.07452066  1
  Te2-  Te230  1  0.41370370  0.75109683  0.41063336  1
  Te2-  Te231  1  0.40426827  0.74891906  0.75096338  1
  Te2-  Te232  1  0.74896417  0.08173728  0.08220122  1
  Te2-  Te233  1  0.74640917  0.08127676  0.41641564  1
  Te2-  Te234  1  0.74499647  0.08051611  0.74805132  1
  Te2-  Te235  1  0.74818316  0.41097481  0.07871001  1
  Te2-  Te236  1  0.74352717  0.40906328  0.41421857  1
  Te2-  Te237  1  0.74665730  0.41754939  0.75084539  1
  Te2-  Te238  1  0.74523402  0.75117274  0.07846839  1
  Te2-  Te239  1  0.74958329  0.74531727  0.41119828  1
  Te2-  Te240  1  0.74299818  0.74297361  0.74235770  1
