# generated using pymatgen
data_Ti27(Cu53Te54)2
_symmetry_space_group_name_H-M   'P 1'
_cell_length_a   17.87547244
_cell_length_b   17.87658492
_cell_length_c   17.87623585
_cell_angle_alpha   89.96146005
_cell_angle_beta   90.00770799
_cell_angle_gamma   90.02903509
_symmetry_Int_Tables_number   1
_chemical_formula_structural   Ti27(Cu53Te54)2
_chemical_formula_sum   'Ti27 Cu106 Te108'
_cell_volume   5712.39201199
_cell_formula_units_Z   1
loop_
 _symmetry_equiv_pos_site_id
 _symmetry_equiv_pos_as_xyz
  1  'x, y, z'
loop_
 _atom_type_symbol
 _atom_type_oxidation_number
  Ti4+  4.0
  Cu+  1.0
  Te2-  -2.0
loop_
 _atom_site_type_symbol
 _atom_site_label
 _atom_site_symmetry_multiplicity
 _atom_site_fract_x
 _atom_site_fract_y
 _atom_site_fract_z
 _atom_site_occupancy
  Ti4+  Ti0  1  0.16757628  0.16538090  0.16804278  1
  Ti4+  Ti1  1  0.16893846  0.16755653  0.50054246  1
  Ti4+  Ti2  1  0.16340812  0.16925273  0.83578602  1
  Ti4+  Ti3  1  0.16709197  0.49864129  0.16784679  1
  Ti4+  Ti4  1  0.16715801  0.50124562  0.50069271  1
  Ti4+  Ti5  1  0.16998788  0.50342353  0.82956987  1
  Ti4+  Ti6  1  0.16546473  0.83179716  0.16738159  1
  Ti4+  Ti7  1  0.16609776  0.83421790  0.49798241  1
  Ti4+  Ti8  1  0.16876750  0.83432969  0.83548796  1
  Ti4+  Ti9  1  0.50453405  0.16674355  0.16648248  1
  Ti4+  Ti10  1  0.50066856  0.16731342  0.49823695  1
  Ti4+  Ti11  1  0.49575189  0.16692789  0.83440658  1
  Ti4+  Ti12  1  0.49851232  0.49983000  0.16745413  1
  Ti4+  Ti13  1  0.49739332  0.50099268  0.50112077  1
  Ti4+  Ti14  1  0.49741803  0.50009820  0.83320432  1
  Ti4+  Ti15  1  0.50021117  0.83197754  0.16522209  1
  Ti4+  Ti16  1  0.49941447  0.83423673  0.49628073  1
  Ti4+  Ti17  1  0.50027189  0.83335672  0.83376123  1
  Ti4+  Ti18  1  0.83147337  0.16932793  0.16913642  1
  Ti4+  Ti19  1  0.83606436  0.16419809  0.50059836  1
  Ti4+  Ti20  1  0.83017789  0.16447667  0.83136306  1
  Ti4+  Ti21  1  0.83132571  0.49967920  0.16354943  1
  Ti4+  Ti22  1  0.83455890  0.50002963  0.49953442  1
  Ti4+  Ti23  1  0.83483473  0.49843780  0.83239379  1
  Ti4+  Ti24  1  0.83448008  0.83288741  0.16866256  1
  Ti4+  Ti25  1  0.83188090  0.82993431  0.50305907  1
  Ti4+  Ti26  1  0.83706709  0.83245184  0.83458069  1
  Cu+  Cu27  1  0.16365953  0.16854196  0.00401100  1
  Cu+  Cu28  1  0.17015607  0.16559387  0.33264565  1
  Cu+  Cu29  1  0.16696048  0.16747803  0.66979518  1
  Cu+  Cu30  1  0.16945475  0.50126492  0.00001354  1
  Cu+  Cu31  1  0.16787727  0.49631287  0.33483919  1
  Cu+  Cu32  1  0.17126787  0.50814840  0.66213956  1
  Cu+  Cu33  1  0.16652044  0.83345069  0.00128503  1
  Cu+  Cu34  1  0.16649622  0.83103836  0.33178085  1
  Cu+  Cu35  1  0.16554483  0.83476094  0.66943508  1
  Cu+  Cu36  1  0.49595773  0.16508079  -0.00189229  1
  Cu+  Cu37  1  0.50821804  0.16770528  0.33305262  1
  Cu+  Cu38  1  0.49861162  0.16626278  0.67076589  1
  Cu+  Cu39  1  0.49871974  0.49721540  0.00132896  1
  Cu+  Cu40  1  0.49555602  0.50115234  0.33309085  1
  Cu+  Cu41  1  0.49273038  0.49896997  0.66733801  1
  Cu+  Cu42  1  0.50088568  0.83124768  -0.00082930  1
  Cu+  Cu43  1  0.50410641  0.83381706  0.32813933  1
  Cu+  Cu44  1  0.49604731  0.83764632  0.66092680  1
  Cu+  Cu45  1  0.83155306  0.16802206  -0.00049746  1
  Cu+  Cu46  1  0.83141539  0.16910889  0.33775359  1
  Cu+  Cu47  1  0.82955107  0.15899720  0.66236297  1
  Cu+  Cu48  1  0.83345097  0.50156134  -0.00344017  1
  Cu+  Cu49  1  0.82911150  0.50008604  0.32888389  1
  Cu+  Cu50  1  0.83762958  0.49755958  0.66734592  1
  Cu+  Cu51  1  0.83898560  0.83101377  0.00295064  1
  Cu+  Cu52  1  0.83424407  0.82936950  0.33675797  1
  Cu+  Cu53  1  0.83632125  0.83867058  0.66843871  1
  Cu+  Cu54  1  0.16495612  -0.00202923  0.16873002  1
  Cu+  Cu55  1  0.16845675  0.00224115  0.49965815  1
  Cu+  Cu56  1  0.16601207  0.00206822  0.83302924  1
  Cu+  Cu57  1  0.16790425  0.32964678  0.16691111  1
  Cu+  Cu58  1  0.16742751  0.33388332  0.49696729  1
  Cu+  Cu59  1  0.16093874  0.33948937  0.83487330  1
  Cu+  Cu60  1  0.16379517  0.66346371  0.16836475  1
  Cu+  Cu61  1  0.16919694  0.67019478  0.49815361  1
  Cu+  Cu62  1  0.17316913  0.66793482  0.83660980  1
  Cu+  Cu63  1  0.50378928  -0.00401202  0.16910293  1
  Cu+  Cu64  1  0.50057396  0.00190536  0.49322106  1
  Cu+  Cu65  1  0.49811879  0.00108076  0.83320788  1
  Cu+  Cu66  1  0.50678710  0.33572756  0.16569352  1
  Cu+  Cu67  1  0.49640438  0.33772505  0.50707934  1
  Cu+  Cu68  1  0.49485032  0.33035261  0.83681368  1
  Cu+  Cu69  1  0.49641263  0.66416395  0.16564870  1
  Cu+  Cu70  1  0.50097720  0.67161482  0.49543043  1
  Cu+  Cu71  1  0.49935671  0.66802729  0.83118711  1
  Cu+  Cu72  1  0.83213681  0.00287974  0.17026340  1
  Cu+  Cu73  1  0.83329081  -0.00235592  0.51142890  1
  Cu+  Cu74  1  0.82957645  -0.00539300  0.82936702  1
  Cu+  Cu75  1  0.82724127  0.33313231  0.16213737  1
  Cu+  Cu76  1  0.83559039  0.33198409  0.49731650  1
  Cu+  Cu77  1  0.83665409  0.33042206  0.83315472  1
  Cu+  Cu78  1  0.83536095  0.66774202  0.16473877  1
  Cu+  Cu79  1  0.83603962  0.66178176  0.49755509  1
  Cu+  Cu80  1  0.83652808  0.66630229  0.83382956  1
  Cu+  Cu81  1  0.00104426  0.16587806  0.16960896  1
  Cu+  Cu82  1  0.00444290  0.16686755  0.50176809  1
  Cu+  Cu83  1  -0.00527889  0.17010368  0.83619610  1
  Cu+  Cu84  1  -0.00085696  0.49913361  0.16713899  1
  Cu+  Cu85  1  -0.00174936  0.50374000  0.50345424  1
  Cu+  Cu86  1  0.00565545  0.49555870  0.83204839  1
  Cu+  Cu87  1  -0.00086632  0.83055122  0.16548451  1
  Cu+  Cu88  1  -0.00157632  0.83192941  0.50299080  1
  Cu+  Cu89  1  0.00528121  0.83202342  0.83574084  1
  Cu+  Cu90  1  0.33714363  0.16549340  0.16779202  1
  Cu+  Cu91  1  0.33196079  0.16508256  0.49852141  1
  Cu+  Cu92  1  0.32802347  0.16634351  0.83335782  1
  Cu+  Cu93  1  0.33452215  0.49798293  0.16836848  1
  Cu+  Cu94  1  0.33181780  0.49691212  0.50475699  1
  Cu+  Cu95  1  0.33445648  0.50968862  0.83077697  1
  Cu+  Cu96  1  0.33359957  0.83118973  0.16637796  1
  Cu+  Cu97  1  0.33334559  0.83377542  0.49456665  1
  Cu+  Cu98  1  0.33424355  0.83511708  0.83446031  1
  Cu+  Cu99  1  0.66798747  0.17638354  0.16836796  1
  Cu+  Cu100  1  0.66886355  0.16494442  0.49553235  1
  Cu+  Cu101  1  0.65949206  0.16447307  0.83027780  1
  Cu+  Cu102  1  0.66284548  0.49687108  0.16325759  1
  Cu+  Cu103  1  0.66900856  0.50427579  0.49881596  1
  Cu+  Cu104  1  0.66801887  0.49751515  0.83206744  1
  Cu+  Cu105  1  0.66818879  0.83508027  0.16891257  1
  Cu+  Cu106  1  0.66136933  0.82777855  0.49701240  1
  Cu+  Cu107  1  0.66871882  0.83222153  0.83447805  1
  Cu+  Cu108  1  0.92971871  0.73745091  0.07191661  1
  Cu+  Cu109  1  0.25539923  0.07389152  0.74238623  1
  Cu+  Cu110  1  0.26099616  0.73973172  0.40238383  1
  Cu+  Cu111  1  0.58654812  0.07246354  0.74334194  1
  Cu+  Cu112  1  0.92815641  0.73832113  0.40919553  1
  Cu+  Cu113  1  0.74278603  0.26183279  0.41345952  1
  Cu+  Cu114  1  0.26177355  0.59411625  0.93202831  1
  Cu+  Cu115  1  0.25961730  0.40509755  0.40540851  1
  Cu+  Cu116  1  0.59797589  0.92536948  0.25608016  1
  Cu+  Cu117  1  0.73481482  0.07353087  0.58745192  1
  Cu+  Cu118  1  0.41265440  0.60125199  0.73699355  1
  Cu+  Cu119  1  0.59026628  0.26797387  0.26360069  1
  Cu+  Cu120  1  0.74149129  0.59118868  0.40050354  1
  Cu+  Cu121  1  0.92504743  0.59131172  0.59886473  1
  Cu+  Cu122  1  0.25705111  0.07152302  0.40266661  1
  Cu+  Cu123  1  0.73933395  0.25728519  0.06636633  1
  Cu+  Cu124  1  0.07799962  0.41443096  0.93080968  1
  Cu+  Cu125  1  0.93203921  0.92711565  0.59594288  1
  Cu+  Cu126  1  0.59814777  0.07420557  0.40439798  1
  Cu+  Cu127  1  0.58972675  0.73787508  0.39952470  1
  Cu+  Cu128  1  0.73673330  0.91601871  0.74059257  1
  Cu+  Cu129  1  0.92350371  0.25789807  0.92992470  1
  Cu+  Cu130  1  0.59097268  0.40900208  0.06756833  1
  Cu+  Cu131  1  0.40270873  0.40185329  0.59971422  1
  Cu+  Cu132  1  0.26184462  0.60107325  0.58493056  1
  Te2-  Te133  1  0.25476775  0.25007159  0.08265993  1
  Te2-  Te134  1  0.25541208  0.25343877  0.41207212  1
  Te2-  Te135  1  0.24812072  0.25718880  0.75178206  1
  Te2-  Te136  1  0.25432579  0.58594174  0.08402610  1
  Te2-  Te137  1  0.25568639  0.58591813  0.41293972  1
  Te2-  Te138  1  0.25632044  0.59511434  0.74156794  1
  Te2-  Te139  1  0.25150507  0.91768603  0.08359022  1
  Te2-  Te140  1  0.25179655  0.92002112  0.41098679  1
  Te2-  Te141  1  0.25383012  0.91999045  0.74723104  1
  Te2-  Te142  1  0.58607575  0.25347029  0.07238579  1
  Te2-  Te143  1  0.58687633  0.26122651  0.41814645  1
  Te2-  Te144  1  0.58148535  0.25549811  0.74857393  1
  Te2-  Te145  1  0.58323688  0.58608808  0.08026052  1
  Te2-  Te146  1  0.58465018  0.58525992  0.41078897  1
  Te2-  Te147  1  0.58419829  0.58266715  0.74660903  1
  Te2-  Te148  1  0.58714046  0.91703288  0.07933684  1
  Te2-  Te149  1  0.59065486  0.92121488  0.41083110  1
  Te2-  Te150  1  0.58461871  0.91938876  0.74406542  1
  Te2-  Te151  1  0.92087341  0.25285241  0.08334276  1
  Te2-  Te152  1  0.92346438  0.25026749  0.41598204  1
  Te2-  Te153  1  0.91426201  0.24734646  0.74198008  1
  Te2-  Te154  1  0.92059715  0.58389343  0.07888862  1
  Te2-  Te155  1  0.92178913  0.58303256  0.40752801  1
  Te2-  Te156  1  0.92408210  0.58481488  0.75053141  1
  Te2-  Te157  1  0.91821436  0.92205229  0.08508107  1
  Te2-  Te158  1  0.91524001  0.91914442  0.41896288  1
  Te2-  Te159  1  0.92711025  0.92014195  0.74997183  1
  Te2-  Te160  1  0.25606835  0.07766276  0.25102380  1
  Te2-  Te161  1  0.25384348  0.08039125  0.58848123  1
  Te2-  Te162  1  0.24797612  0.08326941  0.92219789  1
  Te2-  Te163  1  0.25376999  0.41109326  0.25199697  1
  Te2-  Te164  1  0.25001508  0.41014615  0.58967323  1
  Te2-  Te165  1  0.25574970  0.41741066  0.91563004  1
  Te2-  Te166  1  0.25307491  0.74381653  0.25086619  1
  Te2-  Te167  1  0.25415599  0.75343422  0.58729790  1
  Te2-  Te168  1  0.25674678  0.74990319  0.92327245  1
  Te2-  Te169  1  0.59429526  0.07897741  0.25169761  1
  Te2-  Te170  1  0.58386175  0.07917177  0.58683465  1
  Te2-  Te171  1  0.58307928  0.08044057  0.92022339  1
  Te2-  Te172  1  0.58742467  0.41801182  0.25878788  1
  Te2-  Te173  1  0.58677367  0.42053297  0.58677818  1
  Te2-  Te174  1  0.58481759  0.41257312  0.91583619  1
  Te2-  Te175  1  0.58790168  0.74157805  0.24861731  1
  Te2-  Te176  1  0.58181314  0.74873174  0.58721662  1
  Te2-  Te177  1  0.58611370  0.74680213  0.91665379  1
  Te2-  Te178  1  0.91637385  0.08467953  0.25535184  1
  Te2-  Te179  1  0.92652202  0.08060523  0.58846306  1
  Te2-  Te180  1  0.91335438  0.07855288  0.91784953  1
  Te2-  Te181  1  0.91430297  0.41359044  0.24875051  1
  Te2-  Te182  1  0.91966290  0.41114977  0.58346764  1
  Te2-  Te183  1  0.92190395  0.41252081  0.92171343  1
  Te2-  Te184  1  0.92097863  0.74487340  0.25492245  1
  Te2-  Te185  1  0.91795428  0.74475872  0.59031672  1
  Te2-  Te186  1  0.92383960  0.74518597  0.91898427  1
  Te2-  Te187  1  0.08262179  0.25116544  0.25421476  1
  Te2-  Te188  1  0.08431716  0.25341275  0.58597009  1
  Te2-  Te189  1  0.07745042  0.25647122  0.92423429  1
  Te2-  Te190  1  0.08126102  0.58149118  0.25448091  1
  Te2-  Te191  1  0.08077825  0.59176311  0.58504969  1
  Te2-  Te192  1  0.08244346  0.58631483  0.91749924  1
  Te2-  Te193  1  0.07893549  0.91611258  0.25261377  1
  Te2-  Te194  1  0.08336284  0.92035695  0.58613827  1
  Te2-  Te195  1  0.08325922  0.92036402  0.92010651  1
  Te2-  Te196  1  0.42022654  0.25286168  0.25151412  1
  Te2-  Te197  1  0.41278873  0.24841420  0.58716011  1
  Te2-  Te198  1  0.40852645  0.25027218  0.92063400  1
  Te2-  Te199  1  0.41201092  0.58595434  0.25281173  1
  Te2-  Te200  1  0.41338332  0.59437304  0.58368042  1
  Te2-  Te201  1  0.41650088  0.58824868  0.92377499  1
  Te2-  Te202  1  0.41362980  0.91716352  0.25140030  1
  Te2-  Te203  1  0.41308835  0.92230998  0.57843049  1
  Te2-  Te204  1  0.41595916  0.91901043  0.91983520  1
  Te2-  Te205  1  0.74616795  0.25898968  0.25918081  1
  Te2-  Te206  1  0.74803141  0.25188691  0.58385542  1
  Te2-  Te207  1  0.74203940  0.25191142  0.91370835  1
  Te2-  Te208  1  0.74385461  0.58704222  0.24637193  1
  Te2-  Te209  1  0.75042001  0.58530599  0.58826998  1
  Te2-  Te210  1  0.74797955  0.58532229  0.91523385  1
  Te2-  Te211  1  0.75085949  0.91935237  0.25748328  1
  Te2-  Te212  1  0.73815320  0.91559181  0.58661034  1
  Te2-  Te213  1  0.75105124  0.91513513  0.92277288  1
  Te2-  Te214  1  0.08019859  0.08033647  0.08358685  1
  Te2-  Te215  1  0.08244399  0.08236021  0.41442163  1
  Te2-  Te216  1  0.07678383  0.08449300  0.75085411  1
  Te2-  Te217  1  0.08177786  0.41284790  0.08233975  1
  Te2-  Te218  1  0.07791336  0.41692313  0.41751396  1
  Te2-  Te219  1  0.08574121  0.41917796  0.73945865  1
  Te2-  Te220  1  0.08183226  0.74423670  0.07965047  1
  Te2-  Te221  1  0.07930552  0.74671111  0.41389669  1
  Te2-  Te222  1  0.08470793  0.74604345  0.75045296  1
  Te2-  Te223  1  0.41900642  0.07889579  0.08522860  1
  Te2-  Te224  1  0.41444562  0.08400583  0.40941277  1
  Te2-  Te225  1  0.40971022  0.07935848  0.74684451  1
  Te2-  Te226  1  0.41347364  0.41129185  0.08311144  1
  Te2-  Te227  1  0.41313455  0.41401968  0.41350915  1
  Te2-  Te228  1  0.40888380  0.41091200  0.75102674  1
  Te2-  Te229  1  0.41441090  0.74710473  0.08004321  1
  Te2-  Te230  1  0.41425567  0.74839363  0.40724055  1
  Te2-  Te231  1  0.41288055  0.75247121  0.74487876  1
  Te2-  Te232  1  0.74636621  0.08352012  0.08347339  1
  Te2-  Te233  1  0.75173323  0.07273800  0.41407963  1
  Te2-  Te234  1  0.74148350  0.07509361  0.74385130  1
  Te2-  Te235  1  0.74486053  0.41387641  0.07291088  1
  Te2-  Te236  1  0.74622334  0.41456800  0.41378446  1
  Te2-  Te237  1  0.75074681  0.41261866  0.74744728  1
  Te2-  Te238  1  0.74717019  0.74961337  0.08226272  1
  Te2-  Te239  1  0.74467799  0.74332320  0.41264114  1
  Te2-  Te240  1  0.75160656  0.74768442  0.74738839  1
