# generated using pymatgen
data_Ti27(Cu53Te54)2
_symmetry_space_group_name_H-M   'P 1'
_cell_length_a   17.87097956
_cell_length_b   17.87065949
_cell_length_c   17.87421786
_cell_angle_alpha   90.00099329
_cell_angle_beta   89.98286717
_cell_angle_gamma   90.00593898
_symmetry_Int_Tables_number   1
_chemical_formula_structural   Ti27(Cu53Te54)2
_chemical_formula_sum   'Ti27 Cu106 Te108'
_cell_volume   5708.42058039
_cell_formula_units_Z   1
loop_
 _symmetry_equiv_pos_site_id
 _symmetry_equiv_pos_as_xyz
  1  'x, y, z'
loop_
 _atom_type_symbol
 _atom_type_oxidation_number
  Ti4+  4.0
  Cu+  1.0
  Te2-  -2.0
loop_
 _atom_site_type_symbol
 _atom_site_label
 _atom_site_symmetry_multiplicity
 _atom_site_fract_x
 _atom_site_fract_y
 _atom_site_fract_z
 _atom_site_occupancy
  Ti4+  Ti0  1  0.16573329  0.16620002  0.16537465  1
  Ti4+  Ti1  1  0.16759073  0.16683856  0.50087825  1
  Ti4+  Ti2  1  0.16734902  0.16668208  0.83657629  1
  Ti4+  Ti3  1  0.16631008  0.50151821  0.16743417  1
  Ti4+  Ti4  1  0.16498683  0.49953535  0.49998892  1
  Ti4+  Ti5  1  0.16573217  0.50039091  0.83248709  1
  Ti4+  Ti6  1  0.16777870  0.83247619  0.16513188  1
  Ti4+  Ti7  1  0.16704992  0.83315474  0.50069903  1
  Ti4+  Ti8  1  0.16457807  0.83459442  0.83065963  1
  Ti4+  Ti9  1  0.49897195  0.16955525  0.16541601  1
  Ti4+  Ti10  1  0.49952337  0.16766491  0.50139158  1
  Ti4+  Ti11  1  0.50354402  0.16701713  0.83552834  1
  Ti4+  Ti12  1  0.50043583  0.49665838  0.16883938  1
  Ti4+  Ti13  1  0.49939064  0.49970988  0.50073419  1
  Ti4+  Ti14  1  0.50362270  0.49996486  0.83372901  1
  Ti4+  Ti15  1  0.50166697  0.83087302  0.16746318  1
  Ti4+  Ti16  1  0.49851818  0.83335013  0.50376287  1
  Ti4+  Ti17  1  0.49779911  0.83588535  0.83248277  1
  Ti4+  Ti18  1  0.83333524  0.16749944  0.16589459  1
  Ti4+  Ti19  1  0.83534947  0.16462857  0.49500685  1
  Ti4+  Ti20  1  0.83716999  0.16611518  0.83081898  1
  Ti4+  Ti21  1  0.83363136  0.50246862  0.16755125  1
  Ti4+  Ti22  1  0.83275321  0.49725792  0.49617903  1
  Ti4+  Ti23  1  0.83317950  0.49883371  0.83119039  1
  Ti4+  Ti24  1  0.83432836  0.83234136  0.16886528  1
  Ti4+  Ti25  1  0.83281546  0.83330801  0.50142064  1
  Ti4+  Ti26  1  0.82975641  0.83439023  0.83533139  1
  Cu+  Cu27  1  0.16334084  0.16094242  -0.00023410  1
  Cu+  Cu28  1  0.16776323  0.16610304  0.33191984  1
  Cu+  Cu29  1  0.16602802  0.16696204  0.67125864  1
  Cu+  Cu30  1  0.16651694  0.49994578  0.00039561  1
  Cu+  Cu31  1  0.16601627  0.50043848  0.33345974  1
  Cu+  Cu32  1  0.16305493  0.50335998  0.66653634  1
  Cu+  Cu33  1  0.16820479  0.83405278  -0.00361869  1
  Cu+  Cu34  1  0.16810156  0.83220124  0.33284226  1
  Cu+  Cu35  1  0.16961095  0.83675274  0.66352297  1
  Cu+  Cu36  1  0.49871039  0.17097320  0.00184096  1
  Cu+  Cu37  1  0.49519430  0.17072874  0.33553407  1
  Cu+  Cu38  1  0.50138259  0.16649381  0.66728400  1
  Cu+  Cu39  1  0.50200299  0.49660891  0.00041247  1
  Cu+  Cu40  1  0.50545753  0.49867707  0.33508677  1
  Cu+  Cu41  1  0.50353807  0.49814855  0.66975604  1
  Cu+  Cu42  1  0.49646582  0.83803171  0.00418386  1
  Cu+  Cu43  1  0.49994317  0.83130263  0.33506848  1
  Cu+  Cu44  1  0.49658093  0.82509154  0.66724220  1
  Cu+  Cu45  1  0.83699546  0.16833198  -0.00228518  1
  Cu+  Cu46  1  0.83095639  0.16273446  0.32857843  1
  Cu+  Cu47  1  0.83981299  0.16626459  0.65881003  1
  Cu+  Cu48  1  0.83269801  0.50203869  -0.00330059  1
  Cu+  Cu49  1  0.83687744  0.49747367  0.33104194  1
  Cu+  Cu50  1  0.83134569  0.49820464  0.66450649  1
  Cu+  Cu51  1  0.83582362  0.83042711  0.00516982  1
  Cu+  Cu52  1  0.83175934  0.83515765  0.33810296  1
  Cu+  Cu53  1  0.82948840  0.83516698  0.66841401  1
  Cu+  Cu54  1  0.16721366  0.00062494  0.16643734  1
  Cu+  Cu55  1  0.16930993  0.00028488  0.50228303  1
  Cu+  Cu56  1  0.16603269  0.00161720  0.83906666  1
  Cu+  Cu57  1  0.16436380  0.33547802  0.16677316  1
  Cu+  Cu58  1  0.16730833  0.33526943  0.50191019  1
  Cu+  Cu59  1  0.16730254  0.33365468  0.83217084  1
  Cu+  Cu60  1  0.16839906  0.66722129  0.16524042  1
  Cu+  Cu61  1  0.16450381  0.66483671  0.49814003  1
  Cu+  Cu62  1  0.16129530  0.66556155  0.82664726  1
  Cu+  Cu63  1  0.49921926  -0.00099284  0.16608635  1
  Cu+  Cu64  1  0.50020254  0.00301610  0.50284973  1
  Cu+  Cu65  1  0.50571471  -0.00122592  0.83881725  1
  Cu+  Cu66  1  0.49897850  0.33170830  0.15759944  1
  Cu+  Cu67  1  0.49699172  0.33141722  0.49714229  1
  Cu+  Cu68  1  0.50476093  0.33407681  0.83153144  1
  Cu+  Cu69  1  0.50196115  0.66387204  0.17193779  1
  Cu+  Cu70  1  0.49512359  0.66869998  0.50575799  1
  Cu+  Cu71  1  0.50116102  0.66919031  0.83041952  1
  Cu+  Cu72  1  0.83145796  0.00181446  0.17013717  1
  Cu+  Cu73  1  0.83043288  -0.00370757  0.49394841  1
  Cu+  Cu74  1  0.82495292  0.00083254  0.83306270  1
  Cu+  Cu75  1  0.82946879  0.33518605  0.16645127  1
  Cu+  Cu76  1  0.83965704  0.33116468  0.49165336  1
  Cu+  Cu77  1  0.84033129  0.33261335  0.83268876  1
  Cu+  Cu78  1  0.84122674  0.66771501  0.16922117  1
  Cu+  Cu79  1  0.83146123  0.66688127  0.50306888  1
  Cu+  Cu80  1  0.83181850  0.66458274  0.83533358  1
  Cu+  Cu81  1  -0.00023091  0.16955053  0.16360190  1
  Cu+  Cu82  1  -0.00021164  0.16677700  0.50092348  1
  Cu+  Cu83  1  0.00350790  0.17080982  0.83762089  1
  Cu+  Cu84  1  0.00102728  0.50710540  0.16945777  1
  Cu+  Cu85  1  -0.00177920  0.49520156  0.49440291  1
  Cu+  Cu86  1  0.00113397  0.50346215  0.82908568  1
  Cu+  Cu87  1  0.00079624  0.83114571  0.16427567  1
  Cu+  Cu88  1  -0.00018726  0.82974555  0.50298582  1
  Cu+  Cu89  1  -0.00311362  0.83214902  0.83169582  1
  Cu+  Cu90  1  0.33154647  0.17033911  0.16377078  1
  Cu+  Cu91  1  0.33565757  0.17015700  0.49995728  1
  Cu+  Cu92  1  0.33674696  0.16517507  0.83400451  1
  Cu+  Cu93  1  0.33153030  0.49947479  0.16894538  1
  Cu+  Cu94  1  0.33064983  0.50126003  0.50291340  1
  Cu+  Cu95  1  0.33528666  0.50161923  0.83663643  1
  Cu+  Cu96  1  0.33698487  0.83106976  0.16264333  1
  Cu+  Cu97  1  0.33183116  0.83374458  0.50713273  1
  Cu+  Cu98  1  0.32755576  0.83776718  0.83517546  1
  Cu+  Cu99  1  0.66627325  0.16495308  0.16876800  1
  Cu+  Cu100  1  0.66748624  0.16662169  0.50063544  1
  Cu+  Cu101  1  0.67062427  0.16270347  0.83352386  1
  Cu+  Cu102  1  0.66552675  0.49687688  0.17210822  1
  Cu+  Cu103  1  0.66350668  0.49705695  0.49561970  1
  Cu+  Cu104  1  0.66765652  0.49552272  0.82871217  1
  Cu+  Cu105  1  0.66785315  0.82891950  0.16793124  1
  Cu+  Cu106  1  0.66641861  0.83495850  0.49990691  1
  Cu+  Cu107  1  0.66497055  0.83988159  0.82959274  1
  Cu+  Cu108  1  0.93157703  0.59734153  0.26430136  1
  Cu+  Cu109  1  0.40167901  0.26262036  0.40583720  1
  Cu+  Cu110  1  0.93070538  0.73918851  0.07085635  1
  Cu+  Cu111  1  0.26273612  0.93317739  0.59108679  1
  Cu+  Cu112  1  0.59626011  0.40169238  0.73698575  1
  Cu+  Cu113  1  0.06908279  0.59772143  0.73450682  1
  Cu+  Cu114  1  0.59525059  0.74111661  0.74106447  1
  Cu+  Cu115  1  0.92579713  0.26253131  0.58655031  1
  Cu+  Cu116  1  0.40595005  0.92945535  0.07926221  1
  Cu+  Cu117  1  0.59700817  0.40782801  0.07098245  1
  Cu+  Cu118  1  0.73772762  0.93115128  0.73625285  1
  Cu+  Cu119  1  0.25547077  0.92884761  0.92789487  1
  Cu+  Cu120  1  0.59482347  0.91837131  0.93230403  1
  Cu+  Cu121  1  0.59322999  0.59478008  0.26298422  1
  Cu+  Cu122  1  0.93213949  0.40160621  0.39925706  1
  Cu+  Cu123  1  0.73455215  0.92206139  0.40562913  1
  Cu+  Cu124  1  0.07860101  0.26058163  0.74112673  1
  Cu+  Cu125  1  0.74190184  0.07931304  0.92919083  1
  Cu+  Cu126  1  0.39839556  0.26324159  0.06826602  1
  Cu+  Cu127  1  0.58954745  0.40154490  0.40864320  1
  Cu+  Cu128  1  0.92904989  0.26424177  0.92938643  1
  Cu+  Cu129  1  0.07090768  0.06921260  0.92864259  1
  Cu+  Cu130  1  0.74106869  0.40661867  0.25932266  1
  Cu+  Cu131  1  0.39908939  0.73553273  0.59621228  1
  Cu+  Cu132  1  0.73437490  0.07226310  0.25846280  1
  Te2-  Te133  1  0.24719071  0.25422176  0.07679720  1
  Te2-  Te134  1  0.25049630  0.25422807  0.41367824  1
  Te2-  Te135  1  0.25509477  0.25100544  0.75041039  1
  Te2-  Te136  1  0.25338386  0.58477644  0.08107387  1
  Te2-  Te137  1  0.25162084  0.58466374  0.41482403  1
  Te2-  Te138  1  0.25360619  0.58437396  0.74804596  1
  Te2-  Te139  1  0.25410182  0.92169825  0.07938199  1
  Te2-  Te140  1  0.25403510  0.91757160  0.41539656  1
  Te2-  Te141  1  0.25087301  0.92491634  0.74680321  1
  Te2-  Te142  1  0.59225636  0.25127245  0.07923827  1
  Te2-  Te143  1  0.58936504  0.25068869  0.41282394  1
  Te2-  Te144  1  0.59067758  0.24909908  0.74731117  1
  Te2-  Te145  1  0.58651519  0.58280744  0.08368090  1
  Te2-  Te146  1  0.58419437  0.59158903  0.41784015  1
  Te2-  Te147  1  0.58911876  0.58727142  0.74615947  1
  Te2-  Te148  1  0.59089467  0.91984636  0.08451895  1
  Te2-  Te149  1  0.58177422  0.92031524  0.41522824  1
  Te2-  Te150  1  0.58171168  0.92209223  0.74070731  1
  Te2-  Te151  1  0.91849163  0.25677435  0.08165858  1
  Te2-  Te152  1  0.92299028  0.24720459  0.40467135  1
  Te2-  Te153  1  0.92381685  0.25302322  0.74234410  1
  Te2-  Te154  1  0.92035500  0.58535359  0.07712507  1
  Te2-  Te155  1  0.91804365  0.58854622  0.41524367  1
  Te2-  Te156  1  0.91554609  0.58746496  0.74389207  1
  Te2-  Te157  1  0.91748011  0.92140415  0.08450234  1
  Te2-  Te158  1  0.92260807  0.91639116  0.41633207  1
  Te2-  Te159  1  0.91547436  0.91998067  0.75018726  1
  Te2-  Te160  1  0.25361721  0.08231697  0.25016560  1
  Te2-  Te161  1  0.25514406  0.08564653  0.58897228  1
  Te2-  Te162  1  0.25795834  0.08184272  0.92229483  1
  Te2-  Te163  1  0.25060166  0.41434461  0.25294033  1
  Te2-  Te164  1  0.25022730  0.41620937  0.58833565  1
  Te2-  Te165  1  0.25142216  0.41501910  0.91821356  1
  Te2-  Te166  1  0.25454512  0.74885779  0.24991739  1
  Te2-  Te167  1  0.24907900  0.74126213  0.58823287  1
  Te2-  Te168  1  0.24797766  0.74433455  0.91362061  1
  Te2-  Te169  1  0.58024456  0.08151496  0.25413317  1
  Te2-  Te170  1  0.58711103  0.08253849  0.58642481  1
  Te2-  Te171  1  0.58857520  0.08068650  0.92606193  1
  Te2-  Te172  1  0.58533474  0.40404660  0.25498598  1
  Te2-  Te173  1  0.58560099  0.41071638  0.58477379  1
  Te2-  Te174  1  0.59008419  0.41174129  0.91954057  1
  Te2-  Te175  1  0.58805295  0.74723000  0.25696804  1
  Te2-  Te176  1  0.58987371  0.74622988  0.58570382  1
  Te2-  Te177  1  0.58431713  0.75318988  0.91967862  1
  Te2-  Te178  1  0.92187504  0.08249413  0.24942996  1
  Te2-  Te179  1  0.91846207  0.07486454  0.57907431  1
  Te2-  Te180  1  0.91965184  0.07681861  0.91783153  1
  Te2-  Te181  1  0.92338718  0.41156762  0.24792076  1
  Te2-  Te182  1  0.91932723  0.41434436  0.58562371  1
  Te2-  Te183  1  0.92284856  0.41790499  0.91890654  1
  Te2-  Te184  1  0.92145571  0.75110771  0.25929515  1
  Te2-  Te185  1  0.91590738  0.74798180  0.58930216  1
  Te2-  Te186  1  0.91829080  0.74642157  0.91758023  1
  Te2-  Te187  1  0.08135393  0.25148066  0.25149153  1
  Te2-  Te188  1  0.08054133  0.25487203  0.58706360  1
  Te2-  Te189  1  0.08330737  0.25762222  0.92460428  1
  Te2-  Te190  1  0.08345864  0.59108054  0.25576160  1
  Te2-  Te191  1  0.07480097  0.58581551  0.58187855  1
  Te2-  Te192  1  0.08106096  0.58590253  0.91903328  1
  Te2-  Te193  1  0.08249677  0.91696865  0.25062104  1
  Te2-  Te194  1  0.07978143  0.91922231  0.58486967  1
  Te2-  Te195  1  0.07559089  0.91673556  0.91982666  1
  Te2-  Te196  1  0.41208316  0.25663280  0.25069600  1
  Te2-  Te197  1  0.41561894  0.25379441  0.58910126  1
  Te2-  Te198  1  0.41517171  0.25555574  0.91636642  1
  Te2-  Te199  1  0.41460686  0.58158459  0.25517891  1
  Te2-  Te200  1  0.41372481  0.58206031  0.59074589  1
  Te2-  Te201  1  0.41985003  0.58639171  0.91982057  1
  Te2-  Te202  1  0.41523196  0.91630367  0.25271264  1
  Te2-  Te203  1  0.41588736  0.92255630  0.59112663  1
  Te2-  Te204  1  0.41043149  0.92324418  0.92090162  1
  Te2-  Te205  1  0.74575086  0.25286618  0.25336133  1
  Te2-  Te206  1  0.75200230  0.25294500  0.58067655  1
  Te2-  Te207  1  0.75064395  0.25276807  0.91554339  1
  Te2-  Te208  1  0.74781205  0.58843793  0.25466731  1
  Te2-  Te209  1  0.74572572  0.58082998  0.58213986  1
  Te2-  Te210  1  0.74488794  0.58290170  0.91607077  1
  Te2-  Te211  1  0.74325107  0.91893021  0.25366658  1
  Te2-  Te212  1  0.74482577  0.92205524  0.58582496  1
  Te2-  Te213  1  0.74651304  0.91978878  0.92786247  1
  Te2-  Te214  1  0.07702254  0.07742495  0.08211386  1
  Te2-  Te215  1  0.08391664  0.08151817  0.41640703  1
  Te2-  Te216  1  0.08035794  0.07987808  0.75147392  1
  Te2-  Te217  1  0.07836372  0.41805511  0.08277695  1
  Te2-  Te218  1  0.08286407  0.41060710  0.41091235  1
  Te2-  Te219  1  0.07919034  0.41315363  0.74533130  1
  Te2-  Te220  1  0.08372621  0.74667539  0.07713793  1
  Te2-  Te221  1  0.08136901  0.74844402  0.41444596  1
  Te2-  Te222  1  0.07799717  0.75167189  0.74184639  1
  Te2-  Te223  1  0.41321065  0.08211001  0.07990833  1
  Te2-  Te224  1  0.41396313  0.08050502  0.41607514  1
  Te2-  Te225  1  0.41963958  0.08002662  0.75133737  1
  Te2-  Te226  1  0.40908312  0.41626860  0.07912700  1
  Te2-  Te227  1  0.41055261  0.41713216  0.41318782  1
  Te2-  Te228  1  0.41503011  0.41535037  0.75032912  1
  Te2-  Te229  1  0.41930261  0.74180166  0.08152877  1
  Te2-  Te230  1  0.41185289  0.74984846  0.41736765  1
  Te2-  Te231  1  0.40614180  0.74756861  0.75178970  1
  Te2-  Te232  1  0.74793250  0.08099556  0.07995945  1
  Te2-  Te233  1  0.74239873  0.07921556  0.41129053  1
  Te2-  Te234  1  0.74910476  0.08471928  0.73925026  1
  Te2-  Te235  1  0.74853758  0.41664309  0.07818814  1
  Te2-  Te236  1  0.74518837  0.40903934  0.41074574  1
  Te2-  Te237  1  0.75069573  0.40854939  0.74489361  1
  Te2-  Te238  1  0.74929038  0.74396248  0.08462937  1
  Te2-  Te239  1  0.74669802  0.74639108  0.41633137  1
  Te2-  Te240  1  0.74690669  0.74550857  0.74911905  1
