# generated using pymatgen
data_Ti27(Cu53Te54)2
_symmetry_space_group_name_H-M   'P 1'
_cell_length_a   17.87949089
_cell_length_b   17.88572733
_cell_length_c   17.87949610
_cell_angle_alpha   89.99885762
_cell_angle_beta   89.98381616
_cell_angle_gamma   90.00723359
_symmetry_Int_Tables_number   1
_chemical_formula_structural   Ti27(Cu53Te54)2
_chemical_formula_sum   'Ti27 Cu106 Te108'
_cell_volume   5717.64264297
_cell_formula_units_Z   1
loop_
 _symmetry_equiv_pos_site_id
 _symmetry_equiv_pos_as_xyz
  1  'x, y, z'
loop_
 _atom_type_symbol
 _atom_type_oxidation_number
  Ti4+  4.0
  Cu+  1.0
  Te2-  -2.0
loop_
 _atom_site_type_symbol
 _atom_site_label
 _atom_site_symmetry_multiplicity
 _atom_site_fract_x
 _atom_site_fract_y
 _atom_site_fract_z
 _atom_site_occupancy
  Ti4+  Ti0  1  0.16855588  0.16806428  0.16525151  1
  Ti4+  Ti1  1  0.16817649  0.16772600  0.50108860  1
  Ti4+  Ti2  1  0.16503081  0.16795970  0.82980869  1
  Ti4+  Ti3  1  0.16680736  0.49925002  0.16554534  1
  Ti4+  Ti4  1  0.16602684  0.49961494  0.50283365  1
  Ti4+  Ti5  1  0.16558845  0.50237650  0.83349739  1
  Ti4+  Ti6  1  0.16526914  0.83305115  0.16964435  1
  Ti4+  Ti7  1  0.16962542  0.83225114  0.49976593  1
  Ti4+  Ti8  1  0.16638607  0.83684489  0.83497175  1
  Ti4+  Ti9  1  0.50103671  0.16811765  0.16742266  1
  Ti4+  Ti10  1  0.49756573  0.16872371  0.49779937  1
  Ti4+  Ti11  1  0.49864749  0.16249330  0.83052078  1
  Ti4+  Ti12  1  0.50349938  0.50204752  0.17000546  1
  Ti4+  Ti13  1  0.49813215  0.50082378  0.49784054  1
  Ti4+  Ti14  1  0.50244806  0.49608702  0.83600856  1
  Ti4+  Ti15  1  0.49745668  0.83514798  0.16649167  1
  Ti4+  Ti16  1  0.49837044  0.83621149  0.49807334  1
  Ti4+  Ti17  1  0.49977298  0.83001977  0.83192091  1
  Ti4+  Ti18  1  0.83461388  0.16797083  0.16799295  1
  Ti4+  Ti19  1  0.83332649  0.16266397  0.50082876  1
  Ti4+  Ti20  1  0.83472401  0.16577735  0.83140495  1
  Ti4+  Ti21  1  0.83177954  0.50080881  0.16664863  1
  Ti4+  Ti22  1  0.83277653  0.49848310  0.50008199  1
  Ti4+  Ti23  1  0.83120028  0.50300566  0.83219900  1
  Ti4+  Ti24  1  0.83305085  0.83514801  0.16608035  1
  Ti4+  Ti25  1  0.83323474  0.83135104  0.49899674  1
  Ti4+  Ti26  1  0.83832181  0.83267781  0.83447630  1
  Cu+  Cu27  1  0.16573217  0.16905922  -0.00240053  1
  Cu+  Cu28  1  0.16499272  0.16133343  0.32726069  1
  Cu+  Cu29  1  0.16581074  0.17582017  0.66737226  1
  Cu+  Cu30  1  0.16858376  0.49982446  0.00133450  1
  Cu+  Cu31  1  0.16586349  0.49870431  0.33322063  1
  Cu+  Cu32  1  0.16421032  0.50347585  0.66751174  1
  Cu+  Cu33  1  0.16277505  0.83548612  0.00359856  1
  Cu+  Cu34  1  0.16526573  0.83450653  0.33620823  1
  Cu+  Cu35  1  0.17217863  0.83312351  0.66712601  1
  Cu+  Cu36  1  0.50056397  0.16578468  -0.00417407  1
  Cu+  Cu37  1  0.50252394  0.17173991  0.33284010  1
  Cu+  Cu38  1  0.49481888  0.16337431  0.66440206  1
  Cu+  Cu39  1  0.50894971  0.50000705  0.00444729  1
  Cu+  Cu40  1  0.50364145  0.49874554  0.33691596  1
  Cu+  Cu41  1  0.49748261  0.49747159  0.66559550  1
  Cu+  Cu42  1  0.49778036  0.83159435  0.00002149  1
  Cu+  Cu43  1  0.49185118  0.83469140  0.33007225  1
  Cu+  Cu44  1  0.50266001  0.83172652  0.66765557  1
  Cu+  Cu45  1  0.83417801  0.16802315  0.00426512  1
  Cu+  Cu46  1  0.83482399  0.16649099  0.33544573  1
  Cu+  Cu47  1  0.83641698  0.16005552  0.66644285  1
  Cu+  Cu48  1  0.83032937  0.50255572  -0.00192777  1
  Cu+  Cu49  1  0.82928040  0.50247276  0.33391106  1
  Cu+  Cu50  1  0.83182406  0.49878002  0.66558382  1
  Cu+  Cu51  1  0.83757001  0.83773032  0.00091588  1
  Cu+  Cu52  1  0.83102039  0.83461093  0.33153357  1
  Cu+  Cu53  1  0.83676302  0.82907236  0.66543672  1
  Cu+  Cu54  1  0.16602263  0.00213968  0.16880287  1
  Cu+  Cu55  1  0.16914135  -0.00421167  0.50052597  1
  Cu+  Cu56  1  0.16427587  0.00324303  0.83105666  1
  Cu+  Cu57  1  0.16622338  0.33268091  0.16417320  1
  Cu+  Cu58  1  0.17385902  0.33517599  0.50293979  1
  Cu+  Cu59  1  0.16284533  0.33508802  0.82926230  1
  Cu+  Cu60  1  0.16783581  0.66276800  0.16696121  1
  Cu+  Cu61  1  0.16726429  0.66471650  0.50315489  1
  Cu+  Cu62  1  0.16565270  0.67346984  0.83425711  1
  Cu+  Cu63  1  0.50057874  0.00169739  0.16497262  1
  Cu+  Cu64  1  0.49326732  0.00194553  0.49350769  1
  Cu+  Cu65  1  0.49840867  -0.00443832  0.83046495  1
  Cu+  Cu66  1  0.50668546  0.33360148  0.17190634  1
  Cu+  Cu67  1  0.49687226  0.33565585  0.49206227  1
  Cu+  Cu68  1  0.50398194  0.32425726  0.83410084  1
  Cu+  Cu69  1  0.49552674  0.67143885  0.17175820  1
  Cu+  Cu70  1  0.49790818  0.66883967  0.50247982  1
  Cu+  Cu71  1  0.49967764  0.66032320  0.83425657  1
  Cu+  Cu72  1  0.83333383  0.00305224  0.16729882  1
  Cu+  Cu73  1  0.83001840  -0.00559662  0.49953722  1
  Cu+  Cu74  1  0.84115167  -0.00070830  0.83266464  1
  Cu+  Cu75  1  0.83525125  0.33356690  0.16743598  1
  Cu+  Cu76  1  0.83152690  0.32819526  0.50393966  1
  Cu+  Cu77  1  0.82963933  0.33713842  0.83090395  1
  Cu+  Cu78  1  0.83052415  0.67097050  0.16490205  1
  Cu+  Cu79  1  0.83238006  0.66348802  0.49638951  1
  Cu+  Cu80  1  0.83922744  0.66500836  0.83593682  1
  Cu+  Cu81  1  0.00145273  0.16712666  0.16780634  1
  Cu+  Cu82  1  -0.00039775  0.16315169  0.50135542  1
  Cu+  Cu83  1  -0.00025459  0.16669175  0.82427658  1
  Cu+  Cu84  1  0.00064796  0.49919610  0.16531491  1
  Cu+  Cu85  1  0.00010318  0.49697144  0.50248288  1
  Cu+  Cu86  1  -0.00423893  0.50543709  0.83444430  1
  Cu+  Cu87  1  -0.00254470  0.83288851  0.16766631  1
  Cu+  Cu88  1  0.00123451  0.83033902  0.49868851  1
  Cu+  Cu89  1  0.00311035  0.83632905  0.84161700  1
  Cu+  Cu90  1  0.33265071  0.16888130  0.16242671  1
  Cu+  Cu91  1  0.33466511  0.17330825  0.50426486  1
  Cu+  Cu92  1  0.33285663  0.16357544  0.83047025  1
  Cu+  Cu93  1  0.33558208  0.50118468  0.16881022  1
  Cu+  Cu94  1  0.32798142  0.49666963  0.49968752  1
  Cu+  Cu95  1  0.33694903  0.49925778  0.83195926  1
  Cu+  Cu96  1  0.33122588  0.83130043  0.17102091  1
  Cu+  Cu97  1  0.33276504  0.84029682  0.50088672  1
  Cu+  Cu98  1  0.33184787  0.82905044  0.82963242  1
  Cu+  Cu99  1  0.66975889  0.16945030  0.17160797  1
  Cu+  Cu100  1  0.66600668  0.16142823  0.49946295  1
  Cu+  Cu101  1  0.66529983  0.16349537  0.83122946  1
  Cu+  Cu102  1  0.66545993  0.50055109  0.16287081  1
  Cu+  Cu103  1  0.66753430  0.50323652  0.49651712  1
  Cu+  Cu104  1  0.66739524  0.49978300  0.84085934  1
  Cu+  Cu105  1  0.66417644  0.83509065  0.16456840  1
  Cu+  Cu106  1  0.66841816  0.83670409  0.49619586  1
  Cu+  Cu107  1  0.67030035  0.82991439  0.83332264  1
  Cu+  Cu108  1  0.07796901  0.74144744  0.93214524  1
  Cu+  Cu109  1  0.40409114  0.26013185  0.40133125  1
  Cu+  Cu110  1  0.40683669  0.07346994  0.59183381  1
  Cu+  Cu111  1  0.59098688  0.59697711  0.92978455  1
  Cu+  Cu112  1  0.59150146  0.40368251  0.07684415  1
  Cu+  Cu113  1  0.40087164  0.73749344  0.26261020  1
  Cu+  Cu114  1  0.07084081  0.92243358  0.41165625  1
  Cu+  Cu115  1  0.92704872  0.58849922  0.93096827  1
  Cu+  Cu116  1  0.40398369  0.92925911  0.40017145  1
  Cu+  Cu117  1  0.92764986  0.93373321  0.93280842  1
  Cu+  Cu118  1  0.92914349  0.06737061  0.73536488  1
  Cu+  Cu119  1  0.73868712  0.59512711  0.40336179  1
  Cu+  Cu120  1  0.59577803  0.24650789  0.92467955  1
  Cu+  Cu121  1  0.41075150  0.58794370  0.73857255  1
  Cu+  Cu122  1  0.25744697  0.74023781  0.73971816  1
  Cu+  Cu123  1  0.25816374  0.92730027  0.59729151  1
  Cu+  Cu124  1  0.06758498  0.26741948  0.73959758  1
  Cu+  Cu125  1  0.07042722  0.07344041  0.25334126  1
  Cu+  Cu126  1  0.74110667  0.92523911  0.40282028  1
  Cu+  Cu127  1  0.60035516  0.26046858  0.26219718  1
  Cu+  Cu128  1  0.59030885  0.07361907  0.40656204  1
  Cu+  Cu129  1  0.25176498  0.40743911  0.40086288  1
  Cu+  Cu130  1  0.59891970  0.40954552  0.41423376  1
  Cu+  Cu131  1  0.26392757  0.26586170  0.59810829  1
  Cu+  Cu132  1  0.74812496  0.40476364  0.92782881  1
  Te2-  Te133  1  0.25193441  0.25402026  0.07753260  1
  Te2-  Te134  1  0.25133754  0.25103614  0.40780826  1
  Te2-  Te135  1  0.25661275  0.25610742  0.74923905  1
  Te2-  Te136  1  0.25491555  0.58458728  0.08153713  1
  Te2-  Te137  1  0.25066089  0.58575496  0.41525005  1
  Te2-  Te138  1  0.25310290  0.58802129  0.74750575  1
  Te2-  Te139  1  0.25024091  0.91806340  0.08511958  1
  Te2-  Te140  1  0.25420443  0.92211677  0.40917768  1
  Te2-  Te141  1  0.25474703  0.92397393  0.74946306  1
  Te2-  Te142  1  0.59030265  0.25102094  0.07897273  1
  Te2-  Te143  1  0.59292452  0.25564099  0.41467531  1
  Te2-  Te144  1  0.58532690  0.24657871  0.74211109  1
  Te2-  Te145  1  0.58613975  0.59467911  0.08602478  1
  Te2-  Te146  1  0.58324773  0.59183763  0.41406138  1
  Te2-  Te147  1  0.58680766  0.58012825  0.74740845  1
  Te2-  Te148  1  0.58277700  0.91922303  0.07917395  1
  Te2-  Te149  1  0.58478488  0.92027503  0.40824733  1
  Te2-  Te150  1  0.58776121  0.91514305  0.74941934  1
  Te2-  Te151  1  0.92098496  0.25308892  0.08306358  1
  Te2-  Te152  1  0.91888509  0.24987740  0.41797702  1
  Te2-  Te153  1  0.91481528  0.25721587  0.74386701  1
  Te2-  Te154  1  0.91815448  0.58719106  0.08274719  1
  Te2-  Te155  1  0.92112133  0.58201185  0.41442848  1
  Te2-  Te156  1  0.91738687  0.58612619  0.74328671  1
  Te2-  Te157  1  0.92210002  0.92390263  0.08396461  1
  Te2-  Te158  1  0.91947860  0.91860250  0.41254110  1
  Te2-  Te159  1  0.92478054  0.91455739  0.74449168  1
  Te2-  Te160  1  0.25717723  0.08148265  0.24965688  1
  Te2-  Te161  1  0.25269436  0.08110788  0.58917970  1
  Te2-  Te162  1  0.24968859  0.08273945  0.91667527  1
  Te2-  Te163  1  0.25360953  0.41192106  0.24959690  1
  Te2-  Te164  1  0.25426251  0.41681513  0.59461098  1
  Te2-  Te165  1  0.25056830  0.41523507  0.91533855  1
  Te2-  Te166  1  0.24860259  0.74510034  0.25626197  1
  Te2-  Te167  1  0.25714044  0.74465447  0.58451034  1
  Te2-  Te168  1  0.25133916  0.75138313  0.92342528  1
  Te2-  Te169  1  0.58662024  0.07974472  0.25251101  1
  Te2-  Te170  1  0.58142422  0.07853809  0.58312585  1
  Te2-  Te171  1  0.58439224  0.07629016  0.91655482  1
  Te2-  Te172  1  0.59346336  0.41509442  0.25823365  1
  Te2-  Te173  1  0.58391985  0.41500548  0.58167987  1
  Te2-  Te174  1  0.59064246  0.40463668  0.92320246  1
  Te2-  Te175  1  0.58512474  0.75189649  0.25369813  1
  Te2-  Te176  1  0.58599208  0.75154876  0.58132758  1
  Te2-  Te177  1  0.58627533  0.74727988  0.91986743  1
  Te2-  Te178  1  0.91892908  0.08039201  0.25502457  1
  Te2-  Te179  1  0.92062875  0.07335388  0.58304824  1
  Te2-  Te180  1  0.92290852  0.08604375  0.92130200  1
  Te2-  Te181  1  0.91697970  0.41791725  0.25258280  1
  Te2-  Te182  1  0.91673549  0.41222036  0.58615049  1
  Te2-  Te183  1  0.91740528  0.41508144  0.91836756  1
  Te2-  Te184  1  0.91639075  0.74827943  0.25257002  1
  Te2-  Te185  1  0.91932847  0.74435656  0.58153610  1
  Te2-  Te186  1  0.92308204  0.74480552  0.92562656  1
  Te2-  Te187  1  0.08216777  0.25408437  0.25226843  1
  Te2-  Te188  1  0.07835058  0.25535398  0.58209950  1
  Te2-  Te189  1  0.07851420  0.25215870  0.91544428  1
  Te2-  Te190  1  0.08094168  0.58339656  0.25234698  1
  Te2-  Te191  1  0.07880860  0.58626237  0.58609961  1
  Te2-  Te192  1  0.08151399  0.58795673  0.92271243  1
  Te2-  Te193  1  0.07685803  0.91997218  0.25507636  1
  Te2-  Te194  1  0.08188735  0.91596501  0.58692527  1
  Te2-  Te195  1  0.08271111  0.92704786  0.92322732  1
  Te2-  Te196  1  0.41159044  0.25532943  0.24960940  1
  Te2-  Te197  1  0.41747344  0.26039506  0.58842847  1
  Te2-  Te198  1  0.41191082  0.24874911  0.91667486  1
  Te2-  Te199  1  0.41473151  0.58411048  0.25740378  1
  Te2-  Te200  1  0.41088076  0.58503780  0.58381220  1
  Te2-  Te201  1  0.41660174  0.57977523  0.92429502  1
  Te2-  Te202  1  0.40995133  0.92623539  0.24911817  1
  Te2-  Te203  1  0.41461700  0.92075358  0.59168628  1
  Te2-  Te204  1  0.41302655  0.91448395  0.91583162  1
  Te2-  Te205  1  0.75170239  0.25577486  0.25692558  1
  Te2-  Te206  1  0.74687429  0.24485533  0.58737810  1
  Te2-  Te207  1  0.74816944  0.25073545  0.92029669  1
  Te2-  Te208  1  0.74460480  0.58848860  0.24956797  1
  Te2-  Te209  1  0.74707363  0.58529038  0.58572041  1
  Te2-  Te210  1  0.74537953  0.59274834  0.92150987  1
  Te2-  Te211  1  0.74480538  0.92182588  0.24972389  1
  Te2-  Te212  1  0.74828974  0.91503239  0.58890902  1
  Te2-  Te213  1  0.75103330  0.91923761  0.91642630  1
  Te2-  Te214  1  0.08196179  0.08252014  0.07963200  1
  Te2-  Te215  1  0.08169018  0.07918045  0.41563464  1
  Te2-  Te216  1  0.08227221  0.07907373  0.73978346  1
  Te2-  Te217  1  0.08095986  0.41428433  0.07952412  1
  Te2-  Te218  1  0.08213606  0.41188144  0.41711935  1
  Te2-  Te219  1  0.07604717  0.42020039  0.74731062  1
  Te2-  Te220  1  0.07952292  0.74562994  0.08544037  1
  Te2-  Te221  1  0.08382134  0.74441243  0.41559607  1
  Te2-  Te222  1  0.07992964  0.75294767  0.74665033  1
  Te2-  Te223  1  0.41695286  0.08433050  0.08044617  1
  Te2-  Te224  1  0.40762484  0.08602332  0.40838776  1
  Te2-  Te225  1  0.41065537  0.07563910  0.74617061  1
  Te2-  Te226  1  0.41978744  0.41524249  0.08521007  1
  Te2-  Te227  1  0.40764027  0.41495735  0.40858439  1
  Te2-  Te228  1  0.41828331  0.40904844  0.75074532  1
  Te2-  Te229  1  0.41125306  0.74834884  0.08146508  1
  Te2-  Te230  1  0.40996814  0.74711276  0.41690669  1
  Te2-  Te231  1  0.41450132  0.74230227  0.74365394  1
  Te2-  Te232  1  0.74714189  0.08324756  0.08313989  1
  Te2-  Te233  1  0.74662048  0.07782688  0.41025128  1
  Te2-  Te234  1  0.74914335  0.07771008  0.74984205  1
  Te2-  Te235  1  0.74709536  0.41092330  0.08036501  1
  Te2-  Te236  1  0.74957937  0.40899651  0.41391455  1
  Te2-  Te237  1  0.74360234  0.41755437  0.74647536  1
  Te2-  Te238  1  0.74755010  0.75258086  0.07855278  1
  Te2-  Te239  1  0.74585612  0.74678088  0.41105058  1
  Te2-  Te240  1  0.75371993  0.74586269  0.75029606  1
