# generated using pymatgen
data_Ti27(Cu53Te54)2
_symmetry_space_group_name_H-M   'P 1'
_cell_length_a   17.87491893
_cell_length_b   17.87253556
_cell_length_c   17.87535412
_cell_angle_alpha   90.03181856
_cell_angle_beta   90.02865998
_cell_angle_gamma   89.99074935
_symmetry_Int_Tables_number   1
_chemical_formula_structural   Ti27(Cu53Te54)2
_chemical_formula_sum   'Ti27 Cu106 Te108'
_cell_volume   5710.63993184
_cell_formula_units_Z   1
loop_
 _symmetry_equiv_pos_site_id
 _symmetry_equiv_pos_as_xyz
  1  'x, y, z'
loop_
 _atom_type_symbol
 _atom_type_oxidation_number
  Ti4+  4.0
  Cu+  1.0
  Te2-  -2.0
loop_
 _atom_site_type_symbol
 _atom_site_label
 _atom_site_symmetry_multiplicity
 _atom_site_fract_x
 _atom_site_fract_y
 _atom_site_fract_z
 _atom_site_occupancy
  Ti4+  Ti0  1  0.16961246  0.16705806  0.16445921  1
  Ti4+  Ti1  1  0.16796924  0.16680233  0.49667950  1
  Ti4+  Ti2  1  0.16349144  0.16557138  0.83190014  1
  Ti4+  Ti3  1  0.16719350  0.50148975  0.16775910  1
  Ti4+  Ti4  1  0.16629313  0.49977441  0.49924581  1
  Ti4+  Ti5  1  0.16639473  0.49900030  0.83357637  1
  Ti4+  Ti6  1  0.16835459  0.83267690  0.16986453  1
  Ti4+  Ti7  1  0.16684801  0.83291320  0.50021876  1
  Ti4+  Ti8  1  0.16919354  0.83376710  0.83693153  1
  Ti4+  Ti9  1  0.50262223  0.16574740  0.16707026  1
  Ti4+  Ti10  1  0.50079845  0.16802461  0.50472046  1
  Ti4+  Ti11  1  0.50032731  0.16617950  0.83231639  1
  Ti4+  Ti12  1  0.50104408  0.49960602  0.16665018  1
  Ti4+  Ti13  1  0.50149452  0.50177472  0.50308380  1
  Ti4+  Ti14  1  0.49606276  0.49865279  0.83364570  1
  Ti4+  Ti15  1  0.49654744  0.83353753  0.16434674  1
  Ti4+  Ti16  1  0.49999977  0.83402450  0.49552517  1
  Ti4+  Ti17  1  0.49936344  0.83142907  0.82892500  1
  Ti4+  Ti18  1  0.83634046  0.16888986  0.16693796  1
  Ti4+  Ti19  1  0.83518529  0.16591442  0.49993504  1
  Ti4+  Ti20  1  0.83086716  0.16912703  0.83570912  1
  Ti4+  Ti21  1  0.83410331  0.49946100  0.16607698  1
  Ti4+  Ti22  1  0.83165309  0.49786823  0.49879426  1
  Ti4+  Ti23  1  0.83304506  0.50130925  0.83530105  1
  Ti4+  Ti24  1  0.83222065  0.83351675  0.16738602  1
  Ti4+  Ti25  1  0.83285383  0.83528372  0.49999184  1
  Ti4+  Ti26  1  0.83487639  0.83354619  0.83374036  1
  Cu+  Cu27  1  0.16643654  0.16592047  -0.00120945  1
  Cu+  Cu28  1  0.16999756  0.16921170  0.32964490  1
  Cu+  Cu29  1  0.16344743  0.16504734  0.66078790  1
  Cu+  Cu30  1  0.17124521  0.49949923  0.00046918  1
  Cu+  Cu31  1  0.16796581  0.50244680  0.33301132  1
  Cu+  Cu32  1  0.16366652  0.49981607  0.66571447  1
  Cu+  Cu33  1  0.17014545  0.83454794  0.00512862  1
  Cu+  Cu34  1  0.16420299  0.82994622  0.33311139  1
  Cu+  Cu35  1  0.17101012  0.83359544  0.67147299  1
  Cu+  Cu36  1  0.50246053  0.16434323  -0.00150499  1
  Cu+  Cu37  1  0.50206982  0.16549794  0.33431303  1
  Cu+  Cu38  1  0.50209629  0.17550176  0.66973448  1
  Cu+  Cu39  1  0.49804136  0.50291558  0.00212088  1
  Cu+  Cu40  1  0.50522623  0.50048434  0.33743293  1
  Cu+  Cu41  1  0.49455593  0.49812553  0.66714451  1
  Cu+  Cu42  1  0.49776780  0.83040588  -0.00624048  1
  Cu+  Cu43  1  0.49382960  0.83713509  0.32948448  1
  Cu+  Cu44  1  0.49940861  0.83242081  0.66183864  1
  Cu+  Cu45  1  0.83469281  0.17765139  0.00035523  1
  Cu+  Cu46  1  0.83713327  0.16120212  0.33349318  1
  Cu+  Cu47  1  0.83136983  0.16363966  0.66900657  1
  Cu+  Cu48  1  0.83162987  0.50335189  0.00107684  1
  Cu+  Cu49  1  0.83489510  0.49304395  0.33299943  1
  Cu+  Cu50  1  0.83129203  0.50025505  0.66772506  1
  Cu+  Cu51  1  0.83404384  0.83387688  -0.00000871  1
  Cu+  Cu52  1  0.83150624  0.83583187  0.33567057  1
  Cu+  Cu53  1  0.83481320  0.83409783  0.66641895  1
  Cu+  Cu54  1  0.16923812  -0.00020900  0.16697447  1
  Cu+  Cu55  1  0.16672021  0.00144866  0.50077447  1
  Cu+  Cu56  1  0.16256321  -0.00348724  0.83216380  1
  Cu+  Cu57  1  0.17101596  0.33450342  0.16261591  1
  Cu+  Cu58  1  0.16726879  0.33091931  0.49667162  1
  Cu+  Cu59  1  0.16394529  0.33408479  0.83292354  1
  Cu+  Cu60  1  0.16338127  0.67001437  0.17243697  1
  Cu+  Cu61  1  0.16677132  0.66321122  0.49924850  1
  Cu+  Cu62  1  0.17080092  0.66537042  0.83478084  1
  Cu+  Cu63  1  0.50476953  -0.00067670  0.16504779  1
  Cu+  Cu64  1  0.50266730  -0.00342207  0.49762946  1
  Cu+  Cu65  1  0.49950962  0.00088773  0.82826137  1
  Cu+  Cu66  1  0.50239319  0.33115350  0.16889992  1
  Cu+  Cu67  1  0.50376586  0.33512437  0.51009411  1
  Cu+  Cu68  1  0.49541930  0.33113193  0.83151531  1
  Cu+  Cu69  1  0.49428166  0.66292478  0.16397701  1
  Cu+  Cu70  1  0.49732552  0.66949599  0.50165510  1
  Cu+  Cu71  1  0.49793651  0.66628372  0.83529055  1
  Cu+  Cu72  1  0.83352061  0.00168719  0.16911797  1
  Cu+  Cu73  1  0.83326387  0.00375697  0.49827422  1
  Cu+  Cu74  1  0.83458950  0.00103528  0.83346930  1
  Cu+  Cu75  1  0.82905217  0.33305988  0.16575521  1
  Cu+  Cu76  1  0.83872325  0.33483375  0.49543191  1
  Cu+  Cu77  1  0.83397977  0.33538302  0.83915988  1
  Cu+  Cu78  1  0.83233603  0.66565752  0.16470481  1
  Cu+  Cu79  1  0.83001814  0.66642079  0.50040277  1
  Cu+  Cu80  1  0.83489275  0.66818073  0.83458848  1
  Cu+  Cu81  1  0.00544868  0.16845769  0.16508728  1
  Cu+  Cu82  1  0.00353000  0.16152613  0.49606432  1
  Cu+  Cu83  1  -0.00637591  0.16818224  0.83434903  1
  Cu+  Cu84  1  0.00080119  0.50143888  0.16728283  1
  Cu+  Cu85  1  -0.00106774  0.49827089  0.49765519  1
  Cu+  Cu86  1  0.00139014  0.50179164  0.83392706  1
  Cu+  Cu87  1  -0.00040695  0.83261901  0.17057149  1
  Cu+  Cu88  1  -0.00243707  0.83429147  0.50094315  1
  Cu+  Cu89  1  0.00288882  0.83585088  0.83743330  1
  Cu+  Cu90  1  0.33716439  0.16717363  0.16620253  1
  Cu+  Cu91  1  0.33163619  0.16651037  0.49806541  1
  Cu+  Cu92  1  0.33114211  0.16563465  0.83070630  1
  Cu+  Cu93  1  0.33127165  0.49874906  0.16241521  1
  Cu+  Cu94  1  0.33306987  0.49940370  0.50293393  1
  Cu+  Cu95  1  0.33003276  0.49993902  0.83418321  1
  Cu+  Cu96  1  0.33409281  0.82842105  0.17078640  1
  Cu+  Cu97  1  0.33428838  0.83364731  0.49578769  1
  Cu+  Cu98  1  0.33218002  0.82686802  0.83166912  1
  Cu+  Cu99  1  0.67094813  0.16673963  0.16645774  1
  Cu+  Cu100  1  0.66746577  0.16999106  0.50886269  1
  Cu+  Cu101  1  0.66496163  0.16557206  0.83578726  1
  Cu+  Cu102  1  0.67154575  0.50050829  0.16814957  1
  Cu+  Cu103  1  0.66379076  0.49925398  0.49553926  1
  Cu+  Cu104  1  0.66240801  0.49893598  0.83604959  1
  Cu+  Cu105  1  0.66119837  0.83462742  0.16588839  1
  Cu+  Cu106  1  0.66687886  0.83778138  0.49851574  1
  Cu+  Cu107  1  0.66972272  0.83433048  0.82987697  1
  Cu+  Cu108  1  0.07489933  0.91726185  0.74089466  1
  Cu+  Cu109  1  0.40109120  0.40672805  0.59059144  1
  Cu+  Cu110  1  0.40946894  0.73245003  0.26008038  1
  Cu+  Cu111  1  0.93263537  0.07018594  0.40286642  1
  Cu+  Cu112  1  0.92191606  0.07530481  0.74468080  1
  Cu+  Cu113  1  0.40233386  0.93026475  0.40410872  1
  Cu+  Cu114  1  0.93308092  0.40801199  0.40349020  1
  Cu+  Cu115  1  0.59040929  0.92384225  0.25695850  1
  Cu+  Cu116  1  0.07649311  0.07279892  0.58914118  1
  Cu+  Cu117  1  0.25618475  0.73505526  0.74040470  1
  Cu+  Cu118  1  0.40551199  0.74039616  0.92436340  1
  Cu+  Cu119  1  0.26075829  0.40299912  0.07027939  1
  Cu+  Cu120  1  0.74318786  0.07386485  0.25876592  1
  Cu+  Cu121  1  0.58534446  0.40215235  0.40898534  1
  Cu+  Cu122  1  0.60110185  0.26692378  0.60019318  1
  Cu+  Cu123  1  0.59259280  0.92048838  0.59418261  1
  Cu+  Cu124  1  0.73591508  0.25946937  0.07287517  1
  Cu+  Cu125  1  0.74103259  0.40678344  0.25992829  1
  Cu+  Cu126  1  0.39889230  0.25739161  0.74420687  1
  Cu+  Cu127  1  0.06671801  0.74099460  0.26335150  1
  Cu+  Cu128  1  0.73823213  0.07544028  0.59628769  1
  Cu+  Cu129  1  0.92947617  0.26610036  0.92787519  1
  Cu+  Cu130  1  0.40612992  0.74471485  0.58941852  1
  Cu+  Cu131  1  0.74355939  0.59829474  0.07021931  1
  Cu+  Cu132  1  0.40099856  0.58966915  0.07327006  1
  Te2-  Te133  1  0.25702269  0.25049275  0.07656306  1
  Te2-  Te134  1  0.25471304  0.25281041  0.41183397  1
  Te2-  Te135  1  0.24598413  0.25195910  0.74446877  1
  Te2-  Te136  1  0.24965831  0.59259591  0.08198537  1
  Te2-  Te137  1  0.25478178  0.58430565  0.41529600  1
  Te2-  Te138  1  0.25291293  0.58329682  0.74432929  1
  Te2-  Te139  1  0.25639129  0.91747770  0.08538036  1
  Te2-  Te140  1  0.24908101  0.91946856  0.41252501  1
  Te2-  Te141  1  0.25629143  0.92091253  0.75048818  1
  Te2-  Te142  1  0.58554502  0.25252111  0.07992480  1
  Te2-  Te143  1  0.58648044  0.25099445  0.41689742  1
  Te2-  Te144  1  0.59196569  0.25679743  0.75120788  1
  Te2-  Te145  1  0.58862488  0.58605395  0.08245155  1
  Te2-  Te146  1  0.58450552  0.59140027  0.41694701  1
  Te2-  Te147  1  0.58122663  0.58361331  0.74898892  1
  Te2-  Te148  1  0.58212505  0.91587496  0.07463736  1
  Te2-  Te149  1  0.58851161  0.92013886  0.40866269  1
  Te2-  Te150  1  0.58613008  0.91857933  0.74555089  1
  Te2-  Te151  1  0.92478098  0.25769207  0.08392428  1
  Te2-  Te152  1  0.92284116  0.25026131  0.41167820  1
  Te2-  Te153  1  0.91480211  0.25498714  0.74696255  1
  Te2-  Te154  1  0.92080480  0.58604077  0.08124884  1
  Te2-  Te155  1  0.91538905  0.58479800  0.41358942  1
  Te2-  Te156  1  0.91791423  0.58522560  0.74859173  1
  Te2-  Te157  1  0.91831346  0.91832241  0.08487578  1
  Te2-  Te158  1  0.92037031  0.92005140  0.41328662  1
  Te2-  Te159  1  0.92201626  0.92068493  0.74510780  1
  Te2-  Te160  1  0.25495202  0.08213366  0.25060339  1
  Te2-  Te161  1  0.25416721  0.08104002  0.58465707  1
  Te2-  Te162  1  0.24947143  0.08060736  0.91478802  1
  Te2-  Te163  1  0.25337817  0.41567014  0.25288422  1
  Te2-  Te164  1  0.24893103  0.41168016  0.58671598  1
  Te2-  Te165  1  0.25391285  0.41027315  0.91802636  1
  Te2-  Te166  1  0.25480834  0.74371212  0.25782577  1
  Te2-  Te167  1  0.25270339  0.74516219  0.58515701  1
  Te2-  Te168  1  0.25249375  0.74509524  0.92535123  1
  Te2-  Te169  1  0.59003515  0.08006545  0.25522166  1
  Te2-  Te170  1  0.58451317  0.07798645  0.59077614  1
  Te2-  Te171  1  0.58483842  0.07775562  0.91706736  1
  Te2-  Te172  1  0.58794248  0.41181508  0.25350458  1
  Te2-  Te173  1  0.59171567  0.41896860  0.59313146  1
  Te2-  Te174  1  0.57917356  0.41361545  0.91983707  1
  Te2-  Te175  1  0.57984368  0.74612259  0.25112912  1
  Te2-  Te176  1  0.58824052  0.74882210  0.58220906  1
  Te2-  Te177  1  0.58802635  0.74890463  0.91438715  1
  Te2-  Te178  1  0.92618634  0.08025829  0.24955112  1
  Te2-  Te179  1  0.92222158  0.07862035  0.58836353  1
  Te2-  Te180  1  0.91526726  0.08291687  0.92368616  1
  Te2-  Te181  1  0.92308318  0.40988887  0.24914367  1
  Te2-  Te182  1  0.91805671  0.41566379  0.58693288  1
  Te2-  Te183  1  0.92139316  0.41859034  0.92328274  1
  Te2-  Te184  1  0.91454342  0.74612913  0.25510726  1
  Te2-  Te185  1  0.91707240  0.74752585  0.58397802  1
  Te2-  Te186  1  0.92060815  0.74905197  0.91951006  1
  Te2-  Te187  1  0.08537250  0.25518048  0.24915662  1
  Te2-  Te188  1  0.07929169  0.25270215  0.58078283  1
  Te2-  Te189  1  0.08046156  0.25244736  0.91897120  1
  Te2-  Te190  1  0.07835578  0.58578568  0.25578467  1
  Te2-  Te191  1  0.07874355  0.58423049  0.58368269  1
  Te2-  Te192  1  0.08417300  0.58578037  0.92019444  1
  Te2-  Te193  1  0.08240255  0.92024964  0.25298243  1
  Te2-  Te194  1  0.07996305  0.91803103  0.58752724  1
  Te2-  Te195  1  0.08342109  0.91844938  0.92531541  1
  Te2-  Te196  1  0.41743657  0.25075696  0.25353904  1
  Te2-  Te197  1  0.40780911  0.25347954  0.58708034  1
  Te2-  Te198  1  0.41345212  0.24883514  0.91957287  1
  Te2-  Te199  1  0.41276637  0.57933528  0.25649157  1
  Te2-  Te200  1  0.41167966  0.58823823  0.58746424  1
  Te2-  Te201  1  0.40846388  0.58641533  0.92022422  1
  Te2-  Te202  1  0.41002861  0.92592967  0.24865543  1
  Te2-  Te203  1  0.41283744  0.92020289  0.58344204  1
  Te2-  Te204  1  0.41382400  0.91832048  0.91279416  1
  Te2-  Te205  1  0.74887132  0.25164941  0.25830836  1
  Te2-  Te206  1  0.75450436  0.25773373  0.58824415  1
  Te2-  Te207  1  0.74101433  0.25649227  0.91928817  1
  Te2-  Te208  1  0.75127015  0.58513476  0.25590897  1
  Te2-  Te209  1  0.74566543  0.58278053  0.58390906  1
  Te2-  Te210  1  0.74453717  0.58862588  0.91807477  1
  Te2-  Te211  1  0.74468820  0.92038326  0.25448084  1
  Te2-  Te212  1  0.74755389  0.92284665  0.58851904  1
  Te2-  Te213  1  0.74885330  0.91939471  0.91763256  1
  Te2-  Te214  1  0.08338559  0.07977978  0.08081813  1
  Te2-  Te215  1  0.08539808  0.07833013  0.40641347  1
  Te2-  Te216  1  0.07563728  0.07832972  0.74510015  1
  Te2-  Te217  1  0.08154808  0.41687715  0.08130646  1
  Te2-  Te218  1  0.08338485  0.41301429  0.41084745  1
  Te2-  Te219  1  0.07947921  0.41491628  0.74773752  1
  Te2-  Te220  1  0.08152892  0.74963807  0.08226411  1
  Te2-  Te221  1  0.07895796  0.74637343  0.41790448  1
  Te2-  Te222  1  0.08201619  0.74734197  0.75078433  1
  Te2-  Te223  1  0.41781242  0.08085734  0.08145791  1
  Te2-  Te224  1  0.41621745  0.08264634  0.41591232  1
  Te2-  Te225  1  0.41495742  0.08265063  0.74342067  1
  Te2-  Te226  1  0.41683838  0.41052164  0.08116941  1
  Te2-  Te227  1  0.41767750  0.41286466  0.41761453  1
  Te2-  Te228  1  0.40689574  0.41234056  0.74669969  1
  Te2-  Te229  1  0.40996230  0.74552850  0.07655126  1
  Te2-  Te230  1  0.41257093  0.74424777  0.41091876  1
  Te2-  Te231  1  0.41323434  0.74254856  0.74175236  1
  Te2-  Te232  1  0.75332791  0.08344746  0.07801870  1
  Te2-  Te233  1  0.74230457  0.08348291  0.41481772  1
  Te2-  Te234  1  0.74327430  0.07918411  0.75035320  1
  Te2-  Te235  1  0.74528867  0.41367089  0.07706939  1
  Te2-  Te236  1  0.74257400  0.40795052  0.41301450  1
  Te2-  Te237  1  0.74767241  0.41498388  0.75171400  1
  Te2-  Te238  1  0.74459753  0.75038848  0.08087711  1
  Te2-  Te239  1  0.74670353  0.74977213  0.41552119  1
  Te2-  Te240  1  0.75066132  0.74800078  0.74719011  1
