# generated using pymatgen
data_Ti27(Cu53Te54)2
_symmetry_space_group_name_H-M   'P 1'
_cell_length_a   17.89082283
_cell_length_b   17.88633647
_cell_length_c   17.88827543
_cell_angle_alpha   90.01776974
_cell_angle_beta   90.01622341
_cell_angle_gamma   90.01407542
_symmetry_Int_Tables_number   1
_chemical_formula_structural   Ti27(Cu53Te54)2
_chemical_formula_sum   'Ti27 Cu106 Te108'
_cell_volume   5724.27029977
_cell_formula_units_Z   1
loop_
 _symmetry_equiv_pos_site_id
 _symmetry_equiv_pos_as_xyz
  1  'x, y, z'
loop_
 _atom_type_symbol
 _atom_type_oxidation_number
  Ti4+  4.0
  Cu+  1.0
  Te2-  -2.0
loop_
 _atom_site_type_symbol
 _atom_site_label
 _atom_site_symmetry_multiplicity
 _atom_site_fract_x
 _atom_site_fract_y
 _atom_site_fract_z
 _atom_site_occupancy
  Ti4+  Ti0  1  0.16524739  0.16118092  0.16523564  1
  Ti4+  Ti1  1  0.16151616  0.16742486  0.50100842  1
  Ti4+  Ti2  1  0.17034660  0.16579597  0.82883108  1
  Ti4+  Ti3  1  0.16725344  0.50099096  0.16761944  1
  Ti4+  Ti4  1  0.16951585  0.50090794  0.49925756  1
  Ti4+  Ti5  1  0.16584534  0.49754837  0.83415564  1
  Ti4+  Ti6  1  0.16581281  0.83527993  0.16792318  1
  Ti4+  Ti7  1  0.16917177  0.83526482  0.49974178  1
  Ti4+  Ti8  1  0.16837711  0.83160419  0.83505547  1
  Ti4+  Ti9  1  0.49820358  0.16713779  0.16721802  1
  Ti4+  Ti10  1  0.50010915  0.16596617  0.50069630  1
  Ti4+  Ti11  1  0.50090492  0.16751529  0.83470140  1
  Ti4+  Ti12  1  0.49545916  0.49942006  0.16631041  1
  Ti4+  Ti13  1  0.50175877  0.49813186  0.49888941  1
  Ti4+  Ti14  1  0.49865317  0.50086654  0.83179746  1
  Ti4+  Ti15  1  0.50121224  0.83244629  0.16900382  1
  Ti4+  Ti16  1  0.50225429  0.83080489  0.50035372  1
  Ti4+  Ti17  1  0.50024447  0.83448106  0.83351474  1
  Ti4+  Ti18  1  0.83060037  0.16772677  0.16833873  1
  Ti4+  Ti19  1  0.83016824  0.16802471  0.50256292  1
  Ti4+  Ti20  1  0.83693874  0.16641483  0.83484501  1
  Ti4+  Ti21  1  0.83290476  0.49947554  0.16472372  1
  Ti4+  Ti22  1  0.83602564  0.50311916  0.49906382  1
  Ti4+  Ti23  1  0.83181780  0.49817261  0.83167789  1
  Ti4+  Ti24  1  0.83104827  0.83691609  0.16943575  1
  Ti4+  Ti25  1  0.83324685  0.83000267  0.49898842  1
  Ti4+  Ti26  1  0.83356346  0.83523705  0.83279863  1
  Cu+  Cu27  1  0.16855563  0.16157765  -0.00761525  1
  Cu+  Cu28  1  0.16134678  0.16062733  0.33563395  1
  Cu+  Cu29  1  0.16475970  0.17064418  0.66338399  1
  Cu+  Cu30  1  0.16892260  0.50434408  -0.00119656  1
  Cu+  Cu31  1  0.16546185  0.50343052  0.33572777  1
  Cu+  Cu32  1  0.17009312  0.49592767  0.66739493  1
  Cu+  Cu33  1  0.16923868  0.83218198  0.00683864  1
  Cu+  Cu34  1  0.17102915  0.83891785  0.32956706  1
  Cu+  Cu35  1  0.16666662  0.83282258  0.66659528  1
  Cu+  Cu36  1  0.50166760  0.16965853  0.00243850  1
  Cu+  Cu37  1  0.49793231  0.16782803  0.33380317  1
  Cu+  Cu38  1  0.50059132  0.16748088  0.66634706  1
  Cu+  Cu39  1  0.49379595  0.49730000  -0.00131183  1
  Cu+  Cu40  1  0.49260727  0.49863743  0.33142069  1
  Cu+  Cu41  1  0.50555206  0.50200115  0.66440104  1
  Cu+  Cu42  1  0.50187289  0.83444105  -0.00103203  1
  Cu+  Cu43  1  0.50264395  0.82955325  0.33917591  1
  Cu+  Cu44  1  0.50238235  0.83153413  0.66890223  1
  Cu+  Cu45  1  0.83375761  0.16271758  0.00110822  1
  Cu+  Cu46  1  0.82775879  0.16933761  0.33602424  1
  Cu+  Cu47  1  0.83522137  0.16875856  0.67177471  1
  Cu+  Cu48  1  0.83111282  0.49820281  -0.00192320  1
  Cu+  Cu49  1  0.83803528  0.50473769  0.32894406  1
  Cu+  Cu50  1  0.83288762  0.49554543  0.66449758  1
  Cu+  Cu51  1  0.83361528  0.83620273  -0.00126079  1
  Cu+  Cu52  1  0.82530532  0.83336759  0.33358900  1
  Cu+  Cu53  1  0.83373221  0.83310749  0.66515084  1
  Cu+  Cu54  1  0.16204874  -0.00205772  0.16870721  1
  Cu+  Cu55  1  0.16622300  0.00442917  0.49726951  1
  Cu+  Cu56  1  0.16740448  -0.00153925  0.83359870  1
  Cu+  Cu57  1  0.16456940  0.33149839  0.16568076  1
  Cu+  Cu58  1  0.16603348  0.33259895  0.50176823  1
  Cu+  Cu59  1  0.17183488  0.33377057  0.82684280  1
  Cu+  Cu60  1  0.16789559  0.67122834  0.16341019  1
  Cu+  Cu61  1  0.16908450  0.66860656  0.49919807  1
  Cu+  Cu62  1  0.16622549  0.66383838  0.83862005  1
  Cu+  Cu63  1  0.50123151  -0.00206994  0.16692410  1
  Cu+  Cu64  1  0.49935647  -0.00052152  0.50225220  1
  Cu+  Cu65  1  0.50129730  -0.00030361  0.83370231  1
  Cu+  Cu66  1  0.49401422  0.33310844  0.16948933  1
  Cu+  Cu67  1  0.50190596  0.32887571  0.49943883  1
  Cu+  Cu68  1  0.49742077  0.33606613  0.83513355  1
  Cu+  Cu69  1  0.49882454  0.66361712  0.16625657  1
  Cu+  Cu70  1  0.50606186  0.66229195  0.49901572  1
  Cu+  Cu71  1  0.49926182  0.67083056  0.83149352  1
  Cu+  Cu72  1  0.83037570  0.00779899  0.16951298  1
  Cu+  Cu73  1  0.83109400  -0.00394836  0.49989438  1
  Cu+  Cu74  1  0.83633991  0.00174818  0.83316448  1
  Cu+  Cu75  1  0.83311032  0.33338236  0.16418358  1
  Cu+  Cu76  1  0.83104793  0.33865456  0.50303640  1
  Cu+  Cu77  1  0.83251911  0.32991230  0.82973059  1
  Cu+  Cu78  1  0.83484405  0.66645406  0.16779262  1
  Cu+  Cu79  1  0.83830685  0.66656972  0.50078799  1
  Cu+  Cu80  1  0.83288795  0.66596588  0.83162835  1
  Cu+  Cu81  1  -0.00299885  0.16135164  0.16803415  1
  Cu+  Cu82  1  -0.00542611  0.17021011  0.50221206  1
  Cu+  Cu83  1  0.00512100  0.16219124  0.83091513  1
  Cu+  Cu84  1  -0.00159720  0.50234737  0.16719970  1
  Cu+  Cu85  1  0.00630039  0.50462905  0.49708754  1
  Cu+  Cu86  1  -0.00241703  0.49702610  0.83189400  1
  Cu+  Cu87  1  -0.00041089  0.83892690  0.16732593  1
  Cu+  Cu88  1  0.00031154  0.83383878  0.49920796  1
  Cu+  Cu89  1  -0.00118211  0.83193541  0.83275612  1
  Cu+  Cu90  1  0.33205688  0.16311941  0.16175927  1
  Cu+  Cu91  1  0.33071431  0.16782467  0.50148016  1
  Cu+  Cu92  1  0.33688261  0.17014773  0.83065371  1
  Cu+  Cu93  1  0.33297443  0.49555426  0.17257169  1
  Cu+  Cu94  1  0.33637335  0.50064248  0.49656600  1
  Cu+  Cu95  1  0.33274053  0.49444054  0.83521525  1
  Cu+  Cu96  1  0.33335020  0.83318336  0.16850982  1
  Cu+  Cu97  1  0.33603209  0.83440655  0.49950069  1
  Cu+  Cu98  1  0.33585345  0.83468160  0.83593634  1
  Cu+  Cu99  1  0.66373867  0.16951652  0.16906850  1
  Cu+  Cu100  1  0.66152120  0.16736423  0.50402490  1
  Cu+  Cu101  1  0.66737536  0.16871432  0.83827621  1
  Cu+  Cu102  1  0.66205894  0.49882520  0.16260041  1
  Cu+  Cu103  1  0.66898136  0.50247460  0.50363983  1
  Cu+  Cu104  1  0.66592446  0.50026183  0.83125335  1
  Cu+  Cu105  1  0.66786216  0.83139720  0.17250145  1
  Cu+  Cu106  1  0.66776846  0.82818681  0.49295785  1
  Cu+  Cu107  1  0.66583300  0.83519030  0.83274335  1
  Cu+  Cu108  1  0.40325513  0.40014718  0.26459540  1
  Cu+  Cu109  1  0.41164165  0.92662675  0.41213074  1
  Cu+  Cu110  1  0.40839757  0.59324168  0.40622561  1
  Cu+  Cu111  1  0.73675542  0.25393929  0.74429050  1
  Cu+  Cu112  1  0.59779679  0.59509244  0.59644754  1
  Cu+  Cu113  1  0.59446643  0.73155191  0.40710014  1
  Cu+  Cu114  1  0.73780770  0.07267843  0.92302318  1
  Cu+  Cu115  1  0.26490730  0.40728140  0.73502774  1
  Cu+  Cu116  1  0.26098479  0.08278129  0.40992799  1
  Cu+  Cu117  1  0.26278810  0.59232179  0.92064044  1
  Cu+  Cu118  1  0.73962321  0.92831642  0.41021190  1
  Cu+  Cu119  1  0.74050752  0.73344088  0.25527720  1
  Cu+  Cu120  1  0.26406474  0.92848127  0.25176501  1
  Cu+  Cu121  1  0.06710369  0.07321848  0.26588201  1
  Cu+  Cu122  1  0.07704171  0.60006501  0.40957582  1
  Cu+  Cu123  1  0.92173898  0.07553059  0.07598901  1
  Cu+  Cu124  1  0.73125142  0.08659790  0.26626284  1
  Cu+  Cu125  1  0.92985086  0.07310782  0.73682500  1
  Cu+  Cu126  1  0.40450068  0.40323271  0.92825815  1
  Cu+  Cu127  1  0.26778562  0.07911347  0.06223192  1
  Cu+  Cu128  1  0.92890960  0.59778547  0.25445342  1
  Cu+  Cu129  1  0.73859194  0.40844297  0.59108833  1
  Cu+  Cu130  1  0.26485304  0.74035174  0.07930880  1
  Cu+  Cu131  1  0.07076500  0.91948375  0.07047251  1
  Cu+  Cu132  1  0.07773281  0.07087195  0.91801461  1
  Te2-  Te133  1  0.24791537  0.24893523  0.07920463  1
  Te2-  Te134  1  0.24782805  0.25066467  0.41297744  1
  Te2-  Te135  1  0.25675292  0.25149569  0.74192743  1
  Te2-  Te136  1  0.25744504  0.58595636  0.08228270  1
  Te2-  Te137  1  0.25531239  0.58857026  0.41218493  1
  Te2-  Te138  1  0.25285235  0.58462043  0.75018566  1
  Te2-  Te139  1  0.25632146  0.92423673  0.08171324  1
  Te2-  Te140  1  0.25677377  0.92425938  0.41181725  1
  Te2-  Te141  1  0.25218372  0.91657250  0.74941625  1
  Te2-  Te142  1  0.58303423  0.25526028  0.08501588  1
  Te2-  Te143  1  0.58590394  0.25061814  0.41319623  1
  Te2-  Te144  1  0.58436286  0.25476271  0.74893045  1
  Te2-  Te145  1  0.58040933  0.58332949  0.07831865  1
  Te2-  Te146  1  0.58944258  0.57922172  0.40796355  1
  Te2-  Te147  1  0.58695741  0.58886862  0.74881518  1
  Te2-  Te148  1  0.58722965  0.91541870  0.08433699  1
  Te2-  Te149  1  0.58653876  0.92217480  0.41406843  1
  Te2-  Te150  1  0.58592836  0.92005028  0.74733621  1
  Te2-  Te151  1  0.91916082  0.25045662  0.08200299  1
  Te2-  Te152  1  0.91260080  0.25435788  0.41704342  1
  Te2-  Te153  1  0.92541704  0.25183767  0.74960773  1
  Te2-  Te154  1  0.91722587  0.58585492  0.07823049  1
  Te2-  Te155  1  0.92351791  0.59104493  0.41123123  1
  Te2-  Te156  1  0.91707105  0.58285088  0.74645898  1
  Te2-  Te157  1  0.91621540  0.92321763  0.08051940  1
  Te2-  Te158  1  0.91741737  0.91652041  0.41318973  1
  Te2-  Te159  1  0.92106346  0.91916594  0.74498892  1
  Te2-  Te160  1  0.25570608  0.07924825  0.25476241  1
  Te2-  Te161  1  0.24969800  0.08222136  0.58648649  1
  Te2-  Te162  1  0.26017800  0.07822963  0.91244228  1
  Te2-  Te163  1  0.24753018  0.41143370  0.25558337  1
  Te2-  Te164  1  0.25696383  0.41276380  0.58227824  1
  Te2-  Te165  1  0.25068309  0.40879521  0.92393496  1
  Te2-  Te166  1  0.25257561  0.74706215  0.25371129  1
  Te2-  Te167  1  0.25366930  0.75008027  0.58436290  1
  Te2-  Te168  1  0.25608777  0.74734697  0.92329956  1
  Te2-  Te169  1  0.58200162  0.08025667  0.25457221  1
  Te2-  Te170  1  0.58397917  0.07959886  0.58773820  1
  Te2-  Te171  1  0.58467550  0.08071257  0.92203048  1
  Te2-  Te172  1  0.58249446  0.41528266  0.25169131  1
  Te2-  Te173  1  0.58604406  0.40977615  0.58542119  1
  Te2-  Te174  1  0.58505190  0.41706586  0.91806367  1
  Te2-  Te175  1  0.58540414  0.74189273  0.25408045  1
  Te2-  Te176  1  0.58954930  0.74719049  0.58764569  1
  Te2-  Te177  1  0.58630371  0.74836362  0.91845420  1
  Te2-  Te178  1  0.91567625  0.08154652  0.26018747  1
  Te2-  Te179  1  0.91573255  0.07934972  0.58505099  1
  Te2-  Te180  1  0.92506464  0.07677664  0.92203629  1
  Te2-  Te181  1  0.91878285  0.41271390  0.25016400  1
  Te2-  Te182  1  0.92451214  0.41846893  0.58189874  1
  Te2-  Te183  1  0.91618620  0.41215947  0.91695112  1
  Te2-  Te184  1  0.92040272  0.75281796  0.25407618  1
  Te2-  Te185  1  0.92122541  0.74859613  0.58561665  1
  Te2-  Te186  1  0.91667265  0.74819735  0.91837169  1
  Te2-  Te187  1  0.08073821  0.24791843  0.25021462  1
  Te2-  Te188  1  0.07719750  0.25486966  0.58591490  1
  Te2-  Te189  1  0.08577961  0.25236129  0.91364241  1
  Te2-  Te190  1  0.08223509  0.59164463  0.25169411  1
  Te2-  Te191  1  0.08674979  0.58603875  0.58795083  1
  Te2-  Te192  1  0.07685147  0.58228361  0.91855621  1
  Te2-  Te193  1  0.07535546  0.92049263  0.25863481  1
  Te2-  Te194  1  0.08327165  0.91902240  0.58322111  1
  Te2-  Te195  1  0.07929985  0.91729900  0.92010279  1
  Te2-  Te196  1  0.40742596  0.24844133  0.25331855  1
  Te2-  Te197  1  0.41426061  0.25168665  0.58510002  1
  Te2-  Te198  1  0.41335253  0.25202139  0.92161301  1
  Te2-  Te199  1  0.40954951  0.58990580  0.25213764  1
  Te2-  Te200  1  0.41629502  0.58507971  0.58463405  1
  Te2-  Te201  1  0.41439317  0.58899885  0.91763745  1
  Te2-  Te202  1  0.41667091  0.91947472  0.25627298  1
  Te2-  Te203  1  0.41718058  0.91606348  0.58751444  1
  Te2-  Te204  1  0.41607417  0.92056057  0.92069233  1
  Te2-  Te205  1  0.74627410  0.25621990  0.25241879  1
  Te2-  Te206  1  0.74434348  0.25356407  0.58922701  1
  Te2-  Te207  1  0.75186022  0.25265875  0.92273228  1
  Te2-  Te208  1  0.74255774  0.58283304  0.25071082  1
  Te2-  Te209  1  0.75136522  0.59013557  0.58842379  1
  Te2-  Te210  1  0.74747845  0.58453006  0.91655971  1
  Te2-  Te211  1  0.74252343  0.92632273  0.25431156  1
  Te2-  Te212  1  0.74497490  0.91381631  0.58381581  1
  Te2-  Te213  1  0.74648413  0.92072638  0.91936458  1
  Te2-  Te214  1  0.07675635  0.07587813  0.07455879  1
  Te2-  Te215  1  0.07056695  0.07951680  0.41816734  1
  Te2-  Te216  1  0.08499189  0.07718324  0.74161596  1
  Te2-  Te217  1  0.08250607  0.41800387  0.08181553  1
  Te2-  Te218  1  0.08350206  0.41359034  0.41468192  1
  Te2-  Te219  1  0.08004320  0.41336896  0.74686542  1
  Te2-  Te220  1  0.07593472  0.74939914  0.08265148  1
  Te2-  Te221  1  0.08367912  0.75265351  0.41124491  1
  Te2-  Te222  1  0.08395878  0.74652037  0.75051142  1
  Te2-  Te223  1  0.41799368  0.07764576  0.07846760  1
  Te2-  Te224  1  0.41325668  0.08013415  0.41272674  1
  Te2-  Te225  1  0.41726319  0.08216241  0.74872553  1
  Te2-  Te226  1  0.40871984  0.41141621  0.08105163  1
  Te2-  Te227  1  0.41371592  0.40776869  0.41617419  1
  Te2-  Te228  1  0.41665200  0.41450657  0.74150693  1
  Te2-  Te229  1  0.41677558  0.74839536  0.08062424  1
  Te2-  Te230  1  0.41324710  0.74385550  0.41549805  1
  Te2-  Te231  1  0.41298596  0.74942090  0.74739092  1
  Te2-  Te232  1  0.74141129  0.08183613  0.08069949  1
  Te2-  Te233  1  0.74170582  0.08147323  0.41770897  1
  Te2-  Te234  1  0.74656706  0.08236583  0.74960757  1
  Te2-  Te235  1  0.74642597  0.41391419  0.08047741  1
  Te2-  Te236  1  0.74994937  0.42037622  0.41227914  1
  Te2-  Te237  1  0.74287729  0.41083295  0.74519224  1
  Te2-  Te238  1  0.75000686  0.75006057  0.08241842  1
  Te2-  Te239  1  0.74767975  0.73634755  0.41110505  1
  Te2-  Te240  1  0.74848815  0.74999346  0.74839595  1
