# generated using pymatgen
data_Ti27(Cu53Te54)2
_symmetry_space_group_name_H-M   'P 1'
_cell_length_a   17.88121788
_cell_length_b   17.88441806
_cell_length_c   17.88075586
_cell_angle_alpha   89.98574862
_cell_angle_beta   89.98746202
_cell_angle_gamma   90.02095875
_symmetry_Int_Tables_number   1
_chemical_formula_structural   Ti27(Cu53Te54)2
_chemical_formula_sum   'Ti27 Cu106 Te108'
_cell_volume   5718.17877296
_cell_formula_units_Z   1
loop_
 _symmetry_equiv_pos_site_id
 _symmetry_equiv_pos_as_xyz
  1  'x, y, z'
loop_
 _atom_type_symbol
 _atom_type_oxidation_number
  Ti4+  4.0
  Cu+  1.0
  Te2-  -2.0
loop_
 _atom_site_type_symbol
 _atom_site_label
 _atom_site_symmetry_multiplicity
 _atom_site_fract_x
 _atom_site_fract_y
 _atom_site_fract_z
 _atom_site_occupancy
  Ti4+  Ti0  1  0.16830133  0.16494523  0.16846712  1
  Ti4+  Ti1  1  0.16563228  0.16554567  0.49684748  1
  Ti4+  Ti2  1  0.16359727  0.16775990  0.83287326  1
  Ti4+  Ti3  1  0.17012168  0.49748395  0.16516114  1
  Ti4+  Ti4  1  0.16740847  0.50250649  0.49903792  1
  Ti4+  Ti5  1  0.16853666  0.49799588  0.83136574  1
  Ti4+  Ti6  1  0.16793314  0.83337395  0.16466515  1
  Ti4+  Ti7  1  0.16699357  0.83533183  0.50255193  1
  Ti4+  Ti8  1  0.16489905  0.83205330  0.83295756  1
  Ti4+  Ti9  1  0.50158774  0.16777042  0.16960268  1
  Ti4+  Ti10  1  0.49980288  0.16344469  0.49867863  1
  Ti4+  Ti11  1  0.50117015  0.16746788  0.83611169  1
  Ti4+  Ti12  1  0.49997324  0.50387122  0.16933002  1
  Ti4+  Ti13  1  0.49984625  0.49738619  0.50155391  1
  Ti4+  Ti14  1  0.50248099  0.49964294  0.83393454  1
  Ti4+  Ti15  1  0.49857312  0.83092361  0.16228467  1
  Ti4+  Ti16  1  0.50283586  0.83251042  0.50031439  1
  Ti4+  Ti17  1  0.49693665  0.83945366  0.83468227  1
  Ti4+  Ti18  1  0.83309885  0.16497156  0.16637203  1
  Ti4+  Ti19  1  0.83593252  0.16546189  0.49815865  1
  Ti4+  Ti20  1  0.83002254  0.16745408  0.83357864  1
  Ti4+  Ti21  1  0.83603646  0.49890795  0.16930734  1
  Ti4+  Ti22  1  0.83325419  0.50242158  0.50076701  1
  Ti4+  Ti23  1  0.83178722  0.49839189  0.83333895  1
  Ti4+  Ti24  1  0.83325151  0.83003122  0.16476616  1
  Ti4+  Ti25  1  0.83231779  0.83921257  0.50069364  1
  Ti4+  Ti26  1  0.83107296  0.83267832  0.83102530  1
  Cu+  Cu27  1  0.16293493  0.16829509  0.00308845  1
  Cu+  Cu28  1  0.17521581  0.16290063  0.33380573  1
  Cu+  Cu29  1  0.16352992  0.16747453  0.66533119  1
  Cu+  Cu30  1  0.16544552  0.49128519  -0.00756821  1
  Cu+  Cu31  1  0.17138714  0.50301533  0.33122234  1
  Cu+  Cu32  1  0.16717871  0.50007643  0.66523528  1
  Cu+  Cu33  1  0.17112727  0.83309278  -0.00315293  1
  Cu+  Cu34  1  0.16517085  0.83528012  0.33488161  1
  Cu+  Cu35  1  0.16647881  0.83207637  0.66914615  1
  Cu+  Cu36  1  0.50254439  0.17206956  0.00181968  1
  Cu+  Cu37  1  0.50388958  0.16132646  0.33649015  1
  Cu+  Cu38  1  0.49632564  0.16436905  0.66748142  1
  Cu+  Cu39  1  0.50014739  0.50289650  0.00145861  1
  Cu+  Cu40  1  0.49446020  0.50041858  0.33709625  1
  Cu+  Cu41  1  0.50457086  0.49623261  0.66809037  1
  Cu+  Cu42  1  0.49540957  0.84358091  0.00052972  1
  Cu+  Cu43  1  0.50048468  0.82961995  0.32897497  1
  Cu+  Cu44  1  0.50107287  0.83150715  0.66871415  1
  Cu+  Cu45  1  0.83170445  0.16319381  -0.00065940  1
  Cu+  Cu46  1  0.83889637  0.16629938  0.32961444  1
  Cu+  Cu47  1  0.82945272  0.16696103  0.66579491  1
  Cu+  Cu48  1  0.83143382  0.49970243  0.00357432  1
  Cu+  Cu49  1  0.83830551  0.49802182  0.33816741  1
  Cu+  Cu50  1  0.83263939  0.50084543  0.66640483  1
  Cu+  Cu51  1  0.83312912  0.82947723  -0.00121659  1
  Cu+  Cu52  1  0.83368034  0.83272755  0.32837773  1
  Cu+  Cu53  1  0.82744957  0.84083811  0.66556321  1
  Cu+  Cu54  1  0.16400577  0.00213836  0.16895688  1
  Cu+  Cu55  1  0.16466062  -0.00149657  0.49455832  1
  Cu+  Cu56  1  0.16341372  0.00112393  0.83414436  1
  Cu+  Cu57  1  0.16759064  0.32575956  0.16577858  1
  Cu+  Cu58  1  0.16447647  0.33469761  0.49884234  1
  Cu+  Cu59  1  0.16498911  0.33460697  0.83435342  1
  Cu+  Cu60  1  0.17375088  0.66892026  0.16300933  1
  Cu+  Cu61  1  0.16615349  0.67088315  0.50171874  1
  Cu+  Cu62  1  0.16498456  0.66210343  0.83006057  1
  Cu+  Cu63  1  0.49860938  -0.00046874  0.16561473  1
  Cu+  Cu64  1  0.50588446  -0.00316905  0.49610936  1
  Cu+  Cu65  1  0.50241609  0.00247315  0.84016005  1
  Cu+  Cu66  1  0.49965625  0.33922332  0.17212667  1
  Cu+  Cu67  1  0.49908439  0.32785483  0.50244403  1
  Cu+  Cu68  1  0.50738333  0.33327266  0.83513141  1
  Cu+  Cu69  1  0.49549853  0.66540060  0.16064548  1
  Cu+  Cu70  1  0.49970558  0.66327926  0.50266396  1
  Cu+  Cu71  1  0.49945181  0.67276284  0.83281926  1
  Cu+  Cu72  1  0.83179520  -0.00537667  0.16314455  1
  Cu+  Cu73  1  0.83968629  0.00408097  0.50471533  1
  Cu+  Cu74  1  0.82848404  -0.00037932  0.82764064  1
  Cu+  Cu75  1  0.83682189  0.33079049  0.17231789  1
  Cu+  Cu76  1  0.83550822  0.33764250  0.49668964  1
  Cu+  Cu77  1  0.83068618  0.33197678  0.83393089  1
  Cu+  Cu78  1  0.83257844  0.66368693  0.16565114  1
  Cu+  Cu79  1  0.83236558  0.66978994  0.50199177  1
  Cu+  Cu80  1  0.83149819  0.66318043  0.83314513  1
  Cu+  Cu81  1  -0.00022750  0.16960816  0.16907586  1
  Cu+  Cu82  1  -0.00013420  0.16279716  0.49530426  1
  Cu+  Cu83  1  -0.00535331  0.16539723  0.83179335  1
  Cu+  Cu84  1  0.00346923  0.49763912  0.16541215  1
  Cu+  Cu85  1  0.00010284  0.50254038  0.49955824  1
  Cu+  Cu86  1  -0.00070212  0.49776073  0.83291985  1
  Cu+  Cu87  1  -0.00162979  0.83000017  0.16511364  1
  Cu+  Cu88  1  0.00113321  0.84357232  0.50193400  1
  Cu+  Cu89  1  0.00080314  0.82981156  0.83261621  1
  Cu+  Cu90  1  0.33289553  0.16830465  0.17237027  1
  Cu+  Cu91  1  0.33214118  0.16111448  0.49634217  1
  Cu+  Cu92  1  0.33365861  0.16903544  0.83364346  1
  Cu+  Cu93  1  0.33474682  0.50462131  0.17258773  1
  Cu+  Cu94  1  0.33497022  0.50182677  0.49784412  1
  Cu+  Cu95  1  0.33469412  0.50036807  0.83147623  1
  Cu+  Cu96  1  0.33246053  0.83057124  0.15755799  1
  Cu+  Cu97  1  0.33620561  0.83294142  0.50416436  1
  Cu+  Cu98  1  0.32826865  0.83839336  0.83887924  1
  Cu+  Cu99  1  0.66851369  0.16535415  0.16705629  1
  Cu+  Cu100  1  0.66630648  0.16253560  0.49683716  1
  Cu+  Cu101  1  0.66246248  0.17131113  0.83893892  1
  Cu+  Cu102  1  0.67095913  0.50317647  0.16790953  1
  Cu+  Cu103  1  0.66626009  0.50059541  0.50245953  1
  Cu+  Cu104  1  0.66517752  0.49637928  0.83069900  1
  Cu+  Cu105  1  0.66645606  0.82793100  0.16543762  1
  Cu+  Cu106  1  0.66805919  0.83208509  0.50303976  1
  Cu+  Cu107  1  0.66307275  0.83840647  0.82924145  1
  Cu+  Cu108  1  0.25096994  0.93484595  0.92468261  1
  Cu+  Cu109  1  0.06807626  0.40619741  0.91923397  1
  Cu+  Cu110  1  0.06920936  0.25402581  0.07309899  1
  Cu+  Cu111  1  0.73358469  0.93076421  0.73908089  1
  Cu+  Cu112  1  0.26380031  0.06651712  0.40828822  1
  Cu+  Cu113  1  0.40929585  0.40703148  0.26402950  1
  Cu+  Cu114  1  0.40414510  0.58509229  0.06840722  1
  Cu+  Cu115  1  0.92932261  0.26040563  0.25963784  1
  Cu+  Cu116  1  0.93224694  0.41161707  0.41108571  1
  Cu+  Cu117  1  0.25748709  0.73721210  0.06523422  1
  Cu+  Cu118  1  0.59528796  0.40128298  0.73678727  1
  Cu+  Cu119  1  0.26229477  0.25747896  0.26322060  1
  Cu+  Cu120  1  0.59362679  0.26567093  0.93482615  1
  Cu+  Cu121  1  0.25556510  0.60014096  0.26089560  1
  Cu+  Cu122  1  0.93123464  0.92876540  0.59913392  1
  Cu+  Cu123  1  0.59022368  0.74116802  0.74429940  1
  Cu+  Cu124  1  0.73542306  0.08392029  0.59471205  1
  Cu+  Cu125  1  0.59773816  0.92474938  0.93033301  1
  Cu+  Cu126  1  0.40371191  0.93562303  0.07984200  1
  Cu+  Cu127  1  0.40863314  0.59738495  0.41313946  1
  Cu+  Cu128  1  0.74277428  0.59318996  0.07211851  1
  Cu+  Cu129  1  0.74471082  0.73873780  0.59188259  1
  Cu+  Cu130  1  0.92499738  0.07328948  0.40043875  1
  Cu+  Cu131  1  0.07279344  0.92437750  0.40131122  1
  Cu+  Cu132  1  0.59858317  0.06728185  0.40416991  1
  Te2-  Te133  1  0.25567513  0.24950389  0.08030880  1
  Te2-  Te134  1  0.25438334  0.25544805  0.41618870  1
  Te2-  Te135  1  0.24919191  0.25186755  0.74809238  1
  Te2-  Te136  1  0.25268285  0.58158928  0.07230261  1
  Te2-  Te137  1  0.25408297  0.59281181  0.41401285  1
  Te2-  Te138  1  0.25353297  0.58431453  0.74559760  1
  Te2-  Te139  1  0.25148079  0.92735501  0.07898603  1
  Te2-  Te140  1  0.25773310  0.91592094  0.41402339  1
  Te2-  Te141  1  0.25005772  0.92048631  0.74818980  1
  Te2-  Te142  1  0.58707881  0.25728868  0.08791428  1
  Te2-  Te143  1  0.58631032  0.25150365  0.41498593  1
  Te2-  Te144  1  0.58641079  0.24947828  0.74311708  1
  Te2-  Te145  1  0.58826539  0.58692042  0.08078994  1
  Te2-  Te146  1  0.58539517  0.58371935  0.41566568  1
  Te2-  Te147  1  0.58638164  0.58809212  0.74768214  1
  Te2-  Te148  1  0.58956406  0.92004653  0.08320921  1
  Te2-  Te149  1  0.58949264  0.91357961  0.40949100  1
  Te2-  Te150  1  0.58109955  0.92658335  0.74414285  1
  Te2-  Te151  1  0.91679946  0.25256819  0.07783061  1
  Te2-  Te152  1  0.92339847  0.25558929  0.41274892  1
  Te2-  Te153  1  0.91473726  0.25194929  0.74685797  1
  Te2-  Te154  1  0.92188661  0.58339944  0.08205961  1
  Te2-  Te155  1  0.91894895  0.59104208  0.41678162  1
  Te2-  Te156  1  0.91809517  0.58330126  0.74878695  1
  Te2-  Te157  1  0.91871350  0.91515292  0.07838036  1
  Te2-  Te158  1  0.91834928  0.92154082  0.40754246  1
  Te2-  Te159  1  0.92140017  0.91943781  0.74944937  1
  Te2-  Te160  1  0.25685659  0.07404448  0.25252234  1
  Te2-  Te161  1  0.24826110  0.08021676  0.58430123  1
  Te2-  Te162  1  0.25058951  0.08613445  0.92106943  1
  Te2-  Te163  1  0.25442156  0.40992141  0.25409023  1
  Te2-  Te164  1  0.25190262  0.41578457  0.58236661  1
  Te2-  Te165  1  0.25787608  0.41147379  0.91558240  1
  Te2-  Te166  1  0.25483473  0.75247985  0.25484727  1
  Te2-  Te167  1  0.25270746  0.74940233  0.58737008  1
  Te2-  Te168  1  0.25262544  0.74099495  0.91499934  1
  Te2-  Te169  1  0.58751069  0.07741119  0.25054171  1
  Te2-  Te170  1  0.58385497  0.07867631  0.58847764  1
  Te2-  Te171  1  0.58816603  0.08140601  0.92583188  1
  Te2-  Te172  1  0.58713033  0.42094143  0.25531259  1
  Te2-  Te173  1  0.58794306  0.40954608  0.58438103  1
  Te2-  Te174  1  0.58831447  0.41701684  0.92563406  1
  Te2-  Te175  1  0.58266946  0.74368874  0.24727605  1
  Te2-  Te176  1  0.58698109  0.74355450  0.58794339  1
  Te2-  Te177  1  0.58354453  0.75444149  0.92082956  1
  Te2-  Te178  1  0.92085748  0.07454806  0.24722417  1
  Te2-  Te179  1  0.92436471  0.08442409  0.59142863  1
  Te2-  Te180  1  0.91435276  0.07866326  0.91583718  1
  Te2-  Te181  1  0.92665784  0.41323565  0.25569266  1
  Te2-  Te182  1  0.91944594  0.41592544  0.58623084  1
  Te2-  Te183  1  0.91525687  0.41261820  0.92128504  1
  Te2-  Te184  1  0.91873046  0.74472825  0.25085056  1
  Te2-  Te185  1  0.91847845  0.75462352  0.58639492  1
  Te2-  Te186  1  0.91626913  0.74650099  0.91521622  1
  Te2-  Te187  1  0.08333381  0.25137204  0.25907834  1
  Te2-  Te188  1  0.07933211  0.25082804  0.58103340  1
  Te2-  Te189  1  0.07429109  0.25292481  0.91922267  1
  Te2-  Te190  1  0.08550307  0.58655349  0.24696489  1
  Te2-  Te191  1  0.08195133  0.58640294  0.58469163  1
  Te2-  Te192  1  0.08109742  0.58347361  0.91812256  1
  Te2-  Te193  1  0.07873407  0.91778762  0.24892907  1
  Te2-  Te194  1  0.08455484  0.92402403  0.59175768  1
  Te2-  Te195  1  0.07879496  0.91691875  0.91975584  1
  Te2-  Te196  1  0.41692710  0.25221541  0.25965606  1
  Te2-  Te197  1  0.41141354  0.24623969  0.58403711  1
  Te2-  Te198  1  0.41541994  0.25522482  0.91889426  1
  Te2-  Te199  1  0.41225066  0.59471195  0.25783769  1
  Te2-  Te200  1  0.41572746  0.58193603  0.59007424  1
  Te2-  Te201  1  0.41482925  0.58818510  0.91581158  1
  Te2-  Te202  1  0.41297084  0.91499211  0.24899623  1
  Te2-  Te203  1  0.41943676  0.91908051  0.58517954  1
  Te2-  Te204  1  0.40720047  0.92820094  0.92200760  1
  Te2-  Te205  1  0.74748708  0.25005956  0.25417829  1
  Te2-  Te206  1  0.74867302  0.25304445  0.57930517  1
  Te2-  Te207  1  0.74713486  0.25412541  0.92340606  1
  Te2-  Te208  1  0.75241945  0.58355298  0.25758765  1
  Te2-  Te209  1  0.74569367  0.58652216  0.58827095  1
  Te2-  Te210  1  0.74422454  0.58404785  0.91809156  1
  Te2-  Te211  1  0.74607510  0.91573355  0.24922023  1
  Te2-  Te212  1  0.74059871  0.92866019  0.58494408  1
  Te2-  Te213  1  0.74870802  0.91908906  0.92046090  1
  Te2-  Te214  1  0.07843119  0.08112549  0.08320674  1
  Te2-  Te215  1  0.07872393  0.07863410  0.40580723  1
  Te2-  Te216  1  0.07937425  0.08189277  0.74831011  1
  Te2-  Te217  1  0.08148116  0.40979620  0.08063072  1
  Te2-  Te218  1  0.08377951  0.41689968  0.41070998  1
  Te2-  Te219  1  0.08095429  0.41384131  0.74492113  1
  Te2-  Te220  1  0.08366327  0.74814982  0.07922466  1
  Te2-  Te221  1  0.07859499  0.75109742  0.41746798  1
  Te2-  Te222  1  0.08059093  0.74543398  0.74694741  1
  Te2-  Te223  1  0.41383844  0.08750580  0.08154704  1
  Te2-  Te224  1  0.41516767  0.07451260  0.41194227  1
  Te2-  Te225  1  0.41486945  0.08060874  0.75247550  1
  Te2-  Te226  1  0.41389793  0.41751311  0.08308919  1
  Te2-  Te227  1  0.41247978  0.40824332  0.41742630  1
  Te2-  Te228  1  0.41773292  0.41267762  0.75025115  1
  Te2-  Te229  1  0.41224330  0.74357417  0.07061132  1
  Te2-  Te230  1  0.41497751  0.74908191  0.41534436  1
  Te2-  Te231  1  0.40949557  0.75354647  0.75105871  1
  Te2-  Te232  1  0.74736439  0.07949113  0.08136518  1
  Te2-  Te233  1  0.75184051  0.07801957  0.40962785  1
  Te2-  Te234  1  0.73901716  0.08354236  0.74770486  1
  Te2-  Te235  1  0.74979591  0.41085632  0.08687535  1
  Te2-  Te236  1  0.74576227  0.41655941  0.41536734  1
  Te2-  Te237  1  0.74791707  0.41170290  0.74480679  1
  Te2-  Te238  1  0.74621515  0.74482860  0.07772319  1
  Te2-  Te239  1  0.74970729  0.75121545  0.41402161  1
  Te2-  Te240  1  0.74433409  0.74389428  0.74561878  1
