# generated using pymatgen
data_Ti27(Cu53Te54)2
_symmetry_space_group_name_H-M   'P 1'
_cell_length_a   17.88936032
_cell_length_b   17.88533602
_cell_length_c   17.89168839
_cell_angle_alpha   89.99128411
_cell_angle_beta   90.03525075
_cell_angle_gamma   89.99971056
_symmetry_Int_Tables_number   1
_chemical_formula_structural   Ti27(Cu53Te54)2
_chemical_formula_sum   'Ti27 Cu106 Te108'
_cell_volume   5724.57373700
_cell_formula_units_Z   1
loop_
 _symmetry_equiv_pos_site_id
 _symmetry_equiv_pos_as_xyz
  1  'x, y, z'
loop_
 _atom_type_symbol
 _atom_type_oxidation_number
  Ti4+  4.0
  Cu+  1.0
  Te2-  -2.0
loop_
 _atom_site_type_symbol
 _atom_site_label
 _atom_site_symmetry_multiplicity
 _atom_site_fract_x
 _atom_site_fract_y
 _atom_site_fract_z
 _atom_site_occupancy
  Ti4+  Ti0  1  0.16495888  0.16711528  0.16727029  1
  Ti4+  Ti1  1  0.16731766  0.17170880  0.49847717  1
  Ti4+  Ti2  1  0.16828523  0.16430394  0.83252118  1
  Ti4+  Ti3  1  0.16798535  0.50045194  0.16704940  1
  Ti4+  Ti4  1  0.16797906  0.50066483  0.50135623  1
  Ti4+  Ti5  1  0.16467851  0.49922851  0.83448936  1
  Ti4+  Ti6  1  0.16925119  0.83345586  0.16961935  1
  Ti4+  Ti7  1  0.16612907  0.83249683  0.50001120  1
  Ti4+  Ti8  1  0.16585317  0.83488168  0.83434761  1
  Ti4+  Ti9  1  0.49952719  0.16147215  0.16686357  1
  Ti4+  Ti10  1  0.50100476  0.17202184  0.50421558  1
  Ti4+  Ti11  1  0.49892355  0.16751953  0.83249664  1
  Ti4+  Ti12  1  0.50297178  0.49850760  0.16509962  1
  Ti4+  Ti13  1  0.50055759  0.49926061  0.49941283  1
  Ti4+  Ti14  1  0.49864959  0.50109869  0.83408593  1
  Ti4+  Ti15  1  0.50616210  0.82940022  0.16250758  1
  Ti4+  Ti16  1  0.49527432  0.83517920  0.49914864  1
  Ti4+  Ti17  1  0.49768608  0.83282719  0.83114952  1
  Ti4+  Ti18  1  0.83235302  0.16715446  0.16131247  1
  Ti4+  Ti19  1  0.83396075  0.16464121  0.50179254  1
  Ti4+  Ti20  1  0.83354823  0.16527303  0.83160115  1
  Ti4+  Ti21  1  0.83553097  0.50053539  0.16704198  1
  Ti4+  Ti22  1  0.83310299  0.49899194  0.50057551  1
  Ti4+  Ti23  1  0.83308025  0.49994589  0.83426665  1
  Ti4+  Ti24  1  0.83160151  0.83578360  0.16661732  1
  Ti4+  Ti25  1  0.82752785  0.83355914  0.50060184  1
  Ti4+  Ti26  1  0.83501854  0.83285596  0.83293875  1
  Cu+  Cu27  1  0.16951875  0.16345059  0.00186998  1
  Cu+  Cu28  1  0.16466968  0.17143822  0.33133601  1
  Cu+  Cu29  1  0.16715243  0.17076151  0.66238403  1
  Cu+  Cu30  1  0.16646086  0.49981555  -0.00053340  1
  Cu+  Cu31  1  0.17060567  0.50000444  0.33324473  1
  Cu+  Cu32  1  0.16243821  0.49856377  0.66868094  1
  Cu+  Cu33  1  0.16601445  0.83552544  0.00369734  1
  Cu+  Cu34  1  0.16800169  0.83063785  0.33509041  1
  Cu+  Cu35  1  0.16393616  0.83319854  0.66705127  1
  Cu+  Cu36  1  0.49630321  0.16238034  -0.00167042  1
  Cu+  Cu37  1  0.49911720  0.16427191  0.33883621  1
  Cu+  Cu38  1  0.50284321  0.17633235  0.66712458  1
  Cu+  Cu39  1  0.49649378  0.50222077  0.00026931  1
  Cu+  Cu40  1  0.50444237  0.49697877  0.33180202  1
  Cu+  Cu41  1  0.49697169  0.50177726  0.66976310  1
  Cu+  Cu42  1  0.50453891  0.82558324  -0.00208366  1
  Cu+  Cu43  1  0.50582213  0.83171279  0.33024823  1
  Cu+  Cu44  1  0.48805250  0.83729079  0.66571020  1
  Cu+  Cu45  1  0.83530382  0.16902598  -0.00466190  1
  Cu+  Cu46  1  0.83345883  0.16924389  0.33014072  1
  Cu+  Cu47  1  0.83704058  0.15922158  0.66884383  1
  Cu+  Cu48  1  0.83544784  0.50162637  0.00066792  1
  Cu+  Cu49  1  0.83639936  0.49913954  0.33428840  1
  Cu+  Cu50  1  0.83188251  0.50002093  0.66875018  1
  Cu+  Cu51  1  0.83591907  0.83900565  -0.00186016  1
  Cu+  Cu52  1  0.82794638  0.83136510  0.33449501  1
  Cu+  Cu53  1  0.82970378  0.83423938  0.66826546  1
  Cu+  Cu54  1  0.16604545  -0.00034504  0.16692430  1
  Cu+  Cu55  1  0.16791915  -0.00109254  0.49693616  1
  Cu+  Cu56  1  0.16750892  -0.00033927  0.83282239  1
  Cu+  Cu57  1  0.16592684  0.33325235  0.16724602  1
  Cu+  Cu58  1  0.17169502  0.33831914  0.50222816  1
  Cu+  Cu59  1  0.16672963  0.33165397  0.83332422  1
  Cu+  Cu60  1  0.17064800  0.66722927  0.16992398  1
  Cu+  Cu61  1  0.16548761  0.66605908  0.49955344  1
  Cu+  Cu62  1  0.16477088  0.66783272  0.83538524  1
  Cu+  Cu63  1  0.50989226  -0.00116856  0.16159278  1
  Cu+  Cu64  1  0.50116866  0.00337943  0.50268445  1
  Cu+  Cu65  1  0.49145282  -0.00027679  0.83018041  1
  Cu+  Cu66  1  0.49920835  0.32849134  0.16944795  1
  Cu+  Cu67  1  0.50654882  0.33654827  0.50110615  1
  Cu+  Cu68  1  0.49908145  0.33639993  0.83454887  1
  Cu+  Cu69  1  0.50285174  0.66196475  0.15761882  1
  Cu+  Cu70  1  0.49365967  0.66833864  0.49866267  1
  Cu+  Cu71  1  0.49931166  0.66493346  0.83253277  1
  Cu+  Cu72  1  0.82498390  0.00195940  0.16209935  1
  Cu+  Cu73  1  0.82670535  0.00113186  0.50398141  1
  Cu+  Cu74  1  0.83876916  -0.00225380  0.82967979  1
  Cu+  Cu75  1  0.83569035  0.33386386  0.16474947  1
  Cu+  Cu76  1  0.83551703  0.33034289  0.49966658  1
  Cu+  Cu77  1  0.83265778  0.33418992  0.83297381  1
  Cu+  Cu78  1  0.83473266  0.66718770  0.16935572  1
  Cu+  Cu79  1  0.83065596  0.66398990  0.50034449  1
  Cu+  Cu80  1  0.83449729  0.66535744  0.83509598  1
  Cu+  Cu81  1  -0.00294958  0.16762004  0.16598828  1
  Cu+  Cu82  1  0.00383526  0.16464116  0.50220972  1
  Cu+  Cu83  1  0.00069906  0.16502685  0.82821462  1
  Cu+  Cu84  1  0.00147001  0.50126703  0.16817405  1
  Cu+  Cu85  1  0.00059235  0.49842346  0.50261793  1
  Cu+  Cu86  1  -0.00214375  0.50017962  0.83391193  1
  Cu+  Cu87  1  0.00469372  0.83671489  0.16583720  1
  Cu+  Cu88  1  -0.00482015  0.83421322  0.49840214  1
  Cu+  Cu89  1  -0.00106750  0.83545669  0.83935922  1
  Cu+  Cu90  1  0.32890799  0.16310960  0.16575788  1
  Cu+  Cu91  1  0.33147164  0.17792026  0.50454536  1
  Cu+  Cu92  1  0.33720743  0.16330035  0.83592442  1
  Cu+  Cu93  1  0.33768814  0.50199944  0.16511172  1
  Cu+  Cu94  1  0.33190464  0.49684130  0.49570678  1
  Cu+  Cu95  1  0.32984649  0.49987175  0.83411389  1
  Cu+  Cu96  1  0.33710836  0.83187936  0.16883869  1
  Cu+  Cu97  1  0.33234834  0.82866518  0.50280341  1
  Cu+  Cu98  1  0.33112114  0.83661793  0.83122947  1
  Cu+  Cu99  1  0.66926018  0.16015430  0.16546299  1
  Cu+  Cu100  1  0.66480295  0.16926879  0.50471130  1
  Cu+  Cu101  1  0.66513158  0.16641115  0.83378385  1
  Cu+  Cu102  1  0.67056148  0.49918918  0.16846310  1
  Cu+  Cu103  1  0.66793827  0.49661602  0.49731847  1
  Cu+  Cu104  1  0.66574771  0.50122376  0.83516104  1
  Cu+  Cu105  1  0.66825683  0.83195425  0.16545878  1
  Cu+  Cu106  1  0.65645621  0.83277233  0.49933555  1
  Cu+  Cu107  1  0.66950749  0.83319665  0.82952115  1
  Cu+  Cu108  1  0.73991619  0.92333891  0.06848536  1
  Cu+  Cu109  1  0.74198420  0.92495216  0.74304338  1
  Cu+  Cu110  1  0.07792999  0.92845027  0.07566041  1
  Cu+  Cu111  1  0.74515213  0.73489582  0.26014855  1
  Cu+  Cu112  1  0.58392345  0.92169408  0.59602698  1
  Cu+  Cu113  1  0.40299216  0.73529956  0.59529560  1
  Cu+  Cu114  1  0.58467620  0.73660243  0.40948892  1
  Cu+  Cu115  1  0.25614408  0.06988253  0.07618433  1
  Cu+  Cu116  1  0.93183923  0.06894578  0.74049719  1
  Cu+  Cu117  1  0.73758156  0.08033452  0.59667857  1
  Cu+  Cu118  1  0.59188607  0.92378262  0.25837647  1
  Cu+  Cu119  1  0.74856863  0.07744051  0.26141233  1
  Cu+  Cu120  1  0.59919665  0.40687865  0.40239286  1
  Cu+  Cu121  1  0.08404609  0.06948494  0.58853951  1
  Cu+  Cu122  1  0.25941044  0.26622942  0.59897264  1
  Cu+  Cu123  1  0.92745918  0.93007782  0.92757121  1
  Cu+  Cu124  1  0.59170337  0.07696814  0.41444784  1
  Cu+  Cu125  1  0.59954279  0.26818568  0.59821210  1
  Cu+  Cu126  1  0.25901000  0.40763121  0.40139766  1
  Cu+  Cu127  1  0.59522049  0.08159887  0.06584463  1
  Cu+  Cu128  1  0.06902457  0.41122743  0.59749585  1
  Cu+  Cu129  1  0.40288611  0.59204836  0.06978079  1
  Cu+  Cu130  1  0.39843032  0.93251158  0.73778811  1
  Cu+  Cu131  1  0.40782751  0.06823121  0.92731227  1
  Cu+  Cu132  1  0.59953372  0.73278414  0.06649864  1
  Te2-  Te133  1  0.25163213  0.25322475  0.08155479  1
  Te2-  Te134  1  0.25401459  0.25564315  0.40905737  1
  Te2-  Te135  1  0.25532033  0.25151183  0.75038333  1
  Te2-  Te136  1  0.25194823  0.58714492  0.07937570  1
  Te2-  Te137  1  0.25313416  0.58778410  0.41492382  1
  Te2-  Te138  1  0.24841561  0.58558449  0.74872724  1
  Te2-  Te139  1  0.25794492  0.91783718  0.08206558  1
  Te2-  Te140  1  0.25370080  0.91617327  0.41546643  1
  Te2-  Te141  1  0.24957126  0.92143290  0.74409852  1
  Te2-  Te142  1  0.58392762  0.24718616  0.08156920  1
  Te2-  Te143  1  0.58845027  0.25366707  0.41226327  1
  Te2-  Te144  1  0.58838754  0.25730863  0.75146222  1
  Te2-  Te145  1  0.59342374  0.58112094  0.07679352  1
  Te2-  Te146  1  0.58616405  0.58603854  0.41433775  1
  Te2-  Te147  1  0.58514387  0.58559254  0.74800856  1
  Te2-  Te148  1  0.58955145  0.91925540  0.07049294  1
  Te2-  Te149  1  0.58648080  0.92469051  0.41181582  1
  Te2-  Te150  1  0.58448845  0.92143536  0.74714867  1
  Te2-  Te151  1  0.91912513  0.25261834  0.07807937  1
  Te2-  Te152  1  0.91959384  0.24754701  0.41571766  1
  Te2-  Te153  1  0.91771473  0.25285804  0.74703892  1
  Te2-  Te154  1  0.92035422  0.58732225  0.08288184  1
  Te2-  Te155  1  0.91959216  0.58436844  0.41703834  1
  Te2-  Te156  1  0.91832085  0.58562081  0.74793420  1
  Te2-  Te157  1  0.92132844  0.92445076  0.08239111  1
  Te2-  Te158  1  0.91103650  0.91951844  0.41597052  1
  Te2-  Te159  1  0.92478032  0.91587494  0.74234302  1
  Te2-  Te160  1  0.24916216  0.08090489  0.25548898  1
  Te2-  Te161  1  0.25289784  0.08268238  0.58260504  1
  Te2-  Te162  1  0.25452592  0.07595460  0.91985105  1
  Te2-  Te163  1  0.25682652  0.41334026  0.24929139  1
  Te2-  Te164  1  0.25727006  0.41765645  0.59261310  1
  Te2-  Te165  1  0.25060079  0.41325772  0.91927786  1
  Te2-  Te166  1  0.25604211  0.74812871  0.25421451  1
  Te2-  Te167  1  0.24927731  0.74467965  0.58881629  1
  Te2-  Te168  1  0.25062713  0.75091133  0.91947837  1
  Te2-  Te169  1  0.58962126  0.07788152  0.25873341  1
  Te2-  Te170  1  0.58544110  0.08037000  0.59453503  1
  Te2-  Te171  1  0.58521412  0.07644765  0.91436045  1
  Te2-  Te172  1  0.58959804  0.40985008  0.24995289  1
  Te2-  Te173  1  0.58762704  0.41891807  0.59134512  1
  Te2-  Te174  1  0.58373668  0.41670862  0.92041986  1
  Te2-  Te175  1  0.58948026  0.73861000  0.25177310  1
  Te2-  Te176  1  0.57822721  0.74817990  0.58931917  1
  Te2-  Te177  1  0.58919622  0.74546874  0.91250303  1
  Te2-  Te178  1  0.91569234  0.07954510  0.24864384  1
  Te2-  Te179  1  0.92366287  0.07493266  0.58562023  1
  Te2-  Te180  1  0.92229028  0.08173254  0.91917524  1
  Te2-  Te181  1  0.92031942  0.41404941  0.25182552  1
  Te2-  Te182  1  0.91666216  0.41223097  0.58853782  1
  Te2-  Te183  1  0.91836900  0.41376233  0.91943753  1
  Te2-  Te184  1  0.91987401  0.75336924  0.25169577  1
  Te2-  Te185  1  0.91340629  0.74952188  0.58428104  1
  Te2-  Te186  1  0.91838930  0.74686447  0.92133177  1
  Te2-  Te187  1  0.07792827  0.25350038  0.25054791  1
  Te2-  Te188  1  0.07889779  0.25810019  0.58529419  1
  Te2-  Te189  1  0.08285547  0.24704279  0.91759709  1
  Te2-  Te190  1  0.08420661  0.58537156  0.25354484  1
  Te2-  Te191  1  0.08073072  0.58652008  0.58634337  1
  Te2-  Te192  1  0.07982013  0.58501894  0.91947272  1
  Te2-  Te193  1  0.08331907  0.91885914  0.25639389  1
  Te2-  Te194  1  0.07839982  0.91783970  0.58475001  1
  Te2-  Te195  1  0.08087207  0.92475329  0.92192530  1
  Te2-  Te196  1  0.41408982  0.24523517  0.25235708  1
  Te2-  Te197  1  0.41531242  0.26161070  0.58871401  1
  Te2-  Te198  1  0.41534442  0.25351549  0.91917315  1
  Te2-  Te199  1  0.42015826  0.58549996  0.25223722  1
  Te2-  Te200  1  0.41113104  0.58288831  0.58449256  1
  Te2-  Te201  1  0.41017272  0.58828105  0.91785164  1
  Te2-  Te202  1  0.42214731  0.91804186  0.24798322  1
  Te2-  Te203  1  0.40669341  0.92618089  0.58226097  1
  Te2-  Te204  1  0.41352597  0.91460673  0.92333424  1
  Te2-  Te205  1  0.74728674  0.25311546  0.24745825  1
  Te2-  Te206  1  0.75165218  0.25290278  0.59080533  1
  Te2-  Te207  1  0.74767999  0.25127042  0.91617163  1
  Te2-  Te208  1  0.74827680  0.58418335  0.25611502  1
  Te2-  Te209  1  0.74608184  0.58279905  0.58523981  1
  Te2-  Te210  1  0.74833946  0.58582677  0.92010716  1
  Te2-  Te211  1  0.74433565  0.92294314  0.25720348  1
  Te2-  Te212  1  0.73894529  0.92077587  0.58899318  1
  Te2-  Te213  1  0.74559437  0.92240647  0.91608160  1
  Te2-  Te214  1  0.07710226  0.08159718  0.08008025  1
  Te2-  Te215  1  0.08346638  0.08321282  0.41246386  1
  Te2-  Te216  1  0.08342817  0.07803760  0.74308923  1
  Te2-  Te217  1  0.08209251  0.41596005  0.08238872  1
  Te2-  Te218  1  0.08264654  0.41524593  0.41408354  1
  Te2-  Te219  1  0.07736565  0.41096312  0.75038687  1
  Te2-  Te220  1  0.08352054  0.74633450  0.08409732  1
  Te2-  Te221  1  0.07937929  0.74823163  0.41602506  1
  Te2-  Te222  1  0.07900469  0.75036200  0.75133048  1
  Te2-  Te223  1  0.41151227  0.07402547  0.08155353  1
  Te2-  Te224  1  0.41096132  0.08605922  0.42273898  1
  Te2-  Te225  1  0.41296862  0.08537430  0.73958000  1
  Te2-  Te226  1  0.41688569  0.41091152  0.08233284  1
  Te2-  Te227  1  0.41624708  0.41183219  0.41214461  1
  Te2-  Te228  1  0.41235872  0.41549672  0.74948993  1
  Te2-  Te229  1  0.41292976  0.74710925  0.07867292  1
  Te2-  Te230  1  0.41274577  0.75029967  0.40813180  1
  Te2-  Te231  1  0.40990517  0.74435624  0.74917565  1
  Te2-  Te232  1  0.74624691  0.08005565  0.06780086  1
  Te2-  Te233  1  0.74512246  0.08108699  0.41331905  1
  Te2-  Te234  1  0.74155859  0.07757765  0.74803693  1
  Te2-  Te235  1  0.75025605  0.41543660  0.08093281  1
  Te2-  Te236  1  0.75084952  0.41011656  0.41211082  1
  Te2-  Te237  1  0.74609584  0.41515297  0.74942020  1
  Te2-  Te238  1  0.75166608  0.74645576  0.07611100  1
  Te2-  Te239  1  0.74127862  0.74397609  0.41574990  1
  Te2-  Te240  1  0.74934238  0.74424439  0.74813607  1
