# generated using pymatgen
data_Ti27(Cu53Te54)2
_symmetry_space_group_name_H-M   'P 1'
_cell_length_a   17.87688250
_cell_length_b   17.87961286
_cell_length_c   17.88073330
_cell_angle_alpha   90.01925818
_cell_angle_beta   89.99520793
_cell_angle_gamma   90.00008369
_symmetry_Int_Tables_number   1
_chemical_formula_structural   Ti27(Cu53Te54)2
_chemical_formula_sum   'Ti27 Cu106 Te108'
_cell_volume   5715.24952176
_cell_formula_units_Z   1
loop_
 _symmetry_equiv_pos_site_id
 _symmetry_equiv_pos_as_xyz
  1  'x, y, z'
loop_
 _atom_type_symbol
 _atom_type_oxidation_number
  Ti4+  4.0
  Cu+  1.0
  Te2-  -2.0
loop_
 _atom_site_type_symbol
 _atom_site_label
 _atom_site_symmetry_multiplicity
 _atom_site_fract_x
 _atom_site_fract_y
 _atom_site_fract_z
 _atom_site_occupancy
  Ti4+  Ti0  1  0.16384552  0.16901485  0.16725166  1
  Ti4+  Ti1  1  0.16555245  0.16316266  0.49955942  1
  Ti4+  Ti2  1  0.16644120  0.16762232  0.83288151  1
  Ti4+  Ti3  1  0.16463080  0.49858891  0.17145480  1
  Ti4+  Ti4  1  0.16360560  0.49984133  0.50296141  1
  Ti4+  Ti5  1  0.17115953  0.50022974  0.83277465  1
  Ti4+  Ti6  1  0.16663477  0.83327155  0.15925310  1
  Ti4+  Ti7  1  0.16869203  0.83024108  0.49861790  1
  Ti4+  Ti8  1  0.16722154  0.83147510  0.83448354  1
  Ti4+  Ti9  1  0.50128489  0.16721289  0.16421816  1
  Ti4+  Ti10  1  0.49979360  0.16506590  0.49719320  1
  Ti4+  Ti11  1  0.49776761  0.16560012  0.83400730  1
  Ti4+  Ti12  1  0.50262173  0.50224267  0.16684695  1
  Ti4+  Ti13  1  0.49832302  0.49839632  0.49876486  1
  Ti4+  Ti14  1  0.50298947  0.50045939  0.83369284  1
  Ti4+  Ti15  1  0.50032570  0.83372264  0.16649343  1
  Ti4+  Ti16  1  0.49820088  0.83403927  0.50121169  1
  Ti4+  Ti17  1  0.49780940  0.83318077  0.83503301  1
  Ti4+  Ti18  1  0.83515417  0.16475467  0.16569799  1
  Ti4+  Ti19  1  0.83306692  0.16829762  0.50102533  1
  Ti4+  Ti20  1  0.83061075  0.16769336  0.83375259  1
  Ti4+  Ti21  1  0.83839254  0.49936317  0.16475468  1
  Ti4+  Ti22  1  0.83102228  0.50371976  0.49991103  1
  Ti4+  Ti23  1  0.83698097  0.49850269  0.83379197  1
  Ti4+  Ti24  1  0.83511115  0.83422377  0.16708319  1
  Ti4+  Ti25  1  0.83398208  0.83525254  0.50172241  1
  Ti4+  Ti26  1  0.83231516  0.83353857  0.83361604  1
  Cu+  Cu27  1  0.16610273  0.17133525  -0.00031860  1
  Cu+  Cu28  1  0.16538075  0.16359334  0.33342032  1
  Cu+  Cu29  1  0.16614437  0.16463267  0.66715036  1
  Cu+  Cu30  1  0.17031039  0.50145079  0.00002907  1
  Cu+  Cu31  1  0.16254821  0.49679266  0.34142120  1
  Cu+  Cu32  1  0.16833526  0.50045985  0.66751634  1
  Cu+  Cu33  1  0.16608737  0.84214135  -0.00303571  1
  Cu+  Cu34  1  0.16902095  0.82921932  0.32513091  1
  Cu+  Cu35  1  0.16981382  0.82359429  0.66529904  1
  Cu+  Cu36  1  0.50571572  0.16495165  0.00010575  1
  Cu+  Cu37  1  0.50091001  0.16687038  0.33058262  1
  Cu+  Cu38  1  0.49636907  0.16082567  0.66308274  1
  Cu+  Cu39  1  0.50333836  0.50245885  0.00408830  1
  Cu+  Cu40  1  0.49815842  0.49725762  0.33033727  1
  Cu+  Cu41  1  0.50356501  0.50155941  0.66450214  1
  Cu+  Cu42  1  0.49348321  0.83266909  0.00160296  1
  Cu+  Cu43  1  0.49877826  0.83618330  0.33521752  1
  Cu+  Cu44  1  0.49703937  0.83624825  0.67039665  1
  Cu+  Cu45  1  0.83137016  0.16490267  -0.00213614  1
  Cu+  Cu46  1  0.83740039  0.16510346  0.33454493  1
  Cu+  Cu47  1  0.83027044  0.16944589  0.66801118  1
  Cu+  Cu48  1  0.84083458  0.49180030  -0.00038381  1
  Cu+  Cu49  1  0.83244461  0.50265470  0.33492650  1
  Cu+  Cu50  1  0.83228254  0.50427355  0.66830862  1
  Cu+  Cu51  1  0.83372024  0.83184926  -0.00092678  1
  Cu+  Cu52  1  0.83555276  0.83572882  0.33576396  1
  Cu+  Cu53  1  0.83221469  0.83471447  0.66795093  1
  Cu+  Cu54  1  0.16317379  0.00281780  0.15983191  1
  Cu+  Cu55  1  0.16854868  -0.00469918  0.49776409  1
  Cu+  Cu56  1  0.16679077  0.00126019  0.83550497  1
  Cu+  Cu57  1  0.16190694  0.33596728  0.17406742  1
  Cu+  Cu58  1  0.16679584  0.32911610  0.50092853  1
  Cu+  Cu59  1  0.17075131  0.33309681  0.83540492  1
  Cu+  Cu60  1  0.16056200  0.66676264  0.16645479  1
  Cu+  Cu61  1  0.15952965  0.66594174  0.50413467  1
  Cu+  Cu62  1  0.17435444  0.66771626  0.82943435  1
  Cu+  Cu63  1  0.50202590  0.00220447  0.16187995  1
  Cu+  Cu64  1  0.49399597  0.00155095  0.50043943  1
  Cu+  Cu65  1  0.49558282  -0.00161213  0.82798787  1
  Cu+  Cu66  1  0.50004179  0.33705687  0.16631244  1
  Cu+  Cu67  1  0.50002622  0.32997461  0.49703597  1
  Cu+  Cu68  1  0.50300763  0.33119417  0.83459827  1
  Cu+  Cu69  1  0.50527874  0.66604273  0.16868478  1
  Cu+  Cu70  1  0.50037519  0.66518177  0.50292990  1
  Cu+  Cu71  1  0.49886966  0.66840047  0.83830796  1
  Cu+  Cu72  1  0.83260042  -0.00136760  0.16866734  1
  Cu+  Cu73  1  0.83702070  0.00192372  0.50024326  1
  Cu+  Cu74  1  0.82984321  0.00049328  0.83296313  1
  Cu+  Cu75  1  0.84077449  0.32984661  0.16506085  1
  Cu+  Cu76  1  0.82949975  0.33811140  0.50090926  1
  Cu+  Cu77  1  0.83122785  0.33538867  0.83751251  1
  Cu+  Cu78  1  0.84014221  0.66911079  0.16330517  1
  Cu+  Cu79  1  0.83231239  0.67139777  0.50031894  1
  Cu+  Cu80  1  0.83176754  0.66364568  0.83253762  1
  Cu+  Cu81  1  -0.00315143  0.17069911  0.17129321  1
  Cu+  Cu82  1  -0.00135675  0.16342889  0.49629678  1
  Cu+  Cu83  1  -0.00132866  0.16669444  0.83170705  1
  Cu+  Cu84  1  0.00308888  0.49472663  0.16424054  1
  Cu+  Cu85  1  -0.00312952  0.50588022  0.50016975  1
  Cu+  Cu86  1  0.00464426  0.50046876  0.83304981  1
  Cu+  Cu87  1  -0.00060859  0.83039577  0.15878434  1
  Cu+  Cu88  1  0.00158254  0.83041616  0.50330762  1
  Cu+  Cu89  1  -0.00280088  0.83324510  0.83215465  1
  Cu+  Cu90  1  0.32945537  0.16834539  0.16551494  1
  Cu+  Cu91  1  0.33386191  0.16264519  0.50105710  1
  Cu+  Cu92  1  0.32869324  0.17116836  0.83682839  1
  Cu+  Cu93  1  0.33753310  0.49887906  0.17324583  1
  Cu+  Cu94  1  0.32930885  0.49743933  0.49721052  1
  Cu+  Cu95  1  0.33797229  0.49927102  0.83125966  1
  Cu+  Cu96  1  0.33631904  0.83682102  0.16039056  1
  Cu+  Cu97  1  0.33481442  0.83529041  0.49421517  1
  Cu+  Cu98  1  0.33213914  0.82961488  0.83545528  1
  Cu+  Cu99  1  0.66774251  0.16462391  0.16163147  1
  Cu+  Cu100  1  0.66641370  0.16739784  0.49906789  1
  Cu+  Cu101  1  0.66290209  0.16886603  0.83502414  1
  Cu+  Cu102  1  0.66902262  0.50186563  0.16594277  1
  Cu+  Cu103  1  0.66248041  0.50288057  0.50177616  1
  Cu+  Cu104  1  0.67335730  0.50069419  0.83290317  1
  Cu+  Cu105  1  0.66866621  0.83400529  0.16914640  1
  Cu+  Cu106  1  0.66707354  0.83509816  0.50337080  1
  Cu+  Cu107  1  0.66528228  0.83238375  0.83641417  1
  Cu+  Cu108  1  0.92124468  0.26070736  0.26654197  1
  Cu+  Cu109  1  0.07123866  0.40758149  0.26885800  1
  Cu+  Cu110  1  0.40182031  0.92383411  0.74185344  1
  Cu+  Cu111  1  0.93296121  0.39865856  0.06932912  1
  Cu+  Cu112  1  0.92309798  0.74058878  0.06597790  1
  Cu+  Cu113  1  0.58961922  0.59608546  0.59247185  1
  Cu+  Cu114  1  0.92751563  0.06972729  0.40575490  1
  Cu+  Cu115  1  0.07926016  0.58794001  0.06833010  1
  Cu+  Cu116  1  0.59804085  0.06858540  0.07052855  1
  Cu+  Cu117  1  0.40780589  0.92909627  0.40265928  1
  Cu+  Cu118  1  0.74099477  0.41151217  0.92990525  1
  Cu+  Cu119  1  0.07004342  0.59456696  0.41002088  1
  Cu+  Cu120  1  0.07097939  0.74768452  0.25565398  1
  Cu+  Cu121  1  0.06763814  0.93392855  0.07292674  1
  Cu+  Cu122  1  0.25964180  0.93019077  0.92141580  1
  Cu+  Cu123  1  0.25774462  0.40059395  0.41410750  1
  Cu+  Cu124  1  0.40259858  0.07413651  0.59361456  1
  Cu+  Cu125  1  0.25650655  0.26519407  0.93185784  1
  Cu+  Cu126  1  0.41141120  0.93247692  0.07421873  1
  Cu+  Cu127  1  0.59191675  0.25985582  0.92790155  1
  Cu+  Cu128  1  0.41132265  0.40329477  0.25828099  1
  Cu+  Cu129  1  0.74337857  0.59540283  0.74135871  1
  Cu+  Cu130  1  0.40501115  0.73473985  0.93180926  1
  Cu+  Cu131  1  0.26423664  0.73665255  0.73483425  1
  Cu+  Cu132  1  0.06859775  0.73961489  0.59839579  1
  Te2-  Te133  1  0.25008792  0.25845593  0.08474025  1
  Te2-  Te134  1  0.25326858  0.24738380  0.41343097  1
  Te2-  Te135  1  0.25179522  0.25251073  0.74468358  1
  Te2-  Te136  1  0.25322035  0.58307439  0.08827544  1
  Te2-  Te137  1  0.24803418  0.58790553  0.41677033  1
  Te2-  Te138  1  0.25843297  0.58393138  0.74429647  1
  Te2-  Te139  1  0.25540927  0.92553953  0.07741910  1
  Te2-  Te140  1  0.25066126  0.91682193  0.40770873  1
  Te2-  Te141  1  0.24981624  0.91863081  0.74560724  1
  Te2-  Te142  1  0.58775085  0.25747431  0.08189965  1
  Te2-  Te143  1  0.58598163  0.25073832  0.41191002  1
  Te2-  Te144  1  0.58103595  0.24766585  0.74406000  1
  Te2-  Te145  1  0.58988995  0.58790759  0.08152707  1
  Te2-  Te146  1  0.58206974  0.58455485  0.41186455  1
  Te2-  Te147  1  0.58766429  0.59013124  0.74946053  1
  Te2-  Te148  1  0.58874718  0.91585994  0.07779916  1
  Te2-  Te149  1  0.58438092  0.92026668  0.41844678  1
  Te2-  Te150  1  0.58648898  0.91768416  0.74973849  1
  Te2-  Te151  1  0.92178098  0.24828525  0.07446549  1
  Te2-  Te152  1  0.91920421  0.25818508  0.41752335  1
  Te2-  Te153  1  0.91583709  0.25381822  0.74981284  1
  Te2-  Te154  1  0.92483721  0.58608319  0.07599784  1
  Te2-  Te155  1  0.91628212  0.59131040  0.41307599  1
  Te2-  Te156  1  0.92256688  0.58559686  0.74871248  1
  Te2-  Te157  1  0.91745567  0.92290125  0.07768494  1
  Te2-  Te158  1  0.92405656  0.91773715  0.41565127  1
  Te2-  Te159  1  0.91689941  0.91980764  0.74874251  1
  Te2-  Te160  1  0.24884580  0.08050133  0.24851058  1
  Te2-  Te161  1  0.24989055  0.07663862  0.58647036  1
  Te2-  Te162  1  0.25255250  0.08211773  0.92268695  1
  Te2-  Te163  1  0.25351232  0.41262490  0.25847342  1
  Te2-  Te164  1  0.25076256  0.41269132  0.58640880  1
  Te2-  Te165  1  0.25778518  0.41677870  0.92080005  1
  Te2-  Te166  1  0.25532801  0.74788343  0.24295879  1
  Te2-  Te167  1  0.25867085  0.74322742  0.58018930  1
  Te2-  Te168  1  0.25151732  0.74505324  0.92553286  1
  Te2-  Te169  1  0.58630097  0.08150338  0.25006719  1
  Te2-  Te170  1  0.58624685  0.07936661  0.58282607  1
  Te2-  Te171  1  0.58515814  0.07469940  0.91576061  1
  Te2-  Te172  1  0.58973288  0.41514818  0.25149339  1
  Te2-  Te173  1  0.58410484  0.41124319  0.58319175  1
  Te2-  Te174  1  0.58808947  0.41537685  0.92210441  1
  Te2-  Te175  1  0.58522223  0.75156588  0.25414243  1
  Te2-  Te176  1  0.58425685  0.75089871  0.58953278  1
  Te2-  Te177  1  0.58431019  0.74967744  0.92257949  1
  Te2-  Te178  1  0.92163958  0.07617116  0.25179717  1
  Te2-  Te179  1  0.91822672  0.08428321  0.58913743  1
  Te2-  Te180  1  0.91718071  0.08122676  0.91656380  1
  Te2-  Te181  1  0.92001859  0.41432525  0.25854892  1
  Te2-  Te182  1  0.91613884  0.41909015  0.58543851  1
  Te2-  Te183  1  0.92835688  0.40995263  0.91634608  1
  Te2-  Te184  1  0.92028192  0.74820034  0.25538855  1
  Te2-  Te185  1  0.91745200  0.74676112  0.58961270  1
  Te2-  Te186  1  0.91945833  0.74416773  0.91589095  1
  Te2-  Te187  1  0.07793000  0.25311070  0.25971966  1
  Te2-  Te188  1  0.07999972  0.24790493  0.58437828  1
  Te2-  Te189  1  0.07906028  0.25358979  0.91672261  1
  Te2-  Te190  1  0.07584403  0.58677124  0.25698998  1
  Te2-  Te191  1  0.07706563  0.58474935  0.59289574  1
  Te2-  Te192  1  0.08501064  0.58859216  0.91583750  1
  Te2-  Te193  1  0.08118544  0.91774114  0.24683417  1
  Te2-  Te194  1  0.08606603  0.91505026  0.58684037  1
  Te2-  Te195  1  0.07559500  0.92113521  0.91593530  1
  Te2-  Te196  1  0.41340669  0.25123194  0.25083903  1
  Te2-  Te197  1  0.41418903  0.25142688  0.58365712  1
  Te2-  Te198  1  0.41434024  0.25309363  0.92259333  1
  Te2-  Te199  1  0.41679102  0.58938324  0.25352383  1
  Te2-  Te200  1  0.41081058  0.58234238  0.58427145  1
  Te2-  Te201  1  0.41474709  0.58279002  0.92157415  1
  Te2-  Te202  1  0.41388487  0.92262689  0.25016913  1
  Te2-  Te203  1  0.40762997  0.92021147  0.58913451  1
  Te2-  Te204  1  0.41098814  0.92491543  0.92144807  1
  Te2-  Te205  1  0.74993057  0.24987390  0.25027781  1
  Te2-  Te206  1  0.74609064  0.25363238  0.58479906  1
  Te2-  Te207  1  0.74445410  0.25450368  0.92389751  1
  Te2-  Te208  1  0.75389293  0.58686222  0.24731622  1
  Te2-  Te209  1  0.74463046  0.59175498  0.58677266  1
  Te2-  Te210  1  0.75250650  0.58277748  0.92497469  1
  Te2-  Te211  1  0.74929314  0.91855997  0.25410257  1
  Te2-  Te212  1  0.74952073  0.92190838  0.58604793  1
  Te2-  Te213  1  0.74735823  0.91779747  0.91981110  1
  Te2-  Te214  1  0.07626850  0.08753903  0.07841057  1
  Te2-  Te215  1  0.08149841  0.07553618  0.41249204  1
  Te2-  Te216  1  0.08104585  0.08030026  0.74881446  1
  Te2-  Te217  1  0.08517261  0.41079711  0.07676504  1
  Te2-  Te218  1  0.07374024  0.40938666  0.42106009  1
  Te2-  Te219  1  0.08590528  0.41412014  0.74939851  1
  Te2-  Te220  1  0.08077239  0.74451198  0.06960191  1
  Te2-  Te221  1  0.07855216  0.74743062  0.40950608  1
  Te2-  Te222  1  0.07849981  0.74487977  0.75047210  1
  Te2-  Te223  1  0.41068199  0.08500072  0.07796050  1
  Te2-  Te224  1  0.41141518  0.08134841  0.40742116  1
  Te2-  Te225  1  0.40591558  0.08136725  0.74844047  1
  Te2-  Te226  1  0.41436777  0.41704686  0.08050929  1
  Te2-  Te227  1  0.41207312  0.40905654  0.41207084  1
  Te2-  Te228  1  0.42039213  0.41440463  0.74752189  1
  Te2-  Te229  1  0.41432797  0.74145632  0.08399701  1
  Te2-  Te230  1  0.41686858  0.74530120  0.41495597  1
  Te2-  Te231  1  0.41480343  0.74389479  0.74630170  1
  Te2-  Te232  1  0.75001275  0.07705047  0.07845363  1
  Te2-  Te233  1  0.74861227  0.08168240  0.41457338  1
  Te2-  Te234  1  0.74460937  0.08340307  0.74882768  1
  Te2-  Te235  1  0.74891732  0.41124465  0.08437488  1
  Te2-  Te236  1  0.74510175  0.41920497  0.41503989  1
  Te2-  Te237  1  0.74998055  0.41321834  0.74590042  1
  Te2-  Te238  1  0.74797134  0.74816187  0.08241237  1
  Te2-  Te239  1  0.74744850  0.75184420  0.41531987  1
  Te2-  Te240  1  0.74475558  0.74855510  0.74771440  1
