# generated using pymatgen
data_Ti27(Cu53Te54)2
_symmetry_space_group_name_H-M   'P 1'
_cell_length_a   17.88817136
_cell_length_b   17.89442058
_cell_length_c   17.89335413
_cell_angle_alpha   90.00430781
_cell_angle_beta   89.95963728
_cell_angle_gamma   89.97732542
_symmetry_Int_Tables_number   1
_chemical_formula_structural   Ti27(Cu53Te54)2
_chemical_formula_sum   'Ti27 Cu106 Te108'
_cell_volume   5727.63324726
_cell_formula_units_Z   1
loop_
 _symmetry_equiv_pos_site_id
 _symmetry_equiv_pos_as_xyz
  1  'x, y, z'
loop_
 _atom_type_symbol
 _atom_type_oxidation_number
  Ti4+  4.0
  Cu+  1.0
  Te2-  -2.0
loop_
 _atom_site_type_symbol
 _atom_site_label
 _atom_site_symmetry_multiplicity
 _atom_site_fract_x
 _atom_site_fract_y
 _atom_site_fract_z
 _atom_site_occupancy
  Ti4+  Ti0  1  0.16679677  0.16676830  0.16225123  1
  Ti4+  Ti1  1  0.16566073  0.16552364  0.49642631  1
  Ti4+  Ti2  1  0.16827325  0.16489567  0.83574387  1
  Ti4+  Ti3  1  0.16445249  0.49731826  0.16589767  1
  Ti4+  Ti4  1  0.16666935  0.50054925  0.50150954  1
  Ti4+  Ti5  1  0.17005338  0.50107883  0.83340591  1
  Ti4+  Ti6  1  0.16652839  0.82823128  0.16701301  1
  Ti4+  Ti7  1  0.16793445  0.83552285  0.49858722  1
  Ti4+  Ti8  1  0.16720872  0.83445023  0.83294024  1
  Ti4+  Ti9  1  0.50175789  0.16375211  0.16837892  1
  Ti4+  Ti10  1  0.49565548  0.17148349  0.49916116  1
  Ti4+  Ti11  1  0.50102296  0.16241669  0.83292170  1
  Ti4+  Ti12  1  0.49815463  0.49993242  0.16782995  1
  Ti4+  Ti13  1  0.49670412  0.49720087  0.50236313  1
  Ti4+  Ti14  1  0.49805822  0.49955503  0.83408871  1
  Ti4+  Ti15  1  0.49807222  0.83661237  0.16794389  1
  Ti4+  Ti16  1  0.50448550  0.83405744  0.49770521  1
  Ti4+  Ti17  1  0.50085754  0.83352197  0.83480214  1
  Ti4+  Ti18  1  0.83331961  0.16865670  0.16574379  1
  Ti4+  Ti19  1  0.83045037  0.17086575  0.50166109  1
  Ti4+  Ti20  1  0.83612491  0.16203593  0.83439720  1
  Ti4+  Ti21  1  0.83206323  0.50160323  0.16575833  1
  Ti4+  Ti22  1  0.83289776  0.50110839  0.49837331  1
  Ti4+  Ti23  1  0.83302416  0.49933174  0.83437108  1
  Ti4+  Ti24  1  0.83470138  0.83353261  0.16416112  1
  Ti4+  Ti25  1  0.83515177  0.83488577  0.49720901  1
  Ti4+  Ti26  1  0.83336716  0.82982910  0.83177380  1
  Cu+  Cu27  1  0.17049227  0.16910912  -0.00202733  1
  Cu+  Cu28  1  0.16045649  0.16496228  0.32740038  1
  Cu+  Cu29  1  0.16774116  0.15983582  0.66593537  1
  Cu+  Cu30  1  0.16620316  0.49526563  0.00005806  1
  Cu+  Cu31  1  0.16737981  0.49814640  0.33381034  1
  Cu+  Cu32  1  0.16758726  0.50574453  0.66904158  1
  Cu+  Cu33  1  0.16252850  0.83315043  0.00154227  1
  Cu+  Cu34  1  0.16949862  0.83292248  0.33207039  1
  Cu+  Cu35  1  0.16638591  0.83512392  0.66551048  1
  Cu+  Cu36  1  0.50034437  0.15839065  0.00085025  1
  Cu+  Cu37  1  0.50113226  0.16478561  0.33751038  1
  Cu+  Cu38  1  0.49807194  0.17113969  0.66794254  1
  Cu+  Cu39  1  0.49909466  0.49999133  0.00022458  1
  Cu+  Cu40  1  0.50043517  0.49754289  0.33314959  1
  Cu+  Cu41  1  0.49215518  0.49977032  0.66903142  1
  Cu+  Cu42  1  0.49948299  0.83321659  0.00303525  1
  Cu+  Cu43  1  0.49810017  0.84037186  0.33302346  1
  Cu+  Cu44  1  0.50581480  0.83454683  0.66657790  1
  Cu+  Cu45  1  0.83891737  0.16593924  -0.00135277  1
  Cu+  Cu46  1  0.83136507  0.17130256  0.33223071  1
  Cu+  Cu47  1  0.82990550  0.16751091  0.67235598  1
  Cu+  Cu48  1  0.83245135  0.49990280  0.00183805  1
  Cu+  Cu49  1  0.83351893  0.50414042  0.33044286  1
  Cu+  Cu50  1  0.83511042  0.50011717  0.66673543  1
  Cu+  Cu51  1  0.83332889  0.82887076  -0.00285709  1
  Cu+  Cu52  1  0.83781669  0.83565251  0.33190966  1
  Cu+  Cu53  1  0.83199234  0.83041508  0.66350463  1
  Cu+  Cu54  1  0.16334843  -0.00248511  0.16125942  1
  Cu+  Cu55  1  0.16460446  0.00140173  0.49699201  1
  Cu+  Cu56  1  0.16881908  0.00072817  0.83048970  1
  Cu+  Cu57  1  0.16859762  0.33420619  0.15932642  1
  Cu+  Cu58  1  0.16913005  0.33312892  0.49675511  1
  Cu+  Cu59  1  0.16992503  0.33445578  0.83710005  1
  Cu+  Cu60  1  0.16736264  0.65986513  0.17010286  1
  Cu+  Cu61  1  0.16774481  0.67011527  0.50123709  1
  Cu+  Cu62  1  0.16573932  0.67059587  0.83616767  1
  Cu+  Cu63  1  0.50642341  -0.00181189  0.17278528  1
  Cu+  Cu64  1  0.50065958  0.00232523  0.49328904  1
  Cu+  Cu65  1  0.49958256  -0.00127266  0.83739927  1
  Cu+  Cu66  1  0.50040606  0.33154955  0.16634149  1
  Cu+  Cu67  1  0.49152427  0.33333540  0.50610932  1
  Cu+  Cu68  1  0.50001885  0.33121017  0.83221165  1
  Cu+  Cu69  1  0.49517923  0.66902935  0.16754364  1
  Cu+  Cu70  1  0.50399983  0.66460185  0.49972298  1
  Cu+  Cu71  1  0.50051088  0.66689645  0.83228564  1
  Cu+  Cu72  1  0.83643107  0.00350477  0.16395131  1
  Cu+  Cu73  1  0.83469551  0.00067792  0.50074295  1
  Cu+  Cu74  1  0.83659871  -0.00478438  0.83259896  1
  Cu+  Cu75  1  0.83201455  0.33750349  0.16529281  1
  Cu+  Cu76  1  0.82807755  0.33696239  0.49821486  1
  Cu+  Cu77  1  0.83780014  0.33047842  0.83557471  1
  Cu+  Cu78  1  0.83501122  0.66640330  0.16558600  1
  Cu+  Cu79  1  0.83236934  0.66934010  0.49959499  1
  Cu+  Cu80  1  0.83010601  0.66578512  0.83484863  1
  Cu+  Cu81  1  -0.00010636  0.16618783  0.16386058  1
  Cu+  Cu82  1  -0.00157347  0.16686663  0.50021031  1
  Cu+  Cu83  1  -0.00185627  0.16748428  0.83862712  1
  Cu+  Cu84  1  -0.00254973  0.49908479  0.16587765  1
  Cu+  Cu85  1  -0.00088858  0.50241904  0.49893376  1
  Cu+  Cu86  1  0.00238555  0.49933540  0.83252940  1
  Cu+  Cu87  1  0.00206136  0.83223308  0.16003642  1
  Cu+  Cu88  1  0.00090628  0.83588101  0.49738046  1
  Cu+  Cu89  1  -0.00055079  0.83237587  0.83206234  1
  Cu+  Cu90  1  0.33517434  0.16292105  0.16645254  1
  Cu+  Cu91  1  0.32682702  0.17560377  0.49961328  1
  Cu+  Cu92  1  0.33490587  0.15792699  0.83434592  1
  Cu+  Cu93  1  0.33059645  0.49982635  0.16686042  1
  Cu+  Cu94  1  0.32870938  0.49617556  0.50328091  1
  Cu+  Cu95  1  0.33679809  0.50641076  0.83097070  1
  Cu+  Cu96  1  0.33285730  0.83126476  0.17689553  1
  Cu+  Cu97  1  0.33786507  0.83551303  0.49589198  1
  Cu+  Cu98  1  0.33235495  0.83410654  0.83382259  1
  Cu+  Cu99  1  0.66813828  0.16607074  0.16535462  1
  Cu+  Cu100  1  0.66509574  0.17527298  0.49564402  1
  Cu+  Cu101  1  0.67201628  0.16297310  0.83126113  1
  Cu+  Cu102  1  0.66556228  0.50260968  0.16658403  1
  Cu+  Cu103  1  0.66813361  0.49436571  0.50451540  1
  Cu+  Cu104  1  0.66179233  0.49808730  0.83407568  1
  Cu+  Cu105  1  0.66681441  0.83492729  0.16561023  1
  Cu+  Cu106  1  0.67326278  0.83014098  0.49950733  1
  Cu+  Cu107  1  0.66738443  0.82923740  0.83578494  1
  Cu+  Cu108  1  0.25019236  0.93064581  0.25512607  1
  Cu+  Cu109  1  0.59752451  0.07603745  0.41376274  1
  Cu+  Cu110  1  0.26235349  0.06925113  0.73507190  1
  Cu+  Cu111  1  0.74275317  0.73890013  0.59233349  1
  Cu+  Cu112  1  0.07208605  0.92669214  0.07094485  1
  Cu+  Cu113  1  0.26231639  0.41175735  0.07111521  1
  Cu+  Cu114  1  0.74433087  0.26032373  0.75294263  1
  Cu+  Cu115  1  0.41079817  0.60177854  0.74070626  1
  Cu+  Cu116  1  0.40724170  0.06786532  0.93270223  1
  Cu+  Cu117  1  0.40564951  0.93057178  0.40940080  1
  Cu+  Cu118  1  0.25617755  0.40697385  0.40375860  1
  Cu+  Cu119  1  0.40541732  0.25923041  0.40169127  1
  Cu+  Cu120  1  0.40087620  0.41022982  0.59830872  1
  Cu+  Cu121  1  0.60105288  0.92149664  0.25942327  1
  Cu+  Cu122  1  0.74650628  0.41077878  0.59670263  1
  Cu+  Cu123  1  0.26504020  0.25877509  0.92510989  1
  Cu+  Cu124  1  0.92597356  0.26200961  0.92952639  1
  Cu+  Cu125  1  0.24245480  0.26051177  0.59695392  1
  Cu+  Cu126  1  0.74395485  0.26631516  0.39973209  1
  Cu+  Cu127  1  0.25146701  0.60156843  0.59578892  1
  Cu+  Cu128  1  0.59006382  0.25863862  0.59272085  1
  Cu+  Cu129  1  0.73837129  0.73767403  0.93008197  1
  Cu+  Cu130  1  0.41321621  0.73817796  0.26459035  1
  Cu+  Cu131  1  0.40380133  0.25706564  0.75260944  1
  Cu+  Cu132  1  0.25803771  0.58620685  0.26125426  1
  Te2-  Te133  1  0.25954827  0.25241878  0.07906963  1
  Te2-  Te134  1  0.24973149  0.25276954  0.40299069  1
  Te2-  Te135  1  0.25308895  0.25329826  0.74763435  1
  Te2-  Te136  1  0.25084568  0.58404588  0.07855814  1
  Te2-  Te137  1  0.25379602  0.58720663  0.41564480  1
  Te2-  Te138  1  0.25430689  0.59388644  0.74841855  1
  Te2-  Te139  1  0.25462922  0.91354864  0.08271894  1
  Te2-  Te140  1  0.25359319  0.92360178  0.41118487  1
  Te2-  Te141  1  0.25462429  0.91861708  0.74494093  1
  Te2-  Te142  1  0.58343352  0.24843868  0.08011994  1
  Te2-  Te143  1  0.58200269  0.26211506  0.41247201  1
  Te2-  Te144  1  0.58967935  0.25311963  0.74828729  1
  Te2-  Te145  1  0.58111298  0.58722632  0.08335837  1
  Te2-  Te146  1  0.58586675  0.57873086  0.41776456  1
  Te2-  Te147  1  0.58404833  0.58364123  0.74583697  1
  Te2-  Te148  1  0.58572333  0.91974753  0.08014462  1
  Te2-  Te149  1  0.59515884  0.92030164  0.41301698  1
  Te2-  Te150  1  0.58742807  0.91859375  0.75164767  1
  Te2-  Te151  1  0.92020594  0.25598453  0.08157398  1
  Te2-  Te152  1  0.91762791  0.25456892  0.41663143  1
  Te2-  Te153  1  0.92209080  0.25056046  0.74726928  1
  Te2-  Te154  1  0.91943295  0.58573895  0.07983019  1
  Te2-  Te155  1  0.91785128  0.58773045  0.41433959  1
  Te2-  Te156  1  0.91806068  0.58463917  0.74985197  1
  Te2-  Te157  1  0.91832518  0.91928525  0.07607631  1
  Te2-  Te158  1  0.92056926  0.92264328  0.41323821  1
  Te2-  Te159  1  0.91829024  0.91467761  0.74471497  1
  Te2-  Te160  1  0.24985140  0.08105048  0.25019608  1
  Te2-  Te161  1  0.25454569  0.07779316  0.58082912  1
  Te2-  Te162  1  0.25290504  0.07520158  0.92348588  1
  Te2-  Te163  1  0.25305598  0.40942669  0.25202604  1
  Te2-  Te164  1  0.24985016  0.41113768  0.59414844  1
  Te2-  Te165  1  0.26020155  0.41520829  0.91853900  1
  Te2-  Te166  1  0.25325664  0.73996492  0.25798537  1
  Te2-  Te167  1  0.25676969  0.75303077  0.58556977  1
  Te2-  Te168  1  0.25150079  0.75055522  0.92073326  1
  Te2-  Te169  1  0.59180950  0.08111355  0.25700025  1
  Te2-  Te170  1  0.58345909  0.08484609  0.58289191  1
  Te2-  Te171  1  0.59025899  0.08009261  0.91734951  1
  Te2-  Te172  1  0.58510524  0.41427050  0.25030053  1
  Te2-  Te173  1  0.58400030  0.41314925  0.59210507  1
  Te2-  Te174  1  0.58247816  0.41217878  0.91972411  1
  Te2-  Te175  1  0.58383616  0.74984436  0.25307494  1
  Te2-  Te176  1  0.58778286  0.74636228  0.58522737  1
  Te2-  Te177  1  0.58326706  0.74524971  0.92204619  1
  Te2-  Te178  1  0.91845953  0.08482465  0.25252638  1
  Te2-  Te179  1  0.91523175  0.08549896  0.58684031  1
  Te2-  Te180  1  0.92114333  0.07468171  0.91970978  1
  Te2-  Te181  1  0.91722558  0.41560081  0.25230942  1
  Te2-  Te182  1  0.91941071  0.41451332  0.58331639  1
  Te2-  Te183  1  0.92081355  0.41590013  0.92055959  1
  Te2-  Te184  1  0.92084922  0.74965959  0.24867998  1
  Te2-  Te185  1  0.92167517  0.74880295  0.58269314  1
  Te2-  Te186  1  0.92106709  0.74473720  0.91714257  1
  Te2-  Te187  1  0.08190259  0.25394432  0.24533869  1
  Te2-  Te188  1  0.08273890  0.25105914  0.58515713  1
  Te2-  Te189  1  0.08149870  0.25438908  0.92061915  1
  Te2-  Te190  1  0.07839403  0.58153750  0.25418077  1
  Te2-  Te191  1  0.08014934  0.58748443  0.58549199  1
  Te2-  Te192  1  0.08367791  0.58371504  0.91902373  1
  Te2-  Te193  1  0.08010078  0.91612550  0.25150179  1
  Te2-  Te194  1  0.08194376  0.92000328  0.58364241  1
  Te2-  Te195  1  0.07957227  0.92089297  0.91675322  1
  Te2-  Te196  1  0.41445635  0.25068693  0.25110481  1
  Te2-  Te197  1  0.40332029  0.25557947  0.59425822  1
  Te2-  Te198  1  0.41667430  0.24992132  0.92139454  1
  Te2-  Te199  1  0.41184217  0.58484341  0.25721965  1
  Te2-  Te200  1  0.41043940  0.59057839  0.58500164  1
  Te2-  Te201  1  0.41543648  0.58785013  0.92117899  1
  Te2-  Te202  1  0.40889154  0.92831638  0.25576204  1
  Te2-  Te203  1  0.42039576  0.91979358  0.58377338  1
  Te2-  Te204  1  0.41270859  0.91670643  0.92198261  1
  Te2-  Te205  1  0.74495175  0.25629619  0.24902274  1
  Te2-  Te206  1  0.74315158  0.25741269  0.59320975  1
  Te2-  Te207  1  0.74826297  0.24974196  0.91985165  1
  Te2-  Te208  1  0.74685883  0.58845457  0.25076051  1
  Te2-  Te209  1  0.74675969  0.58599485  0.58716385  1
  Te2-  Te210  1  0.74408653  0.58271019  0.92003366  1
  Te2-  Te211  1  0.75239986  0.92143130  0.25098029  1
  Te2-  Te212  1  0.74869930  0.92048713  0.58465296  1
  Te2-  Te213  1  0.74906667  0.91741254  0.91805258  1
  Te2-  Te214  1  0.08035635  0.08226750  0.07558286  1
  Te2-  Te215  1  0.07777384  0.08199078  0.41248922  1
  Te2-  Te216  1  0.07881357  0.08296014  0.75045833  1
  Te2-  Te217  1  0.07685255  0.41319239  0.07957351  1
  Te2-  Te218  1  0.08008756  0.41492334  0.41586214  1
  Te2-  Te219  1  0.08563465  0.41512767  0.74872301  1
  Te2-  Te220  1  0.08331308  0.74000846  0.08184734  1
  Te2-  Te221  1  0.08309811  0.74922174  0.41416260  1
  Te2-  Te222  1  0.08262362  0.74907921  0.74716686  1
  Te2-  Te223  1  0.41579559  0.07419369  0.08540000  1
  Te2-  Te224  1  0.40658904  0.08441398  0.41465746  1
  Te2-  Te225  1  0.41744673  0.07499355  0.74275601  1
  Te2-  Te226  1  0.41459136  0.41275663  0.08082482  1
  Te2-  Te227  1  0.41068305  0.41280257  0.41057350  1
  Te2-  Te228  1  0.40808166  0.40945385  0.74930801  1
  Te2-  Te229  1  0.41084230  0.75109652  0.08287168  1
  Te2-  Te230  1  0.41768636  0.74469518  0.41505325  1
  Te2-  Te231  1  0.41471775  0.75207520  0.74534126  1
  Te2-  Te232  1  0.74994506  0.08295183  0.07882318  1
  Te2-  Te233  1  0.74886578  0.08193319  0.41474311  1
  Te2-  Te234  1  0.74981777  0.07415707  0.74823619  1
  Te2-  Te235  1  0.74486529  0.41628244  0.08080545  1
  Te2-  Te236  1  0.74518608  0.41793941  0.40804578  1
  Te2-  Te237  1  0.74553135  0.41293177  0.74943974  1
  Te2-  Te238  1  0.74607715  0.74609988  0.08250340  1
  Te2-  Te239  1  0.75102199  0.74844313  0.40855970  1
  Te2-  Te240  1  0.74526129  0.74419630  0.74551511  1
