# generated using pymatgen
data_Ti27(Cu53Te54)2
_symmetry_space_group_name_H-M   'P 1'
_cell_length_a   17.89230170
_cell_length_b   17.89535914
_cell_length_c   17.89183920
_cell_angle_alpha   90.04317384
_cell_angle_beta   90.01914905
_cell_angle_gamma   90.02777436
_symmetry_Int_Tables_number   1
_chemical_formula_structural   Ti27(Cu53Te54)2
_chemical_formula_sum   'Ti27 Cu106 Te108'
_cell_volume   5728.77043101
_cell_formula_units_Z   1
loop_
 _symmetry_equiv_pos_site_id
 _symmetry_equiv_pos_as_xyz
  1  'x, y, z'
loop_
 _atom_type_symbol
 _atom_type_oxidation_number
  Ti4+  4.0
  Cu+  1.0
  Te2-  -2.0
loop_
 _atom_site_type_symbol
 _atom_site_label
 _atom_site_symmetry_multiplicity
 _atom_site_fract_x
 _atom_site_fract_y
 _atom_site_fract_z
 _atom_site_occupancy
  Ti4+  Ti0  1  0.16501755  0.16710681  0.16709508  1
  Ti4+  Ti1  1  0.16877876  0.16829924  0.49657904  1
  Ti4+  Ti2  1  0.16789721  0.16627689  0.83449159  1
  Ti4+  Ti3  1  0.16799962  0.49984610  0.16707450  1
  Ti4+  Ti4  1  0.16499000  0.49691367  0.50614218  1
  Ti4+  Ti5  1  0.16487056  0.49930482  0.83160138  1
  Ti4+  Ti6  1  0.16448388  0.83433873  0.16639580  1
  Ti4+  Ti7  1  0.16856026  0.83152425  0.49818653  1
  Ti4+  Ti8  1  0.16616358  0.83584980  0.83434024  1
  Ti4+  Ti9  1  0.49951765  0.16774740  0.16894969  1
  Ti4+  Ti10  1  0.49888533  0.16253140  0.50128624  1
  Ti4+  Ti11  1  0.50373903  0.16334911  0.83233053  1
  Ti4+  Ti12  1  0.49888723  0.50198016  0.16697899  1
  Ti4+  Ti13  1  0.49890389  0.50008169  0.50143608  1
  Ti4+  Ti14  1  0.49963070  0.50017042  0.82959445  1
  Ti4+  Ti15  1  0.49795873  0.83484092  0.16758311  1
  Ti4+  Ti16  1  0.50224337  0.83263749  0.50029168  1
  Ti4+  Ti17  1  0.50048677  0.83296449  0.82953365  1
  Ti4+  Ti18  1  0.83127605  0.16596072  0.16418509  1
  Ti4+  Ti19  1  0.83305819  0.16900900  0.49812428  1
  Ti4+  Ti20  1  0.83298621  0.16657902  0.83131994  1
  Ti4+  Ti21  1  0.83480499  0.50025147  0.16534030  1
  Ti4+  Ti22  1  0.83689562  0.49959804  0.50066409  1
  Ti4+  Ti23  1  0.83036318  0.50305363  0.83576237  1
  Ti4+  Ti24  1  0.83080413  0.83432378  0.16559535  1
  Ti4+  Ti25  1  0.83871957  0.83279884  0.49912675  1
  Ti4+  Ti26  1  0.83283729  0.83205248  0.83482723  1
  Cu+  Cu27  1  0.16842441  0.16645504  0.00004420  1
  Cu+  Cu28  1  0.16490769  0.17203550  0.33288355  1
  Cu+  Cu29  1  0.16977824  0.16614058  0.66709964  1
  Cu+  Cu30  1  0.16726467  0.50093126  -0.00123661  1
  Cu+  Cu31  1  0.16673599  0.49997471  0.33653725  1
  Cu+  Cu32  1  0.16726346  0.48955222  0.67120218  1
  Cu+  Cu33  1  0.16305424  0.83719228  0.00046051  1
  Cu+  Cu34  1  0.16518013  0.83499084  0.33257733  1
  Cu+  Cu35  1  0.16916036  0.83256490  0.66682452  1
  Cu+  Cu36  1  0.50425721  0.16389710  0.00430689  1
  Cu+  Cu37  1  0.49176194  0.16227158  0.33199890  1
  Cu+  Cu38  1  0.50604727  0.16031069  0.66631044  1
  Cu+  Cu39  1  0.49854564  0.50077256  -0.00296521  1
  Cu+  Cu40  1  0.50060354  0.50275453  0.33108014  1
  Cu+  Cu41  1  0.49166894  0.50133309  0.66533053  1
  Cu+  Cu42  1  0.49628347  0.83535472  -0.00166295  1
  Cu+  Cu43  1  0.50258623  0.83721551  0.33333842  1
  Cu+  Cu44  1  0.50549296  0.82834782  0.66586971  1
  Cu+  Cu45  1  0.83000998  0.16637860  -0.00374866  1
  Cu+  Cu46  1  0.83095935  0.16649359  0.32881534  1
  Cu+  Cu47  1  0.83364909  0.16906171  0.66238393  1
  Cu+  Cu48  1  0.82875978  0.50670273  0.00320379  1
  Cu+  Cu49  1  0.83703994  0.49884181  0.33027117  1
  Cu+  Cu50  1  0.83815469  0.50198843  0.66952250  1
  Cu+  Cu51  1  0.83187157  0.82605145  0.00123570  1
  Cu+  Cu52  1  0.83221583  0.83542646  0.33571824  1
  Cu+  Cu53  1  0.83718356  0.83443612  0.66709390  1
  Cu+  Cu54  1  0.16161828  -0.00088890  0.16519265  1
  Cu+  Cu55  1  0.16956611  -0.00189495  0.49580024  1
  Cu+  Cu56  1  0.16792917  0.00246751  0.83298204  1
  Cu+  Cu57  1  0.16809078  0.33370082  0.16843608  1
  Cu+  Cu58  1  0.16644030  0.33315365  0.49652359  1
  Cu+  Cu59  1  0.16811074  0.33043745  0.83390283  1
  Cu+  Cu60  1  0.16756010  0.66574870  0.16819274  1
  Cu+  Cu61  1  0.16032301  0.66559299  0.50413202  1
  Cu+  Cu62  1  0.16570578  0.66810009  0.83490114  1
  Cu+  Cu63  1  0.50032054  0.00154693  0.17212761  1
  Cu+  Cu64  1  0.49670431  -0.00194479  0.50440494  1
  Cu+  Cu65  1  0.50634759  -0.00126733  0.82783800  1
  Cu+  Cu66  1  0.49917889  0.33846523  0.16753491  1
  Cu+  Cu67  1  0.49833912  0.33114515  0.50383661  1
  Cu+  Cu68  1  0.50326527  0.32902357  0.83380601  1
  Cu+  Cu69  1  0.49730735  0.66867353  0.16567549  1
  Cu+  Cu70  1  0.50175704  0.66756218  0.49909319  1
  Cu+  Cu71  1  0.50014696  0.66602063  0.82281272  1
  Cu+  Cu72  1  0.83189171  0.00110731  0.16617778  1
  Cu+  Cu73  1  0.83661440  0.00225219  0.49641262  1
  Cu+  Cu74  1  0.83123733  -0.00031690  0.83585329  1
  Cu+  Cu75  1  0.83265169  0.33286690  0.16425248  1
  Cu+  Cu76  1  0.83323665  0.33393703  0.49730241  1
  Cu+  Cu77  1  0.83295031  0.33492952  0.83271358  1
  Cu+  Cu78  1  0.83380584  0.66623580  0.16069754  1
  Cu+  Cu79  1  0.84220157  0.66421010  0.50271973  1
  Cu+  Cu80  1  0.82688245  0.67120210  0.84116398  1
  Cu+  Cu81  1  -0.00420813  0.16722763  0.16603015  1
  Cu+  Cu82  1  -0.00066358  0.17064480  0.49431664  1
  Cu+  Cu83  1  0.00213146  0.16873117  0.83257947  1
  Cu+  Cu84  1  0.00271847  0.49755276  0.16718302  1
  Cu+  Cu85  1  0.00122802  0.50463820  0.50856483  1
  Cu+  Cu86  1  -0.00528259  0.49859138  0.83241994  1
  Cu+  Cu87  1  -0.00198521  0.83419997  0.16059493  1
  Cu+  Cu88  1  0.00746971  0.83206570  0.49857252  1
  Cu+  Cu89  1  -0.00071317  0.83644948  0.83562365  1
  Cu+  Cu90  1  0.33115433  0.16552809  0.17160379  1
  Cu+  Cu91  1  0.33813938  0.16661042  0.49850777  1
  Cu+  Cu92  1  0.33590743  0.16563714  0.83596822  1
  Cu+  Cu93  1  0.33436119  0.50208957  0.16767712  1
  Cu+  Cu94  1  0.33333473  0.49302809  0.50655192  1
  Cu+  Cu95  1  0.33311586  0.50295324  0.82591893  1
  Cu+  Cu96  1  0.33030526  0.83431850  0.16673468  1
  Cu+  Cu97  1  0.33427988  0.83110506  0.49916839  1
  Cu+  Cu98  1  0.33077420  0.83495410  0.83420933  1
  Cu+  Cu99  1  0.66391249  0.16613527  0.16292878  1
  Cu+  Cu100  1  0.66424387  0.16977662  0.50174834  1
  Cu+  Cu101  1  0.67048343  0.15952927  0.83088111  1
  Cu+  Cu102  1  0.66612425  0.50225074  0.16616356  1
  Cu+  Cu103  1  0.66932086  0.49900962  0.50071587  1
  Cu+  Cu104  1  0.66499666  0.50149493  0.83235680  1
  Cu+  Cu105  1  0.65996160  0.83909976  0.17253231  1
  Cu+  Cu106  1  0.67388001  0.83290240  0.49762828  1
  Cu+  Cu107  1  0.66615261  0.82750982  0.83215956  1
  Cu+  Cu108  1  0.74384052  0.07113968  0.92670401  1
  Cu+  Cu109  1  0.60091693  0.06914298  0.73563933  1
  Cu+  Cu110  1  0.40935535  0.40187520  0.59544859  1
  Cu+  Cu111  1  0.41583683  0.26210557  0.40376419  1
  Cu+  Cu112  1  0.58985788  0.07055905  0.07825797  1
  Cu+  Cu113  1  0.92479499  0.59663681  0.60240115  1
  Cu+  Cu114  1  0.25994843  0.41338180  0.40508860  1
  Cu+  Cu115  1  0.07588342  0.59135081  0.40587623  1
  Cu+  Cu116  1  0.40429667  0.06816571  0.59748510  1
  Cu+  Cu117  1  0.06881756  0.26193613  0.40237862  1
  Cu+  Cu118  1  0.59867332  0.73516226  0.73482064  1
  Cu+  Cu119  1  0.93035408  0.73597713  0.07405405  1
  Cu+  Cu120  1  0.39992854  0.59894591  0.73638914  1
  Cu+  Cu121  1  0.92043449  0.40450408  0.74290636  1
  Cu+  Cu122  1  0.73323430  0.59380267  0.07871983  1
  Cu+  Cu123  1  0.59100566  0.93146496  0.26452906  1
  Cu+  Cu124  1  0.07767196  0.92850092  0.40619385  1
  Cu+  Cu125  1  0.07260401  0.40025408  0.59337705  1
  Cu+  Cu126  1  0.07789663  0.74505144  0.59944956  1
  Cu+  Cu127  1  0.74156259  0.93105818  0.41273457  1
  Cu+  Cu128  1  0.73113809  0.74294231  0.93086547  1
  Cu+  Cu129  1  0.26331630  0.39918346  0.75145601  1
  Cu+  Cu130  1  0.06989003  0.93069761  0.06947723  1
  Cu+  Cu131  1  0.59260682  0.26176079  0.59452113  1
  Cu+  Cu132  1  0.39860541  0.06972567  0.25612041  1
  Te2-  Te133  1  0.25237729  0.25047086  0.08394218  1
  Te2-  Te134  1  0.25823722  0.25464011  0.41053621  1
  Te2-  Te135  1  0.25700514  0.24921411  0.74723497  1
  Te2-  Te136  1  0.25217449  0.58552976  0.08142661  1
  Te2-  Te137  1  0.25208470  0.58356686  0.42274016  1
  Te2-  Te138  1  0.24782836  0.58940001  0.74368607  1
  Te2-  Te139  1  0.25106901  0.92040648  0.08186426  1
  Te2-  Te140  1  0.25567755  0.91672866  0.41229519  1
  Te2-  Te141  1  0.25120777  0.91987029  0.74757054  1
  Te2-  Te142  1  0.58346300  0.25602513  0.08345537  1
  Te2-  Te143  1  0.58100094  0.24997120  0.41236868  1
  Te2-  Te144  1  0.59072179  0.25138847  0.74778689  1
  Te2-  Te145  1  0.58181840  0.58851123  0.07866981  1
  Te2-  Te146  1  0.58579272  0.58319030  0.41657411  1
  Te2-  Te147  1  0.58844149  0.58311737  0.74031185  1
  Te2-  Te148  1  0.58391221  0.91958806  0.07817394  1
  Te2-  Te149  1  0.58800845  0.92309073  0.41671665  1
  Te2-  Te150  1  0.59166388  0.91653691  0.74364125  1
  Te2-  Te151  1  0.91558190  0.25084547  0.07802424  1
  Te2-  Te152  1  0.91608288  0.25468296  0.40837036  1
  Te2-  Te153  1  0.91997539  0.25193845  0.74568793  1
  Te2-  Te154  1  0.92529815  0.58444581  0.07914848  1
  Te2-  Te155  1  0.92286117  0.58468969  0.41146115  1
  Te2-  Te156  1  0.91751078  0.59359594  0.75428478  1
  Te2-  Te157  1  0.91402884  0.92149396  0.07698513  1
  Te2-  Te158  1  0.92427999  0.91970937  0.41261843  1
  Te2-  Te159  1  0.91757005  0.91987562  0.75092076  1
  Te2-  Te160  1  0.24646609  0.07858545  0.25518933  1
  Te2-  Te161  1  0.25219086  0.08029660  0.58346872  1
  Te2-  Te162  1  0.25358046  0.08102877  0.91989723  1
  Te2-  Te163  1  0.25460718  0.41429215  0.25321841  1
  Te2-  Te164  1  0.25432032  0.40485917  0.59169385  1
  Te2-  Te165  1  0.25379403  0.41676439  0.91629224  1
  Te2-  Te166  1  0.25028380  0.74928256  0.25223946  1
  Te2-  Te167  1  0.25365162  0.74558712  0.58484983  1
  Te2-  Te168  1  0.25004701  0.75021290  0.92015318  1
  Te2-  Te169  1  0.58961919  0.08394937  0.25744277  1
  Te2-  Te170  1  0.59124199  0.07448226  0.58336305  1
  Te2-  Te171  1  0.58862484  0.07573111  0.92109983  1
  Te2-  Te172  1  0.58640338  0.41734535  0.25195402  1
  Te2-  Te173  1  0.58689812  0.41592439  0.58814799  1
  Te2-  Te174  1  0.58437136  0.41579593  0.91645258  1
  Te2-  Te175  1  0.58286822  0.74706689  0.25287899  1
  Te2-  Te176  1  0.59178355  0.74569140  0.58174340  1
  Te2-  Te177  1  0.57974655  0.74466179  0.91979845  1
  Te2-  Te178  1  0.91711936  0.08084949  0.25092472  1
  Te2-  Te179  1  0.92031551  0.08483154  0.58146557  1
  Te2-  Te180  1  0.91995655  0.08275360  0.91715431  1
  Te2-  Te181  1  0.91963152  0.41231416  0.24917476  1
  Te2-  Te182  1  0.92023913  0.40820241  0.58795829  1
  Te2-  Te183  1  0.91368857  0.41770513  0.92270694  1
  Te2-  Te184  1  0.91611189  0.75013335  0.24995593  1
  Te2-  Te185  1  0.92548481  0.74843971  0.58951589  1
  Te2-  Te186  1  0.92286345  0.74647963  0.92019212  1
  Te2-  Te187  1  0.07734874  0.25509486  0.25030753  1
  Te2-  Te188  1  0.08177729  0.24935682  0.58652338  1
  Te2-  Te189  1  0.08258011  0.25208485  0.92003823  1
  Te2-  Te190  1  0.08085240  0.58572150  0.25277959  1
  Te2-  Te191  1  0.08134131  0.58618434  0.59898617  1
  Te2-  Te192  1  0.08020192  0.58342288  0.91681437  1
  Te2-  Te193  1  0.07568943  0.91974543  0.25218691  1
  Te2-  Te194  1  0.08474479  0.92034403  0.58557456  1
  Te2-  Te195  1  0.07919860  0.92424748  0.91790521  1
  Te2-  Te196  1  0.41184526  0.25742176  0.25165658  1
  Te2-  Te197  1  0.41338928  0.24834561  0.59251465  1
  Te2-  Te198  1  0.42015125  0.24783392  0.92010877  1
  Te2-  Te199  1  0.41391965  0.58814337  0.25280461  1
  Te2-  Te200  1  0.41084169  0.59085535  0.58333521  1
  Te2-  Te201  1  0.41486413  0.58670386  0.91367067  1
  Te2-  Te202  1  0.40948944  0.91875476  0.25510673  1
  Te2-  Te203  1  0.41387594  0.91393511  0.58915250  1
  Te2-  Te204  1  0.41674441  0.92077847  0.91376498  1
  Te2-  Te205  1  0.74561329  0.25216635  0.24813505  1
  Te2-  Te206  1  0.74739702  0.25594889  0.58501531  1
  Te2-  Te207  1  0.74603312  0.25312739  0.91503853  1
  Te2-  Te208  1  0.75059840  0.58655959  0.25204735  1
  Te2-  Te209  1  0.75100871  0.58514545  0.58567333  1
  Te2-  Te210  1  0.73946516  0.58880382  0.92217343  1
  Te2-  Te211  1  0.74677618  0.92292638  0.25472273  1
  Te2-  Te212  1  0.75371945  0.91919209  0.58454562  1
  Te2-  Te213  1  0.74452627  0.91566557  0.92104534  1
  Te2-  Te214  1  0.07822962  0.08372587  0.07952444  1
  Te2-  Te215  1  0.08148978  0.08169500  0.41211519  1
  Te2-  Te216  1  0.08240866  0.08254989  0.74713727  1
  Te2-  Te217  1  0.08435382  0.41399196  0.08075150  1
  Te2-  Te218  1  0.07531455  0.41521816  0.41521796  1
  Te2-  Te219  1  0.07514942  0.40733359  0.74966236  1
  Te2-  Te220  1  0.08222021  0.74409204  0.07940541  1
  Te2-  Te221  1  0.08118639  0.74418654  0.40944103  1
  Te2-  Te222  1  0.07888243  0.74887538  0.75081329  1
  Te2-  Te223  1  0.41293217  0.08127900  0.08382592  1
  Te2-  Te224  1  0.41109458  0.07331081  0.41397384  1
  Te2-  Te225  1  0.41339016  0.07802104  0.74875729  1
  Te2-  Te226  1  0.41381277  0.41703007  0.08038349  1
  Te2-  Te227  1  0.41447398  0.41461434  0.41042236  1
  Te2-  Te228  1  0.41471500  0.40607899  0.74714016  1
  Te2-  Te229  1  0.41217295  0.75092387  0.08102111  1
  Te2-  Te230  1  0.41821829  0.74968344  0.41379938  1
  Te2-  Te231  1  0.40930490  0.75062729  0.74407466  1
  Te2-  Te232  1  0.74440554  0.07707590  0.07828395  1
  Te2-  Te233  1  0.74544265  0.08437007  0.41298537  1
  Te2-  Te234  1  0.75198958  0.07759970  0.74066778  1
  Te2-  Te235  1  0.74687172  0.41486319  0.08088300  1
  Te2-  Te236  1  0.75033824  0.41701752  0.41340564  1
  Te2-  Te237  1  0.74743540  0.41741527  0.74755219  1
  Te2-  Te238  1  0.73716207  0.74908173  0.08402498  1
  Te2-  Te239  1  0.75457296  0.74284316  0.41638966  1
  Te2-  Te240  1  0.75027265  0.74600417  0.74296985  1
