# generated using pymatgen
data_Ti27(Cu53Te54)2
_symmetry_space_group_name_H-M   'P 1'
_cell_length_a   17.91427549
_cell_length_b   17.92830728
_cell_length_c   17.92512674
_cell_angle_alpha   89.91288903
_cell_angle_beta   90.00926814
_cell_angle_gamma   90.01487665
_symmetry_Int_Tables_number   1
_chemical_formula_structural   Ti27(Cu53Te54)2
_chemical_formula_sum   'Ti27 Cu106 Te108'
_cell_volume   5757.05327316
_cell_formula_units_Z   1
loop_
 _symmetry_equiv_pos_site_id
 _symmetry_equiv_pos_as_xyz
  1  'x, y, z'
loop_
 _atom_type_symbol
 _atom_type_oxidation_number
  Ti4+  4.0
  Cu+  1.0
  Te2-  -2.0
loop_
 _atom_site_type_symbol
 _atom_site_label
 _atom_site_symmetry_multiplicity
 _atom_site_fract_x
 _atom_site_fract_y
 _atom_site_fract_z
 _atom_site_occupancy
  Ti4+  Ti0  1  0.16355738  0.16828214  0.16355884  1
  Ti4+  Ti1  1  0.16980086  0.16775090  0.49821820  1
  Ti4+  Ti2  1  0.16988898  0.16846893  0.83652623  1
  Ti4+  Ti3  1  0.16393755  0.49984607  0.16637602  1
  Ti4+  Ti4  1  0.16721389  0.49632417  0.50228939  1
  Ti4+  Ti5  1  0.16754445  0.50276521  0.83408600  1
  Ti4+  Ti6  1  0.16195127  0.83437760  0.16627286  1
  Ti4+  Ti7  1  0.16863509  0.83078621  0.50032406  1
  Ti4+  Ti8  1  0.16858486  0.84030314  0.83066435  1
  Ti4+  Ti9  1  0.49761607  0.16652925  0.16884596  1
  Ti4+  Ti10  1  0.49903863  0.16259904  0.49999768  1
  Ti4+  Ti11  1  0.50059131  0.16542052  0.83384072  1
  Ti4+  Ti12  1  0.49874628  0.50063789  0.16511715  1
  Ti4+  Ti13  1  0.50134559  0.49872986  0.50070811  1
  Ti4+  Ti14  1  0.50035985  0.49923569  0.82985132  1
  Ti4+  Ti15  1  0.49924068  0.83093509  0.17106813  1
  Ti4+  Ti16  1  0.50081951  0.83428067  0.50151892  1
  Ti4+  Ti17  1  0.49973301  0.83168836  0.83715700  1
  Ti4+  Ti18  1  0.83137636  0.16862286  0.16654331  1
  Ti4+  Ti19  1  0.83345842  0.16470732  0.49812888  1
  Ti4+  Ti20  1  0.83193471  0.16501872  0.83315521  1
  Ti4+  Ti21  1  0.83059193  0.50568189  0.16546559  1
  Ti4+  Ti22  1  0.83397166  0.49880926  0.50082661  1
  Ti4+  Ti23  1  0.83245469  0.49814132  0.83320845  1
  Ti4+  Ti24  1  0.83063148  0.83540842  0.16207375  1
  Ti4+  Ti25  1  0.83557462  0.83425959  0.50091670  1
  Ti4+  Ti26  1  0.83530124  0.83169873  0.83242293  1
  Cu+  Cu27  1  0.16902959  0.16463002  0.00334449  1
  Cu+  Cu28  1  0.16796791  0.17075030  0.32768826  1
  Cu+  Cu29  1  0.17092652  0.17009495  0.66676081  1
  Cu+  Cu30  1  0.16306313  0.49591262  -0.00023722  1
  Cu+  Cu31  1  0.16292229  0.49778807  0.33636268  1
  Cu+  Cu32  1  0.17138143  0.50136550  0.66699463  1
  Cu+  Cu33  1  0.16003446  0.84129705  -0.00167089  1
  Cu+  Cu34  1  0.16212443  0.82802604  0.33296618  1
  Cu+  Cu35  1  0.17431009  0.83608763  0.66513749  1
  Cu+  Cu36  1  0.49756722  0.16580100  -0.00028299  1
  Cu+  Cu37  1  0.49850342  0.16338638  0.33635228  1
  Cu+  Cu38  1  0.50223768  0.16365563  0.66595555  1
  Cu+  Cu39  1  0.49758082  0.49919407  -0.00514375  1
  Cu+  Cu40  1  0.50135576  0.50071175  0.33226383  1
  Cu+  Cu41  1  0.50391566  0.49488137  0.66623714  1
  Cu+  Cu42  1  0.50021498  0.82974459  0.00632494  1
  Cu+  Cu43  1  0.49675973  0.83469087  0.33631218  1
  Cu+  Cu44  1  0.50324155  0.83292830  0.67118027  1
  Cu+  Cu45  1  0.83204865  0.16571264  0.00054632  1
  Cu+  Cu46  1  0.83203539  0.16912066  0.33168804  1
  Cu+  Cu47  1  0.83164470  0.16264847  0.66534752  1
  Cu+  Cu48  1  0.83268795  0.50790887  -0.00314984  1
  Cu+  Cu49  1  0.83294609  0.50244783  0.33671378  1
  Cu+  Cu50  1  0.83323919  0.49768784  0.66588391  1
  Cu+  Cu51  1  0.83687386  0.82740628  -0.00142401  1
  Cu+  Cu52  1  0.83516152  0.83664263  0.33262525  1
  Cu+  Cu53  1  0.83475427  0.83231510  0.66743843  1
  Cu+  Cu54  1  0.15592850  -0.00274455  0.15982806  1
  Cu+  Cu55  1  0.16869238  0.00070736  0.49802753  1
  Cu+  Cu56  1  0.17153389  0.00695861  0.83061042  1
  Cu+  Cu57  1  0.16785429  0.33682684  0.16273473  1
  Cu+  Cu58  1  0.16946201  0.33074102  0.50313101  1
  Cu+  Cu59  1  0.16646826  0.33733254  0.83623506  1
  Cu+  Cu60  1  0.16181931  0.66522971  0.16601153  1
  Cu+  Cu61  1  0.16767412  0.66211644  0.50412311  1
  Cu+  Cu62  1  0.16776760  0.67387034  0.83179725  1
  Cu+  Cu63  1  0.49924963  -0.00247872  0.16999898  1
  Cu+  Cu64  1  0.49916897  -0.00150659  0.49214818  1
  Cu+  Cu65  1  0.49612291  -0.00207800  0.83986718  1
  Cu+  Cu66  1  0.49928999  0.33424869  0.16659985  1
  Cu+  Cu67  1  0.49930197  0.33174092  0.49978198  1
  Cu+  Cu68  1  0.50269270  0.33274164  0.82755607  1
  Cu+  Cu69  1  0.50240481  0.66357131  0.17279464  1
  Cu+  Cu70  1  0.50046435  0.66789362  0.50301835  1
  Cu+  Cu71  1  0.50321871  0.66678571  0.83116854  1
  Cu+  Cu72  1  0.83500230  0.00240307  0.16747332  1
  Cu+  Cu73  1  0.83131207  0.00107350  0.50184505  1
  Cu+  Cu74  1  0.83429739  -0.00207808  0.83402075  1
  Cu+  Cu75  1  0.82982793  0.33674535  0.16572978  1
  Cu+  Cu76  1  0.83225619  0.33125016  0.49829330  1
  Cu+  Cu77  1  0.83165139  0.32895842  0.83381778  1
  Cu+  Cu78  1  0.82380242  0.66897465  0.15913908  1
  Cu+  Cu79  1  0.83637799  0.66529292  0.50102199  1
  Cu+  Cu80  1  0.83730300  0.66322457  0.83533309  1
  Cu+  Cu81  1  -0.00369591  0.17041024  0.16478360  1
  Cu+  Cu82  1  0.00104733  0.16592791  0.49619268  1
  Cu+  Cu83  1  -0.00122103  0.16899340  0.83522297  1
  Cu+  Cu84  1  -0.00133660  0.50270209  0.16917604  1
  Cu+  Cu85  1  -0.00050105  0.49475434  0.50096704  1
  Cu+  Cu86  1  0.00153447  0.49916575  0.83988488  1
  Cu+  Cu87  1  -0.00355047  0.84050610  0.16156202  1
  Cu+  Cu88  1  0.00265421  0.83220013  0.50020330  1
  Cu+  Cu89  1  0.00218534  0.83748008  0.83121388  1
  Cu+  Cu90  1  0.32870794  0.16910354  0.16951549  1
  Cu+  Cu91  1  0.33568971  0.17352612  0.49920924  1
  Cu+  Cu92  1  0.33681697  0.16157072  0.83830380  1
  Cu+  Cu93  1  0.33181743  0.49835992  0.16258288  1
  Cu+  Cu94  1  0.33523561  0.49945670  0.50291048  1
  Cu+  Cu95  1  0.33474772  0.50086873  0.82848379  1
  Cu+  Cu96  1  0.33133851  0.83028124  0.16974974  1
  Cu+  Cu97  1  0.33395095  0.83640582  0.50086591  1
  Cu+  Cu98  1  0.33501835  0.83783244  0.83075173  1
  Cu+  Cu99  1  0.66634415  0.16765767  0.16790948  1
  Cu+  Cu100  1  0.66756919  0.15716852  0.50050256  1
  Cu+  Cu101  1  0.66665430  0.16486695  0.83353749  1
  Cu+  Cu102  1  0.66440007  0.50886424  0.16495663  1
  Cu+  Cu103  1  0.66987589  0.50042692  0.50122254  1
  Cu+  Cu104  1  0.66410610  0.49505657  0.82803063  1
  Cu+  Cu105  1  0.66661421  0.82808887  0.17138352  1
  Cu+  Cu106  1  0.66922443  0.83437855  0.50161072  1
  Cu+  Cu107  1  0.66717894  0.82750435  0.83501228  1
  Cu+  Cu108  1  0.25449456  0.26492850  0.25407868  1
  Cu+  Cu109  1  0.59737220  0.39928238  0.73630596  1
  Cu+  Cu110  1  0.93132731  0.59334993  0.92342872  1
  Cu+  Cu111  1  0.74687592  0.74434252  0.26473042  1
  Cu+  Cu112  1  0.26474735  0.59174213  0.58969076  1
  Cu+  Cu113  1  0.26104392  0.74459984  0.74364733  1
  Cu+  Cu114  1  0.25970441  0.92864557  0.58591619  1
  Cu+  Cu115  1  0.59860155  0.74017086  0.74206896  1
  Cu+  Cu116  1  0.92780075  0.74063848  0.07990822  1
  Cu+  Cu117  1  0.73171191  0.59316357  0.06486913  1
  Cu+  Cu118  1  0.59197649  0.59017685  0.26480458  1
  Cu+  Cu119  1  0.59720665  0.07246746  0.40366840  1
  Cu+  Cu120  1  0.26185086  0.08366902  0.73796411  1
  Cu+  Cu121  1  0.26244337  0.41026717  0.07267327  1
  Cu+  Cu122  1  0.41750319  0.92620861  0.74124674  1
  Cu+  Cu123  1  0.41187501  0.06947367  0.93221053  1
  Cu+  Cu124  1  0.73998813  0.07174975  0.59776900  1
  Cu+  Cu125  1  0.07024618  0.40447669  0.92887093  1
  Cu+  Cu126  1  0.26162044  0.06645606  0.08914363  1
  Cu+  Cu127  1  0.41358283  0.26289860  0.40551623  1
  Cu+  Cu128  1  0.92242440  0.93084785  0.26137126  1
  Cu+  Cu129  1  0.40313994  0.92349370  0.40406519  1
  Cu+  Cu130  1  0.06677895  0.93183905  0.06463995  1
  Cu+  Cu131  1  0.25723795  0.40923734  0.74228164  1
  Cu+  Cu132  1  0.26285232  0.25785033  0.59484502  1
  Te2-  Te133  1  0.25415747  0.25530437  0.07755099  1
  Te2-  Te134  1  0.25474884  0.25674018  0.40959076  1
  Te2-  Te135  1  0.25864121  0.25514886  0.75145795  1
  Te2-  Te136  1  0.24799795  0.58532508  0.07941696  1
  Te2-  Te137  1  0.25180553  0.58196487  0.41590978  1
  Te2-  Te138  1  0.25509837  0.59127708  0.74683942  1
  Te2-  Te139  1  0.25362067  0.91622910  0.08092846  1
  Te2-  Te140  1  0.25018480  0.91736453  0.40942116  1
  Te2-  Te141  1  0.25874264  0.92859890  0.74321668  1
  Te2-  Te142  1  0.58202143  0.24979592  0.08255272  1
  Te2-  Te143  1  0.58648337  0.24873175  0.41662566  1
  Te2-  Te144  1  0.58830975  0.24775280  0.74494356  1
  Te2-  Te145  1  0.58022901  0.58870653  0.07473118  1
  Te2-  Te146  1  0.58661295  0.58662239  0.41777887  1
  Te2-  Te147  1  0.58744238  0.58604683  0.74365384  1
  Te2-  Te148  1  0.58530027  0.91558821  0.08668978  1
  Te2-  Te149  1  0.58974467  0.91647344  0.41278687  1
  Te2-  Te150  1  0.58642753  0.92016008  0.75415607  1
  Te2-  Te151  1  0.91456722  0.25505758  0.08032119  1
  Te2-  Te152  1  0.91818914  0.25130323  0.41371202  1
  Te2-  Te153  1  0.91653755  0.24968265  0.74642883  1
  Te2-  Te154  1  0.92311044  0.58939576  0.07947533  1
  Te2-  Te155  1  0.92149926  0.58407341  0.41654310  1
  Te2-  Te156  1  0.92031196  0.58086125  0.74829890  1
  Te2-  Te157  1  0.91504976  0.92471724  0.07323750  1
  Te2-  Te158  1  0.92138330  0.92122375  0.41614614  1
  Te2-  Te159  1  0.91816906  0.91877503  0.74740417  1
  Te2-  Te160  1  0.24577637  0.07623914  0.24756070  1
  Te2-  Te161  1  0.25834890  0.08080564  0.58458468  1
  Te2-  Te162  1  0.25493389  0.07805183  0.92592352  1
  Te2-  Te163  1  0.25200032  0.41691476  0.25476850  1
  Te2-  Te164  1  0.25801317  0.40935650  0.58901285  1
  Te2-  Te165  1  0.25671290  0.41638286  0.91928437  1
  Te2-  Te166  1  0.24639407  0.74642539  0.24996185  1
  Te2-  Te167  1  0.25843881  0.74424524  0.58674783  1
  Te2-  Te168  1  0.25061568  0.75601790  0.92008181  1
  Te2-  Te169  1  0.58494200  0.08065531  0.25190631  1
  Te2-  Te170  1  0.58323902  0.07366298  0.58711040  1
  Te2-  Te171  1  0.58540369  0.08021097  0.91998107  1
  Te2-  Te172  1  0.58680632  0.41594469  0.24906869  1
  Te2-  Te173  1  0.58881520  0.41055265  0.58295792  1
  Te2-  Te174  1  0.58406901  0.41332660  0.91733874  1
  Te2-  Te175  1  0.58577372  0.74561793  0.26115885  1
  Te2-  Te176  1  0.58772816  0.74862137  0.58705184  1
  Te2-  Te177  1  0.58404751  0.74600941  0.92266187  1
  Te2-  Te178  1  0.92038280  0.08414293  0.25361288  1
  Te2-  Te179  1  0.92148529  0.08123632  0.58335089  1
  Te2-  Te180  1  0.91797414  0.08129266  0.91876856  1
  Te2-  Te181  1  0.91376554  0.41899408  0.25052024  1
  Te2-  Te182  1  0.91724240  0.41062415  0.58581555  1
  Te2-  Te183  1  0.91538457  0.41078862  0.92163558  1
  Te2-  Te184  1  0.91616077  0.74723580  0.24649315  1
  Te2-  Te185  1  0.91983069  0.74890280  0.58527867  1
  Te2-  Te186  1  0.92657849  0.74630414  0.91782832  1
  Te2-  Te187  1  0.07944698  0.25550348  0.24840870  1
  Te2-  Te188  1  0.08147858  0.24892474  0.58460719  1
  Te2-  Te189  1  0.08197484  0.25229310  0.92143525  1
  Te2-  Te190  1  0.08061374  0.58461277  0.25420652  1
  Te2-  Te191  1  0.07993272  0.58039276  0.58684795  1
  Te2-  Te192  1  0.08511729  0.59211771  0.92000915  1
  Te2-  Te193  1  0.07750825  0.91904010  0.25584616  1
  Te2-  Te194  1  0.08425770  0.91857085  0.58455185  1
  Te2-  Te195  1  0.07989315  0.92797395  0.91293240  1
  Te2-  Te196  1  0.41279767  0.25523995  0.25398647  1
  Te2-  Te197  1  0.41730633  0.25262352  0.59050126  1
  Te2-  Te198  1  0.41691405  0.25460568  0.91612917  1
  Te2-  Te199  1  0.41027830  0.58233454  0.25127732  1
  Te2-  Te200  1  0.41808257  0.58456780  0.58891929  1
  Te2-  Te201  1  0.41485285  0.58605565  0.91385197  1
  Te2-  Te202  1  0.41062042  0.91890138  0.25270617  1
  Te2-  Te203  1  0.41582833  0.92276547  0.58887478  1
  Te2-  Te204  1  0.41214150  0.91480772  0.92759285  1
  Te2-  Te205  1  0.74635569  0.25447232  0.25148562  1
  Te2-  Te206  1  0.74612395  0.24879805  0.58274591  1
  Te2-  Te207  1  0.74614399  0.24963460  0.91938436  1
  Te2-  Te208  1  0.74609240  0.59012930  0.25821278  1
  Te2-  Te209  1  0.74975553  0.58583555  0.58653743  1
  Te2-  Te210  1  0.74096854  0.58584790  0.91301581  1
  Te2-  Te211  1  0.74694519  0.92051377  0.25076962  1
  Te2-  Te212  1  0.74820838  0.91800941  0.58852535  1
  Te2-  Te213  1  0.74940884  0.91378881  0.91814341  1
  Te2-  Te214  1  0.07274898  0.08489431  0.07683759  1
  Te2-  Te215  1  0.08615270  0.08353739  0.41179012  1
  Te2-  Te216  1  0.08316379  0.08779625  0.74901498  1
  Te2-  Te217  1  0.07373450  0.41367769  0.08235527  1
  Te2-  Te218  1  0.08249222  0.41009949  0.41821253  1
  Te2-  Te219  1  0.08173040  0.41755004  0.74836040  1
  Te2-  Te220  1  0.07993784  0.74761335  0.07759944  1
  Te2-  Te221  1  0.08277150  0.74375080  0.41885978  1
  Te2-  Te222  1  0.08329782  0.75433373  0.74517419  1
  Te2-  Te223  1  0.41264809  0.07801993  0.08413532  1
  Te2-  Te224  1  0.40695668  0.07913713  0.41343696  1
  Te2-  Te225  1  0.41464567  0.07877089  0.74360873  1
  Te2-  Te226  1  0.41555179  0.41259259  0.07786532  1
  Te2-  Te227  1  0.41465855  0.41602805  0.41318303  1
  Te2-  Te228  1  0.41325477  0.41207298  0.74406972  1
  Te2-  Te229  1  0.41509137  0.74440100  0.08759079  1
  Te2-  Te230  1  0.41425829  0.74744260  0.41847513  1
  Te2-  Te231  1  0.41340858  0.74601824  0.74726752  1
  Te2-  Te232  1  0.74672843  0.08117710  0.08291959  1
  Te2-  Te233  1  0.74956673  0.07739501  0.40812143  1
  Te2-  Te234  1  0.74548652  0.07669285  0.74932030  1
  Te2-  Te235  1  0.74642761  0.42114937  0.07978278  1
  Te2-  Te236  1  0.74760815  0.41460302  0.41439572  1
  Te2-  Te237  1  0.74959997  0.41028207  0.74585557  1
  Te2-  Te238  1  0.73966385  0.74991927  0.07310280  1
  Te2-  Te239  1  0.74963386  0.74768925  0.41652026  1
  Te2-  Te240  1  0.75139656  0.74339727  0.74751207  1
